### 
### Created by X-TOOL on Mon Aug  2 16:14:55 2021
### 

@<TRIPOS>MOLECULE
6mlh_ligand
   29    29     1     0     0
SMALL
GAST_HUCK


@<TRIPOS>ATOM
      1 C1         25.8880   51.4220   15.0950 C.3       1 GPM         0.1024
      2 C2         25.7420   52.6580   15.9850 C.3       1 GPM         0.1109
      3 C3         27.0390   53.3590   16.1750 C.3       1 GPM         0.1118
      4 C4         28.0610   52.4220   16.7430 C.3       1 GPM         0.1117
      5 C5         28.2240   51.2180   15.8310 C.3       1 GPM         0.1104
      6 C6         29.2450   50.2850   16.4420 C.3       1 GPM         0.0729
      7 C7         26.2890   51.8000   13.7350 C.3       1 GPM         0.0483
      8 O2         24.7320   53.5470   15.4430 O.3       1 GPM        -0.3865
      9 O3         26.8700   54.4660   17.0850 O.3       1 GPM        -0.3865
     10 O4         29.3400   53.0630   16.8810 O.3       1 GPM        -0.3865
     11 O5         26.9450   50.5120   15.6360 O.3       1 GPM        -0.3644
     12 O6         28.6110   49.5220   17.4990 O.3       1 GPM        -0.3924
     13 P          24.8770   51.9440   12.5580 P.3       1 GPM         0.0604
     14 O1P        25.4280   52.4680   11.2520 O.co2     1 GPM        -0.5622
     15 O2P        23.8450   52.8960   13.1210 O.co2     1 GPM        -0.5622
     16 O3P        24.2590   50.6090   12.3320 O.co2     1 GPM        -0.5622
     17 H1         24.9252   50.8911   15.0605 H         1 GPM         0.0637
     18 H2         25.3993   52.3213   16.9745 H         1 GPM         0.0646
     19 H3         27.3904   53.7350   15.2028 H         1 GPM         0.0647
     20 H4         27.7199   52.0852   17.7330 H         1 GPM         0.0647
     21 H5         28.5884   51.5602   14.8512 H         1 GPM         0.0646
     22 H6         30.0780   50.8707   16.8581 H         1 GPM         0.0584
     23 H7         29.6275   49.6002   15.6708 H         1 GPM         0.0584
     24 H8         26.9829   51.0368   13.3529 H         1 GPM         0.0477
     25 H9         26.8023   52.7718   13.7819 H         1 GPM         0.0477
     26 H10        23.9177   53.0702   15.3338 H         1 GPM         0.2100
     27 H11        27.6992   54.9174   17.1902 H         1 GPM         0.2100
     28 H12        29.2543   53.8192   17.4496 H         1 GPM         0.2100
     29 H13        27.8915   49.0185   17.1367 H         1 GPM         0.2095
@<TRIPOS>BOND
     1    1    2 1  
     2    1    7 1  
     3    1   11 1  
     4    2    3 1  
     5    2    8 1  
     6    3    4 1  
     7    3    9 1  
     8    4    5 1  
     9    4   10 1  
    10    5    6 1  
    11    5   11 1  
    12    6   12 1  
    13    7   13 1  
    14   13   14 ar 
    15   13   15 ar 
    16   13   16 ar 
    17    1   17 1  
    18    2   18 1  
    19    3   19 1  
    20    4   20 1  
    21    5   21 1  
    22    6   22 1  
    23    6   23 1  
    24    7   24 1  
    25    7   25 1  
    26    8   26 1  
    27    9   27 1  
    28   10   28 1  
    29   12   29 1  
@<TRIPOS>SUBSTRUCTURE
     1 GPM         1

