6mlh_ligand
  -I-interpret- 

 31 31  0  0  0  0  0  0  0  0999 V2000
   25.8880   51.4220   15.0950 C   0  0  0  0  0
   25.7420   52.6580   15.9850 C   0  0  0  0  0
   27.0390   53.3590   16.1750 C   0  0  0  0  0
   28.0610   52.4220   16.7430 C   0  0  0  0  0
   28.2240   51.2180   15.8310 C   0  0  0  0  0
   29.2450   50.2850   16.4420 C   0  0  0  0  0
   26.2890   51.8000   13.7350 C   0  0  0  0  0
   24.7320   53.5470   15.4430 O   0  0  0  0  0
   26.8700   54.4660   17.0850 O   0  0  0  0  0
   29.3400   53.0630   16.8810 O   0  0  0  0  0
   26.9450   50.5120   15.6360 O   0  0  0  0  0
   28.6110   49.5220   17.4990 O   0  0  0  0  0
   24.8770   51.9440   12.5580 P   0  0  0  0  0
   25.4280   52.4680   11.2520 O   0  0  0  0  0
   23.8450   52.8960   13.1210 O   0  0  0  0  0
   24.2590   50.6090   12.3320 O   0  0  0  0  0
   24.9198   50.9216   15.0769 H   0  0  0  0  0
   25.4180   52.3280   16.9720 H   0  0  0  0  0
   27.3774   53.7219   15.2045 H   0  0  0  0  0
   27.7100   52.1114   17.7271 H   0  0  0  0  0
   28.5606   51.5588   14.8519 H   0  0  0  0  0
   30.0738   50.8628   16.8510 H   0  0  0  0  0
   29.6290   49.6083   15.6786 H   0  0  0  0  0
   26.9471   51.0162   13.3598 H   0  0  0  0  0
   26.7635   52.7794   13.7958 H   0  0  0  0  0
   23.9091   53.0651   15.3326 H   0  0  0  0  0
   26.2165   55.0733   16.7305 H   0  0  0  0  0
   29.2534   53.8272   17.4556 H   0  0  0  0  0
   29.2535   48.9268   17.8921 H   0  0  0  0  0
   25.8269   53.3291   11.3968 H   0  0  0  0  0
   24.2486   53.7551   13.2648 H   0  0  0  0  0
  1  2  1  0  0  0
  1  7  1  0  0  0
  1 11  1  0  0  0
  2  3  1  0  0  0
  2  8  1  0  0  0
  3  4  1  0  0  0
  3  9  1  0  0  0
  4  5  1  0  0  0
  4 10  1  0  0  0
  5  6  1  0  0  0
  5 11  1  0  0  0
  6 12  1  0  0  0
  7 13  1  0  0  0
 13 14  1  0  0  0
 13 15  1  0  0  0
 13 16  2  0  0  0
  1 17  1  0  0  0
  2 18  1  0  0  0
  3 19  1  0  0  0
  4 20  1  0  0  0
  5 21  1  0  0  0
  6 22  1  0  0  0
  6 23  1  0  0  0
  7 24  1  0  0  0
  7 25  1  0  0  0
  8 26  1  0  0  0
  9 27  1  0  0  0
 10 28  1  0  0  0
 12 29  1  0  0  0
 14 30  1  0  0  0
 15 31  1  0  0  0
M  END
$$$$
