4xjt_ligand
  -I-interpret- 

 45 47  0  0  0  0  0  0  0  0999 V2000
   -2.3530  -21.7370   16.0170 C   0  0  0  0  0
   -5.0770  -23.7560   18.5380 C   0  0  0  0  0
   -6.8870  -23.7180   16.8830 C   0  0  0  0  0
   -7.1550  -18.6790   14.9210 C   0  0  0  0  0
   -8.0110  -17.5580   12.5630 C   0  0  0  0  0
   -8.5070  -16.8660   11.3550 C   0  0  0  0  0
   -7.3430  -18.7810   12.5050 C   0  0  0  0  0
   -6.2030  -21.2470   10.0830 C   0  0  0  0  0
   -6.4560  -20.5710   11.3850 C   0  0  0  0  0
   -6.0190  -21.1570   12.5530 C   0  0  0  0  0
   -6.2490  -20.5340   13.7630 C   0  0  0  0  0
   -5.8390  -21.0580   15.0280 N   0  0  0  0  0
   -5.0880  -22.3170   15.0280 C   0  0  0  0  0
   -4.6330  -22.7210   16.4090 C   0  0  0  0  0
   -3.3480  -22.4430   16.8590 C   0  0  0  0  0
   -2.9420  -22.8170   18.1260 C   0  0  0  0  0
   -3.8010  -23.4800   18.9780 C   0  0  0  0  0
   -5.4920  -23.3850   17.2740 C   0  0  0  0  0
   -6.9210  -19.3260   13.7200 C   0  0  0  0  0
   -7.8150  -17.4750   14.9430 C   0  0  0  0  0
   -8.2430  -16.9140   13.7590 C   0  0  0  0  0
   -8.4090  -17.3330   10.2340 O   0  0  0  0  0
   -9.0780  -15.6540   11.6140 N   0  0  0  0  0
   -7.1100  -19.4080   11.3400 N   0  0  0  0  0
   -2.1729  -22.3131   15.1094 H   0  0  0  0  0
   -2.7363  -20.7513   15.7532 H   0  0  0  0  0
   -1.4208  -21.6293   16.5715 H   0  0  0  0  0
   -5.7708  -24.2760   19.1986 H   0  0  0  0  0
   -7.0274  -24.7980   16.9271 H   0  0  0  0  0
   -7.5810  -23.2318   17.5686 H   0  0  0  0  0
   -7.0719  -23.3675   15.8676 H   0  0  0  0  0
   -6.8137  -19.1274   15.8540 H   0  0  0  0  0
   -5.1290  -21.3640    9.9385 H   0  0  0  0  0
   -6.6795  -22.2273   10.0854 H   0  0  0  0  0
   -6.6159  -20.6429    9.2751 H   0  0  0  0  0
   -5.4926  -22.1109   12.5215 H   0  0  0  0  0
   -6.0606  -20.5741   15.8981 H   0  0  0  0  0
   -4.2011  -22.1786   14.4096 H   0  0  0  0  0
   -5.7451  -23.0997   14.6489 H   0  0  0  0  0
   -1.9296  -22.5850   18.4566 H   0  0  0  0  0
   -3.4779  -23.7783   19.9753 H   0  0  0  0  0
   -7.9990  -16.9668   15.8896 H   0  0  0  0  0
   -8.7666  -15.9580   13.7687 H   0  0  0  0  0
   -9.4490  -15.0910   10.8486 H   0  0  0  0  0
   -9.1338  -15.3110   12.5730 H   0  0  0  0  0
 15  1  1  0  0  0
  2 17  4  0  0  0
 18  2  4  0  0  0
 18  3  1  0  0  0
 19  4  4  0  0  0
  4 20  4  0  0  0
  5  6  1  0  0  0
  7  5  4  0  0  0
  5 21  4  0  0  0
  6 22  2  0  0  0
  6 23  1  0  0  0
 19  7  4  0  0  0
  7 24  4  0  0  0
  9  8  1  0  0  0
 10  9  4  0  0  0
  9 24  4  0  0  0
 11 10  4  0  0  0
 12 11  1  0  0  0
 11 19  4  0  0  0
 13 12  1  0  0  0
 14 13  1  0  0  0
 14 15  4  0  0  0
 14 18  4  0  0  0
 15 16  4  0  0  0
 16 17  4  0  0  0
 20 21  4  0  0  0
  1 25  1  0  0  0
  1 26  1  0  0  0
  1 27  1  0  0  0
  2 28  1  0  0  0
  3 29  1  0  0  0
  3 30  1  0  0  0
  3 31  1  0  0  0
  4 32  1  0  0  0
  8 33  1  0  0  0
  8 34  1  0  0  0
  8 35  1  0  0  0
 10 36  1  0  0  0
 12 37  1  0  0  0
 13 38  1  0  0  0
 13 39  1  0  0  0
 16 40  1  0  0  0
 17 41  1  0  0  0
 20 42  1  0  0  0
 21 43  1  0  0  0
 23 44  1  0  0  0
 23 45  1  0  0  0
M  END
$$$$
