6irt_ligand
  -I-interpret- 

 23 24  0  0  0  0  0  0  0  0999 V2000
  146.9120  144.1570  133.5250 C   0  0  0  0  0
  147.1640  142.5700  135.5020 C   0  0  0  0  0
  146.7950  142.6090  134.1460 C   0  0  0  0  0
  144.9530  141.7120  135.1980 C   0  0  0  0  0
  145.4340  142.1300  133.9850 C   0  0  0  0  0
  146.4410  141.0460  135.7050 C   0  0  0  0  0
  146.3290  143.1540  136.4050 C   0  0  0  0  0
  144.9680  142.6670  136.1980 C   0  0  0  0  0
  147.6950  141.7350  133.3930 N   0  3  0  0  0
  146.8890  144.3150  132.2750 O   0  0  0  0  0
  147.0240  145.1640  134.2740 O   0  0  0  0  0
  148.1876  142.9163  135.6450 H   0  0  0  0  0
  143.9792  141.2339  135.0915 H   0  0  0  0  0
  145.4216  141.2974  133.2817 H   0  0  0  0  0
  144.8072  142.9355  133.6025 H   0  0  0  0  0
  146.5159  140.5209  136.6572 H   0  0  0  0  0
  146.8523  140.1681  135.2067 H   0  0  0  0  0
  146.6301  143.8744  137.1656 H   0  0  0  0  0
  144.0921  143.0065  136.7508 H   0  0  0  0  0
  148.6546  142.0638  133.5000 H   0  0  0  0  0
  147.6189  140.7824  133.7495 H   0  0  0  0  0
  147.4366  141.7518  132.4064 H   0  0  0  0  0
  146.8001  143.4602  131.8471 H   0  0  0  0  0
  1  3  1  0  0  0
  1 10  1  0  0  0
  1 11  2  0  0  0
  3  2  1  0  0  0
  2  6  1  0  0  0
  2  7  1  0  0  0
  3  5  1  0  0  0
  3  9  1  0  0  0
  5  4  1  0  0  0
  4  6  1  0  0  0
  4  8  1  0  0  0
  7  8  2  0  0  0
  2 12  1  0  0  0
  4 13  1  0  0  0
  5 14  1  0  0  0
  5 15  1  0  0  0
  6 16  1  0  0  0
  6 17  1  0  0  0
  7 18  1  0  0  0
  8 19  1  0  0  0
  9 20  1  0  0  0
  9 21  1  0  0  0
  9 22  1  0  0  0
 10 23  1  0  0  0
M  END
$$$$
