1e1x_ligand
  -I-interpret- 

 35 36  0  0  0  0  0  0  0  0999 V2000
    2.1630   28.4110    7.1980 N   0  0  0  0  0
    1.2250   28.4780    8.1800 C   0  0  0  0  0
    0.9650   27.3090    8.8980 O   0  0  0  0  0
    1.9190   26.2340    8.6810 C   0  0  0  0  0
    1.6440   25.2190    9.7930 C   0  0  0  0  0
    0.1380   25.0120   10.0520 C   0  0  0  0  0
   -0.0450   24.0560   11.2680 C   0  0  0  0  0
    0.6520   22.6910   10.9410 C   0  0  0  0  0
    2.1770   22.9700   10.8330 C   0  0  0  0  0
    2.3790   23.8680    9.5680 C   0  0  0  0  0
    0.5130   29.7550    8.4910 C   0  0  0  0  0
   -0.4380   29.6840    9.5840 N   0  0  0  0  0
   -1.0670   30.7150    9.8740 O   0  0  0  0  0
    0.8580   30.8220    7.7690 C   0  0  0  0  0
    0.3240   31.9930    7.9600 N   0  0  0  0  0
    1.8720   30.6210    6.7240 N   0  0  0  0  0
    2.4880   29.5500    6.4660 C   0  0  0  0  0
    3.4110   29.4190    5.5470 N   0  0  0  0  0
    2.9463   26.5967    8.7141 H   0  0  0  0  0
    1.8029   25.7880    7.6932 H   0  0  0  0  0
    2.0616   25.6574   10.6994 H   0  0  0  0  0
   -0.3286   24.5749    9.1692 H   0  0  0  0  0
   -0.3318   25.9718   10.2669 H   0  0  0  0  0
   -1.1064   23.8947   11.4565 H   0  0  0  0  0
    0.4035   24.4977   12.1578 H   0  0  0  0  0
    0.2697   22.2780   10.0075 H   0  0  0  0  0
    0.4495   21.9589   11.7228 H   0  0  0  0  0
    2.7375   22.0395   10.7432 H   0  0  0  0  0
    2.5454   23.4706   11.7284 H   0  0  0  0  0
    3.4421   24.0473    9.4072 H   0  0  0  0  0
    1.9721   23.3670    8.6896 H   0  0  0  0  0
   -0.3849   32.1185    8.6826 H   0  0  0  0  0
    0.6142   32.7855    7.3871 H   0  0  0  0  0
    3.8549   28.5132    5.3955 H   0  0  0  0  0
    3.6863   30.2227    4.9825 H   0  0  0  0  0
  1 17  4  0  0  0
  1  2  4  0  0  0
  2 11  4  0  0  0
  2  3  1  0  0  0
  3  4  1  0  0  0
  4  5  1  0  0  0
  5 10  1  0  0  0
  5  6  1  0  0  0
  6  7  1  0  0  0
  7  8  1  0  0  0
  8  9  1  0  0  0
  9 10  1  0  0  0
 11 14  4  0  0  0
 11 12  1  0  0  0
 12 13  2  0  0  0
 14 16  4  0  0  0
 14 15  1  0  0  0
 16 17  4  0  0  0
 17 18  1  0  0  0
  4 19  1  0  0  0
  4 20  1  0  0  0
  5 21  1  0  0  0
  6 22  1  0  0  0
  6 23  1  0  0  0
  7 24  1  0  0  0
  7 25  1  0  0  0
  8 26  1  0  0  0
  8 27  1  0  0  0
  9 28  1  0  0  0
  9 29  1  0  0  0
 10 30  1  0  0  0
 10 31  1  0  0  0
 15 32  1  0  0  0
 15 33  1  0  0  0
 18 34  1  0  0  0
 18 35  1  0  0  0
M  END
$$$$
