1gyy_ligand
  -I-interpret- 

 20 20  0  0  0  0  0  0  0  0999 V2000
   12.1640    2.4570   -4.4480 C   0  0  0  0  0
   12.4360    1.4470   -3.4280 C   0  0  0  0  0
   13.4880    1.3100   -2.6160 C   0  0  0  0  0
   14.6510    2.1900   -2.5690 C   0  0  0  0  0
   15.7850    1.7830   -2.4520 O   0  0  0  0  0
   14.3920    3.5010   -2.7030 O   0  0  0  0  0
   13.1750    2.9500   -5.2850 C   0  0  0  0  0
   12.9230    3.8910   -6.2590 C   0  0  0  0  0
   11.6220    4.3610   -6.4280 C   0  0  0  0  0
   11.3540    5.3150   -7.3740 O   0  0  0  0  0
   10.6230    3.8720   -5.6120 C   0  0  0  0  0
   10.8590    2.9250   -4.6370 C   0  0  0  0  0
   13.5340    0.2590   -1.7540 F   0  0  0  0  0
   11.6617    0.6888   -3.3116 H   0  0  0  0  0
   13.4443    3.6323   -2.7824 H   0  0  0  0  0
   14.1918    2.5772   -5.1612 H   0  0  0  0  0
   13.7307    4.2631   -6.8893 H   0  0  0  0  0
   10.4173    5.5247   -7.3589 H   0  0  0  0  0
    9.6084    4.2482   -5.7426 H   0  0  0  0  0
   10.0413    2.5471   -4.0232 H   0  0  0  0  0
  1 12  4  0  0  0
  1  7  4  0  0  0
  1  2  1  0  0  0
  2  3  2  0  0  0
  3  4  1  0  0  0
  4  6  1  0  0  0
  4  5  2  0  0  0
  7  8  4  0  0  0
  8  9  4  0  0  0
  9 11  4  0  0  0
  9 10  1  0  0  0
 11 12  4  0  0  0
  3 13  1  0  0  0
  2 14  1  0  0  0
  6 15  1  0  0  0
  7 16  1  0  0  0
  8 17  1  0  0  0
 10 18  1  0  0  0
 11 19  1  0  0  0
 12 20  1  0  0  0
M  END
$$$$
