3t0w_ligand
  -I-interpret- 

 62 65  0  0  0  0  0  0  0  0999 V2000
  -19.0910   -1.2140  -17.8120 C   0  0  0  0  0
  -18.7750   -1.1180  -15.4250 C   0  0  0  0  0
  -19.6120   -1.0940  -16.5290 C   0  0  0  0  0
  -20.8710   -0.9490  -16.0780 N   0  3  0  0  0
  -20.9150   -0.8840  -14.7350 C   0  0  0  0  0
  -19.5310   -0.9630  -14.1490 C   0  0  0  0  0
  -22.1870   -0.7180  -13.9180 C   0  0  0  0  0
  -22.1590   -0.6190  -12.4120 C   0  0  0  0  0
  -23.3600   -0.5440  -11.8210 C   0  0  0  0  0
  -23.5090   -0.4280  -10.3530 C   0  0  0  0  0
  -24.7590   -0.4260   -9.7270 C   0  0  0  0  0
  -24.8230   -0.3090   -8.3410 C   0  0  0  0  0
  -23.7040   -0.1830   -7.6110 N   0  0  0  0  0
  -22.4990   -0.1750   -8.1920 C   0  0  0  0  0
  -22.3690   -0.2990   -9.5710 C   0  0  0  0  0
  -26.0600   -0.3140   -7.6980 C   0  0  0  0  0
  -27.2320   -0.4380   -8.4340 C   0  0  0  0  0
  -27.1740   -0.5630   -9.8190 C   0  0  0  0  0
  -25.9370   -0.5580  -10.4600 C   0  0  0  0  0
  -23.7960   -0.0570   -6.1500 C   0  0  0  0  0
  -23.9460   -1.4360   -5.5130 C   0  0  0  0  0
  -23.8060   -1.3880   -3.9920 C   0  0  0  0  0
  -25.0910   -0.5860   -3.3060 S   0  0  0  0  0
  -19.2880   -2.1740  -13.2570 C   0  0  0  0  0
  -19.1320    0.3340  -13.4570 C   0  0  0  0  0
  -22.0830   -0.8870  -16.9310 C   0  0  0  0  0
  -17.7210   -1.3590  -17.9950 C   0  0  0  0  0
  -25.2990   -1.0880   -1.9270 O   0  0  0  0  0
  -16.8770   -1.3740  -16.8920 C   0  0  0  0  0
  -26.3160   -0.8230   -4.1000 O   0  0  0  0  0
  -17.4030   -1.2580  -15.6040 C   0  0  0  0  0
  -24.7930    0.8610   -3.2860 O   0  0  0  0  0
  -19.7570   -1.1944  -18.6747 H   0  0  0  0  0
  -22.7355   -1.6411  -14.1052 H   0  0  0  0  0
  -22.5703    0.2526  -14.2327 H   0  0  0  0  0
  -21.2281   -0.6092  -11.8451 H   0  0  0  0  0
  -24.2557   -0.5693  -12.4416 H   0  0  0  0  0
  -21.6062   -0.0698   -7.5756 H   0  0  0  0  0
  -21.3819   -0.2950  -10.0334 H   0  0  0  0  0
  -26.1080   -0.2202   -6.6131 H   0  0  0  0  0
  -28.1968   -0.4374   -7.9267 H   0  0  0  0  0
  -28.0913   -0.6642  -10.3990 H   0  0  0  0  0
  -25.8901   -0.6582  -11.5444 H   0  0  0  0  0
  -24.6652    0.5502   -5.8974 H   0  0  0  0  0
  -22.8879    0.4140   -5.7737 H   0  0  0  0  0
  -23.1579   -2.0784   -5.9059 H   0  0  0  0  0
  -24.9410   -1.8125   -5.7501 H   0  0  0  0  0
  -22.8867   -0.8594   -3.7401 H   0  0  0  0  0
  -23.7832   -2.4081   -3.6087 H   0  0  0  0  0
  -18.2293   -2.2306  -13.0038 H   0  0  0  0  0
  -19.8763   -2.0756  -12.3447 H   0  0  0  0  0
  -19.5851   -3.0792  -13.7866 H   0  0  0  0  0
  -19.7190    0.4540  -12.5464 H   0  0  0  0  0
  -18.0720    0.2989  -13.2055 H   0  0  0  0  0
  -19.3205    1.1739  -14.1256 H   0  0  0  0  0
  -22.7460   -1.7146  -16.6788 H   0  0  0  0  0
  -22.5983    0.0581  -16.7598 H   0  0  0  0  0
  -21.7922   -0.9591  -17.9790 H   0  0  0  0  0
  -17.3106   -1.4605  -18.9997 H   0  0  0  0  0
  -24.5052   -0.9355   -1.4090 H   0  0  0  0  0
  -15.8010   -1.4766  -17.0324 H   0  0  0  0  0
  -16.7391   -1.2771  -14.7397 H   0  0  0  0  0
  1  3  4  0  0  0
  1 27  4  0  0  0
  3  2  4  0  0  0
  2  6  1  0  0  0
  2 31  4  0  0  0
  3  4  1  0  0  0
  4  5  2  0  0  0
  4 26  1  0  0  0
  5  6  1  0  0  0
  5  7  1  0  0  0
  6 24  1  0  0  0
  6 25  1  0  0  0
  7  8  1  0  0  0
  8  9  2  0  0  0
  9 10  1  0  0  0
 10 11  4  0  0  0
 10 15  4  0  0  0
 11 12  4  0  0  0
 11 19  4  0  0  0
 12 13  4  0  0  0
 12 16  4  0  0  0
 13 14  4  0  0  0
 13 20  1  0  0  0
 14 15  4  0  0  0
 16 17  4  0  0  0
 17 18  4  0  0  0
 18 19  4  0  0  0
 20 21  1  0  0  0
 21 22  1  0  0  0
 22 23  1  0  0  0
 23 28  1  0  0  0
 23 30  2  0  0  0
 23 32  2  0  0  0
 27 29  4  0  0  0
 29 31  4  0  0  0
  1 33  1  0  0  0
  7 34  1  0  0  0
  7 35  1  0  0  0
  8 36  1  0  0  0
  9 37  1  0  0  0
 14 38  1  0  0  0
 15 39  1  0  0  0
 16 40  1  0  0  0
 17 41  1  0  0  0
 18 42  1  0  0  0
 19 43  1  0  0  0
 20 44  1  0  0  0
 20 45  1  0  0  0
 21 46  1  0  0  0
 21 47  1  0  0  0
 22 48  1  0  0  0
 22 49  1  0  0  0
 24 50  1  0  0  0
 24 51  1  0  0  0
 24 52  1  0  0  0
 25 53  1  0  0  0
 25 54  1  0  0  0
 25 55  1  0  0  0
 26 56  1  0  0  0
 26 57  1  0  0  0
 26 58  1  0  0  0
 27 59  1  0  0  0
 28 60  1  0  0  0
 29 61  1  0  0  0
 31 62  1  0  0  0
M  END
$$$$
