4zmf_ligand
  -I-interpret- 

 37 39  0  0  0  0  0  0  0  0999 V2000
  -23.3670   16.1530  -45.4960 P   0  0  0  0  0
  -24.7690   15.8070  -46.0360 O   0  0  0  0  0
  -22.8390   17.5240  -45.8550 O   0  0  0  0  0
  -23.1350   15.7910  -44.0340 O   0  0  0  0  0
  -22.3200   15.1970  -46.2910 O   0  0  0  0  0
  -22.5270   14.7590  -47.6390 C   0  0  0  0  0
  -22.7080   13.2370  -47.7020 C   0  0  0  0  0
  -21.4580   12.5710  -47.4800 O   0  0  0  0  0
  -23.6620   12.6470  -46.6840 C   0  0  0  0  0
  -25.0170   12.7070  -47.0910 O   0  0  0  0  0
  -23.1500   11.2310  -46.5950 C   0  0  0  0  0
  -23.6460   10.4310  -47.6680 O   0  0  0  0  0
  -21.6470   11.3530  -46.7560 C   0  0  0  0  0
  -20.8850   11.5380  -45.4990 N   0  0  0  0  0
  -21.0860   12.5200  -44.6020 C   0  0  0  0  0
  -20.2110   12.4360  -43.5890 N   0  0  0  0  0
  -19.4220   11.4010  -43.8450 C   0  0  0  0  0
  -18.2810   10.7920  -43.1690 C   0  0  0  0  0
  -17.8720   11.3230  -42.0200 N   0  0  0  0  0
  -17.6870    9.7170  -43.7090 N   0  0  0  0  0
  -18.1620    9.2190  -44.8750 C   0  0  0  0  0
  -19.2020    9.7390  -45.5530 N   0  0  0  0  0
  -19.8550   10.8140  -45.0990 C   0  0  0  0  0
  -25.0096   14.9214  -45.7542 H   0  0  0  0  0
  -23.4881   14.9149  -43.8625 H   0  0  0  0  0
  -21.6546   15.0319  -48.2328 H   0  0  0  0  0
  -23.4283   15.2343  -48.0262 H   0  0  0  0  0
  -23.1213   13.0785  -48.6981 H   0  0  0  0  0
  -23.6750   13.1817  -45.7342 H   0  0  0  0  0
  -25.5720   12.3206  -46.4097 H   0  0  0  0  0
  -23.4600   10.7634  -45.6605 H   0  0  0  0  0
  -23.3039    9.5379  -47.5845 H   0  0  0  0  0
  -21.2926   10.4310  -47.2169 H   0  0  0  0  0
  -21.8588   13.2840  -44.6872 H   0  0  0  0  0
  -18.3533   12.1350  -41.6335 H   0  0  0  0  0
  -17.0771   10.9182  -41.5255 H   0  0  0  0  0
  -17.6703    8.3400  -45.2917 H   0  0  0  0  0
  1  2  1  0  0  0
  1  3  2  0  0  0
  1  4  1  0  0  0
  1  5  1  0  0  0
  5  6  1  0  0  0
  6  7  1  0  0  0
  7  8  1  0  0  0
  7  9  1  0  0  0
  8 13  1  0  0  0
  9 10  1  0  0  0
  9 11  1  0  0  0
 11 12  1  0  0  0
 11 13  1  0  0  0
 13 14  1  0  0  0
 14 15  4  0  0  0
 14 23  4  0  0  0
 15 16  4  0  0  0
 16 17  4  0  0  0
 17 18  4  0  0  0
 17 23  4  0  0  0
 18 19  1  0  0  0
 18 20  4  0  0  0
 20 21  4  0  0  0
 21 22  4  0  0  0
 22 23  4  0  0  0
  2 24  1  0  0  0
  4 25  1  0  0  0
  6 26  1  0  0  0
  6 27  1  0  0  0
  7 28  1  0  0  0
  9 29  1  0  0  0
 10 30  1  0  0  0
 11 31  1  0  0  0
 12 32  1  0  0  0
 13 33  1  0  0  0
 15 34  1  0  0  0
 19 35  1  0  0  0
 19 36  1  0  0  0
 21 37  1  0  0  0
M  END
$$$$
