### 
### Created by X-TOOL on Mon Sep 10 21:13:24 2018
### 

@<TRIPOS>MOLECULE
4zmf_ligand
   35    37     1     0     0
SMALL
GAST_HUCK


@<TRIPOS>ATOM
      1 P         -23.3670   16.1530  -45.4960 P.3       1 AMP         0.2008
      2 O1P       -24.7690   15.8070  -46.0360 O.co2     1 AMP        -0.5537
      3 O2P       -22.8390   17.5240  -45.8550 O.co2     1 AMP        -0.5537
      4 O3P       -23.1350   15.7910  -44.0340 O.co2     1 AMP        -0.5537
      5 O5'       -22.3200   15.1970  -46.2910 O.3       1 AMP        -0.2734
      6 C5'       -22.5270   14.7590  -47.6390 C.3       1 AMP         0.1072
      7 C4'       -22.7080   13.2370  -47.7020 C.3       1 AMP         0.1182
      8 O4'       -21.4580   12.5710  -47.4800 O.3       1 AMP        -0.3365
      9 C3'       -23.6620   12.6470  -46.6840 C.3       1 AMP         0.1149
     10 O3'       -25.0170   12.7070  -47.0910 O.3       1 AMP        -0.3864
     11 C2'       -23.1500   11.2310  -46.5950 C.3       1 AMP         0.1385
     12 O2'       -23.6460   10.4310  -47.6680 O.3       1 AMP        -0.3836
     13 C1'       -21.6470   11.3530  -46.7560 C.3       1 AMP         0.2010
     14 N9        -20.8850   11.5380  -45.4990 N.pl3     1 AMP        -0.1919
     15 C8        -21.0860   12.5200  -44.6020 C.2       1 AMP         0.1123
     16 N7        -20.2110   12.4360  -43.5890 N.2       1 AMP        -0.2958
     17 C5        -19.4220   11.4010  -43.8450 C.ar      1 AMP         0.1045
     18 C6        -18.2810   10.7920  -43.1690 C.ar      1 AMP         0.1298
     19 N6        -17.8720   11.3230  -42.0200 N.pl3     1 AMP        -0.3152
     20 N1        -17.6870    9.7170  -43.7090 N.ar      1 AMP        -0.2698
     21 C2        -18.1620    9.2190  -44.8750 C.ar      1 AMP         0.0533
     22 N3        -19.2020    9.7390  -45.5530 N.ar      1 AMP        -0.2714
     23 C4        -19.8550   10.8140  -45.0990 C.ar      1 AMP         0.1613
     24 H1        -21.6554   15.0428  -48.2471 H         1 AMP         0.0639
     25 H2        -23.4283   15.2451  -48.0406 H         1 AMP         0.0639
     26 H3        -23.0794   12.9919  -48.7080 H         1 AMP         0.0650
     27 H4        -23.5649   13.1605  -45.7161 H         1 AMP         0.0648
     28 H5        -25.1249   12.2228  -47.9012 H         1 AMP         0.2100
     29 H6        -23.4170   10.7782  -45.6287 H         1 AMP         0.0676
     30 H7        -24.5953   10.4121  -47.6349 H         1 AMP         0.2101
     31 H8        -21.2579   10.4820  -47.3036 H         1 AMP         0.0996
     32 H9        -21.8581   13.2833  -44.6871 H         1 AMP         0.1349
     33 H10       -17.0693   10.9142  -41.5206 H         1 AMP         0.1820
     34 H11       -18.3580   12.1430  -41.6297 H         1 AMP         0.1820
     35 H12       -17.6730    8.3448  -45.2894 H         1 AMP         0.0996
@<TRIPOS>BOND
     1    1    2 ar 
     2    1    3 ar 
     3    1    4 ar 
     4    1    5 1  
     5    5    6 1  
     6    6    7 1  
     7    7    8 1  
     8    7    9 1  
     9    8   13 1  
    10    9   10 1  
    11    9   11 1  
    12   11   12 1  
    13   11   13 1  
    14   13   14 1  
    15   14   15 1  
    16   14   23 1  
    17   15   16 2  
    18   16   17 1  
    19   17   18 ar 
    20   17   23 ar 
    21   18   19 1  
    22   18   20 ar 
    23   20   21 ar 
    24   21   22 ar 
    25   22   23 ar 
    26    6   24 1  
    27    6   25 1  
    28    7   26 1  
    29    9   27 1  
    30   10   28 1  
    31   11   29 1  
    32   12   30 1  
    33   13   31 1  
    34   15   32 1  
    35   19   33 1  
    36   19   34 1  
    37   21   35 1  
@<TRIPOS>SUBSTRUCTURE
     1 AMP         1

