4y2t_ligand
  -I-interpret- 

 36 37  0  0  0  0  0  0  0  0999 V2000
  -11.0720   -5.0160   55.6690 C   0  0  0  0  0
  -12.0730   -5.9700   55.6690 C   0  0  0  0  0
  -10.6950   -4.4060   56.8480 C   0  0  0  0  0
  -12.6820   -6.3000   56.8590 C   0  0  0  0  0
  -11.2940   -4.7460   58.0410 C   0  0  0  0  0
  -17.4420   -6.5310   60.5770 C   0  0  0  0  0
  -16.1710   -4.9470   61.8840 C   0  0  0  0  0
  -16.3960   -6.5310   59.6780 C   0  0  0  0  0
  -15.1200   -4.9370   60.9870 C   0  0  0  0  0
  -17.3090   -5.7250   61.6810 C   0  0  0  0  0
  -12.2870   -5.7010   58.0420 C   0  0  0  0  0
  -15.2700   -5.7580   59.8900 C   0  0  0  0  0
  -18.4220   -5.7280   62.6400 C   0  0  0  0  0
  -12.9830   -6.0700   59.3090 C   0  0  0  0  0
  -17.9760   -6.6220   63.7730 C   0  0  0  0  0
  -18.1750   -8.0900   63.5230 C   0  0  0  0  0
  -17.8150   -8.6960   64.7660 O   0  0  0  0  0
  -14.3390   -5.8620   58.8920 O   0  0  0  0  0
  -10.5794   -4.7451   54.7352 H   0  0  0  0  0
  -12.3756   -6.4538   54.7403 H   0  0  0  0  0
   -9.9138   -3.6460   56.8351 H   0  0  0  0  0
  -13.4825   -7.0398   56.8692 H   0  0  0  0  0
  -10.9869   -4.2665   58.9705 H   0  0  0  0  0
  -18.3312   -7.1412   60.4189 H   0  0  0  0  0
  -16.1079   -4.3270   62.7782 H   0  0  0  0  0
  -16.4585   -7.1518   58.7842 H   0  0  0  0  0
  -14.2328   -4.3218   61.1367 H   0  0  0  0  0
  -19.3422   -6.0917   62.1828 H   0  0  0  0  0
  -18.6494   -4.7215   62.9912 H   0  0  0  0  0
  -12.6788   -5.4952   60.1837 H   0  0  0  0  0
  -12.7649   -7.0726   59.6770 H   0  0  0  0  0
  -18.5802   -6.3614   64.6420 H   0  0  0  0  0
  -16.9056   -6.4626   63.9029 H   0  0  0  0  0
  -17.5726   -8.4560   62.6916 H   0  0  0  0  0
  -19.1964   -8.3268   63.2249 H   0  0  0  0  0
  -17.9136   -9.6484   64.6968 H   0  0  0  0  0
  2  1  4  0  0  0
  3  1  4  0  0  0
  4  2  4  0  0  0
  5  3  4  0  0  0
 11  4  4  0  0  0
 11  5  4  0  0  0
  8  6  4  0  0  0
  6 10  4  0  0  0
  9  7  4  0  0  0
  7 10  4  0  0  0
 12  8  4  0  0  0
 12  9  4  0  0  0
 10 13  1  0  0  0
 14 11  1  0  0  0
 18 12  1  0  0  0
 13 15  1  0  0  0
 14 18  1  0  0  0
 15 16  1  0  0  0
 16 17  1  0  0  0
  1 19  1  0  0  0
  2 20  1  0  0  0
  3 21  1  0  0  0
  4 22  1  0  0  0
  5 23  1  0  0  0
  6 24  1  0  0  0
  7 25  1  0  0  0
  8 26  1  0  0  0
  9 27  1  0  0  0
 13 28  1  0  0  0
 13 29  1  0  0  0
 14 30  1  0  0  0
 14 31  1  0  0  0
 15 32  1  0  0  0
 15 33  1  0  0  0
 16 34  1  0  0  0
 16 35  1  0  0  0
 17 36  1  0  0  0
M  END
$$$$
