1tkt_ligand
  -I-interpret- 

 44 46  0  0  0  0  0  0  0  0999 V2000
    2.1270  -36.3630   22.7920 C   0  0  0  0  0
    3.6500  -35.9490   23.0730 C   0  0  0  0  0
    3.8040  -34.7460   24.0390 C   0  0  0  0  0
    3.1210  -35.0430   25.3880 C   0  0  0  0  0
    1.5990  -35.2470   25.1920 C   0  0  0  0  0
    1.2820  -36.3820   24.1780 C   0  0  0  0  0
    1.2040  -36.9740   17.8230 N   0  0  0  0  0
    2.4610  -37.4150   18.2550 C   0  0  0  0  0
    3.3780  -37.6170   17.4450 O   0  0  0  0  0
    2.6810  -37.5850   19.6970 C   0  0  0  0  0
    1.6630  -37.2820   20.5980 C   0  0  0  0  0
    1.8900  -37.5100   21.9700 O   0  0  0  0  0
    0.1980  -36.7050   18.7310 C   0  0  0  0  0
    0.4270  -36.8460   20.1360 C   0  0  0  0  0
   -0.6410  -36.5600   21.0330 C   0  0  0  0  0
   -1.8890  -36.1390   20.5620 C   0  0  0  0  0
   -2.1070  -36.0100   19.1860 C   0  0  0  0  0
   -1.0520  -36.2930   18.2630 C   0  0  0  0  0
   -3.1250  -35.7350   21.6560 Cl  0  0  0  0  0
    3.9630  -38.2680   20.1630 C   0  0  0  0  0
    3.8270  -39.7790   20.0660 C   0  0  0  0  0
    3.3490  -40.3840   21.3790 C   0  0  0  0  0
    1.7507  -35.5716   22.1438 H   0  0  0  0  0
    4.0888  -35.6576   22.1187 H   0  0  0  0  0
    4.1385  -36.8046   23.5392 H   0  0  0  0  0
    3.3345  -33.8705   23.5905 H   0  0  0  0  0
    4.8649  -34.5657   24.2123 H   0  0  0  0  0
    3.2816  -34.1995   26.0595 H   0  0  0  0  0
    3.5489  -35.9529   25.8088 H   0  0  0  0  0
    1.1806  -34.3189   24.8026 H   0  0  0  0  0
    1.1680  -35.5230   26.1544 H   0  0  0  0  0
    1.5383  -37.3163   24.6775 H   0  0  0  0  0
    0.2361  -36.2563   23.8981 H   0  0  0  0  0
    1.0290  -36.8499   16.8258 H   0  0  0  0  0
   -0.4833  -36.6711   22.1058 H   0  0  0  0  0
   -3.0825  -35.6933   18.8170 H   0  0  0  0  0
   -1.2237  -36.1870   17.1918 H   0  0  0  0  0
    4.1521  -37.9955   21.2013 H   0  0  0  0  0
    4.7874  -37.9452   19.5272 H   0  0  0  0  0
    4.8049  -40.1984   19.8293 H   0  0  0  0  0
    3.0938  -40.0099   19.2932 H   0  0  0  0  0
    4.0659  -40.1522   22.1667 H   0  0  0  0  0
    2.3759  -39.9661   21.6372 H   0  0  0  0  0
    3.2642  -41.4652   21.2698 H   0  0  0  0  0
  1  2  1  0  0  0
  1  6  1  0  0  0
 12  1  1  0  0  0
  2  3  1  0  0  0
  3  4  1  0  0  0
  5  4  1  0  0  0
  6  5  1  0  0  0
  8  7  1  0  0  0
  7 13  1  0  0  0
  8  9  2  0  0  0
 10  8  1  0  0  0
 11 10  2  0  0  0
 10 20  1  0  0  0
 11 12  1  0  0  0
 11 14  1  0  0  0
 13 14  4  0  0  0
 13 18  4  0  0  0
 14 15  4  0  0  0
 15 16  4  0  0  0
 16 17  4  0  0  0
 16 19  1  0  0  0
 17 18  4  0  0  0
 20 21  1  0  0  0
 21 22  1  0  0  0
  1 23  1  0  0  0
  2 24  1  0  0  0
  2 25  1  0  0  0
  3 26  1  0  0  0
  3 27  1  0  0  0
  4 28  1  0  0  0
  4 29  1  0  0  0
  5 30  1  0  0  0
  5 31  1  0  0  0
  6 32  1  0  0  0
  6 33  1  0  0  0
  7 34  1  0  0  0
 15 35  1  0  0  0
 17 36  1  0  0  0
 18 37  1  0  0  0
 20 38  1  0  0  0
 20 39  1  0  0  0
 21 40  1  0  0  0
 21 41  1  0  0  0
 22 42  1  0  0  0
 22 43  1  0  0  0
 22 44  1  0  0  0
M  END
$$$$
