4tn4_ligand
  -I-interpret- 

 51 55  0  0  0  0  0  0  0  0999 V2000
   12.6280    2.5120  -94.4070 F   0  0  0  0  0
   13.9530    2.3400  -94.3130 C   0  0  0  0  0
   14.5300    2.1880  -93.0550 C   0  0  0  0  0
   15.9090    2.0020  -92.9510 C   0  0  0  0  0
   16.6970    1.9700  -94.1060 C   0  0  0  0  0
   14.7330    2.3090  -95.4720 C   0  0  0  0  0
   16.1110    2.1160  -95.3670 C   0  0  0  0  0
   16.9690    2.0890  -96.5790 C   0  0  0  0  0
   16.6590    1.3060  -97.6920 C   0  0  0  0  0
   17.5230    1.3340  -98.7880 C   0  0  0  0  0
   17.2850    0.6570  -99.8540 C   0  0  0  0  0
   17.0900    0.0750 -100.8190 N   0  0  0  0  0
   18.6580    2.1460  -98.7850 C   0  0  0  0  0
   18.1060    2.8910  -96.5870 C   0  0  0  0  0
   18.9880    2.9310  -97.6740 C   0  0  0  0  0
   20.2270    3.8350  -97.6300 C   0  0  0  0  0
   19.8990    5.1080  -98.4410 C   0  0  0  0  0
   19.3430    5.0490  -99.6050 C   0  0  0  0  0
   18.8280    5.0250 -100.6670 N   0  0  0  0  0
   20.2010    6.3400  -97.9520 C   0  0  0  0  0
   20.2330    7.3950  -98.7720 N   0  0  0  0  0
   21.5530    3.2030  -98.0890 C   0  0  0  0  0
   21.5120    1.7490  -98.5310 C   0  0  0  0  0
   21.9940    2.1710  -99.9150 C   0  0  0  0  0
   22.0760    3.6180  -99.4620 C   0  0  0  0  0
   20.5220    4.1800  -96.1870 C   0  0  0  0  0
   20.7680    3.3800  -94.9390 C   0  0  0  0  0
   20.7600    1.8770  -94.7990 C   0  0  0  0  0
   20.9920    4.2550  -93.9210 N   0  0  0  0  0
   20.9230    5.6050  -94.3510 N   0  0  0  0  0
   20.6580    5.5370  -95.6710 C   0  0  0  0  0
   20.5060    6.5810  -96.5370 O   0  0  0  0  0
   13.9098    2.2141  -92.1590 H   0  0  0  0  0
   16.3713    1.8818  -91.9712 H   0  0  0  0  0
   17.7748    1.8304  -94.0226 H   0  0  0  0  0
   14.2688    2.4346  -96.4502 H   0  0  0  0  0
   15.7623    0.6865  -97.7051 H   0  0  0  0  0
   19.3003    2.1694  -99.6653 H   0  0  0  0  0
   18.3179    3.5106  -95.7156 H   0  0  0  0  0
   20.0308    7.2757  -99.7646 H   0  0  0  0  0
   20.4596    8.3194  -98.4052 H   0  0  0  0  0
   22.1036    3.4792  -97.1897 H   0  0  0  0  0
   20.5975    1.1662  -98.4210 H   0  0  0  0  0
   22.0526    0.9877  -97.9687 H   0  0  0  0  0
   21.4030    1.9135 -100.7939 H   0  0  0  0  0
   22.8707    1.6915 -100.3504 H   0  0  0  0  0
   23.0118    4.1698  -99.5503 H   0  0  0  0  0
   21.5724    4.4012 -100.0287 H   0  0  0  0  0
   19.7797    1.4924  -95.0803 H   0  0  0  0  0
   21.5207    1.4485  -95.4516 H   0  0  0  0  0
   20.9739    1.6086  -93.7644 H   0  0  0  0  0
  1  2  1  0  0  0
  2  3  4  0  0  0
  2  6  4  0  0  0
  3  4  4  0  0  0
  4  5  4  0  0  0
  5  7  4  0  0  0
  6  7  4  0  0  0
  7  8  1  0  0  0
  8  9  4  0  0  0
  8 14  4  0  0  0
  9 10  4  0  0  0
 10 11  1  0  0  0
 10 13  4  0  0  0
 11 12  3  0  0  0
 13 15  4  0  0  0
 14 15  4  0  0  0
 15 16  1  0  0  0
 16 17  1  0  0  0
 16 22  1  0  0  0
 16 26  1  0  0  0
 17 18  1  0  0  0
 17 20  2  0  0  0
 18 19  3  0  0  0
 20 21  1  0  0  0
 20 32  1  0  0  0
 22 23  1  0  0  0
 22 25  1  0  0  0
 23 24  1  0  0  0
 24 25  1  0  0  0
 26 27  4  0  0  0
 26 31  4  0  0  0
 27 28  1  0  0  0
 27 29  4  0  0  0
 29 30  4  0  0  0
 30 31  4  0  0  0
 31 32  1  0  0  0
  3 33  1  0  0  0
  4 34  1  0  0  0
  5 35  1  0  0  0
  6 36  1  0  0  0
  9 37  1  0  0  0
 13 38  1  0  0  0
 14 39  1  0  0  0
 21 40  1  0  0  0
 21 41  1  0  0  0
 22 42  1  0  0  0
 23 43  1  0  0  0
 23 44  1  0  0  0
 24 45  1  0  0  0
 24 46  1  0  0  0
 25 47  1  0  0  0
 25 48  1  0  0  0
 28 49  1  0  0  0
 28 50  1  0  0  0
 28 51  1  0  0  0
M  END
$$$$
