1pzj_ligand
  -I-interpret- 

 77 79  0  0  0  0  0  0  0  0999 V2000
  -10.9760   19.6570    1.9860 C   0  0  0  0  0
  -10.4630   19.4050    0.7320 O   0  0  0  0  0
  -10.9520   20.2910   -0.2710 C   0  0  0  0  0
  -10.6500   19.9520   -1.5700 C   0  0  0  0  0
  -11.1150   20.7800   -2.5730 C   0  0  0  0  0
  -10.8150   20.4610   -3.8340 N   0  0  0  0  0
  -11.2060   21.1640   -4.7400 O   0  0  0  0  0
  -10.1370   19.4710   -4.0820 O   0  0  0  0  0
  -11.8880   21.9110   -2.2760 C   0  0  0  0  0
  -12.2010   22.2330   -0.9470 C   0  0  0  0  0
  -11.7250   21.4040    0.0650 C   0  0  0  0  0
  -12.9540   23.3550   -0.5700 C   0  0  0  0  0
  -12.9790   24.3220   -1.3500 N   0  0  0  0  0
  -13.7200   25.5440   -1.1160 C   0  0  0  0  0
  -14.8290   25.4360   -2.1560 C   0  0  0  0  0
  -16.2040   25.1670   -1.5850 C   0  0  0  0  0
  -17.1010   25.8600   -2.1590 N   0  3  0  0  0
  -16.6480   27.2360   -2.3500 C   0  0  0  0  0
  -17.7300   28.0990   -2.9730 C   0  0  0  0  0
  -18.8690   28.1620   -2.0810 N   0  3  0  0  0
  -19.6530   29.0580   -2.3660 C   0  0  0  0  0
  -19.4070   30.1630   -1.7890 C   0  0  0  0  0
  -18.7040   31.2090   -2.6420 C   0  0  0  0  0
  -19.1070   32.5640   -2.2970 N   0  3  0  0  0
  -19.4290   26.8090   -2.0160 C   0  0  0  0  0
  -18.3840   25.8290   -1.4570 C   0  0  0  0  0
  -13.5190   23.4470    0.5270 O   0  0  0  0  0
  -10.6960   18.4020    2.7780 C   0  0  0  0  0
  -11.4640   17.3440    2.2180 O   0  0  0  0  0
  -11.0570   18.6920    4.2280 C   0  0  0  0  0
  -10.7090   17.5600    5.0010 O   0  0  0  0  0
  -10.3460   19.9500    4.7380 C   0  0  0  0  0
   -8.9530   19.6760    4.8630 O   0  0  0  0  0
  -10.6330   21.1250    3.8190 C   0  0  0  0  0
   -9.8630   22.3850    4.1990 C   0  0  0  0  0
  -10.2800   23.4870    3.3870 O   0  0  0  0  0
  -10.2610   20.7680    2.4880 O   0  0  0  0  0
  -12.0414   19.8852    2.0164 H   0  0  0  0  0
  -10.0646   19.0616   -1.7993 H   0  0  0  0  0
  -12.2491   22.5460   -3.0850 H   0  0  0  0  0
  -11.9533   21.6215    1.1084 H   0  0  0  0  0
  -12.4411   24.2502   -2.2137 H   0  0  0  0  0
  -13.1153   26.4453   -1.2172 H   0  0  0  0  0
  -14.0893   25.6398   -0.0950 H   0  0  0  0  0
  -14.5809   24.5916   -2.7991 H   0  0  0  0  0
  -14.8796   26.3969   -2.6680 H   0  0  0  0  0
  -16.1923   25.4324   -0.5279 H   0  0  0  0  0
  -16.4368   24.1133   -1.7383 H   0  0  0  0  0
  -17.2593   25.4327   -3.0715 H   0  0  0  0  0
  -15.7878   27.2256   -3.0194 H   0  0  0  0  0
  -16.3932   27.6531   -1.3757 H   0  0  0  0  0
  -18.0371   27.6663   -3.9251 H   0  0  0  0  0
  -17.3426   29.1041   -3.1397 H   0  0  0  0  0
  -18.5926   28.4370   -1.1385 H   0  0  0  0  0
  -20.6427   28.7370   -2.0412 H   0  0  0  0  0
  -19.5723   29.2288   -3.4395 H   0  0  0  0  0
  -18.7351   29.9367   -0.9611 H   0  0  0  0  0
  -20.3714   30.5881   -1.5109 H   0  0  0  0  0
  -18.9713   31.0314   -3.6837 H   0  0  0  0  0
  -17.6313   31.1208   -2.4697 H   0  0  0  0  0
  -18.6113   33.2270   -2.8929 H   0  0  0  0  0
  -20.1123   32.6646   -2.4373 H   0  0  0  0  0
  -18.8789   32.7469   -1.3198 H   0  0  0  0  0
  -19.7150   26.4923   -3.0190 H   0  0  0  0  0
  -20.3001   26.8142   -1.3609 H   0  0  0  0  0
  -18.1930   26.1162   -0.4230 H   0  0  0  0  0
  -18.7903   24.8241   -1.5717 H   0  0  0  0  0
   -9.6493   18.1001    2.7406 H   0  0  0  0  0
  -11.1968   17.2038    1.3067 H   0  0  0  0  0
  -12.1268   18.8840    4.3107 H   0  0  0  0  0
  -10.9290   17.7224    5.9212 H   0  0  0  0  0
  -10.7219   20.2277    5.7227 H   0  0  0  0  0
   -8.5011   20.4605    5.1823 H   0  0  0  0  0
  -11.6970   21.3449    3.9063 H   0  0  0  0  0
   -8.7983   22.2115    4.0431 H   0  0  0  0  0
  -10.0597   22.6198    5.2451 H   0  0  0  0  0
   -9.7873   24.2720    3.6374 H   0  0  0  0  0
  1  2  1  0  0  0
  1 28  1  0  0  0
  1 37  1  0  0  0
  2  3  1  0  0  0
  3  4  4  0  0  0
  3 11  4  0  0  0
  4  5  4  0  0  0
  5  6  1  0  0  0
  5  9  4  0  0  0
  6  7  2  0  0  0
  6  8  2  0  0  0
  9 10  4  0  0  0
 10 11  4  0  0  0
 10 12  1  0  0  0
 12 13  1  0  0  0
 12 27  2  0  0  0
 13 14  1  0  0  0
 14 15  1  0  0  0
 15 16  1  0  0  0
 16 17  1  0  0  0
 17 18  1  0  0  0
 17 26  1  0  0  0
 18 19  1  0  0  0
 19 20  1  0  0  0
 20 21  1  0  0  0
 20 25  1  0  0  0
 21 22  1  0  0  0
 22 23  1  0  0  0
 23 24  1  0  0  0
 25 26  1  0  0  0
 28 29  1  0  0  0
 28 30  1  0  0  0
 30 31  1  0  0  0
 30 32  1  0  0  0
 32 33  1  0  0  0
 32 34  1  0  0  0
 34 35  1  0  0  0
 34 37  1  0  0  0
 35 36  1  0  0  0
  1 38  1  0  0  0
  4 39  1  0  0  0
  9 40  1  0  0  0
 11 41  1  0  0  0
 13 42  1  0  0  0
 14 43  1  0  0  0
 14 44  1  0  0  0
 15 45  1  0  0  0
 15 46  1  0  0  0
 16 47  1  0  0  0
 16 48  1  0  0  0
 17 49  1  0  0  0
 18 50  1  0  0  0
 18 51  1  0  0  0
 19 52  1  0  0  0
 19 53  1  0  0  0
 20 54  1  0  0  0
 21 55  1  0  0  0
 21 56  1  0  0  0
 22 57  1  0  0  0
 22 58  1  0  0  0
 23 59  1  0  0  0
 23 60  1  0  0  0
 24 61  1  0  0  0
 24 62  1  0  0  0
 24 63  1  0  0  0
 25 64  1  0  0  0
 25 65  1  0  0  0
 26 66  1  0  0  0
 26 67  1  0  0  0
 28 68  1  0  0  0
 29 69  1  0  0  0
 30 70  1  0  0  0
 31 71  1  0  0  0
 32 72  1  0  0  0
 33 73  1  0  0  0
 34 74  1  0  0  0
 35 75  1  0  0  0
 35 76  1  0  0  0
 36 77  1  0  0  0
M  END
$$$$
