6hhj_ligand
  -I-interpret- 

 83 89  0  0  0  0  0  0  0  0999 V2000
   15.8580  -11.8020   -6.9540 C   0  0  0  0  0
   15.4940  -10.4620   -6.9130 C   0  0  0  0  0
   15.6450   -9.6630   -8.0390 C   0  0  0  0  0
   16.1600  -10.2060   -9.2110 C   0  0  0  0  0
   16.5250  -11.5470   -9.2510 C   0  0  0  0  0
   16.3600  -12.3540   -8.1270 C   0  0  0  0  0
   16.7260  -13.7000   -8.1220 C   0  0  0  0  0
   17.5680  -14.1040   -7.0920 C   0  0  0  0  0
   17.9850  -15.4230   -7.0160 C   0  0  0  0  0
   18.8280  -15.8440   -5.9960 C   0  0  0  0  0
   19.2220  -15.0530   -5.1430 O   0  0  0  0  0
   19.2340  -17.1830   -5.9380 N   0  0  0  0  0
   18.8190  -18.0470   -6.8480 C   0  0  0  0  0
   17.9720  -17.6490   -7.8810 C   0  0  0  0  0
   17.5510  -16.3270   -7.9680 C   0  0  0  0  0
   16.7370  -15.9240   -8.9540 N   0  0  0  0  0
   16.3130  -14.6520   -9.0680 C   0  0  0  0  0
   15.4590  -14.3830  -10.1390 C   0  0  0  0  0
   14.1830  -13.8630   -9.9270 C   0  0  0  0  0
   13.3370  -13.6180  -11.0060 C   0  0  0  0  0
   15.8710  -14.6810  -11.4330 C   0  0  0  0  0
   15.0250  -14.4360  -12.5130 C   0  0  0  0  0
   13.7520  -13.9090  -12.3000 C   0  0  0  0  0
   12.8960  -13.6510  -13.3710 C   0  0  0  0  0
   12.5990  -14.8380  -14.1880 N   0  3  0  0  0
   11.4120  -15.5180  -13.6430 C   0  0  0  0  0
   10.9860  -16.7060  -14.5040 C   0  0  0  0  0
   12.2920  -14.3750  -15.5510 C   0  0  0  0  0
   11.9680  -15.5450  -16.4620 C   0  0  0  0  0
   10.7240  -16.2330  -15.9400 C   0  0  0  0  0
   10.3110  -17.3330  -16.8620 N   0  0  0  0  0
    9.2890  -17.3150  -17.7280 C   0  0  0  0  0
    8.3720  -16.3810  -18.0050 C   0  0  0  0  0
   10.9040  -18.5130  -17.0100 C   0  0  0  0  0
   11.8890  -18.9120  -16.3930 O   0  0  0  0  0
   10.2720  -19.2310  -17.9220 N   0  0  0  0  0
   10.6210  -20.5990  -18.3590 C   0  0  0  0  0
    9.2670  -18.4910  -18.3750 C   0  0  0  0  0
    8.3500  -18.7700  -19.2980 C   0  0  0  0  0
    7.3770  -17.8410  -19.6230 C   0  0  0  0  0
    7.3880  -16.6230  -18.9640 C   0  0  0  0  0
    6.4470  -15.7280  -19.2720 N   0  0  0  0  0
    5.5640  -15.4030  -18.3150 C   0  0  0  0  0
    5.5770  -15.8630  -17.1760 O   0  0  0  0  0
    4.4900  -14.4000  -18.7320 C   0  0  0  0  0
    4.3740  -14.1580  -20.2370 C   0  0  0  0  0
   15.7497  -12.4222   -6.0642 H   0  0  0  0  0
   15.0889  -10.0366   -5.9949 H   0  0  0  0  0
   15.3601   -8.6115   -8.0040 H   0  0  0  0  0
   16.2773   -9.5815  -10.0966 H   0  0  0  0  0
   16.9420  -11.9689  -10.1655 H   0  0  0  0  0
   17.8999  -13.3833   -6.3446 H   0  0  0  0  0
   19.1438  -19.0859   -6.7898 H   0  0  0  0  0
   17.0557  -18.2153   -7.7141 H   0  0  0  0  0
   18.5561  -17.8081   -8.7875 H   0  0  0  0  0
   13.8461  -13.6474   -8.9130 H   0  0  0  0  0
   12.3464  -13.1967  -10.8350 H   0  0  0  0  0
   16.8594  -15.1078  -11.6034 H   0  0  0  0  0
   15.3594  -14.6569  -13.5266 H   0  0  0  0  0
   13.3906  -12.9255  -14.0169 H   0  0  0  0  0
   11.9526  -13.2955  -12.9566 H   0  0  0  0  0
   13.3910  -15.4807  -14.1874 H   0  0  0  0  0
   10.5902  -14.8023  -13.6198 H   0  0  0  0  0
   11.6591  -15.8895  -12.6485 H   0  0  0  0  0
   10.0749  -17.1421  -14.0943 H   0  0  0  0  0
   11.7793  -17.4535  -14.5079 H   0  0  0  0  0
   13.1628  -13.8532  -15.9478 H   0  0  0  0  0
   11.4265  -13.7137  -15.5094 H   0  0  0  0  0
   12.8021  -16.2466  -16.4763 H   0  0  0  0  0
   11.7966  -15.1884  -17.4777 H   0  0  0  0  0
    9.8835  -15.5396  -15.9093 H   0  0  0  0  0
    8.3938  -15.4266  -17.4790 H   0  0  0  0  0
   11.6309  -20.6015  -18.7692 H   0  0  0  0  0
   10.5725  -21.2752  -17.5054 H   0  0  0  0  0
    9.9161  -20.9258  -19.1235 H   0  0  0  0  0
    8.3653  -19.7366  -19.8015 H   0  0  0  0  0
    6.6221  -18.0621  -20.3776 H   0  0  0  0  0
    6.4007  -15.3069  -20.1998 H   0  0  0  0  0
    4.7618  -13.4453  -18.2817 H   0  0  0  0  0
    3.5345  -14.8115  -18.4068 H   0  0  0  0  0
    5.3213  -13.7746  -20.6161 H   0  0  0  0  0
    4.1340  -15.0963  -20.7371 H   0  0  0  0  0
    3.5843  -13.4311  -20.4270 H   0  0  0  0  0
  1  2  4  0  0  0
  1  6  4  0  0  0
  2  3  4  0  0  0
  3  4  4  0  0  0
  4  5  4  0  0  0
  5  6  4  0  0  0
  6  7  1  0  0  0
  7  8  4  0  0  0
  7 17  4  0  0  0
  8  9  4  0  0  0
  9 10  1  0  0  0
  9 15  4  0  0  0
 10 11  2  0  0  0
 10 12  1  0  0  0
 12 13  2  0  0  0
 13 14  1  0  0  0
 14 15  1  0  0  0
 15 16  4  0  0  0
 16 17  4  0  0  0
 17 18  1  0  0  0
 18 19  4  0  0  0
 18 21  4  0  0  0
 19 20  4  0  0  0
 20 23  4  0  0  0
 21 22  4  0  0  0
 22 23  4  0  0  0
 23 24  1  0  0  0
 24 25  1  0  0  0
 25 26  1  0  0  0
 25 28  1  0  0  0
 26 27  1  0  0  0
 27 30  1  0  0  0
 28 29  1  0  0  0
 29 30  1  0  0  0
 30 31  1  0  0  0
 31 32  1  0  0  0
 31 34  1  0  0  0
 32 33  4  0  0  0
 32 38  4  0  0  0
 33 41  4  0  0  0
 34 35  2  0  0  0
 34 36  1  0  0  0
 36 37  1  0  0  0
 36 38  1  0  0  0
 38 39  4  0  0  0
 39 40  4  0  0  0
 40 41  4  0  0  0
 41 42  1  0  0  0
 42 43  1  0  0  0
 43 44  2  0  0  0
 43 45  1  0  0  0
 45 46  1  0  0  0
  1 47  1  0  0  0
  2 48  1  0  0  0
  3 49  1  0  0  0
  4 50  1  0  0  0
  5 51  1  0  0  0
  8 52  1  0  0  0
 13 53  1  0  0  0
 14 54  1  0  0  0
 14 55  1  0  0  0
 19 56  1  0  0  0
 20 57  1  0  0  0
 21 58  1  0  0  0
 22 59  1  0  0  0
 24 60  1  0  0  0
 24 61  1  0  0  0
 25 62  1  0  0  0
 26 63  1  0  0  0
 26 64  1  0  0  0
 27 65  1  0  0  0
 27 66  1  0  0  0
 28 67  1  0  0  0
 28 68  1  0  0  0
 29 69  1  0  0  0
 29 70  1  0  0  0
 30 71  1  0  0  0
 33 72  1  0  0  0
 37 73  1  0  0  0
 37 74  1  0  0  0
 37 75  1  0  0  0
 39 76  1  0  0  0
 40 77  1  0  0  0
 42 78  1  0  0  0
 45 79  1  0  0  0
 45 80  1  0  0  0
 46 81  1  0  0  0
 46 82  1  0  0  0
 46 83  1  0  0  0
M  END
$$$$
