3gjq_ligand
  -I-interpret- 

 77 79  0  0  0  0  0  0  0  0999 V2000
   43.7440   37.4850   58.6630 C   0  0  0  0  0
   44.8320   36.9860   58.3780 O   0  0  0  0  0
   43.3580   38.8360   58.1270 C   0  0  0  0  0
   42.8440   36.8850   59.4390 N   0  0  0  0  0
   43.0800   35.5770   60.0480 C   0  0  0  0  0
   42.4860   34.4100   59.2730 C   0  0  0  0  0
   43.1840   33.4510   58.9460 O   0  0  0  0  0
   42.5040   35.5360   61.4690 C   0  0  0  0  0
   43.2010   36.4280   62.4410 C   0  0  0  0  0
   42.8270   37.6870   62.8230 C   0  0  0  0  0
   44.4080   36.1400   63.1420 C   0  0  0  0  0
   43.7310   38.1980   63.7240 N   0  0  0  0  0
   44.7230   37.2580   63.9420 C   0  0  0  0  0
   45.2720   35.0280   63.1830 C   0  0  0  0  0
   45.8490   37.3200   64.7610 C   0  0  0  0  0
   46.3970   35.0800   63.9980 C   0  0  0  0  0
   46.6720   36.2180   64.7780 C   0  0  0  0  0
   41.1900   34.4940   58.9940 N   0  0  0  0  0
   40.4870   33.4300   58.2880 C   0  0  0  0  0
   40.1860   33.7150   56.8210 C   0  0  0  0  0
   40.3700   34.8320   56.3410 O   0  0  0  0  0
   39.1870   33.1200   59.0270 C   0  0  0  0  0
   39.4020   32.6480   60.4610 C   0  0  0  0  0
   38.2170   32.9530   61.3650 C   0  0  0  0  0
   37.0860   32.5150   61.0460 O   0  0  0  0  0
   38.4200   33.6300   62.3990 O   0  0  0  0  0
   39.7200   32.6860   56.1150 N   0  0  0  0  0
   39.3760   32.8040   54.6960 C   0  0  0  0  0
   37.9860   32.2600   54.3990 C   0  0  0  0  0
   37.3700   31.6060   55.2390 O   0  0  0  0  0
   40.3950   32.0630   53.8340 C   0  0  0  0  0
   40.6770   30.6760   54.3030 C   0  0  0  0  0
   41.6150   30.3970   55.2780 N   0  0  0  0  0
   40.1290   29.4840   53.9640 C   0  0  0  0  0
   41.6320   29.0990   55.5130 C   0  0  0  0  0
   40.7400   28.5210   54.7290 N   0  0  0  0  0
   37.5140   32.5140   53.1800 N   0  0  0  0  0
   36.1880   32.0800   52.7640 C   0  0  0  0  0
   36.2280   31.1400   51.5690 C   0  0  0  0  0
   34.9330   30.6340   51.1960 O   0  0  0  0  0
   35.3250   33.2940   52.4080 C   0  0  0  0  0
   34.6250   33.8810   53.6170 C   0  0  0  0  0
   34.2100   33.0950   54.4900 O   0  0  0  0  0
   34.4970   35.1180   53.6980 O   0  0  0  0  0
   44.0798   39.5794   58.4653 H   0  0  0  0  0
   43.3504   38.8046   57.0375 H   0  0  0  0  0
   42.3650   39.0998   58.4911 H   0  0  0  0  0
   41.9564   37.3555   59.6153 H   0  0  0  0  0
   44.1636   35.4590   60.0474 H   0  0  0  0  0
   42.6190   34.5147   61.8320 H   0  0  0  0  0
   41.4705   35.8766   61.4057 H   0  0  0  0  0
   41.9402   38.2098   62.4648 H   0  0  0  0  0
   45.0618   34.1411   62.5853 H   0  0  0  0  0
   46.0678   38.2029   65.3616 H   0  0  0  0  0
   47.0752   34.2274   64.0332 H   0  0  0  0  0
   47.5590   36.2267   65.4114 H   0  0  0  0  0
   40.6731   35.3250   59.2814 H   0  0  0  0  0
   41.1645   32.5761   58.2809 H   0  0  0  0  0
   38.6871   32.3152   58.4881 H   0  0  0  0  0
   38.6054   34.0409   59.0684 H   0  0  0  0  0
   40.2700   33.1735   60.8592 H   0  0  0  0  0
   39.5367   31.5666   60.4402 H   0  0  0  0  0
   37.1541   32.0254   60.2230 H   0  0  0  0  0
   39.5986   31.7854   56.5782 H   0  0  0  0  0
   39.3886   33.8671   54.4555 H   0  0  0  0  0
   41.3304   32.6206   53.8814 H   0  0  0  0  0
   39.9811   31.9902   52.8283 H   0  0  0  0  0
   39.3479   29.3199   53.2216 H   0  0  0  0  0
   42.2735   28.5898   56.2323 H   0  0  0  0  0
   38.0977   33.0269   52.5193 H   0  0  0  0  0
   35.7587   31.5367   53.6058 H   0  0  0  0  0
   36.8478   30.2863   51.8431 H   0  0  0  0  0
   36.6174   31.7032   50.7209 H   0  0  0  0  0
   35.0246   30.0499   50.4397 H   0  0  0  0  0
   34.5613   32.9689   51.7015 H   0  0  0  0  0
   35.9780   34.0610   51.9915 H   0  0  0  0  0
   34.8851   35.5302   52.9227 H   0  0  0  0  0
  1  2  2  0  0  0
  1  3  1  0  0  0
  1  4  1  0  0  0
  4  5  1  0  0  0
  5  6  1  0  0  0
  5  8  1  0  0  0
  6  7  2  0  0  0
  6 18  1  0  0  0
  8  9  1  0  0  0
  9 10  4  0  0  0
  9 11  4  0  0  0
 10 12  4  0  0  0
 11 13  4  0  0  0
 11 14  4  0  0  0
 12 13  4  0  0  0
 13 15  4  0  0  0
 14 16  4  0  0  0
 15 17  4  0  0  0
 16 17  4  0  0  0
 18 19  1  0  0  0
 19 20  1  0  0  0
 19 22  1  0  0  0
 20 21  2  0  0  0
 20 27  1  0  0  0
 22 23  1  0  0  0
 23 24  1  0  0  0
 24 25  1  0  0  0
 24 26  2  0  0  0
 27 28  1  0  0  0
 28 29  1  0  0  0
 28 31  1  0  0  0
 29 30  2  0  0  0
 29 37  1  0  0  0
 31 32  1  0  0  0
 32 33  4  0  0  0
 32 34  4  0  0  0
 33 35  4  0  0  0
 34 36  4  0  0  0
 35 36  4  0  0  0
 37 38  1  0  0  0
 38 39  1  0  0  0
 38 41  1  0  0  0
 39 40  1  0  0  0
 41 42  1  0  0  0
 42 43  2  0  0  0
 42 44  1  0  0  0
  3 45  1  0  0  0
  3 46  1  0  0  0
  3 47  1  0  0  0
  4 48  1  0  0  0
  5 49  1  0  0  0
  8 50  1  0  0  0
  8 51  1  0  0  0
 10 52  1  0  0  0
 14 53  1  0  0  0
 15 54  1  0  0  0
 16 55  1  0  0  0
 17 56  1  0  0  0
 18 57  1  0  0  0
 19 58  1  0  0  0
 22 59  1  0  0  0
 22 60  1  0  0  0
 23 61  1  0  0  0
 23 62  1  0  0  0
 25 63  1  0  0  0
 27 64  1  0  0  0
 28 65  1  0  0  0
 31 66  1  0  0  0
 31 67  1  0  0  0
 34 68  1  0  0  0
 35 69  1  0  0  0
 37 70  1  0  0  0
 38 71  1  0  0  0
 39 72  1  0  0  0
 39 73  1  0  0  0
 40 74  1  0  0  0
 41 75  1  0  0  0
 41 76  1  0  0  0
 44 77  1  0  0  0
M  END
$$$$
