1vcj_ligand
  -I-interpret- 

 53 54  0  0  0  0  0  0  0  0999 V2000
   33.9140   -9.4170   64.8000 C   0  0  0  0  0
   32.6210   -9.0360   64.3580 C   0  0  0  0  0
   31.5040   -9.8770   64.6320 C   0  0  0  0  0
   31.7220  -11.0950   65.3350 C   0  0  0  0  0
   33.0130  -11.4650   65.7570 C   0  0  0  0  0
   34.1040  -10.6170   65.4910 C   0  0  0  0  0
   33.2040  -12.7410   66.4500 C   0  0  0  0  0
   32.3210  -13.7140   66.1440 O   0  0  0  0  0
   34.1010  -12.9090   67.1950 O   0  0  0  0  0
   30.2750   -9.4810   64.1950 N   0  0  0  0  0
   29.0320  -10.2580   64.2940 C   0  0  0  0  0
   28.7160  -10.8760   62.9100 C   0  0  0  0  0
   27.9150   -9.3170   64.8210 C   0  0  0  0  0
   28.2790  -12.3520   62.9670 C   0  0  0  0  0
   27.5770   -8.1140   63.9220 C   0  0  0  0  0
   32.4790   -7.8500   63.6470 N   0  0  0  0  0
   33.0240   -7.6000   62.2720 C   0  0  0  0  0
   32.0750   -6.4670   61.7890 C   0  0  0  0  0
   31.5810   -5.7250   63.0360 C   0  0  0  0  0
   31.7640   -6.7950   64.0770 C   0  0  0  0  0
   31.2610   -6.6900   65.2020 O   0  0  0  0  0
   34.5440   -7.1480   62.2720 C   0  0  0  0  0
   34.8240   -6.2980   63.3880 O   0  0  0  0  0
   32.8670   -8.8250   61.3170 C   0  0  0  0  0
   31.5340   -9.3880   61.1180 N   0  3  0  0  0
   34.7666   -8.7684   64.5990 H   0  0  0  0  0
   30.8779  -11.7503   65.5496 H   0  0  0  0  0
   35.1027  -10.8975   65.8257 H   0  0  0  0  0
   31.6730  -13.3728   65.5233 H   0  0  0  0  0
   30.2126   -8.5608   63.7593 H   0  0  0  0  0
   29.1194  -11.0878   64.9954 H   0  0  0  0  0
   29.6317  -10.8328   62.3202 H   0  0  0  0  0
   27.8871  -10.3099   62.4851 H   0  0  0  0  0
   28.2766   -8.9062   65.7636 H   0  0  0  0  0
   27.0086   -9.9191   64.8849 H   0  0  0  0  0
   29.0755  -12.9485   63.4117 H   0  0  0  0  0
   27.3767  -12.4393   63.5723 H   0  0  0  0  0
   28.0766  -12.7089   61.9572 H   0  0  0  0  0
   28.4653   -7.4949   63.7966 H   0  0  0  0  0
   27.2418   -8.4723   62.9486 H   0  0  0  0  0
   26.7854   -7.5260   64.3865 H   0  0  0  0  0
   31.2350   -6.8820   61.2320 H   0  0  0  0  0
   32.6010   -5.7853   61.1206 H   0  0  0  0  0
   30.5615   -5.3475   62.9572 H   0  0  0  0  0
   32.1166   -4.7994   63.2471 H   0  0  0  0  0
   34.7460   -6.5978   61.3530 H   0  0  0  0  0
   35.1734   -8.0352   62.3406 H   0  0  0  0  0
   35.7478   -6.0378   63.3668 H   0  0  0  0  0
   33.4470   -9.6233   61.7801 H   0  0  0  0  0
   33.1721   -8.4619   60.3356 H   0  0  0  0  0
   31.5919  -10.1762   60.4732 H   0  0  0  0  0
   31.1635   -9.7062   62.0135 H   0  0  0  0  0
   30.9190   -8.6733   60.7288 H   0  0  0  0  0
  1  2  4  0  0  0
  1  6  4  0  0  0
  2  3  4  0  0  0
  2 16  1  0  0  0
  3  4  4  0  0  0
  3 10  1  0  0  0
  4  5  4  0  0  0
  5  6  4  0  0  0
  5  7  1  0  0  0
  7  8  1  0  0  0
  7  9  2  0  0  0
 10 11  1  0  0  0
 11 12  1  0  0  0
 11 13  1  0  0  0
 12 14  1  0  0  0
 13 15  1  0  0  0
 16 17  1  0  0  0
 16 20  1  0  0  0
 17 18  1  0  0  0
 17 22  1  0  0  0
 17 24  1  0  0  0
 18 19  1  0  0  0
 19 20  1  0  0  0
 20 21  2  0  0  0
 22 23  1  0  0  0
 24 25  1  0  0  0
  1 26  1  0  0  0
  4 27  1  0  0  0
  6 28  1  0  0  0
  8 29  1  0  0  0
 10 30  1  0  0  0
 11 31  1  0  0  0
 12 32  1  0  0  0
 12 33  1  0  0  0
 13 34  1  0  0  0
 13 35  1  0  0  0
 14 36  1  0  0  0
 14 37  1  0  0  0
 14 38  1  0  0  0
 15 39  1  0  0  0
 15 40  1  0  0  0
 15 41  1  0  0  0
 18 42  1  0  0  0
 18 43  1  0  0  0
 19 44  1  0  0  0
 19 45  1  0  0  0
 22 46  1  0  0  0
 22 47  1  0  0  0
 23 48  1  0  0  0
 24 49  1  0  0  0
 24 50  1  0  0  0
 25 51  1  0  0  0
 25 52  1  0  0  0
 25 53  1  0  0  0
M  END
$$$$
