4tzm_ligand
  -I-interpret- 

209209  0  0  0  0  0  0  0  0999 V2000
 -120.4430   80.0330  128.6680 N   0  3  0  0  0
 -119.8660   81.3100  128.2680 C   0  0  0  0  0
 -120.6970   82.4790  128.7910 C   0  0  0  0  0
 -120.2010   83.3130  129.5510 O   0  0  0  0  0
 -119.7390   81.3840  126.7500 C   0  0  0  0  0
 -121.9640   82.5330  128.3860 N   0  0  0  0  0
 -122.8480   83.6300  128.7750 C   0  0  0  0  0
 -123.9750   83.1730  129.7030 C   0  0  0  0  0
 -124.6340   82.1640  129.4500 O   0  0  0  0  0
 -123.4350   84.3040  127.5320 C   0  0  0  0  0
 -124.2850   85.5280  127.8360 C   0  0  0  0  0
 -124.5650   86.3230  126.5770 C   0  0  0  0  0
 -125.5240   87.3960  126.8140 N   0  0  0  0  0
 -126.5780   87.6340  126.0410 C   0  0  0  0  0
 -126.8070   86.8760  124.9760 N   0  0  0  0  0
 -127.4020   88.6300  126.3300 N   0  0  0  0  0
 -124.1930   83.9310  130.7750 N   0  0  0  0  0
 -125.2070   83.5920  131.7700 C   0  0  0  0  0
 -126.1510   84.7650  132.0450 C   0  0  0  0  0
 -125.8550   85.9080  131.6940 O   0  0  0  0  0
 -124.5380   83.1430  133.0720 C   0  0  0  0  0
 -123.6020   81.9640  132.9070 C   0  0  0  0  0
 -124.0030   80.8240  132.2210 C   0  0  0  0  0
 -122.3130   81.9960  133.4250 C   0  0  0  0  0
 -123.1520   79.7450  132.0640 C   0  0  0  0  0
 -121.4530   80.9210  133.2710 C   0  0  0  0  0
 -121.8780   79.7990  132.5900 C   0  0  0  0  0
 -121.0300   78.7260  132.4330 O   0  0  0  0  0
 -127.2880   84.4740  132.6730 N   0  0  0  0  0
 -128.2420   85.5000  133.0530 C   0  0  0  0  0
 -128.8100   85.2510  134.4380 C   0  0  0  0  0
 -129.2530   84.1460  134.7450 O   0  0  0  0  0
 -128.7900   86.2790  135.2790 N   0  0  0  0  0
 -129.3120   86.1770  136.6400 C   0  0  0  0  0
 -130.4890   87.1270  136.8320 C   0  0  0  0  0
 -130.3980   88.3050  136.4840 O   0  0  0  0  0
 -128.2240   86.4960  137.6890 C   0  0  0  0  0
 -128.8140   86.5150  139.0870 C   0  0  0  0  0
 -127.0850   85.4950  137.5990 C   0  0  0  0  0
 -131.5880   86.6170  137.3830 N   0  0  0  0  0
 -132.7760   87.4340  137.6140 C   0  0  0  0  0
 -132.4580   88.6290  138.5090 C   0  0  0  0  0
 -131.6560   88.5260  139.4370 O   0  0  0  0  0
 -133.8960   86.5960  138.2350 C   0  0  0  0  0
 -133.5150   86.0900  139.5010 O   0  0  0  0  0
 -133.0830   89.7640  138.2170 N   0  0  0  0  0
 -132.8410   90.9820  138.9810 C   0  0  0  0  0
 -133.6080   90.9970  140.2960 C   0  0  0  0  0
 -133.1480   91.5680  141.2860 O   0  0  0  0  0
 -133.2040   92.2140  138.1500 C   0  0  0  0  0
 -134.4360   91.9970  137.2880 C   0  0  0  0  0
 -135.1810   91.0350  137.4800 O   0  0  0  0  0
 -134.6540   92.8920  136.3300 N   0  0  0  0  0
 -134.7830   90.3790  140.3050 N   0  0  0  0  0
 -135.5430   90.2610  141.5380 C   0  0  0  0  0
 -135.3350   88.8630  142.1120 C   0  0  0  0  0
 -135.2620   87.8760  141.3780 O   0  0  0  0  0
 -137.0550   90.5680  141.3230 C   0  0  0  0  0
 -137.6960   90.7600  142.5920 O   0  0  0  0  0
 -137.7530   89.4560  140.5510 C   0  0  0  0  0
 -135.1940   88.7900  143.4300 N   0  0  0  0  0
 -134.9240   87.5240  144.0910 C   0  0  0  0  0
 -135.7980   87.3780  145.3270 C   0  0  0  0  0
 -136.4530   88.3270  145.7510 O   0  0  0  0  0
 -133.4430   87.4120  144.4640 C   0  0  0  0  0
 -133.1230   88.2600  145.5510 O   0  0  0  0  0
 -135.8040   86.1830  145.9020 N   0  0  0  0  0
 -136.6710   85.8860  147.0320 C   0  0  0  0  0
 -135.8510   85.5620  148.2760 C   0  0  0  0  0
 -135.0360   84.6410  148.2680 O   0  0  0  0  0
 -137.6110   84.7110  146.6990 C   0  0  0  0  0
 -138.5020   85.0730  145.5060 C   0  0  0  0  0
 -138.4460   84.3220  147.9080 C   0  0  0  0  0
 -139.3230   83.9100  144.9670 C   0  0  0  0  0
 -136.0600   86.3270  149.3430 N   0  0  0  0  0
 -135.3600   86.0720  150.5990 C   0  0  0  0  0
 -136.2980   85.6910  151.7390 C   0  0  0  0  0
 -137.4170   86.1950  151.8340 O   0  0  0  0  0
 -134.5310   87.2940  151.0140 C   0  0  0  0  0
 -133.2690   87.4560  150.1830 C   0  0  0  0  0
 -133.2060   88.2920  149.2790 O   0  0  0  0  0
 -132.2560   86.6540  150.4860 N   0  0  0  0  0
 -135.8320   84.7880  152.5970 N   0  0  0  0  0
 -136.4960   84.5220  153.8660 C   0  0  0  0  0
 -135.5500   84.8780  155.0090 C   0  0  0  0  0
 -134.3960   84.4470  155.0290 O   0  0  0  0  0
 -136.9420   83.0610  153.9750 C   0  0  0  0  0
 -137.7110   82.7640  155.2590 C   0  0  0  0  0
 -138.2770   81.3500  155.2880 C   0  0  0  0  0
 -139.0860   81.0540  154.1080 N   0  0  0  0  0
 -140.3270   81.4940  153.9180 C   0  0  0  0  0
 -140.9120   82.2650  154.8260 N   0  0  0  0  0
 -140.9810   81.1690  152.8110 N   0  0  0  0  0
 -136.0430   85.6750  155.9520 N   0  0  0  0  0
 -135.2360   86.1290  157.0790 C   0  0  0  0  0
 -135.7220   85.5420  158.3990 C   0  0  0  0  0
 -136.9240   85.3860  158.6140 O   0  0  0  0  0
 -135.2420   87.6570  157.1580 C   0  0  0  0  0
 -134.1020   88.3290  156.4110 C   0  0  0  0  0
 -134.1170   89.8380  156.6160 C   0  0  0  0  0
 -134.9570   90.5330  155.5610 C   0  0  0  0  0
 -134.3380   90.4120  154.2120 N   0  3  0  0  0
 -134.8838   85.2126  159.2802 O   0  0  0  0  0
 -120.5209   80.0000  129.6845 H   0  0  0  0  0
 -121.3688   79.9342  128.2515 H   0  0  0  0  0
 -119.8417   79.2742  128.3470 H   0  0  0  0  0
 -118.8710   81.3820  128.7072 H   0  0  0  0  0
 -120.7315   81.3432  126.3012 H   0  0  0  0  0
 -119.2515   82.3186  126.4726 H   0  0  0  0  0
 -119.1435   80.5428  126.3951 H   0  0  0  0  0
 -122.3271   81.7899  127.7890 H   0  0  0  0  0
 -122.2419   84.3464  129.3295 H   0  0  0  0  0
 -124.0810   83.5748  127.0431 H   0  0  0  0  0
 -122.5977   84.6359  126.9180 H   0  0  0  0  0
 -123.7438   86.1635  128.5370 H   0  0  0  0  0
 -125.2339   85.1978  128.2586 H   0  0  0  0  0
 -124.9852   85.6472  125.8321 H   0  0  0  0  0
 -123.6296   86.7689  126.2390 H   0  0  0  0  0
 -125.3765   88.0004  127.6223 H   0  0  0  0  0
 -127.6157   87.0611  124.3826 H   0  0  0  0  0
 -126.1743   86.1083  124.7508 H   0  0  0  0  0
 -127.2277   89.2154  127.1469 H   0  0  0  0  0
 -123.6348   84.7746  130.9057 H   0  0  0  0  0
 -125.8035   82.7742  131.3656 H   0  0  0  0  0
 -125.3306   82.8344  133.7537 H   0  0  0  0  0
 -123.9429   83.9805  133.4359 H   0  0  0  0  0
 -125.0069   80.7793  131.7988 H   0  0  0  0  0
 -121.9729   82.8818  133.9615 H   0  0  0  0  0
 -123.4862   78.8569  131.5276 H   0  0  0  0  0
 -120.4458   80.9614  133.6857 H   0  0  0  0  0
 -120.1888   78.9203  132.8528 H   0  0  0  0  0
 -127.4953   83.5001  132.8940 H   0  0  0  0  0
 -129.0637   85.4877  132.3370 H   0  0  0  0  0
 -127.7286   86.4615  133.0596 H   0  0  0  0  0
 -128.3982   87.1669  134.9651 H   0  0  0  0  0
 -129.6432   85.1486  136.7845 H   0  0  0  0  0
 -127.8248   87.4877  137.4764 H   0  0  0  0  0
 -129.5908   87.2777  139.1418 H   0  0  0  0  0
 -129.2447   85.5392  139.3115 H   0  0  0  0  0
 -128.0289   86.7417  139.8083 H   0  0  0  0  0
 -127.4695   84.4916  137.7820 H   0  0  0  0  0
 -126.6414   85.5397  136.6043 H   0  0  0  0  0
 -126.3296   85.7379  138.3463 H   0  0  0  0  0
 -131.6007   85.6327  137.6501 H   0  0  0  0  0
 -133.1122   87.8097  136.6476 H   0  0  0  0  0
 -134.1091   85.7557  137.5742 H   0  0  0  0  0
 -134.7740   87.2291  138.3632 H   0  0  0  0  0
 -134.2345   85.5698  139.8662 H   0  0  0  0  0
 -133.7461   89.7840  137.4422 H   0  0  0  0  0
 -131.7777   91.0057  139.2195 H   0  0  0  0  0
 -132.3657   92.4300  137.4876 H   0  0  0  0  0
 -133.4170   93.0316  138.8387 H   0  0  0  0  0
 -135.4647   92.7971  135.7183 H   0  0  0  0  0
 -134.0106   93.6738  136.2064 H   0  0  0  0  0
 -135.1547   89.9845  139.4409 H   0  0  0  0  0
 -135.1806   91.0040  142.2485 H   0  0  0  0  0
 -137.1303   91.4797  140.7304 H   0  0  0  0  0
 -138.6270   90.9488  142.4536 H   0  0  0  0  0
 -137.2834   89.3437  139.5738 H   0  0  0  0  0
 -137.6681   88.5216  141.1058 H   0  0  0  0  0
 -138.8053   89.7096  140.4228 H   0  0  0  0  0
 -135.2767   89.6388  143.9896 H   0  0  0  0  0
 -135.1618   86.7163  143.3988 H   0  0  0  0  0
 -132.8441   87.7092  143.6031 H   0  0  0  0  0
 -133.2342   86.3820  144.7532 H   0  0  0  0  0
 -132.1910   88.1694  145.7625 H   0  0  0  0  0
 -135.1862   85.4549  145.5436 H   0  0  0  0  0
 -137.2729   86.7717  147.2353 H   0  0  0  0  0
 -137.0048   83.8466  146.4279 H   0  0  0  0  0
 -137.8449   85.4036  144.7017 H   0  0  0  0  0
 -139.2050   85.8327  145.8477 H   0  0  0  0  0
 -137.7863   84.0227  148.7225 H   0  0  0  0  0
 -139.0486   85.1746  148.2213 H   0  0  0  0  0
 -139.0998   83.4907  147.6442 H   0  0  0  0  0
 -138.6530   83.1156  144.6381 H   0  0  0  0  0
 -139.9769   83.5332  145.7535 H   0  0  0  0  0
 -139.9249   84.2513  144.1248 H   0  0  0  0  0
 -136.7189   87.1034  149.2835 H   0  0  0  0  0
 -134.7059   85.2203  150.4123 H   0  0  0  0  0
 -134.2322   87.1585  152.0535 H   0  0  0  0  0
 -135.1458   88.1817  150.8655 H   0  0  0  0  0
 -131.3826   86.7156  149.9628 H   0  0  0  0  0
 -132.3508   85.9760  151.2421 H   0  0  0  0  0
 -134.9872   84.2678  152.3602 H   0  0  0  0  0
 -137.3936   85.1376  153.9242 H   0  0  0  0  0
 -136.0460   82.4403  153.9745 H   0  0  0  0  0
 -137.6061   82.8540  153.1358 H   0  0  0  0  0
 -138.5466   83.4614  155.3189 H   0  0  0  0  0
 -137.0198   82.8662  156.0956 H   0  0  0  0  0
 -138.9144   81.2582  156.1674 H   0  0  0  0  0
 -137.4410   80.6509  155.3097 H   0  0  0  0  0
 -138.6715   80.4708  153.3810 H   0  0  0  0  0
 -141.8610   82.6052  154.6711 H   0  0  0  0  0
 -140.4126   82.5174  155.6788 H   0  0  0  0  0
 -140.5324   80.5827  152.1071 H   0  0  0  0  0
 -137.0147   85.9781  155.8854 H   0  0  0  0  0
 -134.2180   85.7777  156.9105 H   0  0  0  0  0
 -135.1360   87.9232  158.2097 H   0  0  0  0  0
 -136.1700   87.9973  156.6984 H   0  0  0  0  0
 -134.2163   88.1230  155.3468 H   0  0  0  0  0
 -133.1592   87.9370  156.7927 H   0  0  0  0  0
 -133.0941   90.2071  156.5418 H   0  0  0  0  0
 -134.5471   90.0496  157.5949 H   0  0  0  0  0
 -135.0301   91.5902  155.8161 H   0  0  0  0  0
 -135.9405   90.0637  155.5353 H   0  0  0  0  0
 -134.9243   90.8878  153.5263 H   0  0  0  0  0
 -133.4121   90.8396  154.2245 H   0  0  0  0  0
 -134.2551   89.4260  153.9645 H   0  0  0  0  0
 -133.9971   85.3958  158.9612 H   0  0  0  0  0
  1  2  1  0  0  0
  2  3  1  0  0  0
  2  5  1  0  0  0
  3  4  2  0  0  0
  3  6  1  0  0  0
  6  7  1  0  0  0
  7  8  1  0  0  0
  7 10  1  0  0  0
  8  9  2  0  0  0
  8 17  1  0  0  0
 10 11  1  0  0  0
 11 12  1  0  0  0
 12 13  1  0  0  0
 13 14  1  0  0  0
 14 15  1  0  0  0
 14 16  2  0  0  0
 17 18  1  0  0  0
 18 19  1  0  0  0
 18 21  1  0  0  0
 19 20  2  0  0  0
 19 29  1  0  0  0
 21 22  1  0  0  0
 22 23  4  0  0  0
 22 24  4  0  0  0
 23 25  4  0  0  0
 24 26  4  0  0  0
 25 27  4  0  0  0
 26 27  4  0  0  0
 27 28  1  0  0  0
 29 30  1  0  0  0
 30 31  1  0  0  0
 31 32  2  0  0  0
 31 33  1  0  0  0
 33 34  1  0  0  0
 34 35  1  0  0  0
 34 37  1  0  0  0
 35 36  2  0  0  0
 35 40  1  0  0  0
 37 38  1  0  0  0
 37 39  1  0  0  0
 40 41  1  0  0  0
 41 42  1  0  0  0
 41 44  1  0  0  0
 42 43  2  0  0  0
 42 46  1  0  0  0
 44 45  1  0  0  0
 46 47  1  0  0  0
 47 48  1  0  0  0
 47 50  1  0  0  0
 48 49  2  0  0  0
 48 54  1  0  0  0
 50 51  1  0  0  0
 51 52  2  0  0  0
 51 53  1  0  0  0
 54 55  1  0  0  0
 55 56  1  0  0  0
 55 58  1  0  0  0
 56 57  2  0  0  0
 56 61  1  0  0  0
 58 59  1  0  0  0
 58 60  1  0  0  0
 61 62  1  0  0  0
 62 63  1  0  0  0
 62 65  1  0  0  0
 63 64  2  0  0  0
 63 67  1  0  0  0
 65 66  1  0  0  0
 67 68  1  0  0  0
 68 69  1  0  0  0
 68 71  1  0  0  0
 69 70  2  0  0  0
 69 75  1  0  0  0
 71 72  1  0  0  0
 71 73  1  0  0  0
 72 74  1  0  0  0
 75 76  1  0  0  0
 76 77  1  0  0  0
 76 79  1  0  0  0
 77 78  2  0  0  0
 77 83  1  0  0  0
 79 80  1  0  0  0
 80 81  2  0  0  0
 80 82  1  0  0  0
 83 84  1  0  0  0
 84 85  1  0  0  0
 84 87  1  0  0  0
 85 86  2  0  0  0
 85 94  1  0  0  0
 87 88  1  0  0  0
 88 89  1  0  0  0
 89 90  1  0  0  0
 90 91  1  0  0  0
 91 92  1  0  0  0
 91 93  2  0  0  0
 94 95  1  0  0  0
 95 96  1  0  0  0
 95 98  1  0  0  0
 96 97  2  0  0  0
 98 99  1  0  0  0
 99100  1  0  0  0
100101  1  0  0  0
101102  1  0  0  0
 96103  1  0  0  0
  1104  1  0  0  0
  1105  1  0  0  0
  1106  1  0  0  0
  2107  1  0  0  0
  5108  1  0  0  0
  5109  1  0  0  0
  5110  1  0  0  0
  6111  1  0  0  0
  7112  1  0  0  0
 10113  1  0  0  0
 10114  1  0  0  0
 11115  1  0  0  0
 11116  1  0  0  0
 12117  1  0  0  0
 12118  1  0  0  0
 13119  1  0  0  0
 15120  1  0  0  0
 15121  1  0  0  0
 16122  1  0  0  0
 17123  1  0  0  0
 18124  1  0  0  0
 21125  1  0  0  0
 21126  1  0  0  0
 23127  1  0  0  0
 24128  1  0  0  0
 25129  1  0  0  0
 26130  1  0  0  0
 28131  1  0  0  0
 29132  1  0  0  0
 30133  1  0  0  0
 30134  1  0  0  0
 33135  1  0  0  0
 34136  1  0  0  0
 37137  1  0  0  0
 38138  1  0  0  0
 38139  1  0  0  0
 38140  1  0  0  0
 39141  1  0  0  0
 39142  1  0  0  0
 39143  1  0  0  0
 40144  1  0  0  0
 41145  1  0  0  0
 44146  1  0  0  0
 44147  1  0  0  0
 45148  1  0  0  0
 46149  1  0  0  0
 47150  1  0  0  0
 50151  1  0  0  0
 50152  1  0  0  0
 53153  1  0  0  0
 53154  1  0  0  0
 54155  1  0  0  0
 55156  1  0  0  0
 58157  1  0  0  0
 59158  1  0  0  0
 60159  1  0  0  0
 60160  1  0  0  0
 60161  1  0  0  0
 61162  1  0  0  0
 62163  1  0  0  0
 65164  1  0  0  0
 65165  1  0  0  0
 66166  1  0  0  0
 67167  1  0  0  0
 68168  1  0  0  0
 71169  1  0  0  0
 72170  1  0  0  0
 72171  1  0  0  0
 73172  1  0  0  0
 73173  1  0  0  0
 73174  1  0  0  0
 74175  1  0  0  0
 74176  1  0  0  0
 74177  1  0  0  0
 75178  1  0  0  0
 76179  1  0  0  0
 79180  1  0  0  0
 79181  1  0  0  0
 82182  1  0  0  0
 82183  1  0  0  0
 83184  1  0  0  0
 84185  1  0  0  0
 87186  1  0  0  0
 87187  1  0  0  0
 88188  1  0  0  0
 88189  1  0  0  0
 89190  1  0  0  0
 89191  1  0  0  0
 90192  1  0  0  0
 92193  1  0  0  0
 92194  1  0  0  0
 93195  1  0  0  0
 94196  1  0  0  0
 95197  1  0  0  0
 98198  1  0  0  0
 98199  1  0  0  0
 99200  1  0  0  0
 99201  1  0  0  0
100202  1  0  0  0
100203  1  0  0  0
101204  1  0  0  0
101205  1  0  0  0
102206  1  0  0  0
102207  1  0  0  0
102208  1  0  0  0
103209  1  0  0  0
M  END
$$$$
