### 
### Created by X-TOOL on Mon Sep 10 21:13:19 2018
### 

@<TRIPOS>MOLECULE
4tzm_ligand
  210   210     1     0     0
SMALL
GAST_HUCK


@<TRIPOS>ATOM
      1 N        -120.4430   80.0330  128.6680 N.4       1 ALA         0.2377
      2 CA       -119.8660   81.3100  128.2680 C.3       1 ALA         0.0621
      3 C        -120.6970   82.4790  128.7910 C.2       1 ALA         0.2264
      4 O        -120.2010   83.3130  129.5510 O.2       1 ALA        -0.3907
      5 CB       -119.7390   81.3840  126.7500 C.3       1 ALA        -0.0040
      6 N        -121.9640   82.5330  128.3860 N.am      1 ARG        -0.2610
      7 CA       -122.8480   83.6300  128.7750 C.3       1 ARG         0.1312
      8 C        -123.9750   83.1730  129.7030 C.2       1 ARG         0.2040
      9 O        -124.6340   82.1640  129.4500 O.2       1 ARG        -0.3944
     10 CB       -123.4350   84.3040  127.5320 C.3       1 ARG        -0.0092
     11 CG       -124.2850   85.5280  127.8360 C.3       1 ARG        -0.0156
     12 CD       -124.5650   86.3230  126.5770 C.3       1 ARG         0.0627
     13 NE       -125.5240   87.3960  126.8140 N.pl3     1 ARG        -0.2723
     14 CZ       -126.5780   87.6340  126.0410 C.cat     1 ARG         0.2882
     15 NH1      -126.8070   86.8760  124.9760 N.pl3     1 ARG        -0.2849
     16 NH2      -127.4020   88.6300  126.3300 N.pl3     1 ARG        -0.2849
     17 N        -124.1930   83.9310  130.7750 N.am      1 TYR        -0.2621
     18 CA       -125.2070   83.5920  131.7700 C.3       1 TYR         0.1390
     19 C        -126.1510   84.7650  132.0450 C.2       1 TYR         0.2055
     20 O        -125.8550   85.9080  131.6940 O.2       1 TYR        -0.3942
     21 CB       -124.5380   83.1430  133.0720 C.3       1 TYR         0.0163
     22 CG       -123.6020   81.9640  132.9070 C.ar      1 TYR        -0.0493
     23 CD1      -124.0030   80.8240  132.2210 C.ar      1 TYR        -0.0685
     24 CD2      -122.3130   81.9960  133.4250 C.ar      1 TYR        -0.0685
     25 CE1      -123.1520   79.7450  132.0640 C.ar      1 TYR        -0.0398
     26 CE2      -121.4530   80.9210  133.2710 C.ar      1 TYR        -0.0398
     27 CZ       -121.8780   79.7990  132.5900 C.ar      1 TYR         0.0805
     28 OH       -121.0300   78.7260  132.4330 O.3       1 TYR        -0.3376
     29 N        -127.2880   84.4740  132.6730 N.am      1 GLY        -0.2663
     30 CA       -128.2420   85.5000  133.0530 C.3       1 GLY         0.1201
     31 C        -128.8100   85.2510  134.4380 C.2       1 GLY         0.2008
     32 O        -129.2530   84.1460  134.7450 O.2       1 GLY        -0.3947
     33 N        -128.7900   86.2790  135.2790 N.am      1 VAL        -0.2637
     34 CA       -129.3120   86.1770  136.6400 C.3       1 VAL         0.1332
     35 C        -130.4890   87.1270  136.8320 C.2       1 VAL         0.2042
     36 O        -130.3980   88.3050  136.4840 O.2       1 VAL        -0.3944
     37 CB       -128.2240   86.4960  137.6890 C.3       1 VAL        -0.0063
     38 CG1      -128.8140   86.5150  139.0870 C.3       1 VAL        -0.0584
     39 CG2      -127.0850   85.4950  137.5990 C.3       1 VAL        -0.0584
     40 N        -131.5880   86.6170  137.3830 N.am      1 SER        -0.2616
     41 CA       -132.7760   87.4340  137.6140 C.3       1 SER         0.1539
     42 C        -132.4580   88.6290  138.5090 C.2       1 SER         0.2063
     43 O        -131.6560   88.5260  139.4370 O.2       1 SER        -0.3943
     44 CB       -133.8960   86.5960  138.2350 C.3       1 SER         0.0843
     45 OG       -133.5150   86.0900  139.5010 O.3       1 SER        -0.3903
     46 N        -133.0830   89.7640  138.2170 N.am      1 ASN        -0.2615
     47 CA       -132.8410   90.9820  138.9810 C.3       1 ASN         0.1476
     48 C        -133.6080   90.9970  140.2960 C.2       1 ASN         0.2063
     49 O        -133.1480   91.5680  141.2860 O.2       1 ASN        -0.3942
     50 CB       -133.2040   92.2140  138.1500 C.3       1 ASN         0.0773
     51 CG       -134.4360   91.9970  137.2880 C.2       1 ASN         0.1780
     52 OD1      -135.1810   91.0350  137.4800 O.2       1 ASN        -0.3970
     53 ND2      -134.6540   92.8920  136.3300 N.am      1 ASN        -0.3007
     54 N        -134.7830   90.3790  140.3050 N.am      1 THR        -0.2612
     55 CA       -135.5430   90.2610  141.5380 C.3       1 THR         0.1565
     56 C        -135.3350   88.8630  142.1120 C.2       1 THR         0.2065
     57 O        -135.2620   87.8760  141.3780 O.2       1 THR        -0.3943
     58 CB       -137.0550   90.5680  141.3230 C.3       1 THR         0.0924
     59 OG1      -137.6960   90.7600  142.5920 O.3       1 THR        -0.3874
     60 CG2      -137.7530   89.4560  140.5510 C.3       1 THR        -0.0346
     61 N        -135.1940   88.7900  143.4300 N.am      1 SER        -0.2615
     62 CA       -134.9240   87.5240  144.0910 C.3       1 SER         0.1539
     63 C        -135.7980   87.3780  145.3270 C.2       1 SER         0.2062
     64 O        -136.4530   88.3270  145.7510 O.2       1 SER        -0.3943
     65 CB       -133.4430   87.4120  144.4640 C.3       1 SER         0.0843
     66 OG       -133.1230   88.2600  145.5510 O.3       1 SER        -0.3903
     67 N        -135.8040   86.1830  145.9020 N.am      1 ILE        -0.2634
     68 CA       -136.6710   85.8860  147.0320 C.3       1 ILE         0.1335
     69 C        -135.8510   85.5620  148.2760 C.2       1 ILE         0.2043
     70 O        -135.0360   84.6410  148.2680 O.2       1 ILE        -0.3944
     71 CB       -137.6110   84.7110  146.6990 C.3       1 ILE        -0.0037
     72 CG1      -138.5020   85.0730  145.5060 C.3       1 ILE        -0.0491
     73 CG2      -138.4460   84.3220  147.9080 C.3       1 ILE        -0.0582
     74 CD1      -139.3230   83.9100  144.9670 C.3       1 ILE        -0.0648
     75 N        -136.0600   86.3270  149.3430 N.am      1 ASN        -0.2616
     76 CA       -135.3600   86.0720  150.5990 C.3       1 ASN         0.1476
     77 C        -136.2980   85.6910  151.7390 C.2       1 ASN         0.2062
     78 O        -137.4170   86.1950  151.8340 O.2       1 ASN        -0.3942
     79 CB       -134.5310   87.2940  151.0140 C.3       1 ASN         0.0773
     80 CG       -133.2690   87.4560  150.1830 C.2       1 ASN         0.1780
     81 OD1      -133.2060   88.2920  149.2790 O.2       1 ASN        -0.3970
     82 ND2      -132.2560   86.6540  150.4860 N.am      1 ASN        -0.3007
     83 N        -135.8320   84.7880  152.5970 N.am      1 ARG        -0.2636
     84 CA       -136.4960   84.5220  153.8660 C.3       1 ARG         0.1311
     85 C        -135.5500   84.8780  155.0090 C.2       1 ARG         0.2034
     86 O        -134.3960   84.4470  155.0290 O.2       1 ARG        -0.3944
     87 CB       -136.9420   83.0610  153.9750 C.3       1 ARG        -0.0092
     88 CG       -137.7110   82.7640  155.2590 C.3       1 ARG        -0.0156
     89 CD       -138.2770   81.3500  155.2880 C.3       1 ARG         0.0627
     90 NE       -139.0860   81.0540  154.1080 N.pl3     1 ARG        -0.2723
     91 CZ       -140.3270   81.4940  153.9180 C.cat     1 ARG         0.2882
     92 NH1      -140.9120   82.2650  154.8260 N.pl3     1 ARG        -0.2849
     93 NH2      -140.9810   81.1690  152.8110 N.pl3     1 ARG        -0.2849
     94 N        -136.0430   85.6750  155.9520 N.am      1 LYS        -0.2671
     95 CA       -135.2360   86.1290  157.0790 C.3       1 LYS         0.1226
     96 C        -135.7220   85.5420  158.3990 C.2       1 LYS         0.2149
     97 O        -136.9240   85.3860  158.6140 O.co2     1 LYS        -0.4120
     98 CB       -135.2420   87.6570  157.1580 C.3       1 LYS        -0.0154
     99 CG       -134.1020   88.3290  156.4110 C.3       1 LYS        -0.0445
    100 CD       -134.1170   89.8380  156.6160 C.3       1 LYS        -0.0125
    101 CE       -134.9570   90.5330  155.5610 C.3       1 LYS        -0.0354
    102 NZ       -134.3380   90.4120  154.2120 N.4       1 LYS         0.2185
    103 H        -119.8753   79.2809  128.3099 H         1 ALA         0.2015
    104 H        -121.3769   79.9552  128.2967 H         1 ALA         0.2015
    105 H        -120.4758   79.9795  129.6740 H         1 ALA         0.2015
    106 H        -118.8585   81.3831  128.7035 H         1 ALA         0.1095
    107 H        -119.3025   82.3527  126.4654 H         1 ALA         0.0310
    108 H        -120.7345   81.2821  126.2933 H         1 ALA         0.0310
    109 H        -119.0884   80.5706  126.3964 H         1 ALA         0.0310
    110 H        -122.3200   81.8045  127.8007 H         1 ARG         0.1884
    111 H        -122.2442   84.3722  129.3177 H         1 ARG         0.0800
    112 H        -124.0615   83.5702  127.0038 H         1 ARG         0.0313
    113 H        -122.6040   84.6129  126.8809 H         1 ARG         0.0313
    114 H        -123.7503   86.1677  128.5535 H         1 ARG         0.0301
    115 H        -125.2395   85.2026  128.2753 H         1 ARG         0.0301
    116 H        -124.9712   85.6456  125.8115 H         1 ARG         0.0689
    117 H        -123.6229   86.7613  126.2161 H         1 ARG         0.0689
    118 H        -125.3751   88.0063  127.6302 H         1 ARG         0.2642
    119 H        -127.6246   87.0619  124.3778 H         1 ARG         0.2615
    120 H        -126.1671   86.1018  124.7477 H         1 ARG         0.2615
    121 H        -127.2270   89.2201  127.1559 H         1 ARG         0.2615
    122 H        -128.2178   88.8144  125.7288 H         1 ARG         0.2615
    123 H        -123.6457   84.7581  130.9032 H         1 TYR         0.1885
    124 H        -125.8046   82.7557  131.3783 H         1 TYR         0.0821
    125 H        -125.3254   82.8624  133.7870 H         1 TYR         0.0453
    126 H        -123.9615   83.9889  133.4747 H         1 TYR         0.0453
    127 H        -125.0014   80.7795  131.8011 H         1 TYR         0.0530
    128 H        -121.9748   82.8769  133.9585 H         1 TYR         0.0530
    129 H        -123.4844   78.8618  131.5305 H         1 TYR         0.0525
    130 H        -120.4513   80.9612  133.6834 H         1 TYR         0.0525
    131 H        -121.4735   78.0420  131.9452 H         1 TYR         0.2458
    132 H        -127.4912   83.5191  132.8897 H         1 GLY         0.1881
    133 H        -129.0668   85.5074  132.3252 H         1 GLY         0.0763
    134 H        -127.7371   86.4772  133.0449 H         1 GLY         0.0763
    135 H        -128.4059   87.1495  134.9713 H         1 VAL         0.1883
    136 H        -129.6602   85.1459  136.7999 H         1 VAL         0.0802
    137 H        -127.8206   87.4963  137.4729 H         1 VAL         0.0343
    138 H        -128.0225   86.7437  139.8159 H         1 VAL         0.0234
    139 H        -129.2489   85.5307  139.3149 H         1 VAL         0.0234
    140 H        -129.5981   87.2844  139.1437 H         1 VAL         0.0234
    141 H        -126.6736   85.4985  136.5788 H         1 VAL         0.0234
    142 H        -127.4607   84.4895  137.8394 H         1 VAL         0.0234
    143 H        -126.2959   85.7722  138.3135 H         1 VAL         0.0234
    144 H        -131.6004   85.6520  137.6448 H         1 SER         0.1884
    145 H        -133.1251   87.8138  136.6425 H         1 SER         0.0823
    146 H        -134.1266   85.7534  137.5665 H         1 SER         0.0606
    147 H        -134.7906   87.2248  138.3544 H         1 SER         0.0606
    148 H        -132.7448   85.5426  139.4033 H         1 SER         0.2097
    149 H        -133.7331   89.7836  137.4574 H         1 ASN         0.1885
    150 H        -131.7669   91.0267  139.2142 H         1 ASN         0.0826
    151 H        -132.3550   92.4595  137.4951 H         1 ASN         0.0551
    152 H        -133.3957   93.0550  138.8326 H         1 ASN         0.0551
    153 H        -135.4499   92.8000  135.7315 H         1 ASN         0.1814
    154 H        -134.0222   93.6574  136.2076 H         1 ASN         0.1814
    155 H        -135.1474   89.9922  139.4579 H         1 THR         0.1884
    156 H        -135.1501   90.9943  142.2576 H         1 THR         0.0826
    157 H        -137.1398   91.4977  140.7412 H         1 THR         0.0639
    158 H        -138.6173   90.9468  142.4551 H         1 THR         0.2101
    159 H        -138.8152   89.7108  140.4210 H         1 THR         0.0257
    160 H        -137.6681   88.5124  141.1099 H         1 THR         0.0257
    161 H        -137.2800   89.3417  139.5645 H         1 THR         0.0257
    162 H        -135.2751   89.6221  143.9787 H         1 SER         0.1884
    163 H        -135.1682   86.7090  143.3937 H         1 SER         0.0823
    164 H        -132.8317   87.6967  143.5950 H         1 SER         0.0606
    165 H        -133.2211   86.3715  144.7434 H         1 SER         0.0606
    166 H        -132.2007   88.1703  145.7603 H         1 SER         0.2097
    167 H        -135.1983   85.4691  145.5506 H         1 ILE         0.1883
    168 H        -137.2840   86.7751  147.2410 H         1 ILE         0.0803
    169 H        -136.9941   83.8448  146.4178 H         1 ILE         0.0345
    170 H        -137.8589   85.4465  144.6955 H         1 ILE         0.0267
    171 H        -139.1943   85.8678  145.8207 H         1 ILE         0.0267
    172 H        -137.7809   84.0680  148.7466 H         1 ILE         0.0235
    173 H        -139.0697   83.4511  147.6580 H         1 ILE         0.0235
    174 H        -139.0916   85.1653  148.1945 H         1 ILE         0.0235
    175 H        -139.9309   84.2533  144.1170 H         1 ILE         0.0230
    176 H        -139.9834   83.5288  145.7598 H         1 ILE         0.0230
    177 H        -138.6480   83.1076  144.6346 H         1 ILE         0.0230
    178 H        -136.7060   87.0881  149.2847 H         1 ASN         0.1885
    179 H        -134.6735   85.2291  150.4313 H         1 ASN         0.0826
    180 H        -134.2449   87.1830  152.0703 H         1 ASN         0.0551
    181 H        -135.1493   88.1959  150.8944 H         1 ASN         0.0551
    182 H        -131.3996   86.7147  149.9733 H         1 ASN         0.1814
    183 H        -132.3491   85.9890  151.2270 H         1 ASN         0.1814
    184 H        -135.0037   84.2780  152.3648 H         1 ARG         0.1883
    185 H        -137.3889   85.1608  153.9338 H         1 ARG         0.0800
    186 H        -136.0491   82.4193  153.9454 H         1 ARG         0.0313
    187 H        -137.5898   82.8278  153.1171 H         1 ARG         0.0313
    188 H        -138.5430   83.4785  155.3449 H         1 ARG         0.0301
    189 H        -137.0306   82.8889  156.1143 H         1 ARG         0.0301
    190 H        -138.9044   81.2381  156.1845 H         1 ARG         0.0689
    191 H        -137.4421   80.6353  155.3332 H         1 ARG         0.0689
    192 H        -138.6674   80.4651  153.3739 H         1 ARG         0.2642
    193 H        -141.8731   82.6024  154.6730 H         1 ARG         0.2615
    194 H        -140.4050   82.5260  155.6838 H         1 ARG         0.2615
    195 H        -140.5307   80.5708  152.1036 H         1 ARG         0.2615
    196 H        -141.9392   81.5148  152.6586 H         1 ARG         0.2615
    197 H        -136.9956   85.9721  155.8867 H         1 LYS         0.1876
    198 H        -134.2016   85.7929  156.9146 H         1 LYS         0.0751
    199 O1       -134.8838   85.2126  159.2802 O.co2     1 LYS        -0.4120
    200 H        -135.1774   87.9470  158.2171 H         1 LYS         0.0306
    201 H        -136.1908   88.0196  156.7358 H         1 LYS         0.0306
    202 H        -134.2010   88.1127  155.3370 H         1 LYS         0.0269
    203 H        -133.1466   87.9272  156.7794 H         1 LYS         0.0269
    204 H        -133.0859   90.2170  156.5589 H         1 LYS         0.0317
    205 H        -134.5348   90.0599  157.6091 H         1 LYS         0.0317
    206 H        -135.0478   91.5983  155.8195 H         1 LYS         0.0813
    207 H        -135.9566   90.0744  155.5392 H         1 LYS         0.0813
    208 H        -134.9167   90.8819  153.5335 H         1 LYS         0.1994
    209 H        -134.2556   89.4379  153.9662 H         1 LYS         0.1994
    210 H        -133.4228   90.8343  154.2231 H         1 LYS         0.1994
@<TRIPOS>BOND
     1    1    2 1  
     2    2    3 1  
     3    2    5 1  
     4    3    4 2  
     5    3    6 am 
     6    6    7 1  
     7    7    8 1  
     8    7   10 1  
     9    8    9 2  
    10    8   17 am 
    11   10   11 1  
    12   11   12 1  
    13   12   13 1  
    14   13   14 ar 
    15   14   15 ar 
    16   14   16 ar 
    17   17   18 1  
    18   18   19 1  
    19   18   21 1  
    20   19   20 2  
    21   19   29 am 
    22   21   22 1  
    23   22   23 ar 
    24   22   24 ar 
    25   23   25 ar 
    26   24   26 ar 
    27   25   27 ar 
    28   26   27 ar 
    29   27   28 1  
    30   29   30 1  
    31   30   31 1  
    32   31   32 2  
    33   31   33 am 
    34   33   34 1  
    35   34   35 1  
    36   34   37 1  
    37   35   36 2  
    38   35   40 am 
    39   37   38 1  
    40   37   39 1  
    41   40   41 1  
    42   41   42 1  
    43   41   44 1  
    44   42   43 2  
    45   42   46 am 
    46   44   45 1  
    47   46   47 1  
    48   47   48 1  
    49   47   50 1  
    50   48   49 2  
    51   48   54 am 
    52   50   51 1  
    53   51   52 2  
    54   51   53 am 
    55   54   55 1  
    56   55   56 1  
    57   55   58 1  
    58   56   57 2  
    59   56   61 am 
    60   58   59 1  
    61   58   60 1  
    62   61   62 1  
    63   62   63 1  
    64   62   65 1  
    65   63   64 2  
    66   63   67 am 
    67   65   66 1  
    68   67   68 1  
    69   68   69 1  
    70   68   71 1  
    71   69   70 2  
    72   69   75 am 
    73   71   72 1  
    74   71   73 1  
    75   72   74 1  
    76   75   76 1  
    77   76   77 1  
    78   76   79 1  
    79   77   78 2  
    80   77   83 am 
    81   79   80 1  
    82   80   81 2  
    83   80   82 am 
    84   83   84 1  
    85   84   85 1  
    86   84   87 1  
    87   85   86 2  
    88   85   94 am 
    89   87   88 1  
    90   88   89 1  
    91   89   90 1  
    92   90   91 ar 
    93   91   92 ar 
    94   91   93 ar 
    95   94   95 1  
    96   95   96 1  
    97   95   98 1  
    98   96   97 ar 
    99   98   99 1  
   100   99  100 1  
   101  100  101 1  
   102  101  102 1  
   103    1  103 1  
   104    1  104 1  
   105    1  105 1  
   106    2  106 1  
   107    5  107 1  
   108    5  108 1  
   109    5  109 1  
   110    6  110 1  
   111    7  111 1  
   112   10  112 1  
   113   10  113 1  
   114   11  114 1  
   115   11  115 1  
   116   12  116 1  
   117   12  117 1  
   118   13  118 1  
   119   15  119 1  
   120   15  120 1  
   121   16  121 1  
   122   16  122 1  
   123   17  123 1  
   124   18  124 1  
   125   21  125 1  
   126   21  126 1  
   127   23  127 1  
   128   24  128 1  
   129   25  129 1  
   130   26  130 1  
   131   28  131 1  
   132   29  132 1  
   133   30  133 1  
   134   30  134 1  
   135   33  135 1  
   136   34  136 1  
   137   37  137 1  
   138   38  138 1  
   139   38  139 1  
   140   38  140 1  
   141   39  141 1  
   142   39  142 1  
   143   39  143 1  
   144   40  144 1  
   145   41  145 1  
   146   44  146 1  
   147   44  147 1  
   148   45  148 1  
   149   46  149 1  
   150   47  150 1  
   151   50  151 1  
   152   50  152 1  
   153   53  153 1  
   154   53  154 1  
   155   54  155 1  
   156   55  156 1  
   157   58  157 1  
   158   59  158 1  
   159   60  159 1  
   160   60  160 1  
   161   60  161 1  
   162   61  162 1  
   163   62  163 1  
   164   65  164 1  
   165   65  165 1  
   166   66  166 1  
   167   67  167 1  
   168   68  168 1  
   169   71  169 1  
   170   72  170 1  
   171   72  171 1  
   172   73  172 1  
   173   73  173 1  
   174   73  174 1  
   175   74  175 1  
   176   74  176 1  
   177   74  177 1  
   178   75  178 1  
   179   76  179 1  
   180   79  180 1  
   181   79  181 1  
   182   82  182 1  
   183   82  183 1  
   184   83  184 1  
   185   84  185 1  
   186   87  186 1  
   187   87  187 1  
   188   88  188 1  
   189   88  189 1  
   190   89  190 1  
   191   89  191 1  
   192   90  192 1  
   193   92  193 1  
   194   92  194 1  
   195   93  195 1  
   196   93  196 1  
   197   94  197 1  
   198   95  198 1  
   199   96  199 ar 
   200   98  200 1  
   201   98  201 1  
   202   99  202 1  
   203   99  203 1  
   204  100  204 1  
   205  100  205 1  
   206  101  206 1  
   207  101  207 1  
   208  102  208 1  
   209  102  209 1  
   210  102  210 1  
@<TRIPOS>SUBSTRUCTURE
     1 ALA         1

