5w4e_ligand
  -I-interpret- 

181182  0  0  0  0  0  0  0  0999 V2000
   -5.2750   29.4860    0.6390 N   0  3  0  0  0
   -4.2150   29.2390    1.6440 C   0  0  0  0  0
   -4.0150   30.4550    2.5310 C   0  0  0  0  0
   -4.2690   31.5780    2.1080 O   0  0  0  0  0
   -2.8700   28.8480    1.0120 C   0  0  0  0  0
   -2.1520   29.9890    0.5710 O   0  0  0  0  0
   -3.5890   30.2340    3.7780 N   0  0  0  0  0
   -3.4520   31.3820    4.6730 C   0  0  0  0  0
   -2.4470   32.3870    4.1260 C   0  0  0  0  0
   -1.5720   32.0800    3.3000 O   0  0  0  0  0
   -2.9540   30.7620    6.0000 C   0  0  0  0  0
   -3.3060   29.3020    5.9070 C   0  0  0  0  0
   -3.1830   28.9780    4.4300 C   0  0  0  0  0
   -2.6190   33.6170    4.5710 N   0  0  0  0  0
   -1.7230   34.6780    4.2010 C   0  0  0  0  0
   -0.3410   34.3240    4.7220 C   0  0  0  0  0
   -0.2140   33.7850    5.8140 O   0  0  0  0  0
   -2.2140   35.9750    4.8330 C   0  0  0  0  0
   -3.6470   36.3280    4.4180 C   0  0  0  0  0
   -3.9660   37.7510    4.7010 C   0  0  0  0  0
   -2.9940   38.6260    4.0600 N   0  0  0  0  0
   -2.9260   39.9360    4.2610 C   0  0  0  0  0
   -3.7910   40.5210    5.0840 N   0  0  0  0  0
   -2.0000   40.6570    3.6370 N   0  0  0  0  0
    0.6950   34.6320    3.9560 N   0  0  0  0  0
    2.0460   34.5430    4.4930 C   0  0  0  0  0
    2.2540   35.5750    5.6150 C   0  0  0  0  0
    2.9340   35.3010    6.5990 O   0  0  0  0  0
    3.0640   34.7440    3.3740 C   0  0  0  0  0
    3.1490   33.5500    2.4290 C   0  0  0  0  0
    4.0280   33.8480    1.2170 C   0  0  0  0  0
    1.6400   36.7450    5.4490 N   0  0  0  0  0
    1.8280   37.9040    6.3170 C   0  0  0  0  0
    0.4770   38.6040    6.4840 C   0  0  0  0  0
   -0.3540   38.5880    5.5740 O   0  0  0  0  0
    2.8460   38.8810    5.6970 C   0  0  0  0  0
    4.2750   38.3460    5.6120 C   0  0  0  0  0
    5.1820   39.3050    4.8710 C   0  0  0  0  0
    6.5740   38.7290    4.6890 C   0  0  0  0  0
    7.4870   39.6080    3.8910 N   0  3  0  0  0
    0.2620   39.1970    7.6530 N   0  0  0  0  0
   -0.9980   39.8520    8.0150 C   0  0  0  0  0
   -0.6850   41.0760    8.8570 C   0  0  0  0  0
   -0.0640   40.9390    9.9160 O   0  0  0  0  0
   -1.8430   38.9550    8.9240 C   0  0  0  0  0
   -2.3160   37.6690    8.3570 C   0  0  0  0  0
   -2.5310   36.6920    9.4920 C   0  0  0  0  0
   -3.5240   37.1900   10.4430 N   0  0  0  0  0
   -3.4510   37.0620   11.7680 C   0  0  0  0  0
   -2.4040   36.4580   12.3330 N   0  0  0  0  0
   -4.4340   37.5480   12.5370 N   0  0  0  0  0
   -1.1250   42.2630    8.4190 N   0  0  0  0  0
   -1.0650   43.3980    9.3360 C   0  0  0  0  0
   -2.2000   43.3100   10.3550 C   0  0  0  0  0
   -3.2170   42.6580   10.1060 O   0  0  0  0  0
   -1.2720   44.6050    8.4080 C   0  0  0  0  0
   -2.1270   44.0860    7.3240 C   0  0  0  0  0
   -1.7760   42.6230    7.1440 C   0  0  0  0  0
   -2.0120   43.9360   11.5080 N   0  0  0  0  0
   -3.1000   44.1200   12.4500 C   0  0  0  0  0
   -3.7030   45.4890   12.1780 C   0  0  0  0  0
   -3.0430   46.5240   12.3360 O   0  0  0  0  0
   -2.6040   44.0210   13.8890 C   0  0  0  0  0
   -3.7200   44.1710   14.9090 C   0  0  0  0  0
   -3.2080   44.0590   16.3220 C   0  0  0  0  0
   -4.2890   44.2890   17.2660 N   0  0  0  0  0
   -4.2680   43.9140   18.5390 C   0  0  0  0  0
   -3.2150   43.3000   19.0350 N   0  0  0  0  0
   -5.3130   44.1520   19.3190 N   0  0  0  0  0
   -4.9460   45.4870   11.7260 N   0  0  0  0  0
   -5.6110   46.7250   11.3360 C   0  0  0  0  0
   -6.6380   47.1860   12.3670 C   0  0  0  0  0
   -6.9730   46.4620   13.3120 O   0  0  0  0  0
   -6.2130   46.5770    9.9400 C   0  0  0  0  0
   -5.1220   46.6630    8.8870 C   0  0  0  0  0
   -5.5750   46.3130    7.4910 C   0  0  0  0  0
   -6.6250   45.7000    7.2900 O   0  0  0  0  0
   -4.7720   46.7020    6.5070 N   0  0  0  0  0
   -7.1060   48.4110   12.1800 N   0  0  0  0  0
   -7.9350   49.1050   13.1650 C   0  0  0  0  0
   -9.2140   48.3360   13.4930 C   0  0  0  0  0
   -9.3490   47.7770   14.5850 O   0  0  0  0  0
   -8.3270   50.4970   12.6440 C   0  0  0  0  0
   -9.2000   50.3490   11.5150 O   0  0  0  0  0
   -7.0800   51.2990   12.2310 C   0  0  0  0  0
  -10.1320   48.2620   12.6710 O   0  0  0  0  0
   -6.1405   29.7404    1.1150 H   0  0  0  0  0
   -4.9877   30.2470    0.0236 H   0  0  0  0  0
   -5.4241   28.6401    0.0889 H   0  0  0  0  0
   -4.5598   28.3954    2.2420 H   0  0  0  0  0
   -3.0658   28.2090    0.1509 H   0  0  0  0  0
   -2.2719   28.3328    1.7637 H   0  0  0  0  0
   -1.3193   29.7112    0.1824 H   0  0  0  0  0
   -4.3842   31.9341    4.7922 H   0  0  0  0  0
   -3.4192   31.2344    6.8651 H   0  0  0  0  0
   -1.8829   30.9104    6.1372 H   0  0  0  0  0
   -4.3058   29.0965    6.2896 H   0  0  0  0  0
   -2.6496   28.6827    6.5183 H   0  0  0  0  0
   -2.1777   28.6634    4.1498 H   0  0  0  0  0
   -3.7993   28.1299    4.1318 H   0  0  0  0  0
   -3.4039   33.8191    5.1903 H   0  0  0  0  0
   -1.6850   34.8062    3.1192 H   0  0  0  0  0
   -1.5599   36.7799    4.4977 H   0  0  0  0  0
   -2.2004   35.8467    5.9153 H   0  0  0  0  0
   -4.3337   35.7021    4.9879 H   0  0  0  0  0
   -3.7451   36.1607    3.3454 H   0  0  0  0  0
   -3.9350   37.9145    5.7782 H   0  0  0  0  0
   -4.9585   37.9768    4.3111 H   0  0  0  0  0
   -2.3236   38.2056    3.4164 H   0  0  0  0  0
   -3.7461   41.5281    5.2392 H   0  0  0  0  0
   -4.4995   39.9627    5.5601 H   0  0  0  0  0
   -1.3416   40.2034    3.0036 H   0  0  0  0  0
    0.5469   34.9309    2.9921 H   0  0  0  0  0
    2.1899   33.5510    4.9211 H   0  0  0  0  0
    4.0434   34.8754    3.8340 H   0  0  0  0  0
    2.7510   35.6096    2.7901 H   0  0  0  0  0
    2.1438   33.3207    2.0752 H   0  0  0  0  0
    3.5873   32.7131    2.9727 H   0  0  0  0  0
    3.6119   34.6919    0.6667 H   0  0  0  0  0
    5.0360   34.0925    1.5521 H   0  0  0  0  0
    4.0615   32.9716    0.5698 H   0  0  0  0  0
    0.9958   36.8376    4.6636 H   0  0  0  0  0
    2.2105   37.5797    7.2848 H   0  0  0  0  0
    2.8743   39.7602    6.3406 H   0  0  0  0  0
    2.5185   39.0743    4.6755 H   0  0  0  0  0
    4.2581   37.3992    5.0722 H   0  0  0  0  0
    4.6580   38.2207    6.6248 H   0  0  0  0  0
    5.2624   40.2228    5.4535 H   0  0  0  0  0
    4.7548   39.4915    3.8857 H   0  0  0  0  0
    6.4703   37.7885    4.1478 H   0  0  0  0  0
    7.0131   38.6160    5.6802 H   0  0  0  0  0
    8.4004   39.1616    3.8085 H   0  0  0  0  0
    7.0922   39.7515    2.9615 H   0  0  0  0  0
    7.5880   40.5074    4.3614 H   0  0  0  0  0
    1.0175   39.1964    8.3383 H   0  0  0  0  0
   -1.5257   40.0845    7.0900 H   0  0  0  0  0
   -2.7426   39.5271    9.1508 H   0  0  0  0  0
   -1.1972   38.6896    9.7610 H   0  0  0  0  0
   -1.5745   37.2742    7.6625 H   0  0  0  0  0
   -3.2503   37.8224    7.8170 H   0  0  0  0  0
   -1.5854   36.5576   10.0172 H   0  0  0  0  0
   -2.8914   35.7513    9.0757 H   0  0  0  0  0
   -4.3372   37.6738   10.0623 H   0  0  0  0  0
   -1.6519   36.0902   11.7504 H   0  0  0  0  0
   -4.3809   37.4558   13.5514 H   0  0  0  0  0
   -5.2358   38.0103   12.1082 H   0  0  0  0  0
   -0.1375   43.4477    9.9064 H   0  0  0  0  0
   -0.3286   45.0021    8.0332 H   0  0  0  0  0
   -1.7304   45.4477    8.9255 H   0  0  0  0  0
   -1.9571   44.6396    6.4005 H   0  0  0  0  0
   -3.1812   44.2013    7.5759 H   0  0  0  0  0
   -2.6505   42.0072    6.9340 H   0  0  0  0  0
   -1.1297   42.4522    6.2831 H   0  0  0  0  0
   -1.0852   44.2951   11.7373 H   0  0  0  0  0
   -3.8487   43.3381   12.3228 H   0  0  0  0  0
   -1.8917   44.8297   14.0526 H   0  0  0  0  0
   -2.1612   43.0339   14.0219 H   0  0  0  0  0
   -4.4441   43.3733   14.7434 H   0  0  0  0  0
   -4.1669   45.1574   14.7844 H   0  0  0  0  0
   -2.4303   44.8061   16.4805 H   0  0  0  0  0
   -2.8047   43.0584   16.4776 H   0  0  0  0  0
   -5.1210   44.7718   16.9268 H   0  0  0  0  0
   -2.4085   43.1096   18.4403 H   0  0  0  0  0
   -5.2972   43.8597   20.2961 H   0  0  0  0  0
   -6.1330   44.6274   18.9421 H   0  0  0  0  0
   -5.4490   44.6030   11.6487 H   0  0  0  0  0
   -4.8611   47.5152   11.3006 H   0  0  0  0  0
   -6.9326   47.3789    9.7747 H   0  0  0  0  0
   -6.7060   45.6078    9.8648 H   0  0  0  0  0
   -4.3524   45.9425    9.1639 H   0  0  0  0  0
   -4.7813   47.6981    8.8629 H   0  0  0  0  0
   -5.0153   46.4953    5.5383 H   0  0  0  0  0
   -3.9121   47.2074    6.7201 H   0  0  0  0  0
   -6.8780   48.8919   11.3099 H   0  0  0  0  0
   -7.3373   49.1872   14.0728 H   0  0  0  0  0
   -8.8353   51.0396   13.4410 H   0  0  0  0  0
   -9.4469   51.2168   11.1869 H   0  0  0  0  0
   -6.4243   51.4185   13.0935 H   0  0  0  0  0
   -6.5508   50.7647   11.4420 H   0  0  0  0  0
   -7.3848   52.2798   11.8661 H   0  0  0  0  0
   -9.8871   48.7403   11.8755 H   0  0  0  0  0
  1  2  1  0  0  0
  2  3  1  0  0  0
  2  5  1  0  0  0
  3  4  2  0  0  0
  3  7  1  0  0  0
  5  6  1  0  0  0
  7  8  1  0  0  0
  7 13  1  0  0  0
  8  9  1  0  0  0
  8 11  1  0  0  0
  9 10  2  0  0  0
  9 14  1  0  0  0
 11 12  1  0  0  0
 12 13  1  0  0  0
 14 15  1  0  0  0
 15 16  1  0  0  0
 15 18  1  0  0  0
 16 17  2  0  0  0
 16 25  1  0  0  0
 18 19  1  0  0  0
 19 20  1  0  0  0
 20 21  1  0  0  0
 21 22  1  0  0  0
 22 23  1  0  0  0
 22 24  2  0  0  0
 25 26  1  0  0  0
 26 27  1  0  0  0
 26 29  1  0  0  0
 27 28  2  0  0  0
 27 32  1  0  0  0
 29 30  1  0  0  0
 30 31  1  0  0  0
 32 33  1  0  0  0
 33 34  1  0  0  0
 33 36  1  0  0  0
 34 35  2  0  0  0
 34 41  1  0  0  0
 36 37  1  0  0  0
 37 38  1  0  0  0
 38 39  1  0  0  0
 39 40  1  0  0  0
 41 42  1  0  0  0
 42 43  1  0  0  0
 42 45  1  0  0  0
 43 44  2  0  0  0
 43 52  1  0  0  0
 45 46  1  0  0  0
 46 47  1  0  0  0
 47 48  1  0  0  0
 48 49  1  0  0  0
 49 50  2  0  0  0
 49 51  1  0  0  0
 52 53  1  0  0  0
 52 58  1  0  0  0
 53 54  1  0  0  0
 53 56  1  0  0  0
 54 55  2  0  0  0
 54 59  1  0  0  0
 56 57  1  0  0  0
 57 58  1  0  0  0
 59 60  1  0  0  0
 60 61  1  0  0  0
 60 63  1  0  0  0
 61 62  2  0  0  0
 61 70  1  0  0  0
 63 64  1  0  0  0
 64 65  1  0  0  0
 65 66  1  0  0  0
 66 67  1  0  0  0
 67 68  2  0  0  0
 67 69  1  0  0  0
 70 71  1  0  0  0
 71 72  1  0  0  0
 71 74  1  0  0  0
 72 73  2  0  0  0
 72 79  1  0  0  0
 74 75  1  0  0  0
 75 76  1  0  0  0
 76 77  2  0  0  0
 76 78  1  0  0  0
 79 80  1  0  0  0
 80 81  1  0  0  0
 80 83  1  0  0  0
 81 82  2  0  0  0
 81 86  1  0  0  0
 83 84  1  0  0  0
 83 85  1  0  0  0
  1 87  1  0  0  0
  1 88  1  0  0  0
  1 89  1  0  0  0
  2 90  1  0  0  0
  5 91  1  0  0  0
  5 92  1  0  0  0
  6 93  1  0  0  0
  8 94  1  0  0  0
 11 95  1  0  0  0
 11 96  1  0  0  0
 12 97  1  0  0  0
 12 98  1  0  0  0
 13 99  1  0  0  0
 13100  1  0  0  0
 14101  1  0  0  0
 15102  1  0  0  0
 18103  1  0  0  0
 18104  1  0  0  0
 19105  1  0  0  0
 19106  1  0  0  0
 20107  1  0  0  0
 20108  1  0  0  0
 21109  1  0  0  0
 23110  1  0  0  0
 23111  1  0  0  0
 24112  1  0  0  0
 25113  1  0  0  0
 26114  1  0  0  0
 29115  1  0  0  0
 29116  1  0  0  0
 30117  1  0  0  0
 30118  1  0  0  0
 31119  1  0  0  0
 31120  1  0  0  0
 31121  1  0  0  0
 32122  1  0  0  0
 33123  1  0  0  0
 36124  1  0  0  0
 36125  1  0  0  0
 37126  1  0  0  0
 37127  1  0  0  0
 38128  1  0  0  0
 38129  1  0  0  0
 39130  1  0  0  0
 39131  1  0  0  0
 40132  1  0  0  0
 40133  1  0  0  0
 40134  1  0  0  0
 41135  1  0  0  0
 42136  1  0  0  0
 45137  1  0  0  0
 45138  1  0  0  0
 46139  1  0  0  0
 46140  1  0  0  0
 47141  1  0  0  0
 47142  1  0  0  0
 48143  1  0  0  0
 50144  1  0  0  0
 51145  1  0  0  0
 51146  1  0  0  0
 53147  1  0  0  0
 56148  1  0  0  0
 56149  1  0  0  0
 57150  1  0  0  0
 57151  1  0  0  0
 58152  1  0  0  0
 58153  1  0  0  0
 59154  1  0  0  0
 60155  1  0  0  0
 63156  1  0  0  0
 63157  1  0  0  0
 64158  1  0  0  0
 64159  1  0  0  0
 65160  1  0  0  0
 65161  1  0  0  0
 66162  1  0  0  0
 68163  1  0  0  0
 69164  1  0  0  0
 69165  1  0  0  0
 70166  1  0  0  0
 71167  1  0  0  0
 74168  1  0  0  0
 74169  1  0  0  0
 75170  1  0  0  0
 75171  1  0  0  0
 78172  1  0  0  0
 78173  1  0  0  0
 79174  1  0  0  0
 80175  1  0  0  0
 83176  1  0  0  0
 84177  1  0  0  0
 85178  1  0  0  0
 85179  1  0  0  0
 85180  1  0  0  0
 86181  1  0  0  0
M  END
$$$$
