### 
### Created by X-TOOL on Mon Aug  2 16:11:41 2021
### 

@<TRIPOS>MOLECULE
5w4e_ligand
  183   184     1     0     0
SMALL
GAST_HUCK


@<TRIPOS>ATOM
      1 N          -5.2750   29.4860    0.6390 N.4       1 SER         0.2396
      2 CA         -4.2150   29.2390    1.6440 C.3       1 SER         0.0886
      3 C          -4.0150   30.4550    2.5310 C.2       1 SER         0.2315
      4 O          -4.2690   31.5780    2.1080 O.2       1 SER        -0.3904
      5 CB         -2.8700   28.8480    1.0120 C.3       1 SER         0.1041
      6 OG         -2.1520   29.9890    0.5710 O.3       1 SER        -0.3870
      7 N          -3.5890   30.2340    3.7780 N.am      1 SER        -0.2471
      8 CA         -3.4520   31.3820    4.6730 C.3       1 SER         0.1339
      9 C          -2.4470   32.3870    4.1260 C.2       1 SER         0.2041
     10 O          -1.5720   32.0800    3.3000 O.2       1 SER        -0.3944
     11 CB         -2.9540   30.7620    6.0000 C.3       1 SER        -0.0104
     12 CG         -3.3060   29.3020    5.9070 C.3       1 SER        -0.0281
     13 CD         -3.1830   28.9780    4.4300 C.3       1 SER         0.0371
     14 N          -2.6190   33.6170    4.5710 N.am      1 SER        -0.2637
     15 CA         -1.7230   34.6780    4.2010 C.3       1 SER         0.1311
     16 C          -0.3410   34.3240    4.7220 C.2       1 SER         0.2039
     17 O          -0.2140   33.7850    5.8140 O.2       1 SER        -0.3944
     18 CB         -2.2140   35.9750    4.8330 C.3       1 SER        -0.0092
     19 CG         -3.6470   36.3280    4.4180 C.3       1 SER        -0.0156
     20 CD         -3.9660   37.7510    4.7010 C.3       1 SER         0.0627
     21 NE         -2.9940   38.6260    4.0600 N.pl3     1 SER        -0.2723
     22 CZ         -2.9260   39.9360    4.2610 C.cat     1 SER         0.2882
     23 NH1        -3.7910   40.5210    5.0840 N.pl3     1 SER        -0.2849
     24 NH2        -2.0000   40.6570    3.6370 N.pl3     1 SER        -0.2849
     25 N           0.6950   34.6320    3.9560 N.am      1 SER        -0.2637
     26 CA          2.0460   34.5430    4.4930 C.3       1 SER         0.1310
     27 C           2.2540   35.5750    5.6150 C.2       1 SER         0.2039
     28 O           2.9340   35.3010    6.5990 O.2       1 SER        -0.3944
     29 CB          3.0640   34.7440    3.3740 C.3       1 SER        -0.0126
     30 CG          3.1490   33.5500    2.4290 C.3       1 SER        -0.0517
     31 CD          4.0280   33.8480    1.2170 C.3       1 SER        -0.0651
     32 N           1.6400   36.7450    5.4490 N.am      1 SER        -0.2637
     33 CA          1.8280   37.9040    6.3170 C.3       1 SER         0.1310
     34 C           0.4770   38.6040    6.4840 C.2       1 SER         0.2039
     35 O          -0.3540   38.5880    5.5740 O.2       1 SER        -0.3944
     36 CB          2.8460   38.8810    5.6970 C.3       1 SER        -0.0122
     37 CG          4.2750   38.3460    5.6120 C.3       1 SER        -0.0440
     38 CD          5.1820   39.3050    4.8710 C.3       1 SER        -0.0124
     39 CE          6.5740   38.7290    4.6890 C.3       1 SER        -0.0354
     40 NZ          7.4870   39.6080    3.8910 N.4       1 SER         0.2185
     41 N           0.2620   39.1970    7.6530 N.am      1 SER        -0.2637
     42 CA         -0.9980   39.8520    8.0150 C.3       1 SER         0.1313
     43 C          -0.6850   41.0760    8.8570 C.2       1 SER         0.2064
     44 O          -0.0640   40.9390    9.9160 O.2       1 SER        -0.3942
     45 CB         -1.8430   38.9550    8.9240 C.3       1 SER        -0.0092
     46 CG         -2.3160   37.6690    8.3570 C.3       1 SER        -0.0156
     47 CD         -2.5310   36.6920    9.4920 C.3       1 SER         0.0627
     48 NE         -3.5240   37.1900   10.4430 N.pl3     1 SER        -0.2723
     49 CZ         -3.4510   37.0620   11.7680 C.cat     1 SER         0.2882
     50 NH1        -2.4040   36.4580   12.3330 N.pl3     1 SER        -0.2849
     51 NH2        -4.4340   37.5480   12.5370 N.pl3     1 SER        -0.2849
     52 N          -1.1250   42.2630    8.4190 N.am      1 SER        -0.2498
     53 CA         -1.0650   43.3980    9.3360 C.3       1 SER         0.1338
     54 C          -2.2000   43.3100   10.3550 C.2       1 SER         0.2041
     55 O          -3.2170   42.6580   10.1060 O.2       1 SER        -0.3944
     56 CB         -1.2720   44.6050    8.4080 C.3       1 SER        -0.0104
     57 CG         -2.1270   44.0860    7.3240 C.3       1 SER        -0.0281
     58 CD         -1.7760   42.6230    7.1440 C.3       1 SER         0.0369
     59 N          -2.0120   43.9360   11.5080 N.am      1 SER        -0.2637
     60 CA         -3.1000   44.1200   12.4500 C.3       1 SER         0.1311
     61 C          -3.7030   45.4890   12.1780 C.2       1 SER         0.2039
     62 O          -3.0430   46.5240   12.3360 O.2       1 SER        -0.3944
     63 CB         -2.6040   44.0210   13.8890 C.3       1 SER        -0.0092
     64 CG         -3.7200   44.1710   14.9090 C.3       1 SER        -0.0156
     65 CD         -3.2080   44.0590   16.3220 C.3       1 SER         0.0627
     66 NE         -4.2890   44.2890   17.2660 N.pl3     1 SER        -0.2723
     67 CZ         -4.2680   43.9140   18.5390 C.cat     1 SER         0.2882
     68 NH1        -3.2150   43.3000   19.0350 N.pl3     1 SER        -0.2849
     69 NH2        -5.3130   44.1520   19.3190 N.pl3     1 SER        -0.2849
     70 N          -4.9460   45.4870   11.7260 N.am      1 SER        -0.2636
     71 CA         -5.6110   46.7250   11.3360 C.3       1 SER         0.1330
     72 C          -6.6380   47.1860   12.3670 C.2       1 SER         0.2036
     73 O          -6.9730   46.4620   13.3120 O.2       1 SER        -0.3944
     74 CB         -6.2130   46.5770    9.9400 C.3       1 SER         0.0045
     75 CG         -5.1220   46.6630    8.8870 C.3       1 SER         0.0412
     76 CD         -5.5750   46.3130    7.4910 C.2       1 SER         0.1737
     77 OE1        -6.6250   45.7000    7.2900 O.2       1 SER        -0.3973
     78 NE2        -4.7720   46.7020    6.5070 N.am      1 SER        -0.3009
     79 N          -7.1060   48.4110   12.1800 N.am      1 SER        -0.2670
     80 CA         -7.9350   49.1050   13.1650 C.3       1 SER         0.1198
     81 C          -9.2140   48.3360   13.4930 C.2       1 SER         0.0626
     82 O          -9.3490   47.7770   14.5850 O.co2     1 SER        -0.5665
     83 CB         -8.3270   50.4970   12.6440 C.3       1 SER         0.0869
     84 OG1        -9.2000   50.3490   11.5150 O.3       1 SER        -0.3880
     85 CG2        -7.0800   51.2990   12.2310 C.3       1 SER        -0.0352
     86 OXT       -10.1320   48.2620   12.6710 O.co2     1 SER        -0.5665
     87 H1         -5.3895   28.6666    0.0631 H         1 SER         0.2016
     88 H2         -5.0139   30.2692    0.0607 H         1 SER         0.2016
     89 H3         -6.1429   29.6901    1.1092 H         1 SER         0.2016
     90 H4         -4.5465   28.4021    2.2761 H         1 SER         0.1122
     91 H5         -3.0575   28.1890    0.1514 H         1 SER         0.0640
     92 H6         -2.2661   28.3124    1.7593 H         1 SER         0.0640
     93 H7         -1.9826   30.5605    1.3107 H         1 SER         0.2099
     94 H8         -4.4220   31.8804    4.8170 H         1 SER         0.0802
     95 H9         -3.4610   31.2275    6.8580 H         1 SER         0.0313
     96 H10        -1.8664   30.8912    6.1025 H         1 SER         0.0313
     97 H11        -4.3328   29.1258    6.2600 H         1 SER         0.0287
     98 H12        -2.6055   28.6942    6.4985 H         1 SER         0.0287
     99 H13        -2.1477   28.7140    4.1685 H         1 SER         0.0524
    100 H14        -3.8539   28.1526    4.1496 H         1 SER         0.0524
    101 H15        -3.3885   33.8151    5.1781 H         1 SER         0.1883
    102 H16        -1.6936   34.7866    3.1068 H         1 SER         0.0800
    103 H17        -1.5462   36.7925    4.5235 H         1 SER         0.0313
    104 H18        -2.1804   35.8684    5.9273 H         1 SER         0.0313
    105 H19        -4.3473   35.6881    4.9748 H         1 SER         0.0301
    106 H20        -3.7612   36.1448    3.3394 H         1 SER         0.0301
    107 H21        -3.9431   37.9184    5.7879 H         1 SER         0.0689
    108 H22        -4.9703   37.9810    4.3156 H         1 SER         0.0689
    109 H23        -2.3171   38.2015    3.4100 H         1 SER         0.2642
    110 H24        -3.7431   41.5374    5.2439 H         1 SER         0.2615
    111 H25        -4.5090   39.9578    5.5617 H         1 SER         0.2615
    112 H26        -1.3325   40.1984    3.0006 H         1 SER         0.2615
    113 H27        -1.9499   41.6744    3.7899 H         1 SER         0.2615
    114 H28         0.5498   34.9250    3.0110 H         1 SER         0.1883
    115 H29         2.1879   33.5380    4.9169 H         1 SER         0.0800
    116 H30         4.0541   34.9061    3.8249 H         1 SER         0.0312
    117 H31         2.7760   35.6322    2.7925 H         1 SER         0.0312
    118 H32         2.1363   33.2984    2.0811 H         1 SER         0.0265
    119 H33         3.5727   32.6938    2.9742 H         1 SER         0.0265
    120 H34         4.0626   32.9642    0.5630 H         1 SER         0.0230
    121 H35         5.0456   34.0949    1.5539 H         1 SER         0.0230
    122 H36         3.6091   34.6995    0.6607 H         1 SER         0.0230
    123 H37         1.0084   36.8358    4.6790 H         1 SER         0.1883
    124 H38         2.1964   37.5717    7.2988 H         1 SER         0.0800
    125 H39         2.8585   39.7959    6.3076 H         1 SER         0.0312
    126 H40         2.5103   39.1247    4.6782 H         1 SER         0.0312
    127 H41         4.2651   37.3819    5.0826 H         1 SER         0.0269
    128 H42         4.6638   38.2010    6.6307 H         1 SER         0.0269
    129 H43         5.2552   40.2415    5.4433 H         1 SER         0.0317
    130 H44         4.7495   39.5129    3.8812 H         1 SER         0.0317
    131 H45         6.4853   37.7611    4.1739 H         1 SER         0.0813
    132 H46         7.0197   38.5759    5.6829 H         1 SER         0.0813
    133 H47         8.3901   39.1678    3.8088 H         1 SER         0.1994
    134 H48         7.5876   40.4972    4.3549 H         1 SER         0.1994
    135 H49         7.0979   39.7505    2.9721 H         1 SER         0.1994
    136 H50         1.0027   39.1964    8.3248 H         1 SER         0.1883
    137 H51        -1.5560   40.1240    7.1069 H         1 SER         0.0800
    138 H52        -2.7309   39.5307    9.2242 H         1 SER         0.0313
    139 H53        -1.2389   38.7222    9.8133 H         1 SER         0.0313
    140 H54        -1.5618   37.2703    7.6626 H         1 SER         0.0301
    141 H55        -3.2626   37.8267    7.8193 H         1 SER         0.0301
    142 H56        -1.5771   36.5386   10.0179 H         1 SER         0.0689
    143 H57        -2.8800   35.7342    9.0787 H         1 SER         0.0689
    144 H58        -4.3452   37.6786   10.0585 H         1 SER         0.2642
    145 H59        -2.3552   36.3632   13.3575 H         1 SER         0.2615
    146 H60        -1.6445   36.0865   11.7447 H         1 SER         0.2615
    147 H61        -5.2436   38.0148   12.1040 H         1 SER         0.2615
    148 H62        -4.3803   37.4549   13.5614 H         1 SER         0.2615
    149 H63        -0.0956   43.4489    9.8533 H         1 SER         0.0802
    150 H64        -0.3102   44.9604    8.0099 H         1 SER         0.0313
    151 H65        -1.7738   45.4257    8.9415 H         1 SER         0.0313
    152 H66        -1.9330   44.6382    6.3927 H         1 SER         0.0287
    153 H67        -3.1875   44.1890    7.5973 H         1 SER         0.0287
    154 H68        -2.6809   42.0192    6.9808 H         1 SER         0.0524
    155 H69        -1.0861   42.4858    6.2983 H         1 SER         0.0524
    156 H70        -1.1034   44.2880   11.7328 H         1 SER         0.1883
    157 H71        -3.8620   43.3440   12.2853 H         1 SER         0.0800
    158 H72        -1.8624   44.8151   14.0604 H         1 SER         0.0313
    159 H73        -2.1289   43.0390   14.0301 H         1 SER         0.0313
    160 H74        -4.4669   43.3818   14.7377 H         1 SER         0.0301
    161 H75        -4.1912   45.1564   14.7785 H         1 SER         0.0301
    162 H76        -2.4190   44.8082   16.4833 H         1 SER         0.0689
    163 H77        -2.7952   43.0518   16.4804 H         1 SER         0.0689
    164 H78        -5.1292   44.7766   16.9235 H         1 SER         0.2642
    165 H79        -3.2053   43.0117   20.0238 H         1 SER         0.2615
    166 H80        -2.4006   43.1078   18.4344 H         1 SER         0.2615
    167 H81        -6.1410   44.6321   18.9384 H         1 SER         0.2615
    168 H82        -5.2970   43.8569   20.3057 H         1 SER         0.2615
    169 H83        -5.4391   44.6203   11.6502 H         1 SER         0.1883
    170 H84        -4.8405   47.5081   11.2802 H         1 SER         0.0801
    171 H85        -6.9441   47.3816    9.7723 H         1 SER         0.0337
    172 H86        -6.7165   45.6021    9.8628 H         1 SER         0.0337
    173 H87        -4.3149   45.9715    9.1704 H         1 SER         0.0504
    174 H88        -4.7354   47.6927    8.8753 H         1 SER         0.0504
    175 H89        -5.0123   46.5023    5.5570 H         1 SER         0.1814
    176 H90        -3.9272   47.1945    6.7162 H         1 SER         0.1814
    177 H91        -6.8824   48.8825   11.3269 H         1 SER         0.1876
    178 H92        -7.3484   49.2201   14.0884 H         1 SER         0.0752
    179 H93        -8.8538   51.0424   13.4409 H         1 SER         0.0632
    180 H94        -9.9800   49.8754   11.7792 H         1 SER         0.2100
    181 H95        -7.3863   52.2891   11.8625 H         1 SER         0.0256
    182 H96        -6.5450   50.7608   11.4346 H         1 SER         0.0256
    183 H97        -6.4174   51.4203   13.1006 H         1 SER         0.0256
@<TRIPOS>BOND
     1    1    2 1  
     2    2    3 1  
     3    2    5 1  
     4    3    4 2  
     5    3    7 am 
     6    5    6 1  
     7    7    8 1  
     8    7   13 1  
     9    8    9 1  
    10    8   11 1  
    11    9   10 2  
    12    9   14 am 
    13   11   12 1  
    14   12   13 1  
    15   14   15 1  
    16   15   16 1  
    17   15   18 1  
    18   16   17 2  
    19   16   25 am 
    20   18   19 1  
    21   19   20 1  
    22   20   21 1  
    23   21   22 ar 
    24   22   23 ar 
    25   22   24 ar 
    26   25   26 1  
    27   26   27 1  
    28   26   29 1  
    29   27   28 2  
    30   27   32 am 
    31   29   30 1  
    32   30   31 1  
    33   32   33 1  
    34   33   34 1  
    35   33   36 1  
    36   34   35 2  
    37   34   41 am 
    38   36   37 1  
    39   37   38 1  
    40   38   39 1  
    41   39   40 1  
    42   41   42 1  
    43   42   43 1  
    44   42   45 1  
    45   43   44 2  
    46   43   52 am 
    47   45   46 1  
    48   46   47 1  
    49   47   48 1  
    50   48   49 ar 
    51   49   50 ar 
    52   49   51 ar 
    53   52   53 1  
    54   52   58 1  
    55   53   54 1  
    56   53   56 1  
    57   54   55 2  
    58   54   59 am 
    59   56   57 1  
    60   57   58 1  
    61   59   60 1  
    62   60   61 1  
    63   60   63 1  
    64   61   62 2  
    65   61   70 am 
    66   63   64 1  
    67   64   65 1  
    68   65   66 1  
    69   66   67 ar 
    70   67   68 ar 
    71   67   69 ar 
    72   70   71 1  
    73   71   72 1  
    74   71   74 1  
    75   72   73 2  
    76   72   79 am 
    77   74   75 1  
    78   75   76 1  
    79   76   77 2  
    80   76   78 am 
    81   79   80 1  
    82   80   81 1  
    83   80   83 1  
    84   81   82 ar 
    85   81   86 ar 
    86   83   84 1  
    87   83   85 1  
    88    1   87 1  
    89    1   88 1  
    90    1   89 1  
    91    2   90 1  
    92    5   91 1  
    93    5   92 1  
    94    6   93 1  
    95    8   94 1  
    96   11   95 1  
    97   11   96 1  
    98   12   97 1  
    99   12   98 1  
   100   13   99 1  
   101   13  100 1  
   102   14  101 1  
   103   15  102 1  
   104   18  103 1  
   105   18  104 1  
   106   19  105 1  
   107   19  106 1  
   108   20  107 1  
   109   20  108 1  
   110   21  109 1  
   111   23  110 1  
   112   23  111 1  
   113   24  112 1  
   114   24  113 1  
   115   25  114 1  
   116   26  115 1  
   117   29  116 1  
   118   29  117 1  
   119   30  118 1  
   120   30  119 1  
   121   31  120 1  
   122   31  121 1  
   123   31  122 1  
   124   32  123 1  
   125   33  124 1  
   126   36  125 1  
   127   36  126 1  
   128   37  127 1  
   129   37  128 1  
   130   38  129 1  
   131   38  130 1  
   132   39  131 1  
   133   39  132 1  
   134   40  133 1  
   135   40  134 1  
   136   40  135 1  
   137   41  136 1  
   138   42  137 1  
   139   45  138 1  
   140   45  139 1  
   141   46  140 1  
   142   46  141 1  
   143   47  142 1  
   144   47  143 1  
   145   48  144 1  
   146   50  145 1  
   147   50  146 1  
   148   51  147 1  
   149   51  148 1  
   150   53  149 1  
   151   56  150 1  
   152   56  151 1  
   153   57  152 1  
   154   57  153 1  
   155   58  154 1  
   156   58  155 1  
   157   59  156 1  
   158   60  157 1  
   159   63  158 1  
   160   63  159 1  
   161   64  160 1  
   162   64  161 1  
   163   65  162 1  
   164   65  163 1  
   165   66  164 1  
   166   68  165 1  
   167   68  166 1  
   168   69  167 1  
   169   69  168 1  
   170   70  169 1  
   171   71  170 1  
   172   74  171 1  
   173   74  172 1  
   174   75  173 1  
   175   75  174 1  
   176   78  175 1  
   177   78  176 1  
   178   79  177 1  
   179   80  178 1  
   180   83  179 1  
   181   84  180 1  
   182   85  181 1  
   183   85  182 1  
   184   85  183 1  
@<TRIPOS>SUBSTRUCTURE
     1 SER         1

