3tyv_ligand
  -I-interpret- 

 56 60  0  0  0  0  0  0  0  0999 V2000
   29.6190   45.0430   42.6510 C   0  0  0  0  0
   29.2330   46.3300   44.6090 F   0  0  0  0  0
   25.1840   43.5020   44.4850 N   0  0  0  0  0
   21.5600   45.6500   44.1330 O   0  0  0  0  0
   24.2650   45.2990   40.4500 S   0  0  0  0  0
   29.1940   44.0230   41.7920 C   0  0  0  0  0
   27.5940   42.3560   41.2550 F   0  0  0  0  0
   21.0890   47.4830   45.4480 N   0  0  0  0  0
   24.3540   46.6540   43.0750 O   0  0  0  0  0
   24.3420   43.9590   47.9310 C   0  0  0  0  0
   26.2940   40.9330   48.3990 F   0  0  0  0  0
   24.0850   44.6680   41.9920 N   0  0  0  0  0
   23.8690   44.2510   39.5310 O   0  0  0  0  0
   27.6930   44.6440   44.0650 C   0  0  0  0  0
   23.6720   46.5930   40.3360 O   0  0  0  0  0
   25.8050   42.0410   46.4200 C   0  0  0  0  0
   24.4530   44.0760   46.5210 C   0  0  0  0  0
   23.9650   45.0180   45.5880 C   0  0  0  0  0
   24.9840   42.8910   48.5780 C   0  0  0  0  0
   27.2460   43.6000   43.2150 C   0  0  0  0  0
   25.1900   43.1230   45.8030 C   0  0  0  0  0
   28.8650   45.3460   43.7740 C   0  0  0  0  0
   28.0140   43.3160   42.0780 C   0  0  0  0  0
   25.6770   41.9510   47.8070 C   0  0  0  0  0
   24.4630   44.6690   44.3290 C   0  0  0  0  0
   22.5050   48.1260   47.2370 C   0  0  0  0  0
   23.3870   47.0160   46.9370 C   0  0  0  0  0
   21.3990   48.3320   46.4930 C   0  0  0  0  0
   23.1320   46.1590   45.9050 C   0  0  0  0  0
   21.8670   46.3970   45.0920 C   0  0  0  0  0
   24.3030   45.4280   43.1210 C   0  0  0  0  0
   26.6340   46.7300   40.5350 C   0  0  0  0  0
   26.4440   46.3480   39.0890 C   0  0  0  0  0
   26.0540   45.4010   40.1820 C   0  0  0  0  0
   24.9070   42.7410   50.0810 C   0  0  0  0  0
   25.9820   42.8120   43.4670 C   0  0  0  0  0
   30.5350   45.5944   42.4387 H   0  0  0  0  0
   29.7766   43.7779   40.9040 H   0  0  0  0  0
   23.7670   44.6872   48.5030 H   0  0  0  0  0
   23.8059   43.6927   42.0982 H   0  0  0  0  0
   27.1164   44.9008   44.9537 H   0  0  0  0  0
   26.3609   41.2978   45.8484 H   0  0  0  0  0
   22.7358   48.7957   48.0655 H   0  0  0  0  0
   24.2751   46.8615   47.5498 H   0  0  0  0  0
   20.7449   49.1745   46.7178 H   0  0  0  0  0
   24.2191   46.2240   45.8603 H   0  0  0  0  0
   26.4150   47.5691   41.1953 H   0  0  0  0  0
   27.4140   47.1377   41.1780 H   0  0  0  0  0
   27.0140   46.3399   38.1600 H   0  0  0  0  0
   26.0204   46.7690   38.1772 H   0  0  0  0  0
   26.2929   44.3658   40.4257 H   0  0  0  0  0
   25.3350   43.6241   50.5554 H   0  0  0  0  0
   23.8646   42.6348   50.3813 H   0  0  0  0  0
   25.4662   41.8563   50.3857 H   0  0  0  0  0
   25.4090   42.7313   42.5433 H   0  0  0  0  0
   26.2363   41.8111   43.8156 H   0  0  0  0  0
  6  1  4  0  0  0
 22  1  4  0  0  0
 22  2  1  0  0  0
  3 21  4  0  0  0
 25  3  4  0  0  0
  3 36  1  0  0  0
 30  4  2  0  0  0
  5 12  1  0  0  0
  5 13  2  0  0  0
  5 15  2  0  0  0
 34  5  1  0  0  0
 23  6  4  0  0  0
 23  7  1  0  0  0
  8 28  2  0  0  0
 30  8  1  0  0  0
 31  9  2  0  0  0
 17 10  4  0  0  0
 10 19  4  0  0  0
 24 11  1  0  0  0
 12 31  1  0  0  0
 20 14  4  0  0  0
 14 22  4  0  0  0
 21 16  4  0  0  0
 16 24  4  0  0  0
 18 17  4  0  0  0
 17 21  4  0  0  0
 25 18  4  0  0  0
 18 29  1  0  0  0
 19 24  4  0  0  0
 19 35  1  0  0  0
 20 23  4  0  0  0
 36 20  1  0  0  0
 31 25  1  0  0  0
 27 26  2  0  0  0
 26 28  1  0  0  0
 29 27  1  0  0  0
 29 30  1  0  0  0
 32 33  1  0  0  0
 32 34  1  0  0  0
 33 34  1  0  0  0
  1 37  1  0  0  0
  6 38  1  0  0  0
 10 39  1  0  0  0
 12 40  1  0  0  0
 14 41  1  0  0  0
 16 42  1  0  0  0
 26 43  1  0  0  0
 27 44  1  0  0  0
 28 45  1  0  0  0
 29 46  1  0  0  0
 32 47  1  0  0  0
 32 48  1  0  0  0
 33 49  1  0  0  0
 33 50  1  0  0  0
 34 51  1  0  0  0
 35 52  1  0  0  0
 35 53  1  0  0  0
 35 54  1  0  0  0
 36 55  1  0  0  0
 36 56  1  0  0  0
M  END
$$$$
