5ier_ligand
  -I-interpret- 

 54 57  0  0  0  0  0  0  0  0999 V2000
  -31.9090    7.8830   41.8770 C   0  0  0  0  0
  -38.9500   11.7490   41.7690 C   0  0  0  0  0
  -35.9040    8.1210   40.9710 C   0  0  0  0  0
  -33.2690    6.3670   40.6280 O   0  0  0  0  0
  -39.5250   16.4560   41.4160 O   0  0  0  0  0
  -32.5500    9.6630   40.0150 O   0  0  0  0  0
  -38.6290   14.6940   40.1620 C   0  0  0  0  0
  -38.1420   12.6750   38.8470 C   0  0  0  0  0
  -38.6730   14.6370   42.7290 C   0  0  0  0  0
  -36.8230   11.9510   38.6180 C   0  0  0  0  0
  -35.9850   10.9160   42.3030 C   0  0  0  0  0
  -35.1320    9.3330   38.3180 C   0  0  0  0  0
  -37.5170   13.6620   42.5550 C   0  0  0  0  0
  -34.7140   10.1030   41.9930 C   0  0  0  0  0
  -34.0170    8.3210   38.6540 C   0  0  0  0  0
  -32.9490    7.5340   40.8460 C   0  0  0  0  0
  -38.9830   15.3520   41.4380 C   0  0  0  0  0
  -38.1210   13.4510   40.1380 C   0  0  0  0  0
  -36.5430   10.9970   39.7850 C   0  0  0  0  0
  -36.4490   11.8080   41.1170 C   0  0  0  0  0
  -35.2420   10.2150   39.5610 C   0  0  0  0  0
  -37.7550   12.6540   41.3950 C   0  0  0  0  0
  -34.8680    9.2560   40.7180 C   0  0  0  0  0
  -33.5710    8.6750   40.0920 C   0  0  0  0  0
  -32.2340    7.5262   42.8543 H   0  0  0  0  0
  -30.9635    7.4098   41.6121 H   0  0  0  0  0
  -31.7792    8.9648   41.9085 H   0  0  0  0  0
  -38.7226   11.2110   42.6893 H   0  0  0  0  0
  -39.8378   12.3640   41.9161 H   0  0  0  0  0
  -39.1297   11.0358   40.9646 H   0  0  0  0  0
  -35.5563    7.4890   41.7881 H   0  0  0  0  0
  -36.8659    8.5609   41.2342 H   0  0  0  0  0
  -36.0123    7.5216   40.0671 H   0  0  0  0  0
  -32.2621    9.8938   40.9013 H   0  0  0  0  0
  -38.7831   15.2274   39.2240 H   0  0  0  0  0
  -38.9405   11.9349   38.8991 H   0  0  0  0  0
  -38.3033   13.3722   38.0248 H   0  0  0  0  0
  -38.3934   15.3777   43.4783 H   0  0  0  0  0
  -39.5562   14.0777   43.0375 H   0  0  0  0  0
  -36.0179   12.6827   38.5503 H   0  0  0  0  0
  -36.8825   11.3791   37.6920 H   0  0  0  0  0
  -35.7585   11.5745   43.1415 H   0  0  0  0  0
  -36.7857   10.2075   42.5153 H   0  0  0  0  0
  -36.0747    8.8375   38.0860 H   0  0  0  0  0
  -34.8985    9.9143   37.4260 H   0  0  0  0  0
  -37.4162   13.0926   43.4790 H   0  0  0  0  0
  -36.6232   14.2398   42.3195 H   0  0  0  0  0
  -34.5281    9.4291   42.8293 H   0  0  0  0  0
  -33.8913   10.8016   41.8406 H   0  0  0  0  0
  -33.1889    8.3848   37.9481 H   0  0  0  0  0
  -34.3717    7.2927   38.5838 H   0  0  0  0  0
  -37.3637   10.2823   39.8468 H   0  0  0  0  0
  -35.6625   12.5539   41.0019 H   0  0  0  0  0
  -34.5754   11.0717   39.4616 H   0  0  0  0  0
 16  1  1  0  0  0
 22  2  1  0  0  0
 23  3  1  0  0  0
 16  4  2  0  0  0
 17  5  2  0  0  0
 24  6  1  0  0  0
  7 17  1  0  0  0
 18  7  2  0  0  0
 10  8  1  0  0  0
  8 18  1  0  0  0
 13  9  1  0  0  0
 17  9  1  0  0  0
 19 10  1  0  0  0
 11 14  1  0  0  0
 20 11  1  0  0  0
 12 15  1  0  0  0
 21 12  1  0  0  0
 22 13  1  0  0  0
 14 23  1  0  0  0
 15 24  1  0  0  0
 24 16  1  0  0  0
 18 22  1  0  0  0
 19 20  1  0  0  0
 19 21  1  0  0  0
 20 22  1  0  0  0
 21 23  1  0  0  0
 23 24  1  0  0  0
  1 25  1  0  0  0
  1 26  1  0  0  0
  1 27  1  0  0  0
  2 28  1  0  0  0
  2 29  1  0  0  0
  2 30  1  0  0  0
  3 31  1  0  0  0
  3 32  1  0  0  0
  3 33  1  0  0  0
  6 34  1  0  0  0
  7 35  1  0  0  0
  8 36  1  0  0  0
  8 37  1  0  0  0
  9 38  1  0  0  0
  9 39  1  0  0  0
 10 40  1  0  0  0
 10 41  1  0  0  0
 11 42  1  0  0  0
 11 43  1  0  0  0
 12 44  1  0  0  0
 12 45  1  0  0  0
 13 46  1  0  0  0
 13 47  1  0  0  0
 14 48  1  0  0  0
 14 49  1  0  0  0
 15 50  1  0  0  0
 15 51  1  0  0  0
 19 52  1  0  0  0
 20 53  1  0  0  0
 21 54  1  0  0  0
M  END
$$$$
