4ckj_ligand
  -I-interpret- 

 32 34  0  0  0  0  0  0  0  0999 V2000
   29.1900    8.4640    8.6560 O   0  0  0  0  0
   29.5740    9.6030    7.9000 C   0  0  0  0  0
   29.2420   10.8590    8.6620 C   0  0  0  0  0
   27.8470   11.1960    8.4470 O   0  0  0  0  0
   29.3770   10.7610   10.1770 C   0  0  0  0  0
   30.6780   11.0970   10.5890 O   0  0  0  0  0
   28.3930   11.7800   10.6820 C   0  0  0  0  0
   28.9900   13.0690   10.5550 O   0  0  0  0  0
   27.2820   11.6930    9.6410 C   0  0  0  0  0
   26.1830   10.7860   10.0060 N   0  0  0  0  0
   26.0550    9.4380    9.7330 C   0  0  0  0  0
   24.9390    8.9110   10.1670 N   0  0  0  0  0
   24.2700   10.0000   10.7430 C   0  0  0  0  0
   23.0460   10.1050   11.4130 C   0  0  0  0  0
   22.1900    9.0940   11.5830 N   0  0  0  0  0
   22.7330   11.3110   11.9520 N   0  0  0  0  0
   23.5780   12.3370   11.7930 C   0  0  0  0  0
   24.7490   12.3630   11.1600 N   0  0  0  0  0
   25.0350   11.1470   10.6470 C   0  0  0  0  0
   29.4045    7.6678    8.1644 H   0  0  0  0  0
   29.0353    9.6041    6.9524 H   0  0  0  0  0
   30.6477    9.5672    7.7158 H   0  0  0  0  0
   29.9586   11.5906    8.2886 H   0  0  0  0  0
   29.1895    9.7547   10.5515 H   0  0  0  0  0
   31.2961   10.4398   10.2608 H   0  0  0  0  0
   28.0727   11.6227   11.7119 H   0  0  0  0  0
   29.6967   13.1579   11.1986 H   0  0  0  0  0
   26.8626   12.6948    9.5479 H   0  0  0  0  0
   26.8158    8.8646    9.2033 H   0  0  0  0  0
   22.4120    8.1700   11.2124 H   0  0  0  0  0
   21.3143    9.2459   12.0835 H   0  0  0  0  0
   23.2648   13.2791   12.2429 H   0  0  0  0  0
  1  2  1  0  0  0
  2  3  1  0  0  0
  3  4  1  0  0  0
  3  5  1  0  0  0
  4  9  1  0  0  0
  5  6  1  0  0  0
  5  7  1  0  0  0
  7  8  1  0  0  0
  7  9  1  0  0  0
  9 10  1  0  0  0
 10 11  4  0  0  0
 10 19  4  0  0  0
 11 12  4  0  0  0
 12 13  4  0  0  0
 13 14  4  0  0  0
 13 19  4  0  0  0
 14 15  1  0  0  0
 14 16  4  0  0  0
 16 17  4  0  0  0
 17 18  4  0  0  0
 18 19  4  0  0  0
  1 20  1  0  0  0
  2 21  1  0  0  0
  2 22  1  0  0  0
  3 23  1  0  0  0
  5 24  1  0  0  0
  6 25  1  0  0  0
  7 26  1  0  0  0
  8 27  1  0  0  0
  9 28  1  0  0  0
 11 29  1  0  0  0
 15 30  1  0  0  0
 15 31  1  0  0  0
 17 32  1  0  0  0
M  END
$$$$
