### 
### Created by X-TOOL on Mon Aug  2 16:15:42 2021
### 

@<TRIPOS>MOLECULE
6oh3_ligand
   70    72     1     0     0
SMALL
GAST_HUCK


@<TRIPOS>ATOM
      1 O3P       -22.7660   -9.5310   22.8330 O.co2     1 NCC        -0.6177
      2 P         -23.5010   -9.6040   21.5160 P.3       1 NCC         0.2584
      3 O2P       -24.8440   -8.7040   21.5270 O.3       1 NCC        -0.2161
      4 O1P       -22.7500   -9.2890   20.2480 O.co2     1 NCC        -0.6177
      5 O5'       -24.2010  -11.0420   21.2990 O.3       1 NCC        -0.2514
      6 C5'       -23.9990  -12.1800   22.1350 C.3       1 NCC         0.1124
      7 C4'       -25.2680  -13.0260   22.2060 C.3       1 NCC         0.1190
      8 O4'       -25.9220  -13.1250   20.9330 O.3       1 NCC        -0.3353
      9 C1'       -26.2270  -14.5040   20.6970 C.3       1 NCC         0.2109
     10 N1        -26.3130  -14.8820   19.2810 N.am      1 NCC        -0.1467
     11 C6        -25.5480  -14.2760   18.3570 C.2       1 NCC         0.0739
     12 C5        -25.6490  -14.6540   17.0200 C.2       1 NCC         0.0019
     13 C4        -26.5420  -15.6630   16.6570 C.2       1 NCC         0.0853
     14 N4        -26.6450  -16.0360   15.3690 N.2       1 NCC        -0.4291
     15 N3        -27.3040  -16.2740   17.5860 N.am      1 NCC        -0.1924
     16 C2        -27.2120  -15.9100   18.8830 C.2       1 NCC         0.3488
     17 O2        -27.9350  -16.4990   19.7130 O.2       1 NCC        -0.3777
     18 C2'       -25.1120  -15.2640   21.3830 C.3       1 NCC         0.1399
     19 O2'       -25.4430  -16.6340   21.6270 O.3       1 NCC        -0.3835
     20 C3'       -24.9510  -14.4510   22.6480 C.3       1 NCC         0.1150
     21 O3'       -25.8720  -14.8800   23.6610 O.3       1 NCC        -0.3864
     22 C9        -24.6750   -6.4370   22.2850 C.2       1 NCC         0.1094
     23 O1B       -23.7640   -6.3230   21.4270 O.co2     1 NCC        -0.5423
     24 O1A       -25.0800   -5.4480   22.9420 O.co2     1 NCC        -0.5423
     25 C10       -25.2910   -7.8000   22.5530 C.3       1 NCC         0.2525
     26 O6        -24.9330   -8.2120   23.8830 O.3       1 NCC        -0.3346
     27 C12       -25.5280   -9.4010   24.4430 C.3       1 NCC         0.1146
     28 C13       -24.8330   -9.5280   25.8150 C.3       1 NCC         0.1114
     29 O7        -23.4960   -9.9780   25.5530 O.3       1 NCC        -0.3865
     30 C14       -25.4110  -10.4470   26.8990 C.3       1 NCC         0.1065
     31 O8        -24.9200   -9.9680   28.1570 O.3       1 NCC        -0.3869
     32 C15       -25.0110  -11.9240   26.7830 C.3       1 NCC         0.0727
     33 O9        -25.0540  -12.3920   25.4310 O.3       1 NCC        -0.3924
     34 C16       -27.0640   -9.3200   24.3910 C.3       1 NCC         0.0964
     35 N5        -27.6880  -10.5880   24.7400 N.am      1 NCC        -0.2790
     36 C17       -28.9440  -10.7050   25.1830 C.2       1 NCC         0.1733
     37 O10       -29.6910   -9.7560   25.3510 O.2       1 NCC        -0.3974
     38 C18       -29.4060  -12.1040   25.4530 C.3       1 NCC         0.0257
     39 C19       -27.4930   -8.9710   22.9640 C.3       1 NCC         0.0854
     40 O4        -28.9150   -8.8040   22.8500 O.3       1 NCC        -0.3893
     41 C20       -26.8170   -7.6990   22.4640 C.3       1 NCC         0.0402
     42 H1        -23.7325  -11.8423   23.1474 H         1 NCC         0.0647
     43 H2        -23.1806  -12.7896   21.7245 H         1 NCC         0.0647
     44 H3        -25.9538  -12.5622   22.9303 H         1 NCC         0.0651
     45 H4        -27.1905  -14.7444   21.1701 H         1 NCC         0.1013
     46 H5        -24.8518  -13.4924   18.6523 H         1 NCC         0.1288
     47 H6        -25.0358  -14.1658   16.2639 H         1 NCC         0.0330
     48 H7        -27.2896  -16.7647   15.1053 H         1 NCC         0.0340
     49 H8        -27.9383  -16.9978   17.3143 H         1 NCC         0.2412
     50 H9        -24.1913  -15.2326   20.7820 H         1 NCC         0.0677
     51 H10       -26.2109  -16.6786   22.1844 H         1 NCC         0.2101
     52 H11       -23.9228  -14.5245   23.0319 H         1 NCC         0.0648
     53 H12       -25.7492  -14.3538   24.4424 H         1 NCC         0.2100
     54 H13       -25.2426  -10.2747   23.8387 H         1 NCC         0.0646
     55 H14       -24.8003   -8.5167   26.2465 H         1 NCC         0.0647
     56 H15       -23.0513   -9.3432   25.0037 H         1 NCC         0.2100
     57 H16       -26.5085  -10.3787   26.8687 H         1 NCC         0.0643
     58 H17       -23.9706  -10.0011   28.1585 H         1 NCC         0.2100
     59 H18       -25.7035  -12.5270   27.3886 H         1 NCC         0.0584
     60 H19       -23.9874  -12.0449   27.1671 H         1 NCC         0.0584
     61 H20       -24.4538  -11.8809   24.9009 H         1 NCC         0.2095
     62 H21       -27.4071   -8.5410   25.0877 H         1 NCC         0.0608
     63 H22       -27.1445  -11.4217   24.6425 H         1 NCC         0.1856
     64 H23       -30.4461  -12.0841   25.8106 H         1 NCC         0.0467
     65 H24       -28.7633  -12.5608   26.2200 H         1 NCC         0.0467
     66 H25       -29.3480  -12.6945   24.5268 H         1 NCC         0.0467
     67 H26       -27.1899   -9.8036   22.3122 H         1 NCC         0.0618
     68 H27       -29.3486   -9.6115   23.0998 H         1 NCC         0.2099
     69 H28       -27.1033   -7.5311   21.4153 H         1 NCC         0.0340
     70 H29       -27.1551   -6.8504   23.0768 H         1 NCC         0.0340
@<TRIPOS>BOND
     1    2    1 ar 
     2    3    2 1  
     3    2    4 ar 
     4    2    5 1  
     5   25    3 1  
     6    5    6 1  
     7    6    7 1  
     8    7    8 1  
     9    7   20 1  
    10    8    9 1  
    11    9   10 1  
    12   18    9 1  
    13   10   11 1  
    14   10   16 am 
    15   11   12 2  
    16   12   13 1  
    17   13   14 2  
    18   15   13 1  
    19   16   15 am 
    20   16   17 2  
    21   18   19 1  
    22   20   18 1  
    23   20   21 1  
    24   22   23 ar 
    25   22   24 ar 
    26   22   25 1  
    27   25   26 1  
    28   25   41 1  
    29   26   27 1  
    30   27   28 1  
    31   27   34 1  
    32   28   29 1  
    33   28   30 1  
    34   30   31 1  
    35   30   32 1  
    36   32   33 1  
    37   34   35 1  
    38   34   39 1  
    39   35   36 am 
    40   36   37 2  
    41   36   38 1  
    42   39   40 1  
    43   39   41 1  
    44    6   42 1  
    45    6   43 1  
    46    7   44 1  
    47    9   45 1  
    48   11   46 1  
    49   12   47 1  
    50   14   48 1  
    51   15   49 1  
    52   18   50 1  
    53   19   51 1  
    54   20   52 1  
    55   21   53 1  
    56   27   54 1  
    57   28   55 1  
    58   29   56 1  
    59   30   57 1  
    60   31   58 1  
    61   32   59 1  
    62   32   60 1  
    63   33   61 1  
    64   34   62 1  
    65   35   63 1  
    66   38   64 1  
    67   38   65 1  
    68   38   66 1  
    69   39   67 1  
    70   40   68 1  
    71   41   69 1  
    72   41   70 1  
@<TRIPOS>SUBSTRUCTURE
     1 NCC         1

