6oh3_ligand
  -I-interpret- 

 72 74  0  0  0  0  0  0  0  0999 V2000
  -22.7660   -9.5310   22.8330 O   0  0  0  0  0
  -23.5010   -9.6040   21.5160 P   0  0  0  0  0
  -24.8440   -8.7040   21.5270 O   0  0  0  0  0
  -22.7500   -9.2890   20.2480 O   0  0  0  0  0
  -24.2010  -11.0420   21.2990 O   0  0  0  0  0
  -23.9990  -12.1800   22.1350 C   0  0  0  0  0
  -25.2680  -13.0260   22.2060 C   0  0  0  0  0
  -25.9220  -13.1250   20.9330 O   0  0  0  0  0
  -26.2270  -14.5040   20.6970 C   0  0  0  0  0
  -26.3130  -14.8820   19.2810 N   0  0  0  0  0
  -25.5480  -14.2760   18.3570 C   0  0  0  0  0
  -25.6490  -14.6540   17.0200 C   0  0  0  0  0
  -26.5420  -15.6630   16.6570 C   0  0  0  0  0
  -26.6450  -16.0360   15.3690 N   0  0  0  0  0
  -27.3040  -16.2740   17.5860 N   0  0  0  0  0
  -27.2120  -15.9100   18.8830 C   0  0  0  0  0
  -27.9350  -16.4990   19.7130 O   0  0  0  0  0
  -25.1120  -15.2640   21.3830 C   0  0  0  0  0
  -25.4430  -16.6340   21.6270 O   0  0  0  0  0
  -24.9510  -14.4510   22.6480 C   0  0  0  0  0
  -25.8720  -14.8800   23.6610 O   0  0  0  0  0
  -24.6750   -6.4370   22.2850 C   0  0  0  0  0
  -23.7640   -6.3230   21.4270 O   0  0  0  0  0
  -25.0800   -5.4480   22.9420 O   0  0  0  0  0
  -25.2910   -7.8000   22.5530 C   0  0  0  0  0
  -24.9330   -8.2120   23.8830 O   0  0  0  0  0
  -25.5280   -9.4010   24.4430 C   0  0  0  0  0
  -24.8330   -9.5280   25.8150 C   0  0  0  0  0
  -23.4960   -9.9780   25.5530 O   0  0  0  0  0
  -25.4110  -10.4470   26.8990 C   0  0  0  0  0
  -24.9200   -9.9680   28.1570 O   0  0  0  0  0
  -25.0110  -11.9240   26.7830 C   0  0  0  0  0
  -25.0540  -12.3920   25.4310 O   0  0  0  0  0
  -27.0640   -9.3200   24.3910 C   0  0  0  0  0
  -27.6880  -10.5880   24.7400 N   0  0  0  0  0
  -28.9440  -10.7050   25.1830 C   0  0  0  0  0
  -29.6910   -9.7560   25.3510 O   0  0  0  0  0
  -29.4060  -12.1040   25.4530 C   0  0  0  0  0
  -27.4930   -8.9710   22.9640 C   0  0  0  0  0
  -28.9150   -8.8040   22.8500 O   0  0  0  0  0
  -26.8170   -7.6990   22.4640 C   0  0  0  0  0
  -23.3675   -9.7555   23.5467 H   0  0  0  0  0
  -23.7442  -11.8403   23.1389 H   0  0  0  0  0
  -23.1935  -12.7854   21.7193 H   0  0  0  0  0
  -25.9178  -12.5254   22.9238 H   0  0  0  0  0
  -27.2206  -14.7309   21.0834 H   0  0  0  0  0
  -24.8512  -13.4917   18.6526 H   0  0  0  0  0
  -25.0352  -14.1654   16.2633 H   0  0  0  0  0
  -26.0708  -15.5815   14.6589 H   0  0  0  0  0
  -27.9509  -17.0123   17.3088 H   0  0  0  0  0
  -24.1980  -15.3508   20.7954 H   0  0  0  0  0
  -24.7051  -17.0678   22.0616 H   0  0  0  0  0
  -23.9574  -14.5525   23.0846 H   0  0  0  0  0
  -25.6582  -15.7773   23.9270 H   0  0  0  0  0
  -23.5903   -7.1799   21.0305 H   0  0  0  0  0
  -25.3697  -10.3307   23.8964 H   0  0  0  0  0
  -24.9580   -8.5368   26.2508 H   0  0  0  0  0
  -23.0228  -10.0719   26.3830 H   0  0  0  0  0
  -26.4954  -10.4147   26.7930 H   0  0  0  0  0
  -25.2617  -10.5204   28.8639 H   0  0  0  0  0
  -25.7170  -12.5132   27.3682 H   0  0  0  0  0
  -23.9881  -12.0275   27.1450 H   0  0  0  0  0
  -24.7975  -13.3167   25.4054 H   0  0  0  0  0
  -27.3788   -8.5623   25.1086 H   0  0  0  0  0
  -27.1336  -11.4384   24.6406 H   0  0  0  0  0
  -29.7003  -12.1926   26.4988 H   0  0  0  0  0
  -30.2584  -12.3335   24.8136 H   0  0  0  0  0
  -28.5943  -12.8003   25.2424 H   0  0  0  0  0
  -27.1815   -9.8159   22.3498 H   0  0  0  0  0
  -29.1388   -8.5869   21.9421 H   0  0  0  0  0
  -27.0923   -7.5500   21.4199 H   0  0  0  0  0
  -27.1443   -6.8669   23.0873 H   0  0  0  0  0
  2  1  1  0  0  0
  3  2  1  0  0  0
  2  4  2  0  0  0
  2  5  1  0  0  0
 25  3  1  0  0  0
  5  6  1  0  0  0
  6  7  1  0  0  0
  7  8  1  0  0  0
  7 20  1  0  0  0
  8  9  1  0  0  0
  9 10  1  0  0  0
 18  9  1  0  0  0
 10 11  1  0  0  0
 10 16  1  0  0  0
 11 12  2  0  0  0
 12 13  1  0  0  0
 13 14  2  0  0  0
 15 13  1  0  0  0
 16 15  1  0  0  0
 16 17  2  0  0  0
 18 19  1  0  0  0
 20 18  1  0  0  0
 20 21  1  0  0  0
 22 23  1  0  0  0
 22 24  2  0  0  0
 22 25  1  0  0  0
 25 26  1  0  0  0
 25 41  1  0  0  0
 26 27  1  0  0  0
 27 28  1  0  0  0
 27 34  1  0  0  0
 28 29  1  0  0  0
 28 30  1  0  0  0
 30 31  1  0  0  0
 30 32  1  0  0  0
 32 33  1  0  0  0
 34 35  1  0  0  0
 34 39  1  0  0  0
 35 36  1  0  0  0
 36 37  2  0  0  0
 36 38  1  0  0  0
 39 40  1  0  0  0
 39 41  1  0  0  0
  1 42  1  0  0  0
  6 43  1  0  0  0
  6 44  1  0  0  0
  7 45  1  0  0  0
  9 46  1  0  0  0
 11 47  1  0  0  0
 12 48  1  0  0  0
 14 49  1  0  0  0
 15 50  1  0  0  0
 18 51  1  0  0  0
 19 52  1  0  0  0
 20 53  1  0  0  0
 21 54  1  0  0  0
 23 55  1  0  0  0
 27 56  1  0  0  0
 28 57  1  0  0  0
 29 58  1  0  0  0
 30 59  1  0  0  0
 31 60  1  0  0  0
 32 61  1  0  0  0
 32 62  1  0  0  0
 33 63  1  0  0  0
 34 64  1  0  0  0
 35 65  1  0  0  0
 38 66  1  0  0  0
 38 67  1  0  0  0
 38 68  1  0  0  0
 39 69  1  0  0  0
 40 70  1  0  0  0
 41 71  1  0  0  0
 41 72  1  0  0  0
M  END
$$$$
