1pw6_ligand
  -I-interpret- 

 68 71  0  0  0  0  0  0  0  0999 V2000
   94.3120   19.3070    9.3370 N   0  0  0  0  0
   94.1410   20.5630    8.9540 C   0  0  0  0  0
   94.7950   21.0120    7.8880 N   0  0  0  0  0
   93.3170   21.3460    9.6520 N   0  0  0  0  0
   92.4610   22.3590    9.0540 C   0  0  0  0  0
   92.6020   23.6300    9.8870 C   0  0  0  0  0
   94.0150   24.2080    9.7580 C   0  0  0  0  0
   94.2020   25.4860   10.5810 C   0  0  0  0  0
   93.1310   26.5340   10.2690 C   0  0  0  0  0
   91.7220   25.9530   10.3780 C   0  0  0  0  0
   91.5740   24.6990    9.5150 C   0  0  0  0  0
   91.0340   21.8870    8.9540 C   0  0  0  0  0
   90.4700   21.4000    9.9200 O   0  0  0  0  0
   90.4370   22.0170    7.7690 N   0  0  0  0  0
   89.2010   22.5140    7.6720 C   0  0  0  0  0
   88.8210   23.1870    6.5700 C   0  0  0  0  0
   89.6680   23.7400    5.8830 O   0  0  0  0  0
   87.4500   23.2590    6.1900 N   0  0  0  0  0
   86.4610   22.3660    6.8150 C   0  0  0  0  0
   85.7200   21.6190    5.7070 C   0  0  0  0  0
   86.9920   24.2010    5.1450 C   0  0  0  0  0
   86.2460   23.4400    4.0420 C   0  0  0  0  0
   85.1420   22.5630    4.6440 C   0  0  0  0  0
   84.3660   21.7350    3.6740 C   0  0  0  0  0
   83.1890   21.1160    3.8770 N   0  0  0  0  0
   82.8400   20.4790    2.7940 N   0  0  0  0  0
   84.8440   21.4970    2.3840 C   0  0  0  0  0
   83.8090   20.7060    1.9070 C   0  0  0  0  0
   83.6820   20.1190    0.6450 C   0  0  0  0  0
   84.8190   19.5150   -0.1040 C   0  0  0  0  0
   86.5010   19.5270    0.5070 Cl  0  0  0  0  0
   82.4080   20.0420    0.0720 C   0  0  0  0  0
   82.1900   19.4470   -1.1740 C   0  0  0  0  0
   83.2320   18.8840   -1.9120 C   0  0  0  0  0
   84.5350   18.8940   -1.4240 C   0  0  0  0  0
   85.8690   18.1590   -2.3690 Cl  0  0  0  0  0
   93.8171   18.9513   10.1549 H   0  0  0  0  0
   95.4205   20.3911    7.3745 H   0  0  0  0  0
   94.6715   21.9775    7.5832 H   0  0  0  0  0
   93.2852   21.2275   10.6646 H   0  0  0  0  0
   92.7681   22.5627    8.0282 H   0  0  0  0  0
   92.4154   23.3415   10.9214 H   0  0  0  0  0
   94.1834   24.4549    8.7098 H   0  0  0  0  0
   94.7188   23.4628   10.1287 H   0  0  0  0  0
   95.1750   25.9103   10.3335 H   0  0  0  0  0
   94.1248   25.2249   11.6364 H   0  0  0  0  0
   93.2801   26.8833    9.2473 H   0  0  0  0  0
   93.2244   27.3455   10.9907 H   0  0  0  0  0
   91.0090   26.7009   10.0310 H   0  0  0  0  0
   91.5354   25.6844   11.4178 H   0  0  0  0  0
   90.5777   24.2874    9.6763 H   0  0  0  0  0
   91.7320   24.9789    8.4735 H   0  0  0  0  0
   90.9317   21.7326    6.9236 H   0  0  0  0  0
   89.1450   23.2532    8.4711 H   0  0  0  0  0
   88.5561   21.6354    7.6862 H   0  0  0  0  0
   85.7562   22.9471    7.4097 H   0  0  0  0  0
   86.9619   21.6564    7.4735 H   0  0  0  0  0
   84.8903   21.0790    6.1631 H   0  0  0  0  0
   86.4317   20.9556    5.2155 H   0  0  0  0  0
   87.8568   24.7035    4.7116 H   0  0  0  0  0
   86.3200   24.9334    5.5924 H   0  0  0  0  0
   86.9537   22.8028    3.5117 H   0  0  0  0  0
   85.7930   24.1599    3.3604 H   0  0  0  0  0
   84.4443   23.2858    5.0670 H   0  0  0  0  0
   85.7591   21.8330    1.8963 H   0  0  0  0  0
   81.5591   20.4589    0.6139 H   0  0  0  0  0
   81.1788   19.4221   -1.5801 H   0  0  0  0  0
   83.0229   18.4315   -2.8813 H   0  0  0  0  0
  1  2  2  0  0  0
  2  3  1  0  0  0
  2  4  1  0  0  0
  4  5  1  0  0  0
  5  6  1  0  0  0
  5 12  1  0  0  0
  6  7  1  0  0  0
  6 11  1  0  0  0
  7  8  1  0  0  0
  8  9  1  0  0  0
  9 10  1  0  0  0
 10 11  1  0  0  0
 12 13  2  0  0  0
 12 14  1  0  0  0
 14 15  1  0  0  0
 15 16  1  0  0  0
 16 17  2  0  0  0
 16 18  1  0  0  0
 18 19  1  0  0  0
 18 21  1  0  0  0
 19 20  1  0  0  0
 20 23  1  0  0  0
 21 22  1  0  0  0
 22 23  1  0  0  0
 23 24  1  0  0  0
 24 25  4  0  0  0
 24 27  4  0  0  0
 25 26  4  0  0  0
 26 28  4  0  0  0
 27 28  4  0  0  0
 28 29  1  0  0  0
 29 30  4  0  0  0
 29 32  4  0  0  0
 30 31  1  0  0  0
 30 35  4  0  0  0
 32 33  4  0  0  0
 33 34  4  0  0  0
 34 35  4  0  0  0
 35 36  1  0  0  0
  1 37  1  0  0  0
  3 38  1  0  0  0
  3 39  1  0  0  0
  4 40  1  0  0  0
  5 41  1  0  0  0
  6 42  1  0  0  0
  7 43  1  0  0  0
  7 44  1  0  0  0
  8 45  1  0  0  0
  8 46  1  0  0  0
  9 47  1  0  0  0
  9 48  1  0  0  0
 10 49  1  0  0  0
 10 50  1  0  0  0
 11 51  1  0  0  0
 11 52  1  0  0  0
 14 53  1  0  0  0
 15 54  1  0  0  0
 15 55  1  0  0  0
 19 56  1  0  0  0
 19 57  1  0  0  0
 20 58  1  0  0  0
 20 59  1  0  0  0
 21 60  1  0  0  0
 21 61  1  0  0  0
 22 62  1  0  0  0
 22 63  1  0  0  0
 23 64  1  0  0  0
 27 65  1  0  0  0
 32 66  1  0  0  0
 33 67  1  0  0  0
 34 68  1  0  0  0
M  END
$$$$
