4bcp_ligand
  -I-interpret- 

 55 58  0  0  0  0  0  0  0  0999 V2000
    3.6970   21.2090   18.6260 C   0  0  0  0  0
    4.4310   20.0390   19.0130 N   0  0  0  0  0
    5.4570   20.1550   20.0100 C   0  0  0  0  0
    6.2270   19.1690   20.4990 N   0  0  0  0  0
    7.1310   19.5270   21.4370 C   0  0  0  0  0
    8.0650   18.4770   22.0720 C   0  0  0  0  0
    7.1550   20.8950   21.7900 C   0  0  0  0  0
    7.9510   21.5880   22.7040 C   0  0  0  0  0
    7.3360   22.3990   23.6120 N   0  0  0  0  0
    8.0410   23.1080   24.5000 C   0  0  0  0  0
    7.3450   23.9650   25.4800 N   0  0  0  0  0
    6.1050   24.5900   25.2170 C   0  0  0  0  0
    5.7610   25.7770   25.9460 C   0  0  0  0  0
    4.5400   26.4180   25.7120 C   0  0  0  0  0
    3.6420   25.8950   24.7590 C   0  0  0  0  0
    3.9720   24.7240   24.0370 C   0  0  0  0  0
    3.0200   24.1790   23.0430 N   0  0  0  0  0
    2.2110   22.9900   23.1470 C   0  0  0  0  0
    0.7510   23.2910   23.0680 C   0  0  0  0  0
    0.4110   23.9650   21.7720 C   0  0  0  0  0
    1.3740   23.6660   20.7500 N   0  3  0  0  0
    2.4450   24.6150   20.6740 C   0  0  0  0  0
    3.5140   24.4530   21.7220 C   0  0  0  0  0
    5.2190   24.0740   24.2790 C   0  0  0  0  0
    9.4050   23.0310   24.5270 N   0  0  0  0  0
   10.0790   22.2380   23.6340 C   0  0  0  0  0
    9.3640   21.5030   22.7030 C   0  0  0  0  0
   10.0880   20.6430   21.7290 C   0  0  0  0  0
   10.6410   19.9850   20.9880 N   0  0  0  0  0
    5.9370   21.6160   20.8150 S   0  0  0  0  0
    3.1858   21.6201   19.4965 H   0  0  0  0  0
    4.3857   21.9517   18.2232 H   0  0  0  0  0
    2.9637   20.9412   17.8653 H   0  0  0  0  0
    4.2264   19.1360   18.5851 H   0  0  0  0  0
    7.4666   17.7140   22.5697 H   0  0  0  0  0
    8.6717   18.0143   21.2936 H   0  0  0  0  0
    8.7145   18.9632   22.7999 H   0  0  0  0  0
    7.7799   24.1132   26.3907 H   0  0  0  0  0
    6.4535   26.1806   26.6847 H   0  0  0  0  0
    4.2829   27.3209   26.2658 H   0  0  0  0  0
    2.6903   26.3946   24.5780 H   0  0  0  0  0
    2.4098   22.5287   24.1144 H   0  0  0  0  0
    2.4667   22.3327   22.3159 H   0  0  0  0  0
    0.4862   23.9574   23.8889 H   0  0  0  0  0
    0.1968   22.3545   23.1313 H   0  0  0  0  0
    0.4071   25.0426   21.9358 H   0  0  0  0  0
   -0.5633   23.6042   21.4423 H   0  0  0  0  0
    0.8852   23.6847   19.8549 H   0  0  0  0  0
    1.7846   22.7593   20.9731 H   0  0  0  0  0
    2.0037   25.6003   20.8242 H   0  0  0  0  0
    2.9271   24.4688   19.7074 H   0  0  0  0  0
    4.1224   23.5983   21.4263 H   0  0  0  0  0
    4.0542   25.3983   21.7741 H   0  0  0  0  0
    5.4773   23.1705   23.7267 H   0  0  0  0  0
   11.1676   22.1866   23.6567 H   0  0  0  0  0
  1  2  1  0  0  0
  2  3  1  0  0  0
  3  4  4  0  0  0
  3 30  4  0  0  0
  4  5  4  0  0  0
  5  6  1  0  0  0
  5  7  4  0  0  0
  7  8  1  0  0  0
  7 30  4  0  0  0
  8  9  4  0  0  0
  8 27  4  0  0  0
  9 10  4  0  0  0
 10 11  1  0  0  0
 10 25  4  0  0  0
 11 12  1  0  0  0
 12 13  4  0  0  0
 12 24  4  0  0  0
 13 14  4  0  0  0
 14 15  4  0  0  0
 15 16  4  0  0  0
 16 17  1  0  0  0
 16 24  4  0  0  0
 17 18  1  0  0  0
 17 23  1  0  0  0
 18 19  1  0  0  0
 19 20  1  0  0  0
 20 21  1  0  0  0
 21 22  1  0  0  0
 22 23  1  0  0  0
 25 26  4  0  0  0
 26 27  4  0  0  0
 27 28  1  0  0  0
 28 29  3  0  0  0
  1 31  1  0  0  0
  1 32  1  0  0  0
  1 33  1  0  0  0
  2 34  1  0  0  0
  6 35  1  0  0  0
  6 36  1  0  0  0
  6 37  1  0  0  0
 11 38  1  0  0  0
 13 39  1  0  0  0
 14 40  1  0  0  0
 15 41  1  0  0  0
 18 42  1  0  0  0
 18 43  1  0  0  0
 19 44  1  0  0  0
 19 45  1  0  0  0
 20 46  1  0  0  0
 20 47  1  0  0  0
 21 48  1  0  0  0
 21 49  1  0  0  0
 22 50  1  0  0  0
 22 51  1  0  0  0
 23 52  1  0  0  0
 23 53  1  0  0  0
 24 54  1  0  0  0
 26 55  1  0  0  0
M  END
$$$$
