2c1b_ligand
  -I-interpret- 

 52 55  0  0  0  0  0  0  0  0999 V2000
   12.6650   14.1950   -0.1330 Cl  0  0  0  0  0
   13.2450   12.7580    0.5420 C   0  0  0  0  0
   14.0250   11.9220   -0.2550 C   0  0  0  0  0
   14.5520   10.7540    0.2910 C   0  0  0  0  0
   14.3060   10.4030    1.6290 C   0  0  0  0  0
   14.9490    9.1530    2.1380 C   0  0  0  0  0
   14.3120    8.6760    3.3390 O   0  0  0  0  0
   13.5600    7.4940    3.0620 C   0  0  0  0  0
   12.9710    7.0150    4.5000 C   0  0  0  0  0
   11.9460    8.3050    4.8150 N   0  3  0  0  0
   11.2540    8.5020    3.4830 C   0  0  0  0  0
    9.8230    7.9390    3.5500 C   0  0  0  0  0
    9.0270    8.5410    4.6020 N   0  0  0  0  0
    8.4960   10.0900    4.5320 S   0  0  0  0  0
    9.4500   10.9570    3.9800 O   0  0  0  0  0
    8.1120   10.3760    5.8610 O   0  0  0  0  0
    7.2260   10.1130    3.4510 C   0  0  0  0  0
    7.5180   10.2640    2.0960 C   0  0  0  0  0
    6.5270   10.3200    1.0980 C   0  0  0  0  0
    5.1920   10.2040    1.4400 C   0  0  0  0  0
    4.8390   10.0630    2.8030 C   0  0  0  0  0
    3.4600    9.9370    3.1700 C   0  0  0  0  0
    3.0440    9.7730    4.4140 N   0  0  0  0  0
    3.9990    9.7300    5.4010 C   0  0  0  0  0
    5.3690    9.8210    5.1730 C   0  0  0  0  0
    5.8450   10.0030    3.8310 C   0  0  0  0  0
   13.5070   11.2510    2.4190 C   0  0  0  0  0
   12.0980    7.8580    2.3790 C   0  0  0  0  0
   12.9890   12.4240    1.8830 C   0  0  0  0  0
   14.2208   12.1798   -1.2958 H   0  0  0  0  0
   15.1655   10.1014   -0.3301 H   0  0  0  0  0
   15.9919    9.3723    2.3667 H   0  0  0  0  0
   14.8568    8.3832    1.3718 H   0  0  0  0  0
   14.1945    6.8298    2.4752 H   0  0  0  0  0
   13.7253    6.8328    5.2654 H   0  0  0  0  0
   12.4879    6.0379    4.4938 H   0  0  0  0  0
   12.4379    9.1381    5.1382 H   0  0  0  0  0
   11.2971    8.1236    5.5808 H   0  0  0  0  0
   11.1632    9.5626    3.2485 H   0  0  0  0  0
    9.8952    6.8714    3.7574 H   0  0  0  0  0
    9.3358    8.1554    2.5993 H   0  0  0  0  0
    8.7880    7.9779    5.4182 H   0  0  0  0  0
    8.5628   10.3424    1.7954 H   0  0  0  0  0
    6.8120   10.4549    0.0546 H   0  0  0  0  0
    4.4214   10.2210    0.6693 H   0  0  0  0  0
    2.7115    9.9787    2.3788 H   0  0  0  0  0
    3.6612    9.6171    6.4312 H   0  0  0  0  0
    6.0720    9.7549    6.0034 H   0  0  0  0  0
   13.2938   10.9867    3.4548 H   0  0  0  0  0
   11.6145    6.9624    1.9889 H   0  0  0  0  0
   12.2188    8.5351    1.5334 H   0  0  0  0  0
   12.3838   13.0854    2.5030 H   0  0  0  0  0
  1  2  1  0  0  0
  2  3  4  0  0  0
  2 29  4  0  0  0
  3  4  4  0  0  0
  4  5  4  0  0  0
  5  6  1  0  0  0
  5 27  4  0  0  0
  6  7  1  0  0  0
  7  8  1  0  0  0
  8  9  1  0  0  0
  8 28  1  0  0  0
  9 10  1  0  0  0
 10 11  1  0  0  0
 11 12  1  0  0  0
 11 28  1  0  0  0
 12 13  1  0  0  0
 13 14  1  0  0  0
 14 15  2  0  0  0
 14 16  2  0  0  0
 14 17  1  0  0  0
 17 18  4  0  0  0
 17 26  4  0  0  0
 18 19  4  0  0  0
 19 20  4  0  0  0
 20 21  4  0  0  0
 21 22  4  0  0  0
 21 26  4  0  0  0
 22 23  4  0  0  0
 23 24  4  0  0  0
 24 25  4  0  0  0
 25 26  4  0  0  0
 27 29  4  0  0  0
  3 30  1  0  0  0
  4 31  1  0  0  0
  6 32  1  0  0  0
  6 33  1  0  0  0
  8 34  1  0  0  0
  9 35  1  0  0  0
  9 36  1  0  0  0
 10 37  1  0  0  0
 10 38  1  0  0  0
 11 39  1  0  0  0
 12 40  1  0  0  0
 12 41  1  0  0  0
 13 42  1  0  0  0
 18 43  1  0  0  0
 19 44  1  0  0  0
 20 45  1  0  0  0
 22 46  1  0  0  0
 24 47  1  0  0  0
 25 48  1  0  0  0
 27 49  1  0  0  0
 28 50  1  0  0  0
 28 51  1  0  0  0
 29 52  1  0  0  0
M  END
$$$$
