3mhm_ligand
  -I-interpret- 

 47 49  0  0  0  0  0  0  0  0999 V2000
   -3.3430    9.9140   11.1210 N   0  0  0  0  0
   -2.4220    9.2540   11.8640 C   0  0  0  0  0
   -2.7350    8.0690   12.4870 N   0  0  0  0  0
   -3.9790    7.5080   12.3820 C   0  0  0  0  0
   -4.9710    8.1770   11.5950 C   0  0  0  0  0
   -4.6130    9.4050   10.9680 C   0  0  0  0  0
   -4.2960    6.2760   13.0470 N   0  0  0  0  0
   -4.0140    4.4650   14.6110 C   0  0  0  0  0
   -3.2500    3.3330   14.9720 C   0  0  0  0  0
   -3.8010    2.2330   15.6740 C   0  0  0  0  0
   -5.1670    2.2300   16.0110 C   0  0  0  0  0
   -5.9770    3.3330   15.6380 C   0  0  0  0  0
   -5.4020    4.4190   14.9140 C   0  0  0  0  0
   -5.8090    0.7640   16.8990 S   0  0  0  0  0
   -7.3370    0.8270   16.7110 O   0  0  0  0  0
   -5.3660    0.8300   18.3050 O   0  0  0  0  0
   -5.2500   -0.4930   16.0210 N   0  0  0  0  0
   -6.3330    7.6820   11.4330 N   0  0  0  0  0
   -7.0410    8.1600   10.5750 O   0  0  0  0  0
   -6.8670    6.7860   12.2400 O   0  0  0  0  0
   -5.6140   10.0430   10.1920 N   0  0  0  0  0
   -5.4700   11.3370    9.6160 C   0  0  0  0  0
   -5.7580   12.6040   10.4040 C   0  0  0  0  0
   -4.7090   13.2770   11.1040 C   0  0  0  0  0
   -4.9420   14.5060   11.7980 C   0  0  0  0  0
   -6.2240   15.0810   11.8120 C   0  0  0  0  0
   -7.2800   14.4430   11.0790 C   0  0  0  0  0
   -7.0350   13.2160   10.3780 C   0  0  0  0  0
   -3.3440    5.6090   13.8740 C   0  0  0  0  0
   -1.4193    9.6682   11.9692 H   0  0  0  0  0
   -5.2230    5.8682   12.9255 H   0  0  0  0  0
   -2.1950    3.3049   14.6996 H   0  0  0  0  0
   -3.1680    1.3905   15.9526 H   0  0  0  0  0
   -7.0340    3.3506   15.9034 H   0  0  0  0  0
   -6.0442    5.2356   14.5842 H   0  0  0  0  0
   -5.8982   -1.0662   15.4809 H   0  0  0  0  0
   -4.2524   -0.7054   16.0123 H   0  0  0  0  0
   -6.4903    9.5445   10.0371 H   0  0  0  0  0
   -6.2196   11.3507    8.8248 H   0  0  0  0  0
   -4.4036   11.4051    9.4010 H   0  0  0  0  0
   -3.7088   12.8439   11.1091 H   0  0  0  0  0
   -4.1209   14.9989   12.3186 H   0  0  0  0  0
   -6.4135   15.9974   12.3709 H   0  0  0  0  0
   -8.2725   14.8929   11.0549 H   0  0  0  0  0
   -7.8436   12.7475    9.8169 H   0  0  0  0  0
   -2.9388    6.3156   14.5983 H   0  0  0  0  0
   -2.5404    5.2149   13.2520 H   0  0  0  0  0
  2  1  4  0  0  0
  6  1  4  0  0  0
  3  2  4  0  0  0
  4  3  4  0  0  0
  4  5  4  0  0  0
  7  4  1  0  0  0
  5  6  4  0  0  0
  5 18  1  0  0  0
  6 21  1  0  0  0
 29  7  1  0  0  0
  8  9  4  0  0  0
  8 13  4  0  0  0
  8 29  1  0  0  0
  9 10  4  0  0  0
 10 11  4  0  0  0
 11 12  4  0  0  0
 11 14  1  0  0  0
 12 13  4  0  0  0
 14 15  2  0  0  0
 14 16  2  0  0  0
 14 17  1  0  0  0
 18 19  2  0  0  0
 18 20  2  0  0  0
 21 22  1  0  0  0
 22 23  1  0  0  0
 23 24  4  0  0  0
 23 28  4  0  0  0
 24 25  4  0  0  0
 25 26  4  0  0  0
 26 27  4  0  0  0
 27 28  4  0  0  0
  2 30  1  0  0  0
  7 31  1  0  0  0
  9 32  1  0  0  0
 10 33  1  0  0  0
 12 34  1  0  0  0
 13 35  1  0  0  0
 17 36  1  0  0  0
 17 37  1  0  0  0
 21 38  1  0  0  0
 22 39  1  0  0  0
 22 40  1  0  0  0
 24 41  1  0  0  0
 25 42  1  0  0  0
 26 43  1  0  0  0
 27 44  1  0  0  0
 28 45  1  0  0  0
 29 46  1  0  0  0
 29 47  1  0  0  0
M  END
$$$$
