4x0u_ligand
  -I-interpret- 

 28 28  0  0  0  0  0  0  0  0999 V2000
   60.7980   68.4800   12.9810 C   0  0  0  0  0
   60.1310   69.4510   13.3040 O   0  0  0  0  0
   61.7650   68.6400   11.8410 C   0  0  0  0  0
   62.3140   69.8950   11.5950 C   0  0  0  0  0
   63.2090   70.0730   10.5430 C   0  0  0  0  0
   63.5640   69.0030    9.7210 C   0  0  0  0  0
   63.0060   67.7480    9.9750 C   0  0  0  0  0
   62.1110   67.5650   11.0280 C   0  0  0  0  0
   64.4750   69.1930    8.6540 N   0  0  0  0  0
   64.9230   68.0680    7.8320 C   0  0  0  0  0
   63.9220   67.7410    6.7400 C   0  0  0  0  0
   64.9980   70.5290    8.3610 C   0  0  0  0  0
   66.2430   70.8150    9.1820 C   0  0  0  0  0
   60.6954   67.5283   13.5024 H   0  0  0  0  0
   62.0428   70.7405   12.2272 H   0  0  0  0  0
   63.6367   71.0587   10.3598 H   0  0  0  0  0
   63.2735   66.9017    9.3424 H   0  0  0  0  0
   61.6824   66.5803   11.2144 H   0  0  0  0  0
   65.0304   67.1936    8.4739 H   0  0  0  0  0
   65.8685   68.3395    7.3625 H   0  0  0  0  0
   62.9657   67.4782    7.1923 H   0  0  0  0  0
   63.7935   68.6099    6.0946 H   0  0  0  0  0
   64.2900   66.9007    6.1513 H   0  0  0  0  0
   64.2357   71.2667    8.6114 H   0  0  0  0  0
   65.2560   70.5804    7.3032 H   0  0  0  0  0
   65.9981   70.7585   10.2426 H   0  0  0  0  0
   67.0101   70.0778    8.9451 H   0  0  0  0  0
   66.6112   71.8133    8.9455 H   0  0  0  0  0
  1  2  2  0  0  0
  1  3  1  0  0  0
  3  4  4  0  0  0
  3  8  4  0  0  0
  4  5  4  0  0  0
  5  6  4  0  0  0
  6  7  4  0  0  0
  6  9  1  0  0  0
  7  8  4  0  0  0
  9 10  1  0  0  0
  9 12  1  0  0  0
 10 11  1  0  0  0
 12 13  1  0  0  0
  1 14  1  0  0  0
  4 15  1  0  0  0
  5 16  1  0  0  0
  7 17  1  0  0  0
  8 18  1  0  0  0
 10 19  1  0  0  0
 10 20  1  0  0  0
 11 21  1  0  0  0
 11 22  1  0  0  0
 11 23  1  0  0  0
 12 24  1  0  0  0
 12 25  1  0  0  0
 13 26  1  0  0  0
 13 27  1  0  0  0
 13 28  1  0  0  0
M  END
$$$$
