4l1a_ligand
  -I-interpret- 

 94 97  0  0  0  0  0  0  0  0999 V2000
  -13.0920   19.5310    0.3810 C   0  0  0  0  0
  -11.3300   17.6950    0.1140 C   0  0  0  0  0
  -10.9930   17.9610    1.5200 N   0  0  0  0  0
  -11.3660   19.1050    2.1200 C   0  0  0  0  0
  -12.5190   19.6420    1.7150 N   0  0  0  0  0
   -5.4600   10.8830    1.2800 C   0  0  0  0  0
   -4.6410   10.1320    2.1280 C   0  0  0  0  0
   -5.0110    8.8450    2.5030 C   0  0  0  0  0
   -6.2110    8.3200    2.0320 C   0  0  0  0  0
   -7.0390    9.0650    1.1920 C   0  0  0  0  0
   -6.6660   10.3520    0.8170 C   0  0  0  0  0
  -10.7040   19.6600    2.9650 O   0  0  0  0  0
  -10.2100   16.8840    2.1830 C   0  0  0  0  0
   -9.5200   16.0320    1.1490 C   0  0  0  0  0
   -8.4210   16.5270    0.5870 N   0  0  0  0  0
   -7.7980   15.7400   -0.4630 C   0  0  0  0  0
  -11.0930   15.9620    3.0610 C   0  0  0  0  0
  -10.9900   16.2770    4.5550 C   0  0  0  0  0
  -12.5620   15.8500    2.6490 C   0  0  0  0  0
   -9.9660   14.9330    0.8310 O   0  0  0  0  0
  -10.0850   15.7530   -4.7850 C   0  0  0  0  0
  -10.9160   14.7320   -4.3330 C   0  0  0  0  0
  -10.8880   14.3070   -3.0100 C   0  0  0  0  0
  -10.0030   14.9190   -2.1300 C   0  0  0  0  0
   -9.1590   15.9450   -2.5720 C   0  0  0  0  0
   -9.2040   16.3640   -3.8990 C   0  0  0  0  0
   -8.1880   16.6280   -1.6400 C   0  0  0  0  0
   -6.2810   15.7040   -0.3230 C   0  0  0  0  0
   -5.7680   14.5350    0.5170 C   0  0  0  0  0
   -5.8510   13.1050   -0.0240 C   0  0  0  0  0
   -5.0530   12.9910   -1.2350 N   0  0  0  0  0
   -5.1790   11.9510   -2.0660 C   0  0  0  0  0
   -4.2630   11.9450   -3.2530 C   0  0  0  0  0
   -2.9580   11.5290   -2.8220 O   0  0  0  0  0
   -2.4710   10.2780   -3.0940 C   0  0  0  0  0
   -4.3890   14.7870    0.7970 O   0  0  0  0  0
   -4.9830   12.2700    0.9190 C   0  0  0  0  0
   -5.9780   11.0330   -1.9300 O   0  0  0  0  0
   -2.1620    9.9220   -4.4040 C   0  0  0  0  0
   -1.6610    8.6470   -4.6840 C   0  0  0  0  0
   -1.4770    7.7200   -3.6580 C   0  0  0  0  0
   -1.7890    8.0770   -2.3480 C   0  0  0  0  0
   -2.2800    9.3500   -2.0670 C   0  0  0  0  0
   -2.5980    9.6890   -0.6390 C   0  0  0  0  0
   -2.3650   10.9000   -5.5300 C   0  0  0  0  0
  -12.7970   18.0990   -0.0760 C   0  0  0  0  0
  -12.6600   20.2638   -0.3005 H   0  0  0  0  0
  -14.1629   19.7341    0.3891 H   0  0  0  0  0
  -11.1846   16.6418   -0.1261 H   0  0  0  0  0
  -10.6825   18.2638   -0.5533 H   0  0  0  0  0
  -13.0469   20.1792    2.4029 H   0  0  0  0  0
   -3.7077   10.5572    2.4972 H   0  0  0  0  0
   -4.3695    8.2549    3.1574 H   0  0  0  0  0
   -6.5080    7.3126    2.3236 H   0  0  0  0  0
   -7.9754    8.6401    0.8305 H   0  0  0  0  0
   -7.3110   10.9421    0.1660 H   0  0  0  0  0
   -9.4835   17.3806    2.8262 H   0  0  0  0  0
   -8.0315   17.4226    0.8812 H   0  0  0  0  0
   -8.0941   14.6918   -0.5039 H   0  0  0  0  0
  -10.6574   14.9809    2.8719 H   0  0  0  0  0
   -9.9571   16.1537    4.8806 H   0  0  0  0  0
  -11.3076   17.3047    4.7311 H   0  0  0  0  0
  -11.6322   15.5961    5.1137 H   0  0  0  0  0
  -13.0242   16.8365    2.6846 H   0  0  0  0  0
  -12.6246   15.4544    1.6352 H   0  0  0  0  0
  -13.0802   15.1796    3.3346 H   0  0  0  0  0
  -10.1244   16.0717   -5.8266 H   0  0  0  0  0
  -11.6036   14.2554   -5.0317 H   0  0  0  0  0
  -11.5475   13.5090   -2.6690 H   0  0  0  0  0
   -9.9658   14.5981   -1.0890 H   0  0  0  0  0
   -8.5518   17.1672   -4.2420 H   0  0  0  0  0
   -7.2843   16.8612   -2.2031 H   0  0  0  0  0
   -8.6692   17.5227   -1.2450 H   0  0  0  0  0
   -5.9785   16.6230    0.1791 H   0  0  0  0  0
   -5.8643   15.5931   -1.3241 H   0  0  0  0  0
   -6.4555   14.5262    1.3628 H   0  0  0  0  0
   -6.8980   12.8279   -0.1469 H   0  0  0  0  0
   -4.3792   13.7241   -1.4562 H   0  0  0  0  0
   -4.2101   12.9438   -3.6862 H   0  0  0  0  0
   -4.6407   11.2576   -4.0099 H   0  0  0  0  0
   -4.0344   14.0683    1.3256 H   0  0  0  0  0
   -4.0407   12.1235    0.3910 H   0  0  0  0  0
   -4.9625   12.8224    1.8584 H   0  0  0  0  0
   -1.4127    8.3758   -5.7101 H   0  0  0  0  0
   -1.0923    6.7245   -3.8794 H   0  0  0  0  0
   -1.6485    7.3582   -1.5407 H   0  0  0  0  0
   -1.9919   10.5388   -0.3250 H   0  0  0  0  0
   -3.6545    9.9434   -0.5539 H   0  0  0  0  0
   -2.3776    8.8300   -0.0052 H   0  0  0  0  0
   -3.4167   11.1820   -5.5795 H   0  0  0  0  0
   -1.7575   11.7875   -5.3527 H   0  0  0  0  0
   -2.0672   10.4363   -6.4704 H   0  0  0  0  0
  -13.0210   18.0392   -1.1411 H   0  0  0  0  0
  -13.4059   17.4270    0.5288 H   0  0  0  0  0
  5  1  1  0  0  0
 46  1  1  0  0  0
  3  2  1  0  0  0
  2 46  1  0  0  0
  3  4  1  0  0  0
 13  3  1  0  0  0
  4  5  1  0  0  0
  4 12  2  0  0  0
  6  7  4  0  0  0
  6 11  4  0  0  0
 37  6  1  0  0  0
  7  8  4  0  0  0
  8  9  4  0  0  0
 10  9  4  0  0  0
 11 10  4  0  0  0
 14 13  1  0  0  0
 13 17  1  0  0  0
 15 14  1  0  0  0
 14 20  2  0  0  0
 16 15  1  0  0  0
 16 27  1  0  0  0
 28 16  1  0  0  0
 17 18  1  0  0  0
 17 19  1  0  0  0
 21 22  4  0  0  0
 26 21  4  0  0  0
 23 22  4  0  0  0
 24 23  4  0  0  0
 25 24  4  0  0  0
 25 26  4  0  0  0
 27 25  1  0  0  0
 29 28  1  0  0  0
 30 29  1  0  0  0
 29 36  1  0  0  0
 30 31  1  0  0  0
 30 37  1  0  0  0
 31 32  1  0  0  0
 32 33  1  0  0  0
 32 38  2  0  0  0
 33 34  1  0  0  0
 34 35  1  0  0  0
 35 39  4  0  0  0
 35 43  4  0  0  0
 39 40  4  0  0  0
 39 45  1  0  0  0
 40 41  4  0  0  0
 41 42  4  0  0  0
 42 43  4  0  0  0
 43 44  1  0  0  0
  1 47  1  0  0  0
  1 48  1  0  0  0
  2 49  1  0  0  0
  2 50  1  0  0  0
  5 51  1  0  0  0
  7 52  1  0  0  0
  8 53  1  0  0  0
  9 54  1  0  0  0
 10 55  1  0  0  0
 11 56  1  0  0  0
 13 57  1  0  0  0
 15 58  1  0  0  0
 16 59  1  0  0  0
 17 60  1  0  0  0
 18 61  1  0  0  0
 18 62  1  0  0  0
 18 63  1  0  0  0
 19 64  1  0  0  0
 19 65  1  0  0  0
 19 66  1  0  0  0
 21 67  1  0  0  0
 22 68  1  0  0  0
 23 69  1  0  0  0
 24 70  1  0  0  0
 26 71  1  0  0  0
 27 72  1  0  0  0
 27 73  1  0  0  0
 28 74  1  0  0  0
 28 75  1  0  0  0
 29 76  1  0  0  0
 30 77  1  0  0  0
 31 78  1  0  0  0
 33 79  1  0  0  0
 33 80  1  0  0  0
 36 81  1  0  0  0
 37 82  1  0  0  0
 37 83  1  0  0  0
 40 84  1  0  0  0
 41 85  1  0  0  0
 42 86  1  0  0  0
 44 87  1  0  0  0
 44 88  1  0  0  0
 44 89  1  0  0  0
 45 90  1  0  0  0
 45 91  1  0  0  0
 45 92  1  0  0  0
 46 93  1  0  0  0
 46 94  1  0  0  0
M  END
$$$$
