6rfw_ligand
  -I-interpret- 

 66 69  0  0  0  0  0  0  0  0999 V2000
   27.3060   10.4740   -1.8130 C   0  0  0  0  0
   27.0040   11.0630   -3.0360 C   0  0  0  0  0
   26.4440   10.2600   -4.1600 C   0  0  0  0  0
   27.2200   12.4340   -3.2230 C   0  0  0  0  0
   28.5480   17.5210   -4.0420 N   0  0  0  0  0
   28.0530   12.6040   -0.9580 C   0  0  0  0  0
   25.8450   10.9230   -5.0860 N   0  0  0  0  0
   29.1860   12.8390    1.1470 C   0  0  0  0  0
   24.9620   11.8700   -7.8910 C   0  0  0  0  0
   23.3180   11.6960   -5.9660 C   0  0  0  0  0
   25.7090    8.9510   -6.4950 C   0  0  0  0  0
   26.8010    8.3000   -5.6730 C   0  0  0  0  0
   26.8960    6.7690   -5.8100 C   0  0  0  0  0
   25.9120    6.0410   -4.9580 C   0  0  0  0  0
   25.2880    6.5870   -3.9340 C   0  0  0  0  0
   25.4090    8.0260   -3.5540 C   0  0  0  0  0
   26.6090    8.7380   -4.1990 C   0  0  0  0  0
   28.0160   14.6240   -2.3790 C   0  0  0  0  0
   28.3570   15.7680   -2.5330 C   0  0  0  0  0
   28.8340   17.0890   -2.8070 C   0  0  0  0  0
   28.2670   16.6090   -5.1330 C   0  0  0  0  0
   27.3200   17.2060   -6.1140 C   0  0  0  0  0
   25.8670   17.3680   -5.7160 C   0  0  0  0  0
   24.9780   16.2990   -5.6510 C   0  0  0  0  0
   23.6410   16.4420   -5.3670 C   0  0  0  0  0
   23.1480   17.7080   -5.1580 C   0  0  0  0  0
   23.9890   18.8050   -5.2270 C   0  0  0  0  0
   25.3380   18.6400   -5.5110 C   0  0  0  0  0
   27.7420   13.2200   -2.1900 C   0  0  0  0  0
   27.8250   11.2380   -0.7840 C   0  0  0  0  0
   24.2710   10.9480   -6.8970 C   0  0  0  0  0
   25.4540   15.0430   -5.8570 F   0  0  0  0  0
   25.3080   10.2170   -6.1210 N   0  0  0  0  0
   28.5650   13.4340    0.0080 O   0  0  0  0  0
   25.1730    8.3970   -7.4390 O   0  0  0  0  0
   29.4690   17.7750   -2.0040 O   0  0  0  0  0
   27.1332    9.4080   -1.6653 H   0  0  0  0  0
   26.9793   12.8928   -4.1820 H   0  0  0  0  0
   28.5272   18.5250   -4.2208 H   0  0  0  0  0
   28.4622   12.2122    1.6679 H   0  0  0  0  0
   30.0293   12.2295    0.8225 H   0  0  0  0  0
   29.5391   13.6225    1.8175 H   0  0  0  0  0
   24.2117   12.3657   -8.5070 H   0  0  0  0  0
   25.5409   12.6179   -7.3491 H   0  0  0  0  0
   25.6266   11.2845   -8.5263 H   0  0  0  0  0
   23.8760   12.4416   -5.3997 H   0  0  0  0  0
   22.5469   12.1894   -6.5576 H   0  0  0  0  0
   22.8536   10.9887   -5.2789 H   0  0  0  0  0
   27.7588    8.6441   -6.0633 H   0  0  0  0  0
   27.8944    6.4700   -5.4907 H   0  0  0  0  0
   26.6840    6.5165   -6.8489 H   0  0  0  0  0
   25.6970    4.9992   -5.1957 H   0  0  0  0  0
   24.6445    5.9497   -3.3275 H   0  0  0  0  0
   25.5486    8.0667   -2.4737 H   0  0  0  0  0
   24.5069    8.5308   -3.8995 H   0  0  0  0  0
   27.4863    8.4534   -3.6182 H   0  0  0  0  0
   27.8139   15.7074   -4.7209 H   0  0  0  0  0
   29.2023   16.3876   -5.6472 H   0  0  0  0  0
   27.3080   16.5123   -6.9547 H   0  0  0  0  0
   27.6838   18.2203   -6.2780 H   0  0  0  0  0
   22.9869   15.5720   -5.3088 H   0  0  0  0  0
   22.0899   17.8486   -4.9369 H   0  0  0  0  0
   23.5897   19.8049   -5.0573 H   0  0  0  0  0
   25.9881   19.5127   -5.5740 H   0  0  0  0  0
   28.0583   10.7691    0.1720 H   0  0  0  0  0
   23.6550   10.2428   -7.4550 H   0  0  0  0  0
  2  1  4  0  0  0
  1 30  4  0  0  0
  3  2  1  0  0  0
  2  4  4  0  0  0
  7  3  2  0  0  0
  3 17  1  0  0  0
  4 29  4  0  0  0
 20  5  1  0  0  0
  5 21  1  0  0  0
 29  6  4  0  0  0
 30  6  4  0  0  0
  6 34  1  0  0  0
 33  7  1  0  0  0
 34  8  1  0  0  0
 31  9  1  0  0  0
 31 10  1  0  0  0
 11 12  1  0  0  0
 33 11  1  0  0  0
 11 35  2  0  0  0
 12 13  1  0  0  0
 12 17  1  0  0  0
 13 14  1  0  0  0
 14 15  2  0  0  0
 16 15  1  0  0  0
 17 16  1  0  0  0
 18 19  3  0  0  0
 29 18  1  0  0  0
 19 20  1  0  0  0
 20 36  2  0  0  0
 21 22  1  0  0  0
 22 23  1  0  0  0
 23 24  4  0  0  0
 23 28  4  0  0  0
 24 25  4  0  0  0
 24 32  1  0  0  0
 25 26  4  0  0  0
 27 26  4  0  0  0
 28 27  4  0  0  0
 31 33  1  0  0  0
  1 37  1  0  0  0
  4 38  1  0  0  0
  5 39  1  0  0  0
  8 40  1  0  0  0
  8 41  1  0  0  0
  8 42  1  0  0  0
  9 43  1  0  0  0
  9 44  1  0  0  0
  9 45  1  0  0  0
 10 46  1  0  0  0
 10 47  1  0  0  0
 10 48  1  0  0  0
 12 49  1  0  0  0
 13 50  1  0  0  0
 13 51  1  0  0  0
 14 52  1  0  0  0
 15 53  1  0  0  0
 16 54  1  0  0  0
 16 55  1  0  0  0
 17 56  1  0  0  0
 21 57  1  0  0  0
 21 58  1  0  0  0
 22 59  1  0  0  0
 22 60  1  0  0  0
 25 61  1  0  0  0
 26 62  1  0  0  0
 27 63  1  0  0  0
 28 64  1  0  0  0
 30 65  1  0  0  0
 31 66  1  0  0  0
M  END
$$$$
