2rke_ligand
  -I-interpret- 

 12 11  0  0  0  0  0  0  0  0999 V2000
    2.2430   -3.8190    9.0810 O   0  0  0  0  0
    1.6540   -4.8960    8.2630 S   0  0  0  0  0
    0.1850   -4.7390    8.2280 O   0  0  0  0  0
    2.1770   -4.7980    6.8970 O   0  0  0  0  0
    2.0400   -6.3970    8.8970 C   0  0  0  0  0
    3.4970   -6.7820    8.7220 C   0  0  0  0  0
    3.8520   -7.3340    7.6600 O   0  0  0  0  0
    4.2950   -6.5760    9.6590 O   0  0  0  0  0
   -0.1980   -5.4400    7.6956 H   0  0  0  0  0
    1.4429   -7.1372    8.3644 H   0  0  0  0  0
    1.8416   -6.3573    9.9681 H   0  0  0  0  0
    3.0990   -7.4011    7.0683 H   0  0  0  0  0
  1  2  2  0  0  0
  2  3  1  0  0  0
  2  4  2  0  0  0
  2  5  1  0  0  0
  5  6  1  0  0  0
  6  7  1  0  0  0
  6  8  2  0  0  0
  3  9  1  0  0  0
  5 10  1  0  0  0
  5 11  1  0  0  0
  7 12  1  0  0  0
M  END
$$$$
