3r5n_ligand
  -I-interpret- 

 38 39  0  0  0  0  0  0  0  0999 V2000
   58.3740   24.1550    5.8280 C   0  0  0  0  0
   60.7620   21.5720   -1.4050 C   0  0  0  0  0
   53.1630   22.1590    1.6200 O   0  0  0  0  0
   53.6190   23.5760   -0.2160 O   0  0  0  0  0
   57.0530   23.9580    6.2130 C   0  0  0  0  0
   59.6780   21.8450   -0.5770 C   0  0  0  0  0
   53.3650   22.8510    3.8690 C   0  0  0  0  0
   55.6290   23.4570   -1.4350 C   0  0  0  0  0
   54.0600   23.4940    4.8880 C   0  0  0  0  0
   57.0160   23.3560   -1.5000 C   0  0  0  0  0
   55.8090   24.0430    3.3120 C   0  0  0  0  0
   57.1000   23.2870    0.9120 C   0  0  0  0  0
   56.0550   24.7970    5.7260 C   0  0  0  0  0
   59.2830   23.1630   -0.3790 C   0  0  0  0  0
   53.8870   22.8010    2.5750 C   0  0  0  0  0
   54.9750   23.4760   -0.2030 C   0  0  0  0  0
   55.2860   24.0890    4.6080 C   0  0  0  0  0
   57.7540   23.2690   -0.3210 C   0  0  0  0  0
   55.1190   23.4030    2.2760 C   0  0  0  0  0
   55.7060   23.3850    0.9940 C   0  0  0  0  0
   58.6275   24.9660    5.1453 H   0  0  0  0  0
   59.1564   23.4985    6.2088 H   0  0  0  0  0
   61.2945   22.3885   -1.8927 H   0  0  0  0  0
   61.0788   20.5416   -1.5661 H   0  0  0  0  0
   53.6324   22.1987    0.7835 H   0  0  0  0  0
   53.2908   23.5788    0.6862 H   0  0  0  0  0
   56.7989   23.1472    6.8957 H   0  0  0  0  0
   59.1425   21.0317   -0.0872 H   0  0  0  0  0
   52.4045   22.3821    4.0826 H   0  0  0  0  0
   55.0487   23.5218   -2.3554 H   0  0  0  0  0
   53.6479   23.5313    5.8964 H   0  0  0  0  0
   57.5210   23.3450   -2.4659 H   0  0  0  0  0
   56.7702   24.5135    3.1051 H   0  0  0  0  0
   57.6861   23.2235    1.8288 H   0  0  0  0  0
   56.5081   25.7070    5.3327 H   0  0  0  0  0
   55.3680   25.0483    6.5341 H   0  0  0  0  0
   59.6465   23.7679   -1.2097 H   0  0  0  0  0
   59.6964   23.5162    0.5657 H   0  0  0  0  0
  5  1  2  0  0  0
  6  2  2  0  0  0
 15  3  1  0  0  0
 16  4  1  0  0  0
 13  5  1  0  0  0
 14  6  1  0  0  0
  7  9  4  0  0  0
 15  7  4  0  0  0
  8 10  4  0  0  0
 16  8  4  0  0  0
 17  9  4  0  0  0
 18 10  4  0  0  0
 11 17  4  0  0  0
 19 11  4  0  0  0
 12 18  4  0  0  0
 20 12  4  0  0  0
 17 13  1  0  0  0
 18 14  1  0  0  0
 19 15  4  0  0  0
 20 16  4  0  0  0
 19 20  1  0  0  0
  1 21  1  0  0  0
  1 22  1  0  0  0
  2 23  1  0  0  0
  2 24  1  0  0  0
  3 25  1  0  0  0
  4 26  1  0  0  0
  5 27  1  0  0  0
  6 28  1  0  0  0
  7 29  1  0  0  0
  8 30  1  0  0  0
  9 31  1  0  0  0
 10 32  1  0  0  0
 11 33  1  0  0  0
 12 34  1  0  0  0
 13 35  1  0  0  0
 13 36  1  0  0  0
 14 37  1  0  0  0
 14 38  1  0  0  0
M  END
$$$$
