6bgx_ligand
  -I-interpret- 

 50 53  0  0  0  0  0  0  0  0999 V2000
  -24.9570   21.1370    4.0460 C   0  0  0  0  0
  -28.1770   22.0830    3.3440 C   0  0  0  0  0
  -29.9220   22.5630    5.0070 C   0  0  0  0  0
  -27.5660   23.0070    5.4480 C   0  0  0  0  0
  -24.5060   23.2210    1.6900 C   0  0  0  0  0
  -24.6920   23.1440    0.2040 C   0  0  0  0  0
  -23.3820   23.2100   -0.5450 C   0  0  0  0  0
  -24.4210   21.9170   -2.4570 C   0  0  0  0  0
  -25.3950   21.7950   -0.1400 C   0  0  0  0  0
  -23.2830   19.0390    7.7530 C   0  0  0  0  0
  -23.3800   18.6000    6.3070 C   0  0  0  0  0
  -22.9040   17.3440    5.8960 C   0  0  0  0  0
  -23.0050   16.9690    4.5660 C   0  0  0  0  0
  -24.0250   19.0030    3.9710 C   0  0  0  0  0
  -23.9590   19.4520    5.2980 C   0  0  0  0  0
  -25.6390   22.5120    3.7100 C   0  0  0  0  0
  -27.1600   22.5340    4.1810 C   0  0  0  0  0
  -29.5430   22.0860    3.7300 C   0  0  0  0  0
  -28.9180   23.0290    5.8750 C   0  0  0  0  0
  -23.6540   23.1490   -2.0600 C   0  0  0  0  0
  -25.6660   21.7090   -1.6480 C   0  0  0  0  0
  -24.6510   20.0650    3.1900 C   0  0  0  0  0
  -23.5990   20.8040   -2.3290 F   0  0  0  0  0
  -24.7220   21.9980   -3.8000 F   0  0  0  0  0
  -23.5470   17.7580    3.6030 N   0  0  0  0  0
  -24.5270   20.7480    5.3290 N   0  0  0  0  0
  -23.9850   20.0310    8.1680 O   0  0  0  0  0
  -25.6740   22.6400    2.2990 O   0  0  0  0  0
  -22.5300   18.4490    8.5190 O   0  0  0  0  0
  -26.3450   23.6100    6.5930 Cl  0  0  0  0  0
  -27.9139   21.7130    2.3531 H   0  0  0  0  0
  -30.9686   22.5692    5.3114 H   0  0  0  0  0
  -24.3841   24.2567    2.0072 H   0  0  0  0  0
  -23.6084   22.6812    1.9918 H   0  0  0  0  0
  -25.2933   24.0004   -0.1013 H   0  0  0  0  0
  -22.7540   22.3679   -0.2541 H   0  0  0  0  0
  -22.8722   24.1429   -0.3044 H   0  0  0  0  0
  -26.3420   21.7388    0.3968 H   0  0  0  0  0
  -24.7468   20.9694    0.1540 H   0  0  0  0  0
  -22.4560   16.6656    6.6221 H   0  0  0  0  0
  -22.6290   15.9875    4.2771 H   0  0  0  0  0
  -25.0790   23.3031    4.2086 H   0  0  0  0  0
  -30.3029   21.7194    3.0399 H   0  0  0  0  0
  -29.1766   23.4031    6.8656 H   0  0  0  0  0
  -22.6931   23.1278   -2.5742 H   0  0  0  0  0
  -24.2517   24.0195   -2.3302 H   0  0  0  0  0
  -26.0523   20.7138   -1.8680 H   0  0  0  0  0
  -26.3773   22.4919   -1.9110 H   0  0  0  0  0
  -24.8488   20.0323    2.1186 H   0  0  0  0  0
  -24.5140   20.3725    7.4434 H   0  0  0  0  0
 16  1  1  0  0  0
  1 22  4  0  0  0
  1 26  4  0  0  0
 17  2  4  0  0  0
  2 18  4  0  0  0
 18  3  4  0  0  0
 19  3  4  0  0  0
 17  4  4  0  0  0
  4 19  4  0  0  0
  4 30  1  0  0  0
  5  6  1  0  0  0
 28  5  1  0  0  0
  6  7  1  0  0  0
  6  9  1  0  0  0
  7 20  1  0  0  0
 20  8  1  0  0  0
 21  8  1  0  0  0
  8 23  1  0  0  0
  8 24  1  0  0  0
  9 21  1  0  0  0
 11 10  1  0  0  0
 10 27  1  0  0  0
 10 29  2  0  0  0
 11 12  4  0  0  0
 15 11  4  0  0  0
 12 13  4  0  0  0
 25 13  4  0  0  0
 15 14  4  0  0  0
 22 14  4  0  0  0
 14 25  4  0  0  0
 26 15  4  0  0  0
 16 17  1  0  0  0
 16 28  1  0  0  0
  2 31  1  0  0  0
  3 32  1  0  0  0
  5 33  1  0  0  0
  5 34  1  0  0  0
  6 35  1  0  0  0
  7 36  1  0  0  0
  7 37  1  0  0  0
  9 38  1  0  0  0
  9 39  1  0  0  0
 12 40  1  0  0  0
 13 41  1  0  0  0
 16 42  1  0  0  0
 18 43  1  0  0  0
 19 44  1  0  0  0
 20 45  1  0  0  0
 20 46  1  0  0  0
 21 47  1  0  0  0
 21 48  1  0  0  0
 22 49  1  0  0  0
 27 50  1  0  0  0
M  END
$$$$
