2rk8_ligand
  -I-interpret- 

 10  9  0  0  0  0  0  0  0  0999 V2000
   23.2760    3.1650    4.8940 C   0  0  0  0  0
   22.1050    2.8430    2.6190 O   0  0  0  0  0
   20.7720    3.1500    4.7080 O   0  0  0  0  0
   22.0950    0.9810    4.4010 O   0  0  0  0  0
   23.8690    2.4870    5.7740 O   0  0  0  0  0
   23.6060    4.3360    4.6120 O   0  0  0  0  0
   21.9530    2.4650    4.0690 P   0  0  0  0  0
   20.7090    2.8845    5.6284 H   0  0  0  0  0
   21.9810    0.8532    5.3456 H   0  0  0  0  0
   23.4630    1.6193    5.8354 H   0  0  0  0  0
  1  5  1  0  0  0
  1  6  2  0  0  0
  1  7  1  0  0  0
  7  2  2  0  0  0
  7  3  1  0  0  0
  7  4  1  0  0  0
  3  8  1  0  0  0
  4  9  1  0  0  0
  5 10  1  0  0  0
M  END
$$$$
