4aoi_ligand
  -I-interpret- 

 38 42  0  0  0  0  0  0  0  0999 V2000
   19.4290   80.5960   -1.7810 N   0  0  0  0  0
   19.2430   80.8020   -0.6550 C   0  0  0  0  0
   19.0320   81.0490    0.7060 C   0  0  0  0  0
   19.5030   82.2600    1.2980 C   0  0  0  0  0
   18.3460   80.0940    1.5260 C   0  0  0  0  0
   18.1380   80.3480    2.9210 C   0  0  0  0  0
   18.6110   81.5680    3.5270 C   0  0  0  0  0
   19.2960   82.5180    2.6890 C   0  0  0  0  0
   18.4240   81.8770    4.9850 C   0  0  0  0  0
   18.8480   83.0920    5.4400 N   0  0  0  0  0
   18.6770   83.3270    6.7090 N   0  0  0  0  0
   18.1060   82.4450    7.6060 C   0  0  0  0  0
   17.6560   81.2180    7.2460 N   0  0  0  0  0
   17.8240   80.9390    5.9090 C   0  0  0  0  0
   18.9860   84.4260    7.4700 C   0  0  0  0  0
   18.6230   84.1870    8.6910 N   0  0  0  0  0
   18.0940   82.9970    8.7720 N   0  0  0  0  0
   19.6400   85.7180    6.9930 C   0  0  0  0  0
   21.1620   85.6280    7.0510 C   0  0  0  0  0
   21.9560   85.7590    8.1850 C   0  0  0  0  0
   22.0640   85.3980    5.9640 C   0  0  0  0  0
   21.8560   85.1870    4.5650 C   0  0  0  0  0
   23.0260   84.9840    3.7510 C   0  0  0  0  0
   23.3590   85.3970    6.4730 C   0  0  0  0  0
   23.2880   85.6170    7.8230 N   0  0  0  0  0
   24.4910   85.2100    5.7330 N   0  0  0  0  0
   24.3150   85.0050    4.3800 C   0  0  0  0  0
   20.0249   82.9941    0.6842 H   0  0  0  0  0
   17.9796   79.1671    1.0849 H   0  0  0  0  0
   17.6163   79.6105    3.5309 H   0  0  0  0  0
   19.6625   83.4487    3.1221 H   0  0  0  0  0
   17.4916   79.9723    5.5307 H   0  0  0  0  0
   19.3168   86.5299    7.6445 H   0  0  0  0  0
   19.3434   85.8941    5.9590 H   0  0  0  0  0
   21.5909   85.9435    9.1953 H   0  0  0  0  0
   20.8550   85.1802    4.1336 H   0  0  0  0  0
   22.9341   84.8176    2.6777 H   0  0  0  0  0
   25.1978   84.8516    3.7593 H   0  0  0  0  0
  1  2  3  0  0  0
  2  3  1  0  0  0
  3  4  4  0  0  0
  3  5  4  0  0  0
  4  8  4  0  0  0
  5  6  4  0  0  0
  6  7  4  0  0  0
  7  8  4  0  0  0
  7  9  1  0  0  0
  9 10  4  0  0  0
  9 14  4  0  0  0
 10 11  4  0  0  0
 11 12  4  0  0  0
 11 15  4  0  0  0
 12 13  4  0  0  0
 12 17  4  0  0  0
 13 14  4  0  0  0
 15 16  4  0  0  0
 15 18  1  0  0  0
 16 17  4  0  0  0
 18 19  1  0  0  0
 19 20  4  0  0  0
 19 21  4  0  0  0
 20 25  4  0  0  0
 21 22  4  0  0  0
 21 24  4  0  0  0
 22 23  4  0  0  0
 23 27  4  0  0  0
 24 25  4  0  0  0
 24 26  4  0  0  0
 26 27  4  0  0  0
  4 28  1  0  0  0
  5 29  1  0  0  0
  6 30  1  0  0  0
  8 31  1  0  0  0
 14 32  1  0  0  0
 18 33  1  0  0  0
 18 34  1  0  0  0
 20 35  1  0  0  0
 22 36  1  0  0  0
 23 37  1  0  0  0
 27 38  1  0  0  0
M  END
$$$$
