### 
### Created by X-TOOL on Mon Sep 10 21:12:55 2018
### 

@<TRIPOS>MOLECULE
2e93_ligand
   44    47     1     0     0
SMALL
GAST_HUCK


@<TRIPOS>ATOM
      1 CAY        28.7180   45.6620   16.0090 C.ar      1 B29         0.0114
      2 CAP        28.8110   45.0750   17.2650 C.ar      1 B29        -0.0644
      3 CAI        29.7530   45.5310   18.1810 C.ar      1 B29        -0.0726
      4 CAH        30.5920   46.5860   17.8410 C.ar      1 B29        -0.0701
      5 CAO        30.4910   47.1780   16.5850 C.ar      1 B29        -0.0280
      6 CAX        29.5560   46.7160   15.6630 C.ar      1 B29         0.1262
      7 OAT        29.3680   46.9950   14.3370 O.3       1 B29        -0.2514
      8 CBA        28.4430   46.1320   13.8280 C.ar      1 B29         0.1352
      9 CAZ        28.0340   45.2910   14.8580 C.ar      1 B29         0.0129
     10 CAQ        27.1820   44.2210   14.5920 C.ar      1 B29        -0.0637
     11 CAK        26.7360   44.0050   13.2920 C.ar      1 B29        -0.0714
     12 CAN        27.1300   44.8640   12.2680 C.ar      1 B29        -0.0614
     13 CAW        27.9840   45.9300   12.5300 C.ar      1 B29         0.0156
     14 CAV        28.3710   46.7800   11.5000 C.ar      1 B29        -0.0273
     15 CAR        28.7110   46.2500   10.2600 C.ar      1 B29        -0.0551
     16 CAM        28.4540   48.1560   11.6950 C.ar      1 B29        -0.0632
     17 CAJ        28.8650   48.9930   10.6610 C.ar      1 B29        -0.0693
     18 CAL        29.2050   48.4530    9.4240 C.ar      1 B29        -0.0614
     19 CAU        29.1360   47.0780    9.2240 C.ar      1 B29        -0.0385
     20 CAS        29.6740   46.4280    7.9430 C.3       1 B29         0.0411
     21 CBB        29.0730   46.9280    6.6250 C.3       1 B29         0.2140
     22 PBC        29.7820   45.8270    5.2990 P.3       1 B29         0.1121
     23 OAD        29.4530   46.4590    3.8620 O.co2     1 B29        -0.5593
     24 OAE        31.3590   46.0250    5.5480 O.co2     1 B29        -0.5593
     25 OAA        29.3550   44.4150    5.4330 O.co2     1 B29        -0.5593
     26 PBD        27.2080   46.8410    6.6760 P.3       1 B29         0.1121
     27 OAF        26.8550   45.5290    7.5310 O.co2     1 B29        -0.5593
     28 OAG        26.7840   48.1310    7.5450 O.co2     1 B29        -0.5593
     29 OAB        26.5750   46.8840    5.3420 O.co2     1 B29        -0.5593
     30 OAC        29.4970   48.2720    6.3760 O.3       1 B29        -0.3579
     31 H1         28.1479   44.2599   17.5315 H         1 B29         0.0584
     32 H2         29.8327   45.0654   19.1567 H         1 B29         0.0532
     33 H3         31.3246   46.9476   18.5535 H         1 B29         0.0578
     34 H4         31.1438   48.0030   16.3237 H         1 B29         0.0561
     35 H5         26.8687   43.5611   15.3929 H         1 B29         0.0589
     36 H6         26.0818   43.1682   13.0756 H         1 B29         0.0536
     37 H7         26.7681   44.7001   11.2594 H         1 B29         0.0586
     38 H8         28.6445   45.1802   10.0980 H         1 B29         0.0546
     39 H9         28.1967   48.5790   12.6593 H         1 B29         0.0553
     40 H10        28.9201   50.0640   10.8192 H         1 B29         0.0597
     41 H11        29.5233   49.1033    8.6172 H         1 B29         0.0547
     42 H12        29.4829   45.3468    8.0098 H         1 B29         0.0483
     43 H13        30.7587   46.6071    7.9061 H         1 B29         0.0483
     44 H14        29.1837   48.5488    5.5229 H         1 B29         0.2134
@<TRIPOS>BOND
     1    1    2 ar 
     2    1    6 ar 
     3    1    9 1  
     4    2    3 ar 
     5    3    4 ar 
     6    4    5 ar 
     7    5    6 ar 
     8    6    7 1  
     9    7    8 1  
    10    8    9 ar 
    11    8   13 ar 
    12    9   10 ar 
    13   10   11 ar 
    14   11   12 ar 
    15   12   13 ar 
    16   13   14 1  
    17   14   15 ar 
    18   14   16 ar 
    19   15   19 ar 
    20   16   17 ar 
    21   17   18 ar 
    22   18   19 ar 
    23   19   20 1  
    24   20   21 1  
    25   21   22 1  
    26   21   26 1  
    27   21   30 1  
    28   22   23 ar 
    29   22   24 ar 
    30   22   25 ar 
    31   26   27 ar 
    32   26   28 ar 
    33   26   29 ar 
    34    2   31 1  
    35    3   32 1  
    36    4   33 1  
    37    5   34 1  
    38   10   35 1  
    39   11   36 1  
    40   12   37 1  
    41   15   38 1  
    42   16   39 1  
    43   17   40 1  
    44   18   41 1  
    45   20   42 1  
    46   20   43 1  
    47   30   44 1  
@<TRIPOS>SUBSTRUCTURE
     1 B29         1

