5eob_ligand
  -I-interpret- 

 40 44  0  0  0  0  0  0  0  0999 V2000
    1.7800   11.6800   30.6160 C   0  0  0  0  0
    0.5860   13.7630   29.8840 C   0  0  0  0  0
   -4.1260   14.3780   30.6240 C   0  0  0  0  0
   -4.2350   13.1240   31.2330 C   0  0  0  0  0
   -1.8590   12.8060   30.8620 C   0  0  0  0  0
   -1.6610    7.9540   29.2170 C   0  0  0  0  0
   -4.1200    5.3000   28.9220 F   0  0  0  0  0
   -3.0510    6.0740   28.6650 C   0  0  0  0  0
   -2.2370    5.7870   27.5840 C   0  0  0  0  0
   -1.1370    6.5890   27.3150 C   0  0  0  0  0
   -0.8480    7.6670   28.1330 C   0  0  0  0  0
    0.2620    8.4730   27.8810 C   0  0  0  0  0
    1.0100    8.3170   26.7000 C   0  0  0  0  0
    2.0850    9.1110   26.4780 N   0  0  0  0  0
    2.4360   10.0500   27.4200 C   0  0  0  0  0
    3.4620   10.9740   27.4400 N   0  0  0  0  0
    3.3520   11.6750   28.5970 N   0  0  0  0  0
    2.2830   11.2120   29.2720 C   0  0  0  0  0
    2.7170   12.4550   31.1640 F   0  0  0  0  0
    1.5460   10.6170   31.3960 F   0  0  0  0  0
    0.5240   12.5050   30.4860 C   0  0  0  0  0
   -0.5590   14.5470   29.7670 C   0  0  0  0  0
   -1.7940   14.0500   30.2770 C   0  0  0  0  0
   -2.9330   14.8170   30.1610 N   0  0  0  0  0
   -3.1090   12.3110   31.3610 C   0  0  0  0  0
   -0.6830   12.0130   30.9800 C   0  0  0  0  0
    1.7190   10.1980   28.5420 N   0  0  0  0  0
    0.6160    9.4010   28.7930 N   0  0  0  0  0
   -2.7660    7.1590   29.4800 C   0  0  0  0  0
    1.5373   14.1342   29.5028 H   0  0  0  0  0
   -5.0100   15.0074   30.5214 H   0  0  0  0  0
   -5.1998   12.7819   31.6076 H   0  0  0  0  0
   -1.4326    8.8027   29.8617 H   0  0  0  0  0
   -2.4592    4.9325   26.9448 H   0  0  0  0  0
   -0.4998    6.3695   26.4583 H   0  0  0  0  0
    0.7263    7.5614   25.9674 H   0  0  0  0  0
   -0.5116   15.5270   29.2921 H   0  0  0  0  0
   -3.1771   11.3279   31.8268 H   0  0  0  0  0
   -0.7258   11.0313   31.4517 H   0  0  0  0  0
   -3.4113    7.3871   30.3283 H   0  0  0  0  0
  1 18  1  0  0  0
  1 19  1  0  0  0
  1 20  1  0  0  0
 21  1  1  0  0  0
 21  2  4  0  0  0
  2 22  4  0  0  0
  4  3  4  0  0  0
  3 24  4  0  0  0
 25  4  4  0  0  0
  5 23  4  0  0  0
  5 25  4  0  0  0
 26  5  4  0  0  0
 11  6  4  0  0  0
  6 29  4  0  0  0
  8  7  1  0  0  0
  9  8  4  0  0  0
 29  8  4  0  0  0
 10  9  4  0  0  0
 11 10  4  0  0  0
 12 11  1  0  0  0
 13 12  4  0  0  0
 12 28  4  0  0  0
 14 13  4  0  0  0
 15 14  4  0  0  0
 15 16  4  0  0  0
 27 15  4  0  0  0
 17 16  4  0  0  0
 18 17  4  0  0  0
 18 27  4  0  0  0
 21 26  4  0  0  0
 22 23  4  0  0  0
 23 24  4  0  0  0
 27 28  4  0  0  0
  2 30  1  0  0  0
  3 31  1  0  0  0
  4 32  1  0  0  0
  6 33  1  0  0  0
  9 34  1  0  0  0
 10 35  1  0  0  0
 13 36  1  0  0  0
 22 37  1  0  0  0
 25 38  1  0  0  0
 26 39  1  0  0  0
 29 40  1  0  0  0
M  END
$$$$
