6hlz_ligand
  -I-interpret- 

 39 39  0  0  0  0  0  0  0  0999 V2000
   27.8830  -21.1850  -18.5390 O   0  0  0  0  0
   27.6790  -19.9750  -18.6470 C   0  0  0  0  0
   28.0940  -19.0470  -17.7010 C   0  0  0  0  0
   27.5060  -17.7140  -18.1530 C   0  0  0  0  0
   27.0860  -17.9410  -19.5990 C   0  0  0  0  0
   27.8660  -17.1590  -20.4950 C   0  0  0  0  0
   28.8030  -17.7060  -21.1170 O   0  0  0  0  0
   27.2110  -19.4190  -19.7650 N   0  0  0  0  0
   26.8130  -20.2140  -20.9350 C   0  0  0  0  0
   25.3540  -20.7200  -20.8500 C   0  0  0  0  0
   24.4730  -19.6030  -20.6120 O   0  0  0  0  0
   24.9580  -21.3940  -22.1750 C   0  0  0  0  0
   25.4590  -20.6520  -23.2870 O   0  0  0  0  0
   25.3800  -22.8830  -22.2460 C   0  0  0  0  0
   26.8030  -23.0400  -22.1730 O   0  0  0  0  0
   24.8100  -23.6160  -23.4840 C   0  0  0  0  0
   23.3860  -23.4300  -23.6070 O   0  0  0  0  0
   25.1800  -25.1160  -23.4600 C   0  0  0  0  0
   24.4140  -25.8090  -22.4650 O   0  0  0  0  0
   27.5660  -15.9450  -20.5910 O   0  0  0  0  0
   29.1811  -19.0024  -17.6352 H   0  0  0  0  0
   27.7528  -19.3157  -16.7013 H   0  0  0  0  0
   28.2279  -16.9022  -18.0639 H   0  0  0  0  0
   26.6645  -17.4108  -17.5300 H   0  0  0  0  0
   26.0720  -17.6157  -19.8317 H   0  0  0  0  0
   27.4656  -21.0857  -20.9831 H   0  0  0  0  0
   26.8934  -19.5754  -21.8147 H   0  0  0  0  0
   25.2725  -21.4395  -20.0353 H   0  0  0  0  0
   23.5673  -19.9168  -20.5592 H   0  0  0  0  0
   23.8689  -21.3900  -22.2202 H   0  0  0  0  0
   25.2020  -21.0877  -24.1029 H   0  0  0  0  0
   24.9403  -23.3551  -21.3674 H   0  0  0  0  0
   27.0237  -23.9731  -22.2200 H   0  0  0  0  0
   25.2695  -23.1711  -24.3666 H   0  0  0  0  0
   23.0693  -23.8974  -24.3834 H   0  0  0  0  0
   26.2392  -25.2147  -23.2224 H   0  0  0  0  0
   24.9640  -25.5487  -24.4368 H   0  0  0  0  0
   24.6572  -26.7377  -22.4650 H   0  0  0  0  0
   26.8160  -15.7560  -20.0224 H   0  0  0  0  0
  1  2  2  0  0  0
  2  3  1  0  0  0
  2  8  1  0  0  0
  3  4  1  0  0  0
  4  5  1  0  0  0
  5  6  1  0  0  0
  5  8  1  0  0  0
  6  7  2  0  0  0
  6 20  1  0  0  0
  8  9  1  0  0  0
  9 10  1  0  0  0
 10 11  1  0  0  0
 10 12  1  0  0  0
 12 13  1  0  0  0
 12 14  1  0  0  0
 14 15  1  0  0  0
 14 16  1  0  0  0
 16 17  1  0  0  0
 16 18  1  0  0  0
 18 19  1  0  0  0
  3 21  1  0  0  0
  3 22  1  0  0  0
  4 23  1  0  0  0
  4 24  1  0  0  0
  5 25  1  0  0  0
  9 26  1  0  0  0
  9 27  1  0  0  0
 10 28  1  0  0  0
 11 29  1  0  0  0
 12 30  1  0  0  0
 13 31  1  0  0  0
 14 32  1  0  0  0
 15 33  1  0  0  0
 16 34  1  0  0  0
 17 35  1  0  0  0
 18 36  1  0  0  0
 18 37  1  0  0  0
 19 38  1  0  0  0
 20 39  1  0  0  0
M  END
$$$$
