3d3p_ligand
  -I-interpret- 

 53 56  0  0  0  0  0  0  0  0999 V2000
   48.7370   47.4590   65.9110 O   0  0  0  0  0
   47.6420   47.2230   66.4350 C   0  0  0  0  0
   47.4610   47.3780   67.7610 N   0  0  0  0  0
   48.5190   47.8010   68.6620 C   0  0  0  0  0
   48.5640   49.3180   68.6080 C   0  0  0  0  0
   49.5440   50.0260   67.9310 C   0  0  0  0  0
   49.5300   51.4200   67.8750 C   0  0  0  0  0
   48.5330   52.0680   68.4860 C   0  0  0  0  0
   47.5450   51.4630   69.1490 C   0  0  0  0  0
   47.5400   50.0630   69.2020 C   0  0  0  0  0
   46.5230   46.9490   65.5170 C   0  0  0  0  0
   45.2640   47.1010   66.0630 C   0  0  0  0  0
   44.1410   46.9620   65.3410 N   0  0  0  0  0
   44.2400   46.6600   64.0360 C   0  0  0  0  0
   43.2520   46.4720   63.0700 N   0  0  0  0  0
   41.7780   46.5480   63.2910 C   0  0  0  0  0
   41.2190   45.1820   63.7030 C   0  0  0  0  0
   43.8430   46.1940   61.8630 N   0  0  0  0  0
   45.5280   46.5060   63.4440 C   0  0  0  0  0
   45.1960   46.1880   62.0650 C   0  0  0  0  0
   46.7060   46.6190   64.1660 C   0  0  0  0  0
   47.9450   46.4820   63.6620 N   0  0  0  0  0
   48.3760   45.8860   62.3850 C   0  0  0  0  0
   49.5740   44.9320   62.6020 C   0  0  0  0  0
   50.0370   44.3830   61.2430 C   0  0  0  0  0
   50.3730   45.4890   60.4310 O   0  0  0  0  0
   49.3040   46.3370   60.0250 C   0  0  0  0  0
   48.6770   46.9270   61.3080 C   0  0  0  0  0
   46.5374   47.1894   68.1507 H   0  0  0  0  0
   49.4762   47.3748   68.3616 H   0  0  0  0  0
   48.3234   47.4558   69.6772 H   0  0  0  0  0
   50.3445   49.4812   67.4305 H   0  0  0  0  0
   50.3115   51.9664   67.3469 H   0  0  0  0  0
   48.5265   53.1570   68.4400 H   0  0  0  0  0
   46.7619   52.0435   69.6368 H   0  0  0  0  0
   46.7270   49.5473   69.7131 H   0  0  0  0  0
   45.1786   47.3435   67.1223 H   0  0  0  0  0
   41.2987   46.8586   62.3626 H   0  0  0  0  0
   41.5783   47.2645   64.0877 H   0  0  0  0  0
   41.4201   44.4560   62.9152 H   0  0  0  0  0
   41.6976   44.8588   64.6275 H   0  0  0  0  0
   40.1432   45.2629   63.8583 H   0  0  0  0  0
   45.9317   45.9722   61.2902 H   0  0  0  0  0
   48.6965   46.8434   64.2494 H   0  0  0  0  0
   47.5337   45.3043   62.0105 H   0  0  0  0  0
   49.2715   44.1061   63.2458 H   0  0  0  0  0
   50.3924   45.4749   63.0748 H   0  0  0  0  0
   49.2446   43.7959   60.7789 H   0  0  0  0  0
   50.8985   43.7274   61.3700 H   0  0  0  0  0
   48.5618   45.7748   59.4584 H   0  0  0  0  0
   49.6701   47.1323   59.3757 H   0  0  0  0  0
   49.3976   47.6288   61.7278 H   0  0  0  0  0
   47.7288   47.3841   61.0249 H   0  0  0  0  0
  1  2  2  0  0  0
  2  3  1  0  0  0
  2 11  1  0  0  0
  3  4  1  0  0  0
  4  5  1  0  0  0
  5  6  4  0  0  0
  5 10  4  0  0  0
  6  7  4  0  0  0
  7  8  4  0  0  0
  8  9  4  0  0  0
  9 10  4  0  0  0
 11 12  4  0  0  0
 11 21  4  0  0  0
 12 13  4  0  0  0
 13 14  4  0  0  0
 14 15  4  0  0  0
 14 19  4  0  0  0
 15 16  1  0  0  0
 15 18  4  0  0  0
 16 17  1  0  0  0
 18 20  4  0  0  0
 19 20  4  0  0  0
 19 21  4  0  0  0
 21 22  1  0  0  0
 22 23  1  0  0  0
 23 24  1  0  0  0
 23 28  1  0  0  0
 24 25  1  0  0  0
 25 26  1  0  0  0
 26 27  1  0  0  0
 27 28  1  0  0  0
  3 29  1  0  0  0
  4 30  1  0  0  0
  4 31  1  0  0  0
  6 32  1  0  0  0
  7 33  1  0  0  0
  8 34  1  0  0  0
  9 35  1  0  0  0
 10 36  1  0  0  0
 12 37  1  0  0  0
 16 38  1  0  0  0
 16 39  1  0  0  0
 17 40  1  0  0  0
 17 41  1  0  0  0
 17 42  1  0  0  0
 20 43  1  0  0  0
 22 44  1  0  0  0
 23 45  1  0  0  0
 24 46  1  0  0  0
 24 47  1  0  0  0
 25 48  1  0  0  0
 25 49  1  0  0  0
 27 50  1  0  0  0
 27 51  1  0  0  0
 28 52  1  0  0  0
 28 53  1  0  0  0
M  END
$$$$
