### 
### Created by X-TOOL on Mon Sep 10 21:13:08 2018
### 

@<TRIPOS>MOLECULE
4e3l_ligand
   29    30     1     0     0
SMALL
GAST_HUCK


@<TRIPOS>ATOM
      1 B03        25.9540    4.9170   16.2590 B         1 0NB         1.0000
      2 O04        26.1390    5.7480   17.4440 O.3       1 0NB        -0.8710
      3 O05        24.9000    3.9160   16.4900 O.3       1 0NB        -0.8710
      4 C06        25.5960    5.8390   15.0320 C.3       1 0NB        -0.2500
      5 N07        24.3850    6.6510   15.2090 N.am      1 0NB        -0.3991
      6 S08        23.7790    7.5840   14.0230 S.o2      1 0NB         0.0420
      7 O09        22.9230    8.6090   14.5960 O.2       1 0NB        -0.1526
      8 O10        24.8040    8.2500   13.2470 O.2       1 0NB        -0.1526
      9 C11        22.7570    6.6180   12.9530 C.ar      1 0NB         0.1059
     10 C12        23.3050    5.8530   11.9370 C.ar      1 0NB        -0.0346
     11 C13        22.4990    5.0900   11.1050 C.ar      1 0NB        -0.0498
     12 C14        21.1120    5.0970   11.2760 C.ar      1 0NB         0.0233
     13 C15        20.2910    4.3350   10.4250 C.2       1 0NB         0.1490
     14 N16        20.4170    4.1600    9.0770 N.2       1 0NB        -0.1754
     15 N17        19.4020    3.3600    8.6320 N.2       1 0NB        -0.0518
     16 N18        18.6500    3.0120    9.7190 N.pl3     1 0NB        -0.1036
     17 N19        19.1970    3.6360   10.7990 N.2       1 0NB        -0.1435
     18 C20        20.5770    5.8820   12.3100 C.ar      1 0NB         0.0520
     19 CL2        18.8760    6.0120   12.6620 Cl        1 0NB        -0.0693
     20 C22        21.3940    6.6180   13.1380 C.ar      1 0NB        -0.0208
     21 H          26.8288    6.3941   17.2759 H         1 0NB        -0.1290
     22 H          24.7919    3.3790   15.7016 H         1 0NB        -0.1290
     23 H          25.4159    5.1810   14.1819 H         1 0NB        -0.1900
     24 H          26.4272    6.5321   14.9021 H         1 0NB        -0.1900
     25 H          23.9063    6.6289   16.1094 H         1 0NB         0.1256
     26 H          24.3849    5.8504   11.7890 H         1 0NB         0.0638
     27 H          22.9477    4.4846   10.3174 H         1 0NB         0.0624
     28 H          17.8336    2.4006    9.7210 H         1 0NB         0.2946
     29 H          20.9577    7.2051   13.9461 H         1 0NB         0.0643
@<TRIPOS>BOND
     1    1    2 1  
     2    1    3 1  
     3    1    4 1  
     4    4    5 1  
     5    5    6 am 
     6    6    7 2  
     7    6    8 2  
     8    6    9 1  
     9    9   10 ar 
    10    9   20 ar 
    11   10   11 ar 
    12   11   12 ar 
    13   12   13 1  
    14   12   18 ar 
    15   13   14 1  
    16   13   17 2  
    17   14   15 2  
    18   15   16 1  
    19   16   17 1  
    20   18   19 1  
    21   18   20 ar 
    22    2   21 1  
    23    3   22 1  
    24    4   23 1  
    25    4   24 1  
    26    5   25 1  
    27   10   26 1  
    28   11   27 1  
    29   16   28 1  
    30   20   29 1  
@<TRIPOS>SUBSTRUCTURE
     1 0NB         1

