4e3l_ligand
  -I-interpret- 

 28 29  0  0  0  0  0  0  0  0999 V2000
   25.9540    4.9170   16.2590 B   0  0  0  0  0
   26.1390    5.7480   17.4440 O   0  0  0  0  0
   24.9000    3.9160   16.4900 O   0  0  0  0  0
   25.5960    5.8390   15.0320 C   0  0  0  0  0
   24.3850    6.6510   15.2090 N   0  0  0  0  0
   23.7790    7.5840   14.0230 S   0  0  0  0  0
   22.9230    8.6090   14.5960 O   0  0  0  0  0
   24.8040    8.2500   13.2470 O   0  0  0  0  0
   22.7570    6.6180   12.9530 C   0  0  0  0  0
   23.3050    5.8530   11.9370 C   0  0  0  0  0
   22.4990    5.0900   11.1050 C   0  0  0  0  0
   21.1120    5.0970   11.2760 C   0  0  0  0  0
   20.2910    4.3350   10.4250 C   0  0  0  0  0
   20.4170    4.1600    9.0770 N   0  0  0  0  0
   19.4020    3.3600    8.6320 N   0  0  0  0  0
   18.6500    3.0120    9.7190 N   0  0  0  0  0
   19.1970    3.6360   10.7990 N   0  0  0  0  0
   20.5770    5.8820   12.3100 C   0  0  0  0  0
   18.8760    6.0120   12.6620 Cl  0  0  0  0  0
   21.3940    6.6180   13.1380 C   0  0  0  0  0
   26.3573    5.1899   18.1940 H   0  0  0  0  0
   25.1400    3.3676   17.2405 H   0  0  0  0  0
   25.4159    5.1810   14.1819 H   0  0  0  0  0
   26.4272    6.5321   14.9021 H   0  0  0  0  0
   23.9063    6.6289   16.1094 H   0  0  0  0  0
   24.3849    5.8504   11.7890 H   0  0  0  0  0
   22.9477    4.4846   10.3174 H   0  0  0  0  0
   20.9577    7.2051   13.9461 H   0  0  0  0  0
  1  2  1  0  0  0
  1  3  1  0  0  0
  1  4  1  0  0  0
  4  5  1  0  0  0
  5  6  1  0  0  0
  6  7  2  0  0  0
  6  8  2  0  0  0
  6  9  1  0  0  0
  9 10  4  0  0  0
  9 20  4  0  0  0
 10 11  4  0  0  0
 11 12  4  0  0  0
 12 13  1  0  0  0
 12 18  4  0  0  0
 13 14  4  0  0  0
 13 17  4  0  0  0
 14 15  4  0  0  0
 15 16  4  0  0  0
 16 17  4  0  0  0
 18 19  1  0  0  0
 18 20  4  0  0  0
  2 21  1  0  0  0
  3 22  1  0  0  0
  4 23  1  0  0  0
  4 24  1  0  0  0
  5 25  1  0  0  0
 10 26  1  0  0  0
 11 27  1  0  0  0
 20 28  1  0  0  0
M  END
$$$$
