4dxg_ligand
  -I-interpret- 

108111  0  0  0  0  0  0  0  0999 V2000
  -12.2810  -23.6900   22.7400 C   0  0  0  0  0
  -13.3160  -24.5740   23.4700 C   0  0  0  0  0
  -12.8440  -26.0370   23.4110 C   0  0  0  0  0
  -11.6560  -26.3200   24.3400 C   0  0  0  0  0
  -11.8650  -25.7830   25.7670 C   0  0  0  0  0
  -12.3390  -24.3310   25.6730 C   0  0  0  0  0
  -12.6660  -23.6710   27.0150 C   0  0  0  0  0
  -13.2410  -22.2800   26.7960 C   0  0  0  0  0
  -13.3040  -21.4520   28.0920 C   0  0  0  0  0
  -10.3170  -26.5690   27.5640 C   0  0  0  0  0
   -8.9070  -26.4770   28.0370 C   0  0  0  0  0
  -10.5720  -25.8630   26.4550 N   0  0  0  0  0
  -11.7570  -24.1400   21.6750 O   0  0  0  0  0
  -12.0170  -22.5440   23.2050 O   0  0  0  0  0
  -11.3680  -27.7270   24.4740 O   0  0  0  0  0
  -13.5240  -24.2720   24.8540 O   0  0  0  0  0
  -13.6800  -24.4290   27.6390 O   0  0  0  0  0
  -12.4300  -21.6490   25.7830 O   0  0  0  0  0
  -13.7700  -20.1240   27.7720 O   0  0  0  0  0
  -11.1520  -27.2280   28.1770 O   0  0  0  0  0
  -21.0410  -19.7200   26.3370 C   0  0  0  0  0
  -21.1000  -19.4770   24.8300 C   0  0  0  0  0
  -20.4020  -20.6080   24.0200 C   0  0  0  0  0
  -19.0030  -20.9610   24.5390 C   0  0  0  0  0
  -19.0740  -21.2000   26.0460 C   0  0  0  0  0
  -17.6740  -21.5840   26.5520 C   0  0  0  0  0
  -22.9400  -18.0630   23.9170 C   0  0  0  0  0
  -24.3410  -18.0270   23.3250 C   0  0  0  0  0
  -19.7070  -20.1180   26.7490 O   0  0  0  0  0
  -20.1620  -20.2100   22.6870 O   0  0  0  0  0
  -18.4960  -22.1270   23.8570 O   0  0  0  0  0
  -17.5320  -21.3400   27.9260 O   0  0  0  0  0
  -22.3420  -16.9960   24.0740 O   0  0  0  0  0
  -22.4380  -19.2550   24.2830 N   0  0  0  0  0
  -21.9490  -20.7370   26.6980 O   0  0  0  0  0
  -17.1260  -21.8970   23.4290 C   0  0  0  0  0
  -16.5200  -23.2770   23.2890 C   0  0  0  0  0
  -15.0980  -23.1870   22.8180 C   0  0  0  0  0
  -15.0410  -22.4230   21.4820 C   0  0  0  0  0
  -15.6720  -21.0430   21.6940 C   0  0  0  0  0
  -15.7800  -20.3680   20.3500 C   0  0  0  0  0
  -16.5070  -23.8710   24.5450 O   0  0  0  0  0
  -14.5830  -24.4960   22.7590 O   0  0  0  0  0
  -15.7310  -23.1090   20.4240 O   0  0  0  0  0
  -16.9890  -21.1600   22.2200 O   0  0  0  0  0
  -16.3050  -19.0670   20.5350 O   0  0  0  0  0
  -21.1040  -20.7100   21.7360 C   0  0  0  0  0
  -21.0070  -19.8270   20.5000 C   0  0  0  0  0
  -19.7900  -20.1120   19.6870 C   0  0  0  0  0
  -19.7480  -21.5700   19.3470 C   0  0  0  0  0
  -19.7800  -22.3830   20.6550 C   0  0  0  0  0
  -19.7640  -23.8920   20.5170 C   0  0  0  0  0
  -20.8780  -18.4670   20.8370 O   0  0  0  0  0
  -19.9490  -19.3360   18.5200 O   0  0  0  0  0
  -20.8630  -21.7420   18.4540 O   0  0  0  0  0
  -20.9460  -22.0850   21.3980 O   0  0  0  0  0
  -12.5237  -26.2422   22.3895 H   0  0  0  0  0
  -13.6738  -26.6673   23.7307 H   0  0  0  0  0
  -10.8268  -25.8040   23.8559 H   0  0  0  0  0
  -12.6113  -26.3582   26.3151 H   0  0  0  0  0
  -11.5009  -23.7804   25.2458 H   0  0  0  0  0
  -11.7555  -23.6157   27.6116 H   0  0  0  0  0
  -14.2783  -22.3500   26.4685 H   0  0  0  0  0
  -12.3138  -21.3974   28.5444 H   0  0  0  0  0
  -13.9868  -21.9231   28.7990 H   0  0  0  0  0
   -8.8879  -26.0414   29.0360 H   0  0  0  0  0
   -8.4690  -27.4747   28.0658 H   0  0  0  0  0
   -8.3363  -25.8478   27.3539 H   0  0  0  0  0
   -9.7982  -25.3338   26.0529 H   0  0  0  0  0
  -12.0927  -25.0228   21.5028 H   0  0  0  0  0
  -11.2292  -28.1083   23.6040 H   0  0  0  0  0
  -13.3601  -25.3201   27.7977 H   0  0  0  0  0
  -12.7617  -20.7640   25.6145 H   0  0  0  0  0
  -13.8128  -19.5991   28.5746 H   0  0  0  0  0
  -21.3048  -18.7872   26.8354 H   0  0  0  0  0
  -20.5543  -18.5408   24.7126 H   0  0  0  0  0
  -21.0878  -21.4501   24.1123 H   0  0  0  0  0
  -18.3197  -20.1350   24.3417 H   0  0  0  0  0
  -19.7330  -22.0412   26.2607 H   0  0  0  0  0
  -16.9394  -20.9803   26.0190 H   0  0  0  0  0
  -17.5263  -22.6495   26.3761 H   0  0  0  0  0
  -24.9908  -17.4339   23.9685 H   0  0  0  0  0
  -24.3031  -17.5785   22.3322 H   0  0  0  0  0
  -24.7293  -19.0429   23.2516 H   0  0  0  0  0
  -16.6483  -21.5911   28.2048 H   0  0  0  0  0
  -23.0393  -20.0712   24.1700 H   0  0  0  0  0
  -21.9047  -20.8823   27.6459 H   0  0  0  0  0
  -16.6202  -21.2710   24.1641 H   0  0  0  0  0
  -17.1060  -23.8499   22.5703 H   0  0  0  0  0
  -14.4704  -22.6183   23.5041 H   0  0  0  0  0
  -13.9972  -22.3414   21.1788 H   0  0  0  0  0
  -15.0537  -20.4776   22.3912 H   0  0  0  0  0
  -16.4385  -20.9433   19.6992 H   0  0  0  0  0
  -14.7952  -20.3069   19.8868 H   0  0  0  0  0
  -16.1255  -24.7494   24.4784 H   0  0  0  0  0
  -15.6670  -22.5950   19.6157 H   0  0  0  0  0
  -16.3777  -18.6285   19.6841 H   0  0  0  0  0
  -22.0935  -20.6684   22.1913 H   0  0  0  0  0
  -21.9239  -20.0391   19.9501 H   0  0  0  0  0
  -18.8641  -19.8734   20.2103 H   0  0  0  0  0
  -18.8467  -21.9269   18.8486 H   0  0  0  0  0
  -18.8518  -22.0818   21.1406 H   0  0  0  0  0
  -20.6355  -24.2126   19.9462 H   0  0  0  0  0
  -18.8556  -24.1985   19.9985 H   0  0  0  0  0
  -19.7895  -24.3464   21.5074 H   0  0  0  0  0
  -20.8199  -17.9437   20.0343 H   0  0  0  0  0
  -19.1940  -19.4703   17.9424 H   0  0  0  0  0
  -20.9139  -22.6609   18.1808 H   0  0  0  0  0
  2  1  1  0  0  0
  1 13  1  0  0  0
  1 14  2  0  0  0
  2  3  1  0  0  0
  2 16  1  0  0  0
 43  2  1  0  0  0
  3  4  1  0  0  0
  4  5  1  0  0  0
  4 15  1  0  0  0
  6  5  1  0  0  0
  5 12  1  0  0  0
  6  7  1  0  0  0
 16  6  1  0  0  0
  7  8  1  0  0  0
  7 17  1  0  0  0
  8  9  1  0  0  0
  8 18  1  0  0  0
  9 19  1  0  0  0
 10 11  1  0  0  0
 12 10  1  0  0  0
 10 20  2  0  0  0
 22 21  1  0  0  0
 29 21  1  0  0  0
 21 35  1  0  0  0
 23 22  1  0  0  0
 22 34  1  0  0  0
 24 23  1  0  0  0
 23 30  1  0  0  0
 24 25  1  0  0  0
 31 24  1  0  0  0
 25 26  1  0  0  0
 25 29  1  0  0  0
 26 32  1  0  0  0
 27 28  1  0  0  0
 27 33  2  0  0  0
 34 27  1  0  0  0
 30 47  1  0  0  0
 36 31  1  0  0  0
 37 36  1  0  0  0
 36 45  1  0  0  0
 38 37  1  0  0  0
 37 42  1  0  0  0
 38 39  1  0  0  0
 38 43  1  0  0  0
 39 40  1  0  0  0
 39 44  1  0  0  0
 40 41  1  0  0  0
 40 45  1  0  0  0
 41 46  1  0  0  0
 47 48  1  0  0  0
 47 56  1  0  0  0
 48 49  1  0  0  0
 48 53  1  0  0  0
 49 50  1  0  0  0
 49 54  1  0  0  0
 50 51  1  0  0  0
 50 55  1  0  0  0
 51 52  1  0  0  0
 51 56  1  0  0  0
  3 57  1  0  0  0
  3 58  1  0  0  0
  4 59  1  0  0  0
  5 60  1  0  0  0
  6 61  1  0  0  0
  7 62  1  0  0  0
  8 63  1  0  0  0
  9 64  1  0  0  0
  9 65  1  0  0  0
 11 66  1  0  0  0
 11 67  1  0  0  0
 11 68  1  0  0  0
 12 69  1  0  0  0
 13 70  1  0  0  0
 15 71  1  0  0  0
 17 72  1  0  0  0
 18 73  1  0  0  0
 19 74  1  0  0  0
 21 75  1  0  0  0
 22 76  1  0  0  0
 23 77  1  0  0  0
 24 78  1  0  0  0
 25 79  1  0  0  0
 26 80  1  0  0  0
 26 81  1  0  0  0
 28 82  1  0  0  0
 28 83  1  0  0  0
 28 84  1  0  0  0
 32 85  1  0  0  0
 34 86  1  0  0  0
 35 87  1  0  0  0
 36 88  1  0  0  0
 37 89  1  0  0  0
 38 90  1  0  0  0
 39 91  1  0  0  0
 40 92  1  0  0  0
 41 93  1  0  0  0
 41 94  1  0  0  0
 42 95  1  0  0  0
 44 96  1  0  0  0
 46 97  1  0  0  0
 47 98  1  0  0  0
 48 99  1  0  0  0
 49100  1  0  0  0
 50101  1  0  0  0
 51102  1  0  0  0
 52103  1  0  0  0
 52104  1  0  0  0
 52105  1  0  0  0
 53106  1  0  0  0
 54107  1  0  0  0
 55108  1  0  0  0
M  END
$$$$
