### 
### Created by X-TOOL on Mon Sep 10 21:13:08 2018
### 

@<TRIPOS>MOLECULE
2l8j_ligand
  251   252     1     0     0
SMALL
GAST_HUCK


@<TRIPOS>ATOM
      1 N         -23.3980    9.4200   -0.0120 N.4       1 GLY         0.2357
      2 CA        -23.8340    8.9970   -1.3420 C.3       1 GLY         0.0545
      3 C         -24.0820    7.5050   -1.4030 C.2       1 GLY         0.2236
      4 O         -23.8870    6.8040   -0.4080 O.2       1 GLY        -0.3910
      5 N         -24.5490    7.0300   -2.5590 N.am      1 ALA        -0.2615
      6 CA        -24.8600    5.6340   -2.8320 C.3       1 ALA         0.1283
      7 C         -24.2920    5.2710   -4.2010 C.2       1 ALA         0.2036
      8 O         -24.8140    5.7040   -5.2310 O.2       1 ALA        -0.3944
      9 CB        -26.3770    5.4210   -2.7890 C.3       1 ALA        -0.0244
     10 N         -23.1890    4.5340   -4.2010 N.am      1 MET        -0.2637
     11 CA        -22.4940    4.0730   -5.3910 C.3       1 MET         0.1317
     12 C         -23.3320    2.9960   -6.0820 C.2       1 MET         0.2037
     13 O         -24.0230    2.2330   -5.4010 O.2       1 MET        -0.3944
     14 CB        -21.1420    3.5000   -4.9550 C.3       1 MET        -0.0034
     15 CG        -20.1830    3.2180   -6.1060 C.3       1 MET        -0.0024
     16 SD        -18.5850    2.6470   -5.4860 S.3       1 MET        -0.1639
     17 CE        -18.9250    0.8760   -5.2910 C.3       1 MET        -0.0181
     18 N         -23.2240    2.9270   -7.4080 N.am      1 GLY        -0.2664
     19 CA        -23.9100    1.9880   -8.2830 C.3       1 GLY         0.1201
     20 C         -22.9720    1.5360   -9.3990 C.2       1 GLY         0.2008
     21 O         -23.1990    1.9060  -10.5530 O.2       1 GLY        -0.3947
     22 N         -21.8340    0.9270   -9.0530 N.am      1 SER        -0.2618
     23 CA        -20.8580    0.4440  -10.0320 C.3       1 SER         0.1539
     24 C         -21.1840   -1.0150  -10.4000 C.2       1 SER         0.2062
     25 O         -22.1110   -1.6240   -9.8510 O.2       1 SER        -0.3943
     26 CB        -19.4380    0.5990   -9.4520 C.3       1 SER         0.0843
     27 OG        -18.4260    0.3410  -10.4140 O.3       1 SER        -0.3903
     28 N         -20.4810   -1.5530  -11.3960 N.am      1 ALA        -0.2639
     29 CA        -20.5890   -2.9290  -11.8840 C.3       1 ALA         0.1282
     30 C         -19.1750   -3.5080  -11.8410 C.2       1 ALA         0.2037
     31 O         -18.9640   -4.6090  -11.3360 O.2       1 ALA        -0.3944
     32 CB        -21.1860   -2.9900  -13.2920 C.3       1 ALA        -0.0244
     33 N         -18.2080   -2.7510  -12.3600 N.am      1 SER        -0.2616
     34 CA        -16.8090   -3.1210  -12.3500 C.3       1 SER         0.1539
     35 C         -16.2920   -2.8310  -10.9370 C.2       1 SER         0.2062
     36 O         -16.8330   -1.9560  -10.2530 O.2       1 SER        -0.3943
     37 CB        -16.0630   -2.2650  -13.3750 C.3       1 SER         0.0843
     38 OG        -16.5140   -2.5220  -14.6930 O.3       1 SER        -0.3903
     39 N         -15.2680   -3.5630  -10.5020 N.am      1 SER        -0.2615
     40 CA        -14.6750   -3.3840   -9.1870 C.3       1 SER         0.1539
     41 C         -14.0460   -1.9910   -9.0970 C.2       1 SER         0.2062
     42 O         -13.6960   -1.3850  -10.1140 O.2       1 SER        -0.3943
     43 CB        -13.6740   -4.5180   -8.9260 C.3       1 SER         0.0843
     44 OG        -12.6810   -4.5880   -9.9430 O.3       1 SER        -0.3903
     45 N         -13.8250   -1.5190   -7.8750 N.am      1 GLU        -0.2636
     46 CA        -13.2540   -0.2010   -7.6410 C.3       1 GLU         0.1325
     47 C         -11.7860   -0.1870   -8.0950 C.2       1 GLU         0.2041
     48 O         -11.1220   -1.2240   -8.0820 O.2       1 GLU        -0.3944
     49 CB        -13.4470    0.1980   -6.1700 C.3       1 GLU        -0.0008
     50 CG        -14.8230   -0.1450   -5.5560 C.3       1 GLU         0.0044
     51 CD        -15.9930   -0.1350   -6.5460 C.2       1 GLU         0.0350
     52 OE1       -16.1830    0.8710   -7.2650 O.co2     1 GLU        -0.5690
     53 OE2       -16.6690   -1.1910   -6.6150 O.co2     1 GLU        -0.5690
     54 N         -11.2580    0.9760   -8.4710 N.am      1 ASP        -0.2622
     55 CA         -9.8920    1.1660   -8.9600 C.3       1 ASP         0.1423
     56 C          -8.8220    0.8470   -7.9150 C.2       1 ASP         0.2057
     57 O          -8.5920    1.6500   -7.0080 O.2       1 ASP        -0.3943
     58 CB         -9.7180    2.6180   -9.4430 C.3       1 ASP         0.0406
     59 CG        -10.2020    2.8380  -10.8660 C.2       1 ASP         0.0393
     60 OD1       -11.4200    3.0450  -11.0630 O.co2     1 ASP        -0.5688
     61 OD2        -9.3480    2.8170  -11.7810 O.co2     1 ASP        -0.5688
     62 N          -8.1250   -0.2840   -8.0690 N.am      1 TYR        -0.2620
     63 CA         -7.0580   -0.7630   -7.1900 C.3       1 TYR         0.1390
     64 C          -6.1810   -1.6940   -8.0290 C.2       1 TYR         0.2057
     65 O          -6.7070   -2.6500   -8.6190 O.2       1 TYR        -0.3942
     66 CB         -7.6600   -1.5200   -5.9930 C.3       1 TYR         0.0163
     67 CG         -8.3090   -0.6110   -4.9680 C.ar      1 TYR        -0.0493
     68 CD1        -7.5260    0.0580   -4.0120 C.ar      1 TYR        -0.0685
     69 CD2        -9.6850   -0.3400   -5.0570 C.ar      1 TYR        -0.0685
     70 CE1        -8.1030    1.0460   -3.1910 C.ar      1 TYR        -0.0398
     71 CE2       -10.2670    0.6520   -4.2560 C.ar      1 TYR        -0.0398
     72 CZ         -9.4710    1.3660   -3.3400 C.ar      1 TYR         0.0805
     73 OH        -10.0090    2.4140   -2.6670 O.3       1 TYR        -0.3376
     74 N          -4.8650   -1.4580   -8.0520 N.am      1 ILE        -0.2633
     75 CA         -3.9420   -2.2660   -8.8460 C.3       1 ILE         0.1335
     76 C          -3.5310   -3.5200   -8.0620 C.2       1 ILE         0.2042
     77 O          -2.7330   -3.4630   -7.1280 O.2       1 ILE        -0.3944
     78 CB         -2.7470   -1.3990   -9.3060 C.3       1 ILE        -0.0037
     79 CG1        -3.1630   -0.0590   -9.9670 C.3       1 ILE        -0.0491
     80 CG2        -1.8390   -2.1850  -10.2650 C.3       1 ILE        -0.0582
     81 CD1        -4.1670   -0.1780  -11.1220 C.3       1 ILE        -0.0648
     82 N          -4.1240   -4.6620   -8.3940 N.am      1 ILE        -0.2635
     83 CA         -3.8400   -5.9400   -7.7530 C.3       1 ILE         0.1335
     84 C          -2.5130   -6.4590   -8.3040 C.2       1 ILE         0.2042
     85 O          -2.2550   -6.3250   -9.4980 O.2       1 ILE        -0.3944
     86 CB         -4.9640   -6.9620   -8.0700 C.3       1 ILE        -0.0037
     87 CG1        -6.3850   -6.4450   -7.7420 C.3       1 ILE        -0.0491
     88 CG2        -4.7340   -8.2850   -7.3140 C.3       1 ILE        -0.0582
     89 CD1        -7.4650   -7.1680   -8.5570 C.3       1 ILE        -0.0648
     90 N          -1.6830   -7.0690   -7.4630 N.am      1 ILE        -0.2635
     91 CA         -0.4080   -7.6520   -7.8630 C.3       1 ILE         0.1335
     92 C          -0.4770   -9.0920   -7.3530 C.2       1 ILE         0.2042
     93 O           0.0140   -9.4030   -6.2690 O.2       1 ILE        -0.3944
     94 CB          0.7840   -6.7750   -7.4020 C.3       1 ILE        -0.0037
     95 CG1         2.1240   -7.4250   -7.8140 C.3       1 ILE        -0.0491
     96 CG2         0.7700   -6.4100   -5.9070 C.3       1 ILE        -0.0582
     97 CD1         3.3410   -6.5050   -7.6380 C.3       1 ILE        -0.0648
     98 N          -1.1440   -9.9620   -8.1160 N.am      1 LEU        -0.2637
     99 CA         -1.3170  -11.3670   -7.7680 C.3       1 LEU         0.1314
    100 C          -1.4240  -12.1820   -9.0680 C.2       1 LEU         0.2064
    101 O          -2.5170  -12.2580   -9.6410 O.2       1 LEU        -0.3942
    102 CB         -2.5490  -11.4980   -6.8400 C.3       1 LEU        -0.0101
    103 CG         -2.6310  -12.7740   -5.9820 C.3       1 LEU        -0.0425
    104 CD1        -2.9540  -14.0270   -6.7860 C.3       1 LEU        -0.0625
    105 CD2        -1.3610  -13.0070   -5.1610 C.3       1 LEU        -0.0625
    106 N          -0.3060  -12.6900   -9.6170 N.am      1 PRO        -0.2498
    107 CA         -0.2880  -13.4930  -10.8380 C.3       1 PRO         0.1338
    108 C          -0.7750  -14.9150  -10.5190 C.2       1 PRO         0.2041
    109 O          -1.0910  -15.2160   -9.3720 O.2       1 PRO        -0.3944
    110 CB          1.1800  -13.4860  -11.2700 C.3       1 PRO        -0.0104
    111 CG          1.9250  -13.4920   -9.9380 C.3       1 PRO        -0.0281
    112 CD          1.0280  -12.6460   -9.0360 C.3       1 PRO         0.0369
    113 N          -0.8240  -15.8160  -11.5030 N.am      1 GLU        -0.2636
    114 CA         -1.2670  -17.1940  -11.2540 C.3       1 GLU         0.1324
    115 C          -0.2280  -18.0060  -10.4690 C.2       1 GLU         0.2035
    116 O          -0.5030  -19.1400  -10.0710 O.2       1 GLU        -0.3944
    117 CB         -1.6010  -17.8850  -12.5800 C.3       1 GLU        -0.0008
    118 CG         -2.8200  -18.8050  -12.4200 C.3       1 GLU         0.0044
    119 CD         -3.4300  -19.1710  -13.7680 C.2       1 GLU         0.0350
    120 OE1        -4.0980  -18.3050  -14.3880 O.co2     1 GLU        -0.5690
    121 OE2        -3.2760  -20.3250  -14.2230 O.co2     1 GLU        -0.5690
    122 N           0.9700  -17.4470  -10.2860 N.am      1 SER        -0.2672
    123 CA          2.0590  -18.0670   -9.5670 C.3       1 SER         0.1173
    124 C           1.8750  -17.7500   -8.0870 C.2       1 SER         0.0623
    125 O           1.8860  -18.6880   -7.2560 O.co2     1 SER        -0.5665
    126 CB          3.3870  -17.5340  -10.1280 C.3       1 SER         0.0789
    127 OG          4.4450  -18.4460   -9.9080 O.3       1 SER        -0.3910
    128 H         -23.2417   10.4280   -0.0113 H         1 GLY         0.2012
    129 H         -24.1184    9.1860    0.6711 H         1 GLY         0.2012
    130 H         -22.5307    8.9401    0.2288 H         1 GLY         0.2012
    131 H         -23.0475    9.2434   -2.0553 H         1 GLY         0.1061
    132 H         -24.7670    9.5096   -1.5763 H         1 GLY         0.1061
    133 H         -24.7006    7.6996   -3.3133 H         1 ALA         0.1884
    134 H         -24.4120    4.9888   -2.0763 H         1 ALA         0.0797
    135 H         -26.8524    6.0497   -3.5419 H         1 ALA         0.0277
    136 H         -26.6016    4.3742   -2.9935 H         1 ALA         0.0277
    137 H         -26.7523    5.6881   -1.8011 H         1 ALA         0.0277
    138 H         -22.7987    4.2707   -3.2962 H         1 MET         0.1883
    139 H         -22.3395    4.8925   -6.0929 H         1 MET         0.0800
    140 H         -21.3399    2.5489   -4.4607 H         1 MET         0.0320
    141 H         -20.6677    4.2450   -4.3161 H         1 MET         0.0320
    142 H         -20.0321    4.1380   -6.6707 H         1 MET         0.0378
    143 H         -20.6123    2.4408   -6.7383 H         1 MET         0.0378
    144 H         -19.7452    0.7403   -4.5860 H         1 MET         0.0340
    145 H         -19.2002    0.4517   -6.2566 H         1 MET         0.0340
    146 H         -18.0333    0.3755   -4.9136 H         1 MET         0.0340
    147 H         -22.5989    3.5984   -7.8539 H         1 GLY         0.1881
    148 H         -24.7807    2.4758   -8.7212 H         1 GLY         0.0763
    149 H         -24.2230    1.1197   -7.7032 H         1 GLY         0.0763
    150 H         -21.6361    0.7924   -8.0615 H         1 SER         0.1884
    151 H         -20.9067    1.0323  -10.9483 H         1 SER         0.0823
    152 H         -19.3247   -0.1228   -8.6431 H         1 SER         0.0606
    153 H         -19.3242    1.6284   -9.1123 H         1 SER         0.0606
    154 H         -18.5165   -0.5578  -10.7388 H         1 SER         0.2097
    155 H         -19.8039   -0.9493  -11.8623 H         1 ALA         0.1883
    156 H         -21.2683   -3.5107  -11.2608 H         1 ALA         0.0797
    157 H         -22.1839   -2.5516  -13.2815 H         1 ALA         0.0277
    158 H         -20.5500   -2.4323  -13.9794 H         1 ALA         0.0277
    159 H         -21.2478   -4.0294  -13.6143 H         1 ALA         0.0277
    160 H         -18.4685   -1.8623  -12.7876 H         1 SER         0.1884
    161 H         -16.6611   -4.1701  -12.6060 H         1 SER         0.0823
    162 H         -15.0017   -2.5072  -13.3200 H         1 SER         0.0606
    163 H         -16.2457   -1.2151  -13.1462 H         1 SER         0.0606
    164 H         -16.0273   -1.9705  -15.3098 H         1 SER         0.2097
    165 H         -14.8835   -4.2796  -11.1177 H         1 SER         0.1884
    166 H         -15.4326   -3.4394   -8.4053 H         1 SER         0.0823
    167 H         -14.2196   -5.4615   -8.9132 H         1 SER         0.0606
    168 H         -13.1781   -4.3261   -7.9745 H         1 SER         0.0606
    169 H         -12.0744   -5.3060   -9.7475 H         1 SER         0.2097
    170 H         -14.0640   -2.1011   -7.0722 H         1 GLU         0.1883
    171 H         -13.7716    0.5528   -8.2343 H         1 GLU         0.0801
    172 H         -13.3538    1.2833   -6.1304 H         1 GLU         0.0330
    173 H         -12.7066   -0.3623   -5.5991 H         1 GLU         0.0330
    174 H         -15.0349    0.6208   -4.8098 H         1 GLU         0.0433
    175 H         -14.7496   -1.1598   -5.1650 H         1 GLU         0.0433
    176 H         -11.8542    1.8016   -8.4135 H         1 ASP         0.1884
    177 H          -9.7512    0.4619   -9.7801 H         1 ASP         0.0819
    178 H          -8.6531    2.8491   -9.4171 H         1 ASP         0.0478
    179 H         -10.3125    3.2567   -8.7897 H         1 ASP         0.0478
    180 H          -8.3588   -0.8662   -8.8732 H         1 TYR         0.1885
    181 H          -6.4718    0.0653   -6.7920 H         1 TYR         0.0821
    182 H          -6.8459   -2.0468   -5.4952 H         1 TYR         0.0453
    183 H          -8.4339   -2.1830   -6.3800 H         1 TYR         0.0453
    184 H          -6.4695   -0.1884   -3.9057 H         1 TYR         0.0530
    185 H         -10.3040   -0.9052   -5.7538 H         1 TYR         0.0530
    186 H          -7.4977    1.5609   -2.4449 H         1 TYR         0.0525
    187 H         -11.3316    0.8699   -4.3418 H         1 TYR         0.0525
    188 H         -10.3043    3.0780   -3.2943 H         1 TYR         0.2458
    189 H          -4.4928   -0.6878   -7.4964 H         1 ILE         0.1883
    190 H          -4.4319   -2.6214   -9.7525 H         1 ILE         0.0803
    191 H          -2.2026   -1.1473   -8.3958 H         1 ILE         0.0345
    192 H          -2.2558    0.3756  -10.3869 H         1 ILE         0.0267
    193 H          -3.6496    0.5326   -9.1915 H         1 ILE         0.0267
    194 H          -1.4564   -3.0704   -9.7573 H         1 ILE         0.0235
    195 H          -2.4128   -2.4866  -11.1413 H         1 ILE         0.0235
    196 H          -1.0061   -1.5535  -10.5742 H         1 ILE         0.0235
    197 H          -3.7375   -0.7925  -11.9132 H         1 ILE         0.0230
    198 H          -5.0843   -0.6409  -10.7581 H         1 ILE         0.0230
    199 H          -4.3896    0.8152  -11.5120 H         1 ILE         0.0230
    200 H          -4.8184   -4.6432   -9.1409 H         1 ILE         0.1883
    201 H          -3.7857   -5.8093   -6.6722 H         1 ILE         0.0803
    202 H          -4.9107   -7.1213   -9.1470 H         1 ILE         0.0345
    203 H          -6.4261   -5.3841   -7.9890 H         1 ILE         0.0267
    204 H          -6.5776   -6.6279   -6.6849 H         1 ILE         0.0267
    205 H          -3.7769   -8.7117   -7.6140 H         1 ILE         0.0235
    206 H          -4.7272   -8.0925   -6.2412 H         1 ILE         0.0235
    207 H          -5.5358   -8.9833   -7.5540 H         1 ILE         0.0235
    208 H          -7.2828   -7.0101   -9.6200 H         1 ILE         0.0230
    209 H          -7.4319   -8.2348   -8.3359 H         1 ILE         0.0230
    210 H          -8.4449   -6.7709   -8.2922 H         1 ILE         0.0230
    211 H          -1.9539   -7.1327   -6.4817 H         1 ILE         0.1883
    212 H          -0.2292   -7.6805   -8.9378 H         1 ILE         0.0803
    213 H           0.6708   -5.8226   -7.9198 H         1 ILE         0.0345
    214 H           2.0533   -7.6704   -8.8737 H         1 ILE         0.0267
    215 H           2.2761   -8.2911   -7.1699 H         1 ILE         0.0267
    216 H          -0.1393   -5.8541   -5.6785 H         1 ILE         0.0235
    217 H           0.7989   -7.3223   -5.3113 H         1 ILE         0.0235
    218 H           1.6405   -5.7960   -5.6761 H         1 ILE         0.0235
    219 H           3.2121   -5.6129   -8.2509 H         1 ILE         0.0230
    220 H           3.4293   -6.2179   -6.5902 H         1 ILE         0.0230
    221 H           4.2423   -7.0335   -7.9484 H         1 ILE         0.0230
    222 H          -1.5536   -9.6258   -8.9875 H         1 LEU         0.1883
    223 H          -0.4657  -11.7652   -7.2158 H         1 LEU         0.0800
    224 H          -3.4196  -11.5189   -7.4956 H         1 LEU         0.0315
    225 H          -2.4879  -10.6661   -6.1383 H         1 LEU         0.0315
    226 H          -3.4634  -12.5928   -5.3020 H         1 LEU         0.0298
    227 H          -3.9179  -13.9021   -7.2793 H         1 LEU         0.0232
    228 H          -2.1787  -14.1861   -7.5355 H         1 LEU         0.0232
    229 H          -2.9957  -14.8861   -6.1164 H         1 LEU         0.0232
    230 H          -0.5086  -13.1065   -5.8330 H         1 LEU         0.0232
    231 H          -1.2015  -12.1608   -4.4927 H         1 LEU         0.0232
    232 H          -1.4713  -13.9191   -4.5744 H         1 LEU         0.0232
    233 H          -0.9388  -13.1094  -11.6238 H         1 PRO         0.0802
    234 H           1.4343  -12.6294  -11.8943 H         1 PRO         0.0313
    235 H           1.4393  -14.3333  -11.9048 H         1 PRO         0.0313
    236 H           2.9366  -13.0943  -10.0190 H         1 PRO         0.0287
    237 H           2.0855  -14.4976   -9.5493 H         1 PRO         0.0287
    238 H           1.0222  -13.0348   -8.0177 H         1 PRO         0.0524
    239 H           1.3927  -11.6206   -8.9757 H         1 PRO         0.0524
    240 H          -0.5484  -15.5420  -12.4461 H         1 GLU         0.1883
    241 H          -2.1640  -17.1446  -10.6367 H         1 GLU         0.0801
    242 H          -0.7452  -18.4844  -12.8905 H         1 GLU         0.0330
    243 H          -1.8291  -17.1241  -13.3264 H         1 GLU         0.0330
    244 H          -3.5731  -18.2787  -11.8335 H         1 GLU         0.0433
    245 H          -2.4960  -19.7226  -11.9289 H         1 GLU         0.0433
    246 H           1.1274  -16.5196  -10.6803 H         1 SER         0.1876
    247 H           2.0705  -19.1504   -9.6859 H         1 SER         0.0749
    248 O1          1.7140  -16.5603   -7.7044 O.co2     1 SER        -0.5665
    249 H           3.6258  -16.5990   -9.6211 H         1 SER         0.0599
    250 H           3.2745  -17.3880  -11.2023 H         1 SER         0.0599
    251 H           5.2578  -18.0846  -10.2689 H         1 SER         0.2096
@<TRIPOS>BOND
     1    1    2 1  
     2    2    3 1  
     3    3    4 2  
     4    3    5 am 
     5    5    6 1  
     6    6    7 1  
     7    6    9 1  
     8    7    8 2  
     9    7   10 am 
    10   10   11 1  
    11   11   12 1  
    12   11   14 1  
    13   12   13 2  
    14   12   18 am 
    15   14   15 1  
    16   15   16 1  
    17   16   17 1  
    18   18   19 1  
    19   19   20 1  
    20   20   21 2  
    21   20   22 am 
    22   22   23 1  
    23   23   24 1  
    24   23   26 1  
    25   24   25 2  
    26   24   28 am 
    27   26   27 1  
    28   28   29 1  
    29   29   30 1  
    30   29   32 1  
    31   30   31 2  
    32   30   33 am 
    33   33   34 1  
    34   34   35 1  
    35   34   37 1  
    36   35   36 2  
    37   35   39 am 
    38   37   38 1  
    39   39   40 1  
    40   40   41 1  
    41   40   43 1  
    42   41   42 2  
    43   41   45 am 
    44   43   44 1  
    45   45   46 1  
    46   46   47 1  
    47   46   49 1  
    48   47   48 2  
    49   47   54 am 
    50   49   50 1  
    51   50   51 1  
    52   51   52 ar 
    53   51   53 ar 
    54   54   55 1  
    55   55   56 1  
    56   55   58 1  
    57   56   57 2  
    58   56   62 am 
    59   58   59 1  
    60   59   60 ar 
    61   59   61 ar 
    62   62   63 1  
    63   63   64 1  
    64   63   66 1  
    65   64   65 2  
    66   64   74 am 
    67   66   67 1  
    68   67   68 ar 
    69   67   69 ar 
    70   68   70 ar 
    71   69   71 ar 
    72   70   72 ar 
    73   71   72 ar 
    74   72   73 1  
    75   74   75 1  
    76   75   76 1  
    77   75   78 1  
    78   76   77 2  
    79   76   82 am 
    80   78   79 1  
    81   78   80 1  
    82   79   81 1  
    83   82   83 1  
    84   83   84 1  
    85   83   86 1  
    86   84   85 2  
    87   84   90 am 
    88   86   87 1  
    89   86   88 1  
    90   87   89 1  
    91   90   91 1  
    92   91   92 1  
    93   91   94 1  
    94   92   93 2  
    95   92   98 am 
    96   94   95 1  
    97   94   96 1  
    98   95   97 1  
    99   98   99 1  
   100   99  100 1  
   101   99  102 1  
   102  100  101 2  
   103  100  106 am 
   104  102  103 1  
   105  103  104 1  
   106  103  105 1  
   107  106  107 1  
   108  106  112 1  
   109  107  108 1  
   110  107  110 1  
   111  108  109 2  
   112  108  113 am 
   113  110  111 1  
   114  111  112 1  
   115  113  114 1  
   116  114  115 1  
   117  114  117 1  
   118  115  116 2  
   119  115  122 am 
   120  117  118 1  
   121  118  119 1  
   122  119  120 ar 
   123  119  121 ar 
   124  122  123 1  
   125  123  124 1  
   126  123  126 1  
   127  124  125 ar 
   128  126  127 1  
   129    1  128 1  
   130    1  129 1  
   131    1  130 1  
   132    2  131 1  
   133    2  132 1  
   134    5  133 1  
   135    6  134 1  
   136    9  135 1  
   137    9  136 1  
   138    9  137 1  
   139   10  138 1  
   140   11  139 1  
   141   14  140 1  
   142   14  141 1  
   143   15  142 1  
   144   15  143 1  
   145   17  144 1  
   146   17  145 1  
   147   17  146 1  
   148   18  147 1  
   149   19  148 1  
   150   19  149 1  
   151   22  150 1  
   152   23  151 1  
   153   26  152 1  
   154   26  153 1  
   155   27  154 1  
   156   28  155 1  
   157   29  156 1  
   158   32  157 1  
   159   32  158 1  
   160   32  159 1  
   161   33  160 1  
   162   34  161 1  
   163   37  162 1  
   164   37  163 1  
   165   38  164 1  
   166   39  165 1  
   167   40  166 1  
   168   43  167 1  
   169   43  168 1  
   170   44  169 1  
   171   45  170 1  
   172   46  171 1  
   173   49  172 1  
   174   49  173 1  
   175   50  174 1  
   176   50  175 1  
   177   54  176 1  
   178   55  177 1  
   179   58  178 1  
   180   58  179 1  
   181   62  180 1  
   182   63  181 1  
   183   66  182 1  
   184   66  183 1  
   185   68  184 1  
   186   69  185 1  
   187   70  186 1  
   188   71  187 1  
   189   73  188 1  
   190   74  189 1  
   191   75  190 1  
   192   78  191 1  
   193   79  192 1  
   194   79  193 1  
   195   80  194 1  
   196   80  195 1  
   197   80  196 1  
   198   81  197 1  
   199   81  198 1  
   200   81  199 1  
   201   82  200 1  
   202   83  201 1  
   203   86  202 1  
   204   87  203 1  
   205   87  204 1  
   206   88  205 1  
   207   88  206 1  
   208   88  207 1  
   209   89  208 1  
   210   89  209 1  
   211   89  210 1  
   212   90  211 1  
   213   91  212 1  
   214   94  213 1  
   215   95  214 1  
   216   95  215 1  
   217   96  216 1  
   218   96  217 1  
   219   96  218 1  
   220   97  219 1  
   221   97  220 1  
   222   97  221 1  
   223   98  222 1  
   224   99  223 1  
   225  102  224 1  
   226  102  225 1  
   227  103  226 1  
   228  104  227 1  
   229  104  228 1  
   230  104  229 1  
   231  105  230 1  
   232  105  231 1  
   233  105  232 1  
   234  107  233 1  
   235  110  234 1  
   236  110  235 1  
   237  111  236 1  
   238  111  237 1  
   239  112  238 1  
   240  112  239 1  
   241  113  240 1  
   242  114  241 1  
   243  117  242 1  
   244  117  243 1  
   245  118  244 1  
   246  118  245 1  
   247  122  246 1  
   248  123  247 1  
   249  124  248 ar 
   250  126  249 1  
   251  126  250 1  
   252  127  251 1  
@<TRIPOS>SUBSTRUCTURE
     1 GLY         1

