2l8j_ligand
  -I-interpret- 

255256  0  0  0  0  0  0  0  0999 V2000
  -23.3980    9.4200   -0.0120 N   0  3  0  0  0
  -23.8340    8.9970   -1.3420 C   0  0  0  0  0
  -24.0820    7.5050   -1.4030 C   0  0  0  0  0
  -23.8870    6.8040   -0.4080 O   0  0  0  0  0
  -24.5490    7.0300   -2.5590 N   0  0  0  0  0
  -24.8600    5.6340   -2.8320 C   0  0  0  0  0
  -24.2920    5.2710   -4.2010 C   0  0  0  0  0
  -24.8140    5.7040   -5.2310 O   0  0  0  0  0
  -26.3770    5.4210   -2.7890 C   0  0  0  0  0
  -23.1890    4.5340   -4.2010 N   0  0  0  0  0
  -22.4940    4.0730   -5.3910 C   0  0  0  0  0
  -23.3320    2.9960   -6.0820 C   0  0  0  0  0
  -24.0230    2.2330   -5.4010 O   0  0  0  0  0
  -21.1420    3.5000   -4.9550 C   0  0  0  0  0
  -20.1830    3.2180   -6.1060 C   0  0  0  0  0
  -18.5850    2.6470   -5.4860 S   0  0  0  0  0
  -18.9250    0.8760   -5.2910 C   0  0  0  0  0
  -23.2240    2.9270   -7.4080 N   0  0  0  0  0
  -23.9100    1.9880   -8.2830 C   0  0  0  0  0
  -22.9720    1.5360   -9.3990 C   0  0  0  0  0
  -23.1990    1.9060  -10.5530 O   0  0  0  0  0
  -21.8340    0.9270   -9.0530 N   0  0  0  0  0
  -20.8580    0.4440  -10.0320 C   0  0  0  0  0
  -21.1840   -1.0150  -10.4000 C   0  0  0  0  0
  -22.1110   -1.6240   -9.8510 O   0  0  0  0  0
  -19.4380    0.5990   -9.4520 C   0  0  0  0  0
  -18.4260    0.3410  -10.4140 O   0  0  0  0  0
  -20.4810   -1.5530  -11.3960 N   0  0  0  0  0
  -20.5890   -2.9290  -11.8840 C   0  0  0  0  0
  -19.1750   -3.5080  -11.8410 C   0  0  0  0  0
  -18.9640   -4.6090  -11.3360 O   0  0  0  0  0
  -21.1860   -2.9900  -13.2920 C   0  0  0  0  0
  -18.2080   -2.7510  -12.3600 N   0  0  0  0  0
  -16.8090   -3.1210  -12.3500 C   0  0  0  0  0
  -16.2920   -2.8310  -10.9370 C   0  0  0  0  0
  -16.8330   -1.9560  -10.2530 O   0  0  0  0  0
  -16.0630   -2.2650  -13.3750 C   0  0  0  0  0
  -16.5140   -2.5220  -14.6930 O   0  0  0  0  0
  -15.2680   -3.5630  -10.5020 N   0  0  0  0  0
  -14.6750   -3.3840   -9.1870 C   0  0  0  0  0
  -14.0460   -1.9910   -9.0970 C   0  0  0  0  0
  -13.6960   -1.3850  -10.1140 O   0  0  0  0  0
  -13.6740   -4.5180   -8.9260 C   0  0  0  0  0
  -12.6810   -4.5880   -9.9430 O   0  0  0  0  0
  -13.8250   -1.5190   -7.8750 N   0  0  0  0  0
  -13.2540   -0.2010   -7.6410 C   0  0  0  0  0
  -11.7860   -0.1870   -8.0950 C   0  0  0  0  0
  -11.1220   -1.2240   -8.0820 O   0  0  0  0  0
  -13.4470    0.1980   -6.1700 C   0  0  0  0  0
  -14.8230   -0.1450   -5.5560 C   0  0  0  0  0
  -15.9930   -0.1350   -6.5460 C   0  0  0  0  0
  -16.1830    0.8710   -7.2650 O   0  0  0  0  0
  -16.6690   -1.1910   -6.6150 O   0  0  0  0  0
  -11.2580    0.9760   -8.4710 N   0  0  0  0  0
   -9.8920    1.1660   -8.9600 C   0  0  0  0  0
   -8.8220    0.8470   -7.9150 C   0  0  0  0  0
   -8.5920    1.6500   -7.0080 O   0  0  0  0  0
   -9.7180    2.6180   -9.4430 C   0  0  0  0  0
  -10.2020    2.8380  -10.8660 C   0  0  0  0  0
  -11.4200    3.0450  -11.0630 O   0  0  0  0  0
   -9.3480    2.8170  -11.7810 O   0  0  0  0  0
   -8.1250   -0.2840   -8.0690 N   0  0  0  0  0
   -7.0580   -0.7630   -7.1900 C   0  0  0  0  0
   -6.1810   -1.6940   -8.0290 C   0  0  0  0  0
   -6.7070   -2.6500   -8.6190 O   0  0  0  0  0
   -7.6600   -1.5200   -5.9930 C   0  0  0  0  0
   -8.3090   -0.6110   -4.9680 C   0  0  0  0  0
   -7.5260    0.0580   -4.0120 C   0  0  0  0  0
   -9.6850   -0.3400   -5.0570 C   0  0  0  0  0
   -8.1030    1.0460   -3.1910 C   0  0  0  0  0
  -10.2670    0.6520   -4.2560 C   0  0  0  0  0
   -9.4710    1.3660   -3.3400 C   0  0  0  0  0
  -10.0090    2.4140   -2.6670 O   0  0  0  0  0
   -4.8650   -1.4580   -8.0520 N   0  0  0  0  0
   -3.9420   -2.2660   -8.8460 C   0  0  0  0  0
   -3.5310   -3.5200   -8.0620 C   0  0  0  0  0
   -2.7330   -3.4630   -7.1280 O   0  0  0  0  0
   -2.7470   -1.3990   -9.3060 C   0  0  0  0  0
   -3.1630   -0.0590   -9.9670 C   0  0  0  0  0
   -1.8390   -2.1850  -10.2650 C   0  0  0  0  0
   -4.1670   -0.1780  -11.1220 C   0  0  0  0  0
   -4.1240   -4.6620   -8.3940 N   0  0  0  0  0
   -3.8400   -5.9400   -7.7530 C   0  0  0  0  0
   -2.5130   -6.4590   -8.3040 C   0  0  0  0  0
   -2.2550   -6.3250   -9.4980 O   0  0  0  0  0
   -4.9640   -6.9620   -8.0700 C   0  0  0  0  0
   -6.3850   -6.4450   -7.7420 C   0  0  0  0  0
   -4.7340   -8.2850   -7.3140 C   0  0  0  0  0
   -7.4650   -7.1680   -8.5570 C   0  0  0  0  0
   -1.6830   -7.0690   -7.4630 N   0  0  0  0  0
   -0.4080   -7.6520   -7.8630 C   0  0  0  0  0
   -0.4770   -9.0920   -7.3530 C   0  0  0  0  0
    0.0140   -9.4030   -6.2690 O   0  0  0  0  0
    0.7840   -6.7750   -7.4020 C   0  0  0  0  0
    2.1240   -7.4250   -7.8140 C   0  0  0  0  0
    0.7700   -6.4100   -5.9070 C   0  0  0  0  0
    3.3410   -6.5050   -7.6380 C   0  0  0  0  0
   -1.1440   -9.9620   -8.1160 N   0  0  0  0  0
   -1.3170  -11.3670   -7.7680 C   0  0  0  0  0
   -1.4240  -12.1820   -9.0680 C   0  0  0  0  0
   -2.5170  -12.2580   -9.6410 O   0  0  0  0  0
   -2.5490  -11.4980   -6.8400 C   0  0  0  0  0
   -2.6310  -12.7740   -5.9820 C   0  0  0  0  0
   -2.9540  -14.0270   -6.7860 C   0  0  0  0  0
   -1.3610  -13.0070   -5.1610 C   0  0  0  0  0
   -0.3060  -12.6900   -9.6170 N   0  0  0  0  0
   -0.2880  -13.4930  -10.8380 C   0  0  0  0  0
   -0.7750  -14.9150  -10.5190 C   0  0  0  0  0
   -1.0910  -15.2160   -9.3720 O   0  0  0  0  0
    1.1800  -13.4860  -11.2700 C   0  0  0  0  0
    1.9250  -13.4920   -9.9380 C   0  0  0  0  0
    1.0280  -12.6460   -9.0360 C   0  0  0  0  0
   -0.8240  -15.8160  -11.5030 N   0  0  0  0  0
   -1.2670  -17.1940  -11.2540 C   0  0  0  0  0
   -0.2280  -18.0060  -10.4690 C   0  0  0  0  0
   -0.5030  -19.1400  -10.0710 O   0  0  0  0  0
   -1.6010  -17.8850  -12.5800 C   0  0  0  0  0
   -2.8200  -18.8050  -12.4200 C   0  0  0  0  0
   -3.4300  -19.1710  -13.7680 C   0  0  0  0  0
   -4.0980  -18.3050  -14.3880 O   0  0  0  0  0
   -3.2760  -20.3250  -14.2230 O   0  0  0  0  0
    0.9700  -17.4470  -10.2860 N   0  0  0  0  0
    2.0590  -18.0670   -9.5670 C   0  0  0  0  0
    1.8750  -17.7500   -8.0870 C   0  0  0  0  0
    1.8860  -18.6880   -7.2560 O   0  0  0  0  0
    3.3870  -17.5340  -10.1280 C   0  0  0  0  0
    4.4450  -18.4460   -9.9080 O   0  0  0  0  0
    1.7140  -16.5603   -7.7044 O   0  0  0  0  0
  -23.2417   10.4280   -0.0113 H   0  0  0  0  0
  -24.1184    9.1860    0.6711 H   0  0  0  0  0
  -22.5307    8.9401    0.2288 H   0  0  0  0  0
  -23.0475    9.2434   -2.0553 H   0  0  0  0  0
  -24.7670    9.5096   -1.5763 H   0  0  0  0  0
  -24.7006    7.6996   -3.3133 H   0  0  0  0  0
  -24.4120    4.9888   -2.0763 H   0  0  0  0  0
  -26.8524    6.0497   -3.5419 H   0  0  0  0  0
  -26.6016    4.3742   -2.9935 H   0  0  0  0  0
  -26.7523    5.6881   -1.8011 H   0  0  0  0  0
  -22.7987    4.2707   -3.2962 H   0  0  0  0  0
  -22.3395    4.8925   -6.0929 H   0  0  0  0  0
  -21.3399    2.5489   -4.4607 H   0  0  0  0  0
  -20.6677    4.2450   -4.3161 H   0  0  0  0  0
  -20.0321    4.1380   -6.6707 H   0  0  0  0  0
  -20.6123    2.4408   -6.7383 H   0  0  0  0  0
  -19.7452    0.7403   -4.5860 H   0  0  0  0  0
  -19.2002    0.4517   -6.2566 H   0  0  0  0  0
  -18.0333    0.3755   -4.9136 H   0  0  0  0  0
  -22.5989    3.5984   -7.8539 H   0  0  0  0  0
  -24.7807    2.4758   -8.7212 H   0  0  0  0  0
  -24.2230    1.1197   -7.7032 H   0  0  0  0  0
  -21.6361    0.7924   -8.0615 H   0  0  0  0  0
  -20.9067    1.0323  -10.9483 H   0  0  0  0  0
  -19.3247   -0.1228   -8.6431 H   0  0  0  0  0
  -19.3242    1.6284   -9.1123 H   0  0  0  0  0
  -17.5636    0.4499  -10.0066 H   0  0  0  0  0
  -19.8039   -0.9493  -11.8623 H   0  0  0  0  0
  -21.2683   -3.5107  -11.2608 H   0  0  0  0  0
  -22.1839   -2.5516  -13.2815 H   0  0  0  0  0
  -20.5500   -2.4323  -13.9794 H   0  0  0  0  0
  -21.2478   -4.0294  -13.6143 H   0  0  0  0  0
  -18.4685   -1.8623  -12.7876 H   0  0  0  0  0
  -16.6611   -4.1701  -12.6060 H   0  0  0  0  0
  -15.0017   -2.5072  -13.3200 H   0  0  0  0  0
  -16.2457   -1.2151  -13.1462 H   0  0  0  0  0
  -16.0272   -1.9705  -15.3098 H   0  0  0  0  0
  -14.8835   -4.2796  -11.1177 H   0  0  0  0  0
  -15.4326   -3.4394   -8.4053 H   0  0  0  0  0
  -14.2196   -5.4615   -8.9132 H   0  0  0  0  0
  -13.1781   -4.3261   -7.9745 H   0  0  0  0  0
  -12.0744   -5.3060   -9.7476 H   0  0  0  0  0
  -14.0640   -2.1011   -7.0722 H   0  0  0  0  0
  -13.7716    0.5528   -8.2343 H   0  0  0  0  0
  -13.3538    1.2833   -6.1304 H   0  0  0  0  0
  -12.7066   -0.3623   -5.5991 H   0  0  0  0  0
  -15.0349    0.6208   -4.8098 H   0  0  0  0  0
  -14.7496   -1.1598   -5.1650 H   0  0  0  0  0
  -16.3423   -1.8215   -5.9690 H   0  0  0  0  0
  -11.8542    1.8016   -8.4135 H   0  0  0  0  0
   -9.7512    0.4619   -9.7801 H   0  0  0  0  0
   -8.6531    2.8491   -9.4171 H   0  0  0  0  0
  -10.3125    3.2567   -8.7897 H   0  0  0  0  0
   -8.4822    2.6420  -11.4051 H   0  0  0  0  0
   -8.3588   -0.8662   -8.8732 H   0  0  0  0  0
   -6.4718    0.0653   -6.7920 H   0  0  0  0  0
   -6.8459   -2.0468   -5.4952 H   0  0  0  0  0
   -8.4339   -2.1830   -6.3800 H   0  0  0  0  0
   -6.4695   -0.1884   -3.9057 H   0  0  0  0  0
  -10.3040   -0.9052   -5.7538 H   0  0  0  0  0
   -7.4977    1.5609   -2.4449 H   0  0  0  0  0
  -11.3316    0.8699   -4.3418 H   0  0  0  0  0
  -10.9414    2.4872   -2.8835 H   0  0  0  0  0
   -4.4928   -0.6878   -7.4964 H   0  0  0  0  0
   -4.4319   -2.6214   -9.7525 H   0  0  0  0  0
   -2.2026   -1.1473   -8.3958 H   0  0  0  0  0
   -2.2558    0.3756  -10.3869 H   0  0  0  0  0
   -3.6496    0.5326   -9.1915 H   0  0  0  0  0
   -1.4564   -3.0704   -9.7573 H   0  0  0  0  0
   -2.4128   -2.4866  -11.1413 H   0  0  0  0  0
   -1.0061   -1.5535  -10.5742 H   0  0  0  0  0
   -3.7375   -0.7925  -11.9132 H   0  0  0  0  0
   -5.0843   -0.6409  -10.7581 H   0  0  0  0  0
   -4.3896    0.8152  -11.5120 H   0  0  0  0  0
   -4.8184   -4.6432   -9.1409 H   0  0  0  0  0
   -3.7857   -5.8093   -6.6722 H   0  0  0  0  0
   -4.9107   -7.1213   -9.1470 H   0  0  0  0  0
   -6.4261   -5.3841   -7.9890 H   0  0  0  0  0
   -6.5776   -6.6279   -6.6849 H   0  0  0  0  0
   -3.7769   -8.7117   -7.6140 H   0  0  0  0  0
   -4.7272   -8.0925   -6.2412 H   0  0  0  0  0
   -5.5358   -8.9833   -7.5540 H   0  0  0  0  0
   -7.2828   -7.0101   -9.6200 H   0  0  0  0  0
   -7.4319   -8.2348   -8.3359 H   0  0  0  0  0
   -8.4449   -6.7709   -8.2922 H   0  0  0  0  0
   -1.9539   -7.1327   -6.4817 H   0  0  0  0  0
   -0.2292   -7.6805   -8.9378 H   0  0  0  0  0
    0.6708   -5.8226   -7.9198 H   0  0  0  0  0
    2.0533   -7.6704   -8.8737 H   0  0  0  0  0
    2.2761   -8.2911   -7.1699 H   0  0  0  0  0
   -0.1393   -5.8541   -5.6785 H   0  0  0  0  0
    0.7989   -7.3223   -5.3113 H   0  0  0  0  0
    1.6405   -5.7960   -5.6761 H   0  0  0  0  0
    3.2121   -5.6129   -8.2509 H   0  0  0  0  0
    3.4293   -6.2179   -6.5902 H   0  0  0  0  0
    4.2423   -7.0335   -7.9484 H   0  0  0  0  0
   -1.5536   -9.6258   -8.9875 H   0  0  0  0  0
   -0.4657  -11.7652   -7.2158 H   0  0  0  0  0
   -3.4196  -11.5189   -7.4956 H   0  0  0  0  0
   -2.4879  -10.6661   -6.1383 H   0  0  0  0  0
   -3.4634  -12.5928   -5.3020 H   0  0  0  0  0
   -3.9179  -13.9021   -7.2793 H   0  0  0  0  0
   -2.1787  -14.1861   -7.5355 H   0  0  0  0  0
   -2.9957  -14.8861   -6.1164 H   0  0  0  0  0
   -0.5086  -13.1065   -5.8330 H   0  0  0  0  0
   -1.2015  -12.1608   -4.4927 H   0  0  0  0  0
   -1.4713  -13.9191   -4.5744 H   0  0  0  0  0
   -0.9388  -13.1094  -11.6238 H   0  0  0  0  0
    1.4343  -12.6294  -11.8943 H   0  0  0  0  0
    1.4393  -14.3333  -11.9048 H   0  0  0  0  0
    2.9366  -13.0943  -10.0190 H   0  0  0  0  0
    2.0855  -14.4976   -9.5493 H   0  0  0  0  0
    1.0222  -13.0348   -8.0177 H   0  0  0  0  0
    1.3927  -11.6206   -8.9757 H   0  0  0  0  0
   -0.5484  -15.5420  -12.4461 H   0  0  0  0  0
   -2.1640  -17.1446  -10.6367 H   0  0  0  0  0
   -0.7452  -18.4844  -12.8905 H   0  0  0  0  0
   -1.8291  -17.1241  -13.3264 H   0  0  0  0  0
   -3.5731  -18.2787  -11.8335 H   0  0  0  0  0
   -2.4960  -19.7226  -11.9289 H   0  0  0  0  0
   -4.1039  -17.4869  -13.8857 H   0  0  0  0  0
    1.1274  -16.5196  -10.6803 H   0  0  0  0  0
    2.0705  -19.1504   -9.6859 H   0  0  0  0  0
    3.6258  -16.5990   -9.6211 H   0  0  0  0  0
    3.2745  -17.3880  -11.2023 H   0  0  0  0  0
    5.2578  -18.0845  -10.2689 H   0  0  0  0  0
    1.7320  -15.9754   -8.4654 H   0  0  0  0  0
  1  2  1  0  0  0
  2  3  1  0  0  0
  3  4  2  0  0  0
  3  5  1  0  0  0
  5  6  1  0  0  0
  6  7  1  0  0  0
  6  9  1  0  0  0
  7  8  2  0  0  0
  7 10  1  0  0  0
 10 11  1  0  0  0
 11 12  1  0  0  0
 11 14  1  0  0  0
 12 13  2  0  0  0
 12 18  1  0  0  0
 14 15  1  0  0  0
 15 16  1  0  0  0
 16 17  1  0  0  0
 18 19  1  0  0  0
 19 20  1  0  0  0
 20 21  2  0  0  0
 20 22  1  0  0  0
 22 23  1  0  0  0
 23 24  1  0  0  0
 23 26  1  0  0  0
 24 25  2  0  0  0
 24 28  1  0  0  0
 26 27  1  0  0  0
 28 29  1  0  0  0
 29 30  1  0  0  0
 29 32  1  0  0  0
 30 31  2  0  0  0
 30 33  1  0  0  0
 33 34  1  0  0  0
 34 35  1  0  0  0
 34 37  1  0  0  0
 35 36  2  0  0  0
 35 39  1  0  0  0
 37 38  1  0  0  0
 39 40  1  0  0  0
 40 41  1  0  0  0
 40 43  1  0  0  0
 41 42  2  0  0  0
 41 45  1  0  0  0
 43 44  1  0  0  0
 45 46  1  0  0  0
 46 47  1  0  0  0
 46 49  1  0  0  0
 47 48  2  0  0  0
 47 54  1  0  0  0
 49 50  1  0  0  0
 50 51  1  0  0  0
 51 52  2  0  0  0
 51 53  1  0  0  0
 54 55  1  0  0  0
 55 56  1  0  0  0
 55 58  1  0  0  0
 56 57  2  0  0  0
 56 62  1  0  0  0
 58 59  1  0  0  0
 59 60  2  0  0  0
 59 61  1  0  0  0
 62 63  1  0  0  0
 63 64  1  0  0  0
 63 66  1  0  0  0
 64 65  2  0  0  0
 64 74  1  0  0  0
 66 67  1  0  0  0
 67 68  4  0  0  0
 67 69  4  0  0  0
 68 70  4  0  0  0
 69 71  4  0  0  0
 70 72  4  0  0  0
 71 72  4  0  0  0
 72 73  1  0  0  0
 74 75  1  0  0  0
 75 76  1  0  0  0
 75 78  1  0  0  0
 76 77  2  0  0  0
 76 82  1  0  0  0
 78 79  1  0  0  0
 78 80  1  0  0  0
 79 81  1  0  0  0
 82 83  1  0  0  0
 83 84  1  0  0  0
 83 86  1  0  0  0
 84 85  2  0  0  0
 84 90  1  0  0  0
 86 87  1  0  0  0
 86 88  1  0  0  0
 87 89  1  0  0  0
 90 91  1  0  0  0
 91 92  1  0  0  0
 91 94  1  0  0  0
 92 93  2  0  0  0
 92 98  1  0  0  0
 94 95  1  0  0  0
 94 96  1  0  0  0
 95 97  1  0  0  0
 98 99  1  0  0  0
 99100  1  0  0  0
 99102  1  0  0  0
100101  2  0  0  0
100106  1  0  0  0
102103  1  0  0  0
103104  1  0  0  0
103105  1  0  0  0
106107  1  0  0  0
106112  1  0  0  0
107108  1  0  0  0
107110  1  0  0  0
108109  2  0  0  0
108113  1  0  0  0
110111  1  0  0  0
111112  1  0  0  0
113114  1  0  0  0
114115  1  0  0  0
114117  1  0  0  0
115116  2  0  0  0
115122  1  0  0  0
117118  1  0  0  0
118119  1  0  0  0
119120  1  0  0  0
119121  2  0  0  0
122123  1  0  0  0
123124  1  0  0  0
123126  1  0  0  0
124125  2  0  0  0
126127  1  0  0  0
124128  1  0  0  0
  1129  1  0  0  0
  1130  1  0  0  0
  1131  1  0  0  0
  2132  1  0  0  0
  2133  1  0  0  0
  5134  1  0  0  0
  6135  1  0  0  0
  9136  1  0  0  0
  9137  1  0  0  0
  9138  1  0  0  0
 10139  1  0  0  0
 11140  1  0  0  0
 14141  1  0  0  0
 14142  1  0  0  0
 15143  1  0  0  0
 15144  1  0  0  0
 17145  1  0  0  0
 17146  1  0  0  0
 17147  1  0  0  0
 18148  1  0  0  0
 19149  1  0  0  0
 19150  1  0  0  0
 22151  1  0  0  0
 23152  1  0  0  0
 26153  1  0  0  0
 26154  1  0  0  0
 27155  1  0  0  0
 28156  1  0  0  0
 29157  1  0  0  0
 32158  1  0  0  0
 32159  1  0  0  0
 32160  1  0  0  0
 33161  1  0  0  0
 34162  1  0  0  0
 37163  1  0  0  0
 37164  1  0  0  0
 38165  1  0  0  0
 39166  1  0  0  0
 40167  1  0  0  0
 43168  1  0  0  0
 43169  1  0  0  0
 44170  1  0  0  0
 45171  1  0  0  0
 46172  1  0  0  0
 49173  1  0  0  0
 49174  1  0  0  0
 50175  1  0  0  0
 50176  1  0  0  0
 53177  1  0  0  0
 54178  1  0  0  0
 55179  1  0  0  0
 58180  1  0  0  0
 58181  1  0  0  0
 61182  1  0  0  0
 62183  1  0  0  0
 63184  1  0  0  0
 66185  1  0  0  0
 66186  1  0  0  0
 68187  1  0  0  0
 69188  1  0  0  0
 70189  1  0  0  0
 71190  1  0  0  0
 73191  1  0  0  0
 74192  1  0  0  0
 75193  1  0  0  0
 78194  1  0  0  0
 79195  1  0  0  0
 79196  1  0  0  0
 80197  1  0  0  0
 80198  1  0  0  0
 80199  1  0  0  0
 81200  1  0  0  0
 81201  1  0  0  0
 81202  1  0  0  0
 82203  1  0  0  0
 83204  1  0  0  0
 86205  1  0  0  0
 87206  1  0  0  0
 87207  1  0  0  0
 88208  1  0  0  0
 88209  1  0  0  0
 88210  1  0  0  0
 89211  1  0  0  0
 89212  1  0  0  0
 89213  1  0  0  0
 90214  1  0  0  0
 91215  1  0  0  0
 94216  1  0  0  0
 95217  1  0  0  0
 95218  1  0  0  0
 96219  1  0  0  0
 96220  1  0  0  0
 96221  1  0  0  0
 97222  1  0  0  0
 97223  1  0  0  0
 97224  1  0  0  0
 98225  1  0  0  0
 99226  1  0  0  0
102227  1  0  0  0
102228  1  0  0  0
103229  1  0  0  0
104230  1  0  0  0
104231  1  0  0  0
104232  1  0  0  0
105233  1  0  0  0
105234  1  0  0  0
105235  1  0  0  0
107236  1  0  0  0
110237  1  0  0  0
110238  1  0  0  0
111239  1  0  0  0
111240  1  0  0  0
112241  1  0  0  0
112242  1  0  0  0
113243  1  0  0  0
114244  1  0  0  0
117245  1  0  0  0
117246  1  0  0  0
118247  1  0  0  0
118248  1  0  0  0
120249  1  0  0  0
122250  1  0  0  0
123251  1  0  0  0
126252  1  0  0  0
126253  1  0  0  0
127254  1  0  0  0
128255  1  0  0  0
M  END
$$$$
