5y6k_ligand
  -I-interpret- 

 62 63  0  0  0  0  0  0  0  0999 V2000
   10.9060   14.3140    2.2270 O   0  0  0  0  0
   10.4250   13.1470    2.3760 C   0  0  0  0  0
   11.2510   12.1280    2.8270 O   0  0  0  0  0
   10.7930   10.8390    3.0160 C   0  0  0  0  0
   11.6430    9.8470    3.4870 C   0  0  0  0  0
   11.1540    8.5940    3.6720 C   0  0  0  0  0
   11.9870    7.6610    4.0750 N   0  0  0  0  0
    9.8430    8.2620    3.4050 C   0  0  0  0  0
    8.9400    9.1780    2.9340 C   0  0  0  0  0
    9.3790   10.4620    2.7260 C   0  0  0  0  0
    8.4700   11.4790    2.2460 C   0  0  0  0  0
    7.0570   11.1090    1.9710 C   0  0  0  0  0
    8.9840   12.8170    2.0630 C   0  0  0  0  0
    8.0670   13.8910    1.5900 C   0  0  0  0  0
    7.9970   14.8780    2.7300 C   0  0  0  0  0
    8.8450   15.7990    2.8240 O   0  0  0  0  0
    7.0550   14.6930    3.5940 N   0  0  0  0  0
    6.2210   13.5150    3.5960 C   0  0  0  0  0
    6.4700   12.6330    4.7920 C   0  0  0  0  0
    6.9290   13.4140    5.9880 C   0  0  0  0  0
    7.2380   12.6140    7.2330 C   0  0  0  0  0
    8.4170   11.6630    7.3110 C   0  0  0  0  0
    8.2410   10.3700    6.5030 C   0  0  0  0  0
    7.2760   10.2360    5.7130 O   0  0  0  0  0
    9.0610    9.4080    6.6690 O   0  0  0  0  0
    9.6800   12.3260    7.0350 N   0  3  0  0  0
    9.8140   12.8070    5.6650 C   0  0  0  0  0
    9.9920   14.2960    5.6440 C   0  0  0  0  0
    9.0940   15.0250    5.1970 O   0  0  0  0  0
   11.0440   14.7820    6.0600 O   0  0  0  0  0
   10.7530   11.3480    7.3460 C   0  0  0  0  0
   12.0950   11.5980    6.7520 C   0  0  0  0  0
   12.8560   10.6780    6.6970 O   0  0  0  0  0
   12.4380   12.6930    6.3200 O   0  0  0  0  0
   12.6872   10.0710    3.7049 H   0  0  0  0  0
   12.9676    7.8890    4.2389 H   0  0  0  0  0
   11.6530    6.7088    4.2239 H   0  0  0  0  0
    9.5141    7.2367    3.5743 H   0  0  0  0  0
    7.9067    8.8966    2.7310 H   0  0  0  0  0
    6.3976   11.7013    2.6054 H   0  0  0  0  0
    6.8285   11.3057    0.9235 H   0  0  0  0  0
    6.9123   10.0497    2.1831 H   0  0  0  0  0
    7.0826   13.4978    1.3361 H   0  0  0  0  0
    8.4308   14.3575    0.6745 H   0  0  0  0  0
    6.8940   15.4080    4.3034 H   0  0  0  0  0
    6.4511   12.9388    2.6998 H   0  0  0  0  0
    5.1810   13.8396    3.6285 H   0  0  0  0  0
    7.2535   11.9217    4.5310 H   0  0  0  0  0
    5.5331   12.1389    5.0493 H   0  0  0  0  0
    6.1056   14.0781    6.2508 H   0  0  0  0  0
    7.8631   13.8941    5.6964 H   0  0  0  0  0
    6.3741   11.9572    7.3344 H   0  0  0  0  0
    7.4774   13.3775    7.9732 H   0  0  0  0  0
    8.4477   11.3369    8.3506 H   0  0  0  0  0
    9.7356    9.6693    7.3000 H   0  0  0  0  0
    9.7385   13.1650    7.6121 H   0  0  0  0  0
    8.9110   12.5512    5.1107 H   0  0  0  0  0
   10.6878   12.3402    5.2104 H   0  0  0  0  0
    8.3518   14.4830    4.9195 H   0  0  0  0  0
   10.4174   10.3983    6.9294 H   0  0  0  0  0
   10.8937   11.3967    8.4258 H   0  0  0  0  0
   11.7209   13.3206    6.4364 H   0  0  0  0  0
  1  2  2  0  0  0
  2  3  1  0  0  0
  2 13  1  0  0  0
  3  4  1  0  0  0
  4  5  4  0  0  0
  4 10  4  0  0  0
  5  6  4  0  0  0
  6  7  1  0  0  0
  6  8  4  0  0  0
  8  9  4  0  0  0
  9 10  4  0  0  0
 10 11  1  0  0  0
 11 12  1  0  0  0
 11 13  2  0  0  0
 13 14  1  0  0  0
 14 15  1  0  0  0
 15 16  2  0  0  0
 15 17  1  0  0  0
 17 18  1  0  0  0
 18 19  1  0  0  0
 19 20  1  0  0  0
 20 21  1  0  0  0
 21 22  1  0  0  0
 22 23  1  0  0  0
 22 26  1  0  0  0
 23 24  2  0  0  0
 23 25  1  0  0  0
 26 27  1  0  0  0
 26 31  1  0  0  0
 27 28  1  0  0  0
 28 29  1  0  0  0
 28 30  2  0  0  0
 31 32  1  0  0  0
 32 33  2  0  0  0
 32 34  1  0  0  0
  5 35  1  0  0  0
  7 36  1  0  0  0
  7 37  1  0  0  0
  8 38  1  0  0  0
  9 39  1  0  0  0
 12 40  1  0  0  0
 12 41  1  0  0  0
 12 42  1  0  0  0
 14 43  1  0  0  0
 14 44  1  0  0  0
 17 45  1  0  0  0
 18 46  1  0  0  0
 18 47  1  0  0  0
 19 48  1  0  0  0
 19 49  1  0  0  0
 20 50  1  0  0  0
 20 51  1  0  0  0
 21 52  1  0  0  0
 21 53  1  0  0  0
 22 54  1  0  0  0
 25 55  1  0  0  0
 26 56  1  0  0  0
 27 57  1  0  0  0
 27 58  1  0  0  0
 29 59  1  0  0  0
 31 60  1  0  0  0
 31 61  1  0  0  0
 34 62  1  0  0  0
M  END
$$$$
