3oe6_ligand
  -I-interpret- 

 62 65  0  0  0  0  0  0  0  0999 V2000
   13.7920   30.6020   69.1190 C   0  0  0  0  0
   15.4380   28.8860   69.7020 N   0  0  0  0  0
   16.0400   26.8940   71.5840 S   0  0  0  0  0
   15.1350   30.3160   69.7800 C   0  0  0  0  0
   15.4290   29.3590   71.8440 N   0  3  0  0  0
   17.0500   30.5020   74.6250 S   0  0  0  0  0
   16.2560   31.1020   69.1070 C   0  0  0  0  0
   17.5210   28.4980   76.1390 N   0  0  0  0  0
   15.6050   28.4240   70.9500 C   0  0  0  0  0
   19.3480   29.2780   74.8850 N   0  0  0  0  0
   15.9610   27.5460   73.1930 C   0  0  0  0  0
   15.0790   30.6540   71.2810 C   0  0  0  0  0
   15.6010   28.9110   73.1130 C   0  0  0  0  0
   15.4650   29.8020   74.3200 C   0  0  0  0  0
   18.0600   29.3360   75.2480 C   0  0  0  0  0
   18.1750   27.4110   76.8490 C   0  0  0  0  0
   19.1000   27.9120   77.9540 C   0  0  0  0  0
   19.5320   26.7280   78.8170 C   0  0  0  0  0
   20.2310   25.6580   77.9780 C   0  0  0  0  0
   19.4090   25.2180   76.7640 C   0  0  0  0  0
   18.8830   26.4000   75.9480 C   0  0  0  0  0
   19.8810   29.3700   73.5250 C   0  0  0  0  0
   18.9180   28.9640   72.4090 C   0  0  0  0  0
   19.5730   29.0850   71.0350 C   0  0  0  0  0
   20.1580   30.4740   70.7900 C   0  0  0  0  0
   21.1680   30.8250   71.8760 C   0  0  0  0  0
   20.5260   30.7280   73.2570 C   0  0  0  0  0
   13.5689   31.6660   69.1979 H   0  0  0  0  0
   13.8374   30.3159   68.0682 H   0  0  0  0  0
   13.0124   30.0279   69.6198 H   0  0  0  0  0
   15.5098   28.3358   68.8461 H   0  0  0  0  0
   16.0723   32.1697   69.2272 H   0  0  0  0  0
   17.2085   30.8416   69.5687 H   0  0  0  0  0
   16.2854   30.8543   68.0459 H   0  0  0  0  0
   20.0287   29.1570   75.6349 H   0  0  0  0  0
   16.1567   26.9938   74.1122 H   0  0  0  0  0
   14.1205   31.0480   71.6187 H   0  0  0  0  0
   15.7356   31.4695   71.5841 H   0  0  0  0  0
   14.7266   30.5835   74.1409 H   0  0  0  0  0
   15.1230   29.2315   75.1835 H   0  0  0  0  0
   17.3564   26.8635   77.3162 H   0  0  0  0  0
   18.5750   28.6427   78.5693 H   0  0  0  0  0
   19.9776   28.3841   77.5124 H   0  0  0  0  0
   18.6451   26.2881   79.2731 H   0  0  0  0  0
   20.2288   27.0859   79.5749 H   0  0  0  0  0
   20.3805   24.7841   78.6121 H   0  0  0  0  0
   21.1652   26.0824   77.6102 H   0  0  0  0  0
   18.5503   24.6537   77.1278 H   0  0  0  0  0
   20.0572   24.6267   76.1173 H   0  0  0  0  0
   19.7247   26.8927   75.4613 H   0  0  0  0  0
   18.1715   26.0285   75.2106 H   0  0  0  0  0
   20.6587   28.6070   73.4926 H   0  0  0  0  0
   18.0538   29.6275   72.4397 H   0  0  0  0  0
   18.6281   27.9247   72.5635 H   0  0  0  0  0
   18.8087   28.9027   70.2796 H   0  0  0  0  0
   20.3873   28.3622   70.9845 H   0  0  0  0  0
   19.3511   31.2066   70.8058 H   0  0  0  0  0
   20.6602   30.4819   69.8226 H   0  0  0  0  0
   21.5156   31.8460   71.7187 H   0  0  0  0  0
   22.0013   30.1243   71.8236 H   0  0  0  0  0
   21.3120   30.8729   73.9981 H   0  0  0  0  0
   19.7418   31.4831   73.3110 H   0  0  0  0  0
  4  1  1  0  0  0
  4  2  1  0  0  0
  9  2  1  0  0  0
  3  9  4  0  0  0
 11  3  4  0  0  0
  4  7  1  0  0  0
 12  4  1  0  0  0
  5  9  4  0  0  0
  5 12  1  0  0  0
 13  5  4  0  0  0
 14  6  1  0  0  0
  6 15  1  0  0  0
 15  8  2  0  0  0
  8 16  1  0  0  0
 15 10  1  0  0  0
 10 22  1  0  0  0
 13 11  4  0  0  0
 13 14  1  0  0  0
 16 17  1  0  0  0
 16 21  1  0  0  0
 17 18  1  0  0  0
 18 19  1  0  0  0
 19 20  1  0  0  0
 20 21  1  0  0  0
 22 23  1  0  0  0
 22 27  1  0  0  0
 23 24  1  0  0  0
 24 25  1  0  0  0
 25 26  1  0  0  0
 26 27  1  0  0  0
  1 28  1  0  0  0
  1 29  1  0  0  0
  1 30  1  0  0  0
  2 31  1  0  0  0
  7 32  1  0  0  0
  7 33  1  0  0  0
  7 34  1  0  0  0
 10 35  1  0  0  0
 11 36  1  0  0  0
 12 37  1  0  0  0
 12 38  1  0  0  0
 14 39  1  0  0  0
 14 40  1  0  0  0
 16 41  1  0  0  0
 17 42  1  0  0  0
 17 43  1  0  0  0
 18 44  1  0  0  0
 18 45  1  0  0  0
 19 46  1  0  0  0
 19 47  1  0  0  0
 20 48  1  0  0  0
 20 49  1  0  0  0
 21 50  1  0  0  0
 21 51  1  0  0  0
 22 52  1  0  0  0
 23 53  1  0  0  0
 23 54  1  0  0  0
 24 55  1  0  0  0
 24 56  1  0  0  0
 25 57  1  0  0  0
 25 58  1  0  0  0
 26 59  1  0  0  0
 26 60  1  0  0  0
 27 61  1  0  0  0
 27 62  1  0  0  0
M  END
$$$$
