1eei_ligand
  -I-interpret- 

 36 37  0  0  0  0  0  0  0  0999 V2000
   30.7160   12.9270   23.7880 C   0  0  0  0  0
   29.7840   12.4910   22.6700 C   0  0  0  0  0
   28.6690   13.5590   22.4870 C   0  0  0  0  0
   27.9330   13.7030   23.8070 C   0  0  0  0  0
   28.9400   14.1120   24.8350 C   0  0  0  0  0
   28.2100   14.1280   26.1070 C   0  0  0  0  0
   32.3190   14.7310   24.1690 C   0  0  0  0  0
   31.9220   15.5590   25.1870 C   0  0  0  0  0
   32.9050   16.1220   26.0110 C   0  0  0  0  0
   34.2730   15.8170   25.7550 C   0  0  0  0  0
   34.6330   14.9660   24.6960 C   0  0  0  0  0
   33.6370   14.4090   23.8810 C   0  0  0  0  0
   32.5140   17.0010   27.1130 N   0  0  0  0  0
   31.2920   14.1690   23.3400 O   0  0  0  0  0
   30.5540   12.4130   21.5440 O   0  0  0  0  0
   27.7490   13.3320   21.4380 O   0  0  0  0  0
   27.2950   12.4870   24.1700 O   0  0  0  0  0
   30.0060   13.1460   25.0030 O   0  0  0  0  0
   29.1170   14.7840   26.9310 O   0  0  0  0  0
   33.3610   17.5100   27.8780 O   0  0  0  0  0
   31.3020   17.2610   27.3350 O   0  0  0  0  0
   31.4642   12.1610   23.9915 H   0  0  0  0  0
   29.3049   11.5358   22.8846 H   0  0  0  0  0
   29.1784   14.4753   22.1886 H   0  0  0  0  0
   27.1473   14.4541   23.7258 H   0  0  0  0  0
   29.3838   15.0606   24.5328 H   0  0  0  0  0
   27.9291   13.1373   26.4644 H   0  0  0  0  0
   27.2371   14.6161   26.0487 H   0  0  0  0  0
   30.8662   15.7742   25.3514 H   0  0  0  0  0
   35.0489   16.2484   26.3874 H   0  0  0  0  0
   35.6827   14.7397   24.5088 H   0  0  0  0  0
   33.8892   13.7477   23.0521 H   0  0  0  0  0
   30.0085   12.1393   20.8030 H   0  0  0  0  0
   27.1087   14.0469   21.4152 H   0  0  0  0  0
   26.8378   12.6040   25.0060 H   0  0  0  0  0
   28.7485   14.8598   27.8142 H   0  0  0  0  0
 18  5  1  0  0  0
  1 18  1  0  0  0
  5  4  1  0  0  0
  3  4  1  0  0  0
  2  3  1  0  0  0
  1  2  1  0  0  0
  4 17  1  0  0  0
  3 16  1  0  0  0
  2 15  1  0  0  0
 14  1  1  0  0  0
  5  6  1  0  0  0
  6 19  1  0  0  0
  7  8  4  0  0  0
  7 12  4  0  0  0
 14  7  1  0  0  0
  8  9  4  0  0  0
  9 10  4  0  0  0
  9 13  1  0  0  0
 10 11  4  0  0  0
 11 12  4  0  0  0
 13 20  2  0  0  0
 13 21  2  0  0  0
  1 22  1  0  0  0
  2 23  1  0  0  0
  3 24  1  0  0  0
  4 25  1  0  0  0
  5 26  1  0  0  0
  6 27  1  0  0  0
  6 28  1  0  0  0
  8 29  1  0  0  0
 10 30  1  0  0  0
 11 31  1  0  0  0
 12 32  1  0  0  0
 15 33  1  0  0  0
 16 34  1  0  0  0
 17 35  1  0  0  0
 19 36  1  0  0  0
M  END
$$$$
