6qh9_ligand
  -I-interpret- 

 35 36  0  0  0  0  0  0  0  0999 V2000
  -22.7010    1.1900  -23.7170 C   0  0  0  0  0
  -24.0500   -0.5100  -20.7860 C   0  0  0  0  0
  -23.6580   -1.9350  -20.3890 C   0  0  0  0  0
  -23.2120   -3.6500  -18.6080 C   0  0  0  0  0
  -23.9560    5.7670  -24.5930 N   0  0  0  0  0
  -23.2220    4.7050  -24.9590 C   0  0  0  0  0
  -22.5560    4.7610  -26.0700 N   0  0  0  0  0
  -23.2580    3.5090  -24.0970 C   0  0  0  0  0
  -22.6730    2.3170  -24.5190 C   0  0  0  0  0
  -23.3240    1.2250  -22.4720 C   0  0  0  0  0
  -23.2690   -0.0060  -21.7700 N   0  0  0  0  0
  -24.9470    0.1120  -20.2090 O   0  0  0  0  0
  -23.9060   -2.3250  -18.9200 C   0  0  0  0  0
  -23.6790   -4.7440  -19.5630 C   0  0  0  0  0
  -24.1620   -4.2530  -20.8720 N   0  0  0  0  0
  -24.2230   -2.9890  -21.3280 C   0  0  0  0  0
  -24.6380   -2.7350  -22.4570 O   0  0  0  0  0
  -23.9060    2.4180  -22.0360 C   0  0  0  0  0
  -23.8790    3.5430  -22.8470 C   0  0  0  0  0
  -22.2322    0.2684  -24.0620 H   0  0  0  0  0
  -22.5733   -1.9140  -20.4948 H   0  0  0  0  0
  -23.4592   -3.9447  -17.5881 H   0  0  0  0  0
  -22.1360   -3.5188  -18.7229 H   0  0  0  0  0
  -23.9823    6.5972  -25.1850 H   0  0  0  0  0
  -24.4876    5.7441  -23.7228 H   0  0  0  0  0
  -22.0222    3.9513  -26.3860 H   0  0  0  0  0
  -22.1870    2.2718  -25.4936 H   0  0  0  0  0
  -22.5066   -0.6197  -22.0572 H   0  0  0  0  0
  -24.9777   -2.4331  -18.7533 H   0  0  0  0  0
  -23.5049   -1.5477  -18.2696 H   0  0  0  0  0
  -24.5176   -5.2487  -19.0832 H   0  0  0  0  0
  -22.8182   -5.3828  -19.7606 H   0  0  0  0  0
  -24.4940   -4.9705  -21.5165 H   0  0  0  0  0
  -24.3822    2.4648  -21.0566 H   0  0  0  0  0
  -24.3484    4.4650  -22.5041 H   0  0  0  0  0
  1  9  4  0  0  0
 10  1  4  0  0  0
  2  3  1  0  0  0
 11  2  1  0  0  0
  2 12  2  0  0  0
  3 13  1  0  0  0
  3 16  1  0  0  0
 13  4  1  0  0  0
  4 14  1  0  0  0
  6  5  1  0  0  0
  6  7  2  0  0  0
  8  6  1  0  0  0
  9  8  4  0  0  0
  8 19  4  0  0  0
 10 11  1  0  0  0
 10 18  4  0  0  0
 14 15  1  0  0  0
 15 16  1  0  0  0
 16 17  2  0  0  0
 18 19  4  0  0  0
  1 20  1  0  0  0
  3 21  1  0  0  0
  4 22  1  0  0  0
  4 23  1  0  0  0
  5 24  1  0  0  0
  5 25  1  0  0  0
  7 26  1  0  0  0
  9 27  1  0  0  0
 11 28  1  0  0  0
 13 29  1  0  0  0
 13 30  1  0  0  0
 14 31  1  0  0  0
 14 32  1  0  0  0
 15 33  1  0  0  0
 18 34  1  0  0  0
 19 35  1  0  0  0
M  END
$$$$
