5xn3_ligand
  -I-interpret- 

119120  0  0  0  0  0  0  0  0999 V2000
    1.8250  -16.8150   33.9210 N   0  0  0  0  0
    0.7980  -16.8320   34.8970 C   0  0  0  0  0
    0.9090  -15.6200   35.7880 C   0  0  0  0  0
    1.9720  -15.2450   36.2610 O   0  0  0  0  0
    0.8480  -18.1300   35.7130 C   0  0  0  0  0
    0.0560  -18.0250   37.0190 C   0  0  0  0  0
   -0.0510  -19.4110   37.6300 C   0  0  0  0  0
    1.1860  -19.8780   38.2580 N   0  0  0  0  0
    1.5770  -19.5960   39.5010 C   0  0  0  0  0
    0.8620  -18.7760   40.2840 N   0  0  0  0  0
    2.7050  -20.1300   39.9600 N   0  0  0  0  0
   -0.2240  -14.9760   35.9670 N   0  0  0  0  0
   -0.3510  -13.8090   36.8040 C   0  0  0  0  0
   -0.0990  -12.4300   36.1830 C   0  0  0  0  0
   -0.2450  -11.4430   36.8330 O   0  0  0  0  0
    0.3830  -12.3860   34.9690 N   0  0  0  0  0
    0.8220  -11.1370   34.3600 C   0  0  0  0  0
   -0.3090  -10.5330   33.5120 C   0  0  0  0  0
   -0.9660  -11.2630   32.7750 O   0  0  0  0  0
    2.0380  -11.4590   33.4780 C   0  0  0  0  0
    2.4700  -10.2600   32.6180 C   0  0  0  0  0
    3.1960   -9.3880   33.1440 O   0  0  0  0  0
    2.1010  -10.3660   31.4290 O   0  0  0  0  0
   -0.4100   -9.2090   33.5510 N   0  0  0  0  0
   -1.4640   -8.4540   32.8600 C   0  0  0  0  0
   -1.4200   -8.6190   31.3280 C   0  0  0  0  0
   -2.4220   -8.3620   30.6420 O   0  0  0  0  0
   -1.4150   -6.9650   33.3030 C   0  0  0  0  0
   -2.6800   -6.1730   32.8850 C   0  0  0  0  0
   -0.1620   -6.2470   32.8140 C   0  0  0  0  0
   -3.2710   -5.2650   33.9310 C   0  0  0  0  0
   -0.2280   -8.8820   30.7930 N   0  0  0  0  0
    0.0280   -8.9260   29.3240 C   0  0  0  0  0
    0.2890  -10.2970   28.7230 C   0  0  0  0  0
    0.9180  -10.4840   27.6740 O   0  0  0  0  0
    1.1550   -7.9490   28.9830 C   0  0  0  0  0
    0.6690   -6.4840   28.9220 C   0  0  0  0  0
   -0.4190   -6.2140   28.3580 O   0  0  0  0  0
    1.4250   -5.5670   29.5010 N   0  0  0  0  0
   -0.2530  -11.3480   29.3960 N   0  0  0  0  0
   -0.2540  -12.7120   28.8260 C   0  0  0  0  0
    1.1680  -13.3020   28.7030 C   0  0  0  0  0
    1.4260  -14.0500   27.8320 O   0  0  0  0  0
   -1.0710  -12.8330   27.5030 C   0  0  0  0  0
   -1.2440  -14.2580   27.0460 C   0  0  0  0  0
   -1.6630  -15.1790   27.8580 O   0  0  0  0  0
   -1.0800  -14.5180   25.8140 N   0  0  0  0  0
    2.0550  -12.8540   29.5640 N   0  0  0  0  0
    3.4680  -13.2840   29.3770 C   0  0  0  0  0
    3.8140  -14.4960   30.2280 C   0  0  0  0  0
    4.7500  -15.1790   29.8760 O   0  0  0  0  0
    4.4060  -12.0830   29.5950 C   0  0  0  0  0
    4.3270  -11.0900   28.4160 C   0  0  0  0  0
    4.3870  -11.5370   27.3080 O   0  0  0  0  0
    3.9810   -9.8530   28.6820 N   0  0  0  0  0
    3.0680  -14.6670   31.3070 N   0  0  0  0  0
    3.2120  -15.8020   32.2130 C   0  0  0  0  0
    2.0540  -15.7100   33.2170 C   0  0  0  0  0
    1.3140  -14.7120   33.3100 O   0  0  0  0  0
    4.5710  -15.6910   32.8840 C   0  0  0  0  0
    4.6030  -14.4870   33.8020 C   0  0  0  0  0
    5.0140  -17.0340   33.5580 C   0  0  0  0  0
    1.7700  -16.6270   34.0120 O   0  0  0  0  0
    1.8893  -18.3322   35.9639 H   0  0  0  0  0
    0.4061  -18.9248   35.1121 H   0  0  0  0  0
   -0.9395  -17.6282   36.8197 H   0  0  0  0  0
    0.5644  -17.3521   37.7095 H   0  0  0  0  0
   -0.2871  -20.1043   36.8228 H   0  0  0  0  0
   -0.8128  -19.3648   38.4082 H   0  0  0  0  0
    1.8004  -20.4687   37.6976 H   0  0  0  0  0
    1.1837  -18.5636   41.2283 H   0  0  0  0  0
   -0.0038  -18.3644   39.9355 H   0  0  0  0  0
    3.2576  -20.7456   39.3633 H   0  0  0  0  0
   -1.0564  -15.3204   35.4885 H   0  0  0  0  0
    0.4185  -13.9218   37.5677 H   0  0  0  0  0
   -1.3957  -13.7943   37.1146 H   0  0  0  0  0
    0.4539  -13.2506   34.4325 H   0  0  0  0  0
    1.0876  -10.4081   35.1257 H   0  0  0  0  0
    1.7632  -12.2737   32.8081 H   0  0  0  0  0
    2.8693  -11.7228   34.1319 H   0  0  0  0  0
    3.2984   -9.5799   34.0790 H   0  0  0  0  0
    0.2819   -8.6882   34.0900 H   0  0  0  0  0
   -2.4267   -8.8713   33.1553 H   0  0  0  0  0
   -1.3828   -6.9948   34.3921 H   0  0  0  0  0
   -3.4445   -6.9167   32.6601 H   0  0  0  0  0
   -2.3774   -5.5295   32.0589 H   0  0  0  0  0
    0.7206   -6.7449   33.2156 H   0  0  0  0  0
   -0.1315   -6.2733   31.7247 H   0  0  0  0  0
   -0.1825   -5.2114   33.1533 H   0  0  0  0  0
   -3.5582   -5.8545   34.8017 H   0  0  0  0  0
   -2.5313   -4.5196   34.2232 H   0  0  0  0  0
   -4.1498   -4.7660   33.5226 H   0  0  0  0  0
    0.5531   -9.0634   31.4234 H   0  0  0  0  0
   -0.9107   -8.6276   28.8572 H   0  0  0  0  0
    1.5453   -8.2152   28.0007 H   0  0  0  0  0
    1.9105   -8.0205   29.7654 H   0  0  0  0  0
    1.1313   -4.5902   29.5019 H   0  0  0  0  0
    2.3020   -5.8363   29.9469 H   0  0  0  0  0
   -0.6680  -11.1912   30.3145 H   0  0  0  0  0
   -0.7847  -13.3302   29.5500 H   0  0  0  0  0
   -0.5247  -12.2990   26.7255 H   0  0  0  0  0
   -2.0631  -12.4205   27.6866 H   0  0  0  0  0
   -1.2778  -15.4537   25.4595 H   0  0  0  0  0
   -0.7504  -13.7911   25.1788 H   0  0  0  0  0
    1.7857  -12.2363   30.3297 H   0  0  0  0  0
    3.6074  -13.6219   28.3501 H   0  0  0  0  0
    5.4292  -12.4508   29.6715 H   0  0  0  0  0
    4.1027  -11.5661   30.5055 H   0  0  0  0  0
    3.7448   -9.2148   27.9221 H   0  0  0  0  0
    3.9481   -9.5293   29.6487 H   0  0  0  0  0
    2.3546  -13.9688   31.5168 H   0  0  0  0  0
    3.1681  -16.7678   31.7096 H   0  0  0  0  0
    5.3290  -15.5173   32.1202 H   0  0  0  0  0
    4.4159  -13.5838   33.2212 H   0  0  0  0  0
    3.8340  -14.5944   34.5670 H   0  0  0  0  0
    5.5821  -14.4192   34.2763 H   0  0  0  0  0
    4.2845  -17.3160   34.3172 H   0  0  0  0  0
    5.0738  -17.8163   32.8014 H   0  0  0  0  0
    5.9909  -16.9008   34.0227 H   0  0  0  0  0
  1  2  1  0  0  0
  1 58  1  0  0  0
  1 63  1  0  0  0
  2  3  1  0  0  0
  2  5  1  0  0  0
  2 63  1  0  0  0
  3  4  2  0  0  0
  3 12  1  0  0  0
  5  6  1  0  0  0
  6  7  1  0  0  0
  7  8  1  0  0  0
  8  9  1  0  0  0
  9 10  1  0  0  0
  9 11  2  0  0  0
 12 13  1  0  0  0
 13 14  1  0  0  0
 14 15  2  0  0  0
 14 16  1  0  0  0
 16 17  1  0  0  0
 17 18  1  0  0  0
 17 20  1  0  0  0
 18 19  2  0  0  0
 18 24  1  0  0  0
 20 21  1  0  0  0
 21 22  1  0  0  0
 21 23  2  0  0  0
 24 25  1  0  0  0
 25 26  1  0  0  0
 25 28  1  0  0  0
 26 27  2  0  0  0
 26 32  1  0  0  0
 28 29  1  0  0  0
 28 30  1  0  0  0
 29 31  1  0  0  0
 32 33  1  0  0  0
 33 34  1  0  0  0
 33 36  1  0  0  0
 34 35  2  0  0  0
 34 40  1  0  0  0
 36 37  1  0  0  0
 37 38  2  0  0  0
 37 39  1  0  0  0
 40 41  1  0  0  0
 41 42  1  0  0  0
 41 44  1  0  0  0
 42 43  2  0  0  0
 42 48  1  0  0  0
 44 45  1  0  0  0
 45 46  2  0  0  0
 45 47  1  0  0  0
 48 49  1  0  0  0
 49 50  1  0  0  0
 49 52  1  0  0  0
 50 51  2  0  0  0
 50 56  1  0  0  0
 52 53  1  0  0  0
 53 54  2  0  0  0
 53 55  1  0  0  0
 56 57  1  0  0  0
 57 58  1  0  0  0
 57 60  1  0  0  0
 58 59  2  0  0  0
 60 61  1  0  0  0
 60 62  1  0  0  0
  5 64  1  0  0  0
  5 65  1  0  0  0
  6 66  1  0  0  0
  6 67  1  0  0  0
  7 68  1  0  0  0
  7 69  1  0  0  0
  8 70  1  0  0  0
 10 71  1  0  0  0
 10 72  1  0  0  0
 11 73  1  0  0  0
 12 74  1  0  0  0
 13 75  1  0  0  0
 13 76  1  0  0  0
 16 77  1  0  0  0
 17 78  1  0  0  0
 20 79  1  0  0  0
 20 80  1  0  0  0
 22 81  1  0  0  0
 24 82  1  0  0  0
 25 83  1  0  0  0
 28 84  1  0  0  0
 29 85  1  0  0  0
 29 86  1  0  0  0
 30 87  1  0  0  0
 30 88  1  0  0  0
 30 89  1  0  0  0
 31 90  1  0  0  0
 31 91  1  0  0  0
 31 92  1  0  0  0
 32 93  1  0  0  0
 33 94  1  0  0  0
 36 95  1  0  0  0
 36 96  1  0  0  0
 39 97  1  0  0  0
 39 98  1  0  0  0
 40 99  1  0  0  0
 41100  1  0  0  0
 44101  1  0  0  0
 44102  1  0  0  0
 47103  1  0  0  0
 47104  1  0  0  0
 48105  1  0  0  0
 49106  1  0  0  0
 52107  1  0  0  0
 52108  1  0  0  0
 55109  1  0  0  0
 55110  1  0  0  0
 56111  1  0  0  0
 57112  1  0  0  0
 60113  1  0  0  0
 61114  1  0  0  0
 61115  1  0  0  0
 61116  1  0  0  0
 62117  1  0  0  0
 62118  1  0  0  0
 62119  1  0  0  0
M  END
$$$$
