3iwy_ligand
  -I-interpret- 

213218  0  0  0  0  0  0  0  0999 V2000
   26.6270   -2.2220   27.2360 N   0  3  0  0  0
   25.2730   -1.8610   27.8160 C   0  0  0  0  0
   24.1780   -2.0450   26.7790 C   0  0  0  0  0
   24.4740   -2.4900   25.6850 O   0  0  0  0  0
   24.9330   -2.8020   28.9400 C   0  0  0  0  0
   25.8420   -2.5460   30.1090 C   0  0  0  0  0
   25.3220   -2.6470   31.2480 O   0  0  0  0  0
   27.0410   -2.2500   29.9180 O   0  0  0  0  0
   22.9340   -1.7060   27.1190 N   0  0  0  0  0
   21.7850   -1.8900   26.1970 C   0  0  0  0  0
   20.5240   -1.2130   26.7780 C   0  0  0  0  0
   19.4300   -0.9400   25.7790 C   0  0  0  0  0
   19.2410    0.2190   25.0610 C   0  0  0  0  0
   18.1210    0.1120   24.2740 N   0  0  0  0  0
   17.5730   -1.1310   24.4500 C   0  0  0  0  0
   16.4380   -1.7020   23.8520 C   0  0  0  0  0
   16.0980   -2.9830   24.2190 C   0  0  0  0  0
   16.8510   -3.6890   25.1790 C   0  0  0  0  0
   17.9940   -3.1250   25.7730 C   0  0  0  0  0
   18.3660   -1.8230   25.3950 C   0  0  0  0  0
   21.5280   -3.3740   25.8880 C   0  0  0  0  0
   21.5140   -3.8170   24.7040 O   0  0  0  0  0
   21.3430   -4.1440   26.9540 N   0  0  0  0  0
   21.0700   -5.5690   26.7970 C   0  0  0  0  0
   20.2490   -6.0920   27.9950 C   0  0  0  0  0
   19.9400   -7.5010   27.7790 C   0  0  0  0  0
   20.7280   -8.5840   28.0850 C   0  0  0  0  0
   20.1190   -9.7400   27.6500 N   0  0  0  0  0
   18.9530   -9.4040   27.0070 C   0  0  0  0  0
   17.9940  -10.2230   26.3850 C   0  0  0  0  0
   16.9110   -9.6030   25.8140 C   0  0  0  0  0
   16.7460   -8.1940   25.8610 C   0  0  0  0  0
   17.6930   -7.3920   26.4620 C   0  0  0  0  0
   18.8180   -8.0010   27.0620 C   0  0  0  0  0
   22.3580   -6.3890   26.6960 C   0  0  0  0  0
   23.2690   -6.1360   27.4630 O   0  0  0  0  0
   22.4570   -7.3510   25.7450 N   0  0  0  0  0
   21.7010   -7.7160   24.5610 C   0  0  0  0  0
   21.5920   -9.1720   24.5990 C   0  0  0  0  0
   23.1730   -9.4100   24.7730 C   0  0  0  0  0
   23.6260   -8.2620   25.7950 C   0  0  0  0  0
   21.6080   -6.9460   23.2600 C   0  0  0  0  0
   20.6260   -7.0490   22.5100 O   0  0  0  0  0
   22.7420   -6.3260   22.9440 N   0  0  0  0  0
   23.0660   -5.9760   21.5660 C   0  0  0  0  0
   24.4850   -5.3910   21.4720 C   0  0  0  0  0
   25.5600   -6.4850   21.6650 C   0  0  0  0  0
   25.2050   -7.7380   20.8860 C   0  0  0  0  0
   26.9730   -6.0190   21.2780 C   0  0  0  0  0
   22.1540   -4.9710   20.9680 C   0  0  0  0  0
   21.9970   -4.9210   19.7140 O   0  0  0  0  0
   21.6090   -4.1110   21.8050 N   0  0  0  0  0
   20.6290   -3.1140   21.3540 C   0  0  0  0  0
   20.3970   -2.0300   22.4260 C   0  0  0  0  0
   19.2960   -3.7670   20.9700 C   0  0  0  0  0
   18.6010   -3.3020   20.0470 O   0  0  0  0  0
   18.9630   -4.8630   21.6420 N   0  0  0  0  0
   17.7310   -5.6360   21.3260 C   0  0  0  0  0
   17.9950   -6.4870   20.1130 C   0  0  0  0  0
   17.1280   -6.6270   19.2690 O   0  0  0  0  0
   17.3400   -6.5620   22.4790 C   0  0  0  0  0
   16.0640   -7.3660   22.2260 C   0  0  0  0  0
   16.0570   -8.7410   22.3500 C   0  0  0  0  0
   14.8960   -6.7320   21.8710 C   0  0  0  0  0
   14.8770   -9.4850   22.1250 C   0  0  0  0  0
   13.7050   -7.4690   21.6070 C   0  0  0  0  0
   13.7020   -8.8450   21.7530 C   0  0  0  0  0
   19.2050   -7.0460   20.0130 N   0  0  0  0  0
   19.5810   -7.8040   18.8390 C   0  0  0  0  0
   19.6080   -6.9030   17.6040 C   0  0  0  0  0
   19.2550   -7.3570   16.5230 O   0  0  0  0  0
   20.9990   -8.3790   19.1040 C   0  0  0  0  0
   20.9240   -9.6290   19.9980 C   0  0  0  0  0
   22.2960  -10.1810   20.2850 C   0  0  0  0  0
   22.8640   -9.9100   21.3810 O   0  0  0  0  0
   22.7940  -10.8870   19.3910 O   0  0  0  0  0
   20.0260   -5.6410   17.7570 N   0  0  0  0  0
   20.0290   -4.6640   16.6310 C   0  0  0  0  0
   20.6580   -3.3890   17.0120 C   0  0  0  0  0
   18.5890   -4.4220   16.2050 C   0  0  0  0  0
   18.2720   -4.3680   15.0010 O   0  0  0  0  0
   17.6970   -4.3200   17.1850 N   0  0  0  0  0
   16.2610   -4.2170   16.8440 C   0  0  0  0  0
   15.3340   -4.1060   18.0770 C   0  0  0  0  0
   15.5690   -2.7290   18.7020 C   0  0  0  0  0
   15.1450   -1.5980   17.7650 C   0  0  0  0  0
   14.8500   -2.5390   20.0500 C   0  0  0  0  0
   15.7370   -5.3400   16.0090 C   0  0  0  0  0
   15.0220   -5.1020   15.0200 O   0  0  0  0  0
   16.0820   -6.5690   16.3990 N   0  0  0  0  0
   15.5380   -7.7460   15.7870 C   0  0  0  0  0
   15.9600   -9.0010   16.5540 C   0  0  0  0  0
   15.0950   -9.5760   17.6760 C   0  0  0  0  0
   14.6500   -8.5740   18.7180 C   0  0  0  0  0
   13.8710  -10.2630   17.1040 C   0  0  0  0  0
   16.0650   -7.7830   14.3580 C   0  0  0  0  0
   15.3760   -8.2610   13.4530 O   0  0  0  0  0
   17.2770   -7.2600   14.1630 N   0  0  0  0  0
   17.9050   -7.2530   12.8620 C   0  0  0  0  0
   19.4410   -7.2260   13.0830 C   0  0  0  0  0
   20.0990   -6.8430   11.7660 C   0  0  0  0  0
   21.6170   -7.0350   11.8000 C   0  0  0  0  0
   21.8560   -7.8530   10.6000 N   0  0  0  0  0
   22.5190   -9.0320   10.4940 C   0  0  0  0  0
   23.0780   -9.5940   11.5720 N   0  0  0  0  0
   22.6330   -9.6650    9.3200 N   0  0  0  0  0
   17.2990   -6.1780   11.9800 C   0  0  0  0  0
   16.8910   -6.4270   10.8470 O   0  0  0  0  0
   17.1130   -4.9990   12.3420 O   0  0  0  0  0
   26.8515   -1.5809   26.4751 H   0  0  0  0  0
   27.3377   -2.1496   27.9641 H   0  0  0  0  0
   26.5993   -3.1775   26.8801 H   0  0  0  0  0
   25.3297   -0.8252   28.1506 H   0  0  0  0  0
   25.0615   -3.8301   28.6013 H   0  0  0  0  0
   23.8989   -2.6412   29.2449 H   0  0  0  0  0
   24.3957   -2.8819   31.1560 H   0  0  0  0  0
   22.7663   -1.3072   28.0427 H   0  0  0  0  0
   22.0342   -1.4108   25.2503 H   0  0  0  0  0
   20.8389   -0.2465   27.1716 H   0  0  0  0  0
   20.1109   -1.8993   27.5172 H   0  0  0  0  0
   19.8873    1.0954   25.1101 H   0  0  0  0  0
   15.8468   -1.1490   23.1221 H   0  0  0  0  0
   15.2321   -3.4602   23.7601 H   0  0  0  0  0
   16.5407   -4.6934   25.4670 H   0  0  0  0  0
   18.5760   -3.6824   26.5069 H   0  0  0  0  0
   21.3920   -3.7371   27.8880 H   0  0  0  0  0
   20.5071   -5.6843   25.8707 H   0  0  0  0  0
   19.3242   -5.5220   28.0840 H   0  0  0  0  0
   20.8250   -5.9783   28.9134 H   0  0  0  0  0
   21.6901   -8.5356   28.5951 H   0  0  0  0  0
   18.1063  -11.3068   26.3575 H   0  0  0  0  0
   16.1573  -10.2088   25.3109 H   0  0  0  0  0
   15.8600   -7.7405   25.4166 H   0  0  0  0  0
   17.5759   -6.3084   26.4740 H   0  0  0  0  0
   20.7736   -7.1448   24.6024 H   0  0  0  0  0
   21.0990   -9.6616   23.7592 H   0  0  0  0  0
   20.9321   -9.6076   25.3493 H   0  0  0  0  0
   23.7068   -9.3535   23.8243 H   0  0  0  0  0
   23.4026  -10.4087   25.1444 H   0  0  0  0  0
   23.8522   -8.6303   26.7956 H   0  0  0  0  0
   24.5672   -7.7824   25.5263 H   0  0  0  0  0
   23.4019   -6.0894   23.6849 H   0  0  0  0  0
   22.9680   -6.9120   21.0161 H   0  0  0  0  0
   24.6048   -4.6454   22.2581 H   0  0  0  0  0
   24.6130   -4.9505   20.4832 H   0  0  0  0  0
   25.5723   -6.7070   22.7321 H   0  0  0  0  0
   24.2468   -8.1224   21.2357 H   0  0  0  0  0
   25.1361   -7.4974   19.8251 H   0  0  0  0  0
   25.9780   -8.4910   21.0397 H   0  0  0  0  0
   26.9832   -5.7276   20.2277 H   0  0  0  0  0
   27.2549   -5.1663   21.8957 H   0  0  0  0  0
   27.6792   -6.8339   21.4371 H   0  0  0  0  0
   21.8741   -4.1384   22.7896 H   0  0  0  0  0
   21.0458   -2.6393   20.4657 H   0  0  0  0  0
   20.0232   -2.4964   23.3375 H   0  0  0  0  0
   21.3379   -1.5214   22.6361 H   0  0  0  0  0
   19.6666   -1.3088   22.0594 H   0  0  0  0  0
   19.5692   -5.1844   22.3967 H   0  0  0  0  0
   16.9198   -4.9291   21.1522 H   0  0  0  0  0
   17.1586   -5.9336   23.3510 H   0  0  0  0  0
   18.1523   -7.2771   22.6090 H   0  0  0  0  0
   16.9750   -9.2601   22.6254 H   0  0  0  0  0
   14.8810   -5.6451   21.7900 H   0  0  0  0  0
   14.8891  -10.5684   22.2442 H   0  0  0  0  0
   12.7997   -6.9505   21.2912 H   0  0  0  0  0
   12.7912   -9.4179   21.5787 H   0  0  0  0  0
   19.8734   -6.9367   20.7757 H   0  0  0  0  0
   18.8612   -8.6009   18.6521 H   0  0  0  0  0
   21.5967   -7.6207   19.6098 H   0  0  0  0  0
   21.4498   -8.6554   18.1508 H   0  0  0  0  0
   20.3449  -10.3925   19.4785 H   0  0  0  0  0
   20.4573   -9.3517   20.9432 H   0  0  0  0  0
   22.2887   -9.3513   21.9087 H   0  0  0  0  0
   20.3533   -5.3376   18.6742 H   0  0  0  0  0
   20.6128   -5.0783   15.8090 H   0  0  0  0  0
   20.1093   -2.9492   17.8448 H   0  0  0  0  0
   21.6906   -3.5697   17.3106 H   0  0  0  0  0
   20.6383   -2.7072   16.1618 H   0  0  0  0  0
   17.9985   -4.3128   18.1594 H   0  0  0  0  0
   16.2357   -3.2932   16.2660 H   0  0  0  0  0
   15.5566   -4.8951   18.7952 H   0  0  0  0  0
   14.2907   -4.2194   17.7826 H   0  0  0  0  0
   16.6441   -2.6853   18.8765 H   0  0  0  0  0
   15.7214   -1.6574   16.8418 H   0  0  0  0  0
   14.0831   -1.6942   17.5387 H   0  0  0  0  0
   15.3293   -0.6388   18.2488 H   0  0  0  0  0
   13.7757   -2.6554   19.9069 H   0  0  0  0  0
   15.2065   -3.2863   20.7590 H   0  0  0  0  0
   15.0606   -1.5413   20.4352 H   0  0  0  0  0
   16.7553   -6.6744   17.1579 H   0  0  0  0  0
   14.4484   -7.7203   15.7977 H   0  0  0  0  0
   16.8786   -8.7023   17.0590 H   0  0  0  0  0
   15.9587   -9.7838   15.7955 H   0  0  0  0  0
   15.7449  -10.2856   18.1880 H   0  0  0  0  0
   15.5260   -8.1327   19.1933 H   0  0  0  0  0
   14.0616   -7.7911   18.2394 H   0  0  0  0  0
   14.0428   -9.0786   19.4695 H   0  0  0  0  0
   13.2827   -9.5415   16.5370 H   0  0  0  0  0
   14.1849  -11.0742   16.4471 H   0  0  0  0  0
   13.2682  -10.6656   17.9180 H   0  0  0  0  0
   17.7744   -6.8535   14.9553 H   0  0  0  0  0
   17.7103   -8.1564   12.2840 H   0  0  0  0  0
   19.7918   -8.2054   13.4084 H   0  0  0  0  0
   19.6974   -6.5021   13.8565 H   0  0  0  0  0
   19.8949   -5.7887   11.5792 H   0  0  0  0  0
   19.6935   -7.4861   10.9849 H   0  0  0  0  0
   21.9695   -7.5060   12.7176 H   0  0  0  0  0
   22.1686   -6.0949   11.7953 H   0  0  0  0  0
   21.4712   -7.4836    9.7306 H   0  0  0  0  0
   23.0071   -9.1359   12.4806 H   0  0  0  0  0
   23.1354  -10.5510    9.2650 H   0  0  0  0  0
   22.2174   -9.2614    8.4805 H   0  0  0  0  0
   17.4553   -4.8806   13.2311 H   0  0  0  0  0
  1  2  1  0  0  0
  2  3  1  0  0  0
  2  5  1  0  0  0
  3  4  2  0  0  0
  3  9  1  0  0  0
  5  6  1  0  0  0
  6  7  1  0  0  0
  6  8  2  0  0  0
  9 10  1  0  0  0
 10 11  1  0  0  0
 10 21  1  0  0  0
 11 12  1  0  0  0
 12 13  4  0  0  0
 12 20  4  0  0  0
 13 14  4  0  0  0
 14 15  4  0  0  0
 15 16  4  0  0  0
 15 20  4  0  0  0
 16 17  4  0  0  0
 17 18  4  0  0  0
 18 19  4  0  0  0
 19 20  4  0  0  0
 21 22  2  0  0  0
 21 23  1  0  0  0
 23 24  1  0  0  0
 24 25  1  0  0  0
 24 35  1  0  0  0
 25 26  1  0  0  0
 26 27  4  0  0  0
 26 34  4  0  0  0
 27 28  4  0  0  0
 28 29  4  0  0  0
 29 30  4  0  0  0
 29 34  4  0  0  0
 30 31  4  0  0  0
 31 32  4  0  0  0
 32 33  4  0  0  0
 33 34  4  0  0  0
 35 36  2  0  0  0
 35 37  1  0  0  0
 37 38  1  0  0  0
 37 41  1  0  0  0
 38 39  1  0  0  0
 38 42  1  0  0  0
 39 40  1  0  0  0
 40 41  1  0  0  0
 42 43  2  0  0  0
 42 44  1  0  0  0
 44 45  1  0  0  0
 45 46  1  0  0  0
 45 50  1  0  0  0
 46 47  1  0  0  0
 47 48  1  0  0  0
 47 49  1  0  0  0
 50 51  2  0  0  0
 50 52  1  0  0  0
 52 53  1  0  0  0
 53 54  1  0  0  0
 53 55  1  0  0  0
 55 56  2  0  0  0
 55 57  1  0  0  0
 57 58  1  0  0  0
 58 59  1  0  0  0
 58 61  1  0  0  0
 59 60  2  0  0  0
 59 68  1  0  0  0
 61 62  1  0  0  0
 62 63  4  0  0  0
 62 64  4  0  0  0
 63 65  4  0  0  0
 64 66  4  0  0  0
 65 67  4  0  0  0
 66 67  4  0  0  0
 68 69  1  0  0  0
 69 70  1  0  0  0
 69 72  1  0  0  0
 70 71  2  0  0  0
 70 77  1  0  0  0
 72 73  1  0  0  0
 73 74  1  0  0  0
 74 75  1  0  0  0
 74 76  2  0  0  0
 77 78  1  0  0  0
 78 79  1  0  0  0
 78 80  1  0  0  0
 80 81  2  0  0  0
 80 82  1  0  0  0
 82 83  1  0  0  0
 83 84  1  0  0  0
 83 88  1  0  0  0
 84 85  1  0  0  0
 85 86  1  0  0  0
 85 87  1  0  0  0
 88 89  2  0  0  0
 88 90  1  0  0  0
 90 91  1  0  0  0
 91 92  1  0  0  0
 91 96  1  0  0  0
 92 93  1  0  0  0
 93 94  1  0  0  0
 93 95  1  0  0  0
 96 97  2  0  0  0
 96 98  1  0  0  0
 98 99  1  0  0  0
 99100  1  0  0  0
 99107  1  0  0  0
100101  1  0  0  0
101102  1  0  0  0
102103  1  0  0  0
103104  1  0  0  0
104105  2  0  0  0
104106  1  0  0  0
107108  2  0  0  0
107109  1  0  0  0
  1110  1  0  0  0
  1111  1  0  0  0
  1112  1  0  0  0
  2113  1  0  0  0
  5114  1  0  0  0
  5115  1  0  0  0
  7116  1  0  0  0
  9117  1  0  0  0
 10118  1  0  0  0
 11119  1  0  0  0
 11120  1  0  0  0
 13121  1  0  0  0
 16122  1  0  0  0
 17123  1  0  0  0
 18124  1  0  0  0
 19125  1  0  0  0
 23126  1  0  0  0
 24127  1  0  0  0
 25128  1  0  0  0
 25129  1  0  0  0
 27130  1  0  0  0
 30131  1  0  0  0
 31132  1  0  0  0
 32133  1  0  0  0
 33134  1  0  0  0
 38135  1  0  0  0
 39136  1  0  0  0
 39137  1  0  0  0
 40138  1  0  0  0
 40139  1  0  0  0
 41140  1  0  0  0
 41141  1  0  0  0
 44142  1  0  0  0
 45143  1  0  0  0
 46144  1  0  0  0
 46145  1  0  0  0
 47146  1  0  0  0
 48147  1  0  0  0
 48148  1  0  0  0
 48149  1  0  0  0
 49150  1  0  0  0
 49151  1  0  0  0
 49152  1  0  0  0
 52153  1  0  0  0
 53154  1  0  0  0
 54155  1  0  0  0
 54156  1  0  0  0
 54157  1  0  0  0
 57158  1  0  0  0
 58159  1  0  0  0
 61160  1  0  0  0
 61161  1  0  0  0
 63162  1  0  0  0
 64163  1  0  0  0
 65164  1  0  0  0
 66165  1  0  0  0
 67166  1  0  0  0
 68167  1  0  0  0
 69168  1  0  0  0
 72169  1  0  0  0
 72170  1  0  0  0
 73171  1  0  0  0
 73172  1  0  0  0
 75173  1  0  0  0
 77174  1  0  0  0
 78175  1  0  0  0
 79176  1  0  0  0
 79177  1  0  0  0
 79178  1  0  0  0
 82179  1  0  0  0
 83180  1  0  0  0
 84181  1  0  0  0
 84182  1  0  0  0
 85183  1  0  0  0
 86184  1  0  0  0
 86185  1  0  0  0
 86186  1  0  0  0
 87187  1  0  0  0
 87188  1  0  0  0
 87189  1  0  0  0
 90190  1  0  0  0
 91191  1  0  0  0
 92192  1  0  0  0
 92193  1  0  0  0
 93194  1  0  0  0
 94195  1  0  0  0
 94196  1  0  0  0
 94197  1  0  0  0
 95198  1  0  0  0
 95199  1  0  0  0
 95200  1  0  0  0
 98201  1  0  0  0
 99202  1  0  0  0
100203  1  0  0  0
100204  1  0  0  0
101205  1  0  0  0
101206  1  0  0  0
102207  1  0  0  0
102208  1  0  0  0
103209  1  0  0  0
105210  1  0  0  0
106211  1  0  0  0
106212  1  0  0  0
109213  1  0  0  0
M  END
$$$$
