### 
### Created by X-TOOL on Mon Sep 10 21:13:04 2018
### 

@<TRIPOS>MOLECULE
3iwy_ligand
  213   218     1     0     0
SMALL
GAST_HUCK


@<TRIPOS>ATOM
      1 N          26.6270   -2.2220   27.2360 N.4       1 DAS         0.2391
      2 CA         25.2730   -1.8610   27.8160 C.3       1 DAS         0.0765
      3 C          24.1780   -2.0450   26.7790 C.2       1 DAS         0.2285
      4 O          24.4740   -2.4900   25.6850 O.2       1 DAS        -0.3906
      5 CB         24.9330   -2.8020   28.9400 C.3       1 DAS         0.0607
      6 CG         25.8420   -2.5460   30.1090 C.2       1 DAS         0.0425
      7 OD1        25.3220   -2.6470   31.2480 O.co2     1 DAS        -0.5686
      8 OD2        27.0410   -2.2500   29.9180 O.co2     1 DAS        -0.5686
      9 N          22.9340   -1.7060   27.1190 N.am      1 DTR        -0.2599
     10 CA         21.7850   -1.8900   26.1970 C.3       1 DTR         0.1353
     11 CB         20.5240   -1.2130   26.7780 C.3       1 DTR         0.0042
     12 CG         19.4300   -0.9400   25.7790 C.2       1 DTR        -0.0418
     13 CD1        19.2410    0.2190   25.0610 C.2       1 DTR         0.0167
     14 NE1        18.1210    0.1120   24.2740 N.pl3     1 DTR        -0.2890
     15 CE2        17.5730   -1.1310   24.4500 C.ar      1 DTR         0.0603
     16 CZ2        16.4380   -1.7020   23.8520 C.ar      1 DTR        -0.0443
     17 CH2        16.0980   -2.9830   24.2190 C.ar      1 DTR        -0.0768
     18 CZ3        16.8510   -3.6890   25.1790 C.ar      1 DTR        -0.0792
     19 CE3        17.9940   -3.1250   25.7730 C.ar      1 DTR        -0.0747
     20 CD2        18.3660   -1.8230   25.3950 C.ar      1 DTR        -0.0214
     21 C          21.5280   -3.3740   25.8880 C.2       1 DTR         0.2052
     22 O          21.5140   -3.8170   24.7040 O.2       1 DTR        -0.3942
     23 N          21.3430   -4.1440   26.9540 N.am      1 DTR        -0.2626
     24 CA         21.0700   -5.5690   26.7970 C.3       1 DTR         0.1354
     25 CB         20.2490   -6.0920   27.9950 C.3       1 DTR         0.0042
     26 CG         19.9400   -7.5010   27.7790 C.2       1 DTR        -0.0418
     27 CD1        20.7280   -8.5840   28.0850 C.2       1 DTR         0.0167
     28 NE1        20.1190   -9.7400   27.6500 N.pl3     1 DTR        -0.2890
     29 CE2        18.9530   -9.4040   27.0070 C.ar      1 DTR         0.0603
     30 CZ2        17.9940  -10.2230   26.3850 C.ar      1 DTR        -0.0443
     31 CH2        16.9110   -9.6030   25.8140 C.ar      1 DTR        -0.0768
     32 CZ3        16.7460   -8.1940   25.8610 C.ar      1 DTR        -0.0792
     33 CE3        17.6930   -7.3920   26.4620 C.ar      1 DTR        -0.0747
     34 CD2        18.8180   -8.0010   27.0620 C.ar      1 DTR        -0.0214
     35 C          22.3580   -6.3890   26.6960 C.2       1 DTR         0.2077
     36 O          23.2690   -6.1360   27.4630 O.2       1 DTR        -0.3940
     37 N          22.4570   -7.3510   25.7450 N.am      1 DPR        -0.2497
     38 CA         21.7010   -7.7160   24.5610 C.3       1 DPR         0.1338
     39 CB         21.5920   -9.1720   24.5990 C.3       1 DPR        -0.0104
     40 CG         23.1730   -9.4100   24.7730 C.3       1 DPR        -0.0281
     41 CD         23.6260   -8.2620   25.7950 C.3       1 DPR         0.0369
     42 C          21.6080   -6.9460   23.2600 C.2       1 DPR         0.2041
     43 O          20.6260   -7.0490   22.5100 O.2       1 DPR        -0.3944
     44 N          22.7420   -6.3260   22.9440 N.am      1 DLE        -0.2637
     45 CA         23.0660   -5.9760   21.5660 C.3       1 DLE         0.1312
     46 CB         24.4850   -5.3910   21.4720 C.3       1 DLE        -0.0101
     47 CG         25.5600   -6.4850   21.6650 C.3       1 DLE        -0.0425
     48 CD1        25.2050   -7.7380   20.8860 C.3       1 DLE        -0.0625
     49 CD2        26.9730   -6.0190   21.2780 C.3       1 DLE        -0.0625
     50 C          22.1540   -4.9710   20.9680 C.2       1 DLE         0.2039
     51 O          21.9970   -4.9210   19.7140 O.2       1 DLE        -0.3944
     52 N          21.6090   -4.1110   21.8050 N.am      1 DAL        -0.2640
     53 CA         20.6290   -3.1140   21.3540 C.3       1 DAL         0.1282
     54 CB         20.3970   -2.0300   22.4260 C.3       1 DAL        -0.0244
     55 C          19.2960   -3.7670   20.9700 C.2       1 DAL         0.2037
     56 O          18.6010   -3.3020   20.0470 O.2       1 DAL        -0.3944
     57 N          18.9630   -4.8630   21.6420 N.am      1 DPN        -0.2619
     58 CA         17.7310   -5.6360   21.3260 C.3       1 DPN         0.1404
     59 C          17.9950   -6.4870   20.1130 C.2       1 DPN         0.2060
     60 O          17.1280   -6.6270   19.2690 O.2       1 DPN        -0.3942
     61 CB         17.3400   -6.5620   22.4790 C.3       1 DPN         0.0214
     62 CG         16.0640   -7.3660   22.2260 C.ar      1 DPN        -0.0386
     63 CD1        16.0570   -8.7410   22.3500 C.ar      1 DPN        -0.0601
     64 CD2        14.8960   -6.7320   21.8710 C.ar      1 DPN        -0.0601
     65 CE1        14.8770   -9.4850   22.1250 C.ar      1 DPN        -0.0686
     66 CE2        13.7050   -7.4690   21.6070 C.ar      1 DPN        -0.0686
     67 CZ         13.7020   -8.8450   21.7530 C.ar      1 DPN        -0.0687
     68 N          19.2050   -7.0460   20.0130 N.am      1 DGL        -0.2635
     69 CA         19.5810   -7.8040   18.8390 C.3       1 DGL         0.1325
     70 C          19.6080   -6.9030   17.6040 C.2       1 DGL         0.2040
     71 O          19.2550   -7.3570   16.5230 O.2       1 DGL        -0.3944
     72 CB         20.9990   -8.3790   19.1040 C.3       1 DGL        -0.0008
     73 CG         20.9240   -9.6290   19.9980 C.3       1 DGL         0.0044
     74 CD         22.2960  -10.1810   20.2850 C.2       1 DGL         0.0350
     75 OE1        22.8640   -9.9100   21.3810 O.co2     1 DGL        -0.5690
     76 OE2        22.7940  -10.8870   19.3910 O.co2     1 DGL        -0.5690
     77 N          20.0260   -5.6410   17.7570 N.am      1 DAL        -0.2640
     78 CA         20.0290   -4.6640   16.6310 C.3       1 DAL         0.1282
     79 CB         20.6580   -3.3890   17.0120 C.3       1 DAL        -0.0244
     80 C          18.5890   -4.4220   16.2050 C.2       1 DAL         0.2036
     81 O          18.2720   -4.3680   15.0010 O.2       1 DAL        -0.3944
     82 N          17.6970   -4.3200   17.1850 N.am      1 DLE        -0.2637
     83 CA         16.2610   -4.2170   16.8440 C.3       1 DLE         0.1312
     84 CB         15.3340   -4.1060   18.0770 C.3       1 DLE        -0.0101
     85 CG         15.5690   -2.7290   18.7020 C.3       1 DLE        -0.0425
     86 CD1        15.1450   -1.5980   17.7650 C.3       1 DLE        -0.0625
     87 CD2        14.8500   -2.5390   20.0500 C.3       1 DLE        -0.0625
     88 C          15.7370   -5.3400   16.0090 C.2       1 DLE         0.2039
     89 O          15.0220   -5.1020   15.0200 O.2       1 DLE        -0.3944
     90 N          16.0820   -6.5690   16.3990 N.am      1 DLE        -0.2637
     91 CA         15.5380   -7.7460   15.7870 C.3       1 DLE         0.1312
     92 CB         15.9600   -9.0010   16.5540 C.3       1 DLE        -0.0101
     93 CG         15.0950   -9.5760   17.6760 C.3       1 DLE        -0.0425
     94 CD1        14.6500   -8.5740   18.7180 C.3       1 DLE        -0.0625
     95 CD2        13.8710  -10.2630   17.1040 C.3       1 DLE        -0.0625
     96 C          16.0650   -7.7830   14.3580 C.2       1 DLE         0.2033
     97 O          15.3760   -8.2610   13.4530 O.2       1 DLE        -0.3944
     98 N          17.2770   -7.2600   14.1630 N.am      1 DAR        -0.2695
     99 CA         17.9050   -7.2530   12.8620 C.3       1 DAR         0.0945
    100 CB         19.4410   -7.2260   13.0830 C.3       1 DAR        -0.0148
    101 CG         20.0990   -6.8430   11.7660 C.3       1 DAR        -0.0162
    102 CD         21.6170   -7.0350   11.8000 C.3       1 DAR         0.0627
    103 NE         21.8560   -7.8530   10.6000 N.pl3     1 DAR        -0.2723
    104 CZ         22.5190   -9.0320   10.4940 C.cat     1 DAR         0.2882
    105 NH1        23.0780   -9.5940   11.5720 N.pl3     1 DAR        -0.2849
    106 NH2        22.6330   -9.6650    9.3200 N.pl3     1 DAR        -0.2849
    107 C          17.2990   -6.1780   11.9800 C.2       1 DAR         0.0601
    108 O          16.8910   -6.4270   10.8470 O.co2     1 DAR        -0.5666
    109 OXT        17.1130   -4.9990   12.3420 O.co2     1 DAR        -0.5666
    110 H1         27.3385   -2.0934   27.9384 H         1 DAS         0.2016
    111 H2         26.8235   -1.6276   26.4460 H         1 DAS         0.2016
    112 H3         26.6191   -3.1850   26.9382 H         1 DAS         0.2016
    113 H4         25.2907   -0.8212   28.1743 H         1 DAS         0.1117
    114 H5         25.0601   -3.8400   28.5987 H         1 DAS         0.0512
    115 H6         23.8889   -2.6423   29.2472 H         1 DAS         0.0512
    116 H7         22.7696   -1.3151   28.0246 H         1 DTR         0.1886
    117 H8         22.0314   -1.3907   25.2483 H         1 DTR         0.0815
    118 H9         20.8263   -0.2538   27.2235 H         1 DTR         0.0397
    119 H10        20.1151   -1.8683   27.5611 H         1 DTR         0.0397
    120 H11        19.8867    1.0946   25.1101 H         1 DTR         0.0795
    121 H12        17.7530    0.8465   23.6527 H         1 DTR         0.2216
    122 H13        15.8501   -1.1520   23.1261 H         1 DTR         0.0541
    123 H14        15.2369   -3.4576   23.7626 H         1 DTR         0.0530
    124 H15        16.5424   -4.6879   25.4654 H         1 DTR         0.0510
    125 H16        18.5728   -3.6793   26.5029 H         1 DTR         0.0540
    126 H17        21.3910   -3.7450   27.8697 H         1 DTR         0.1884
    127 H18        20.4883   -5.7107   25.8742 H         1 DTR         0.0815
    128 H19        19.3144   -5.5183   28.0804 H         1 DTR         0.0397
    129 H20        20.8337   -5.9802   28.9200 H         1 DTR         0.0397
    130 H21        21.6892   -8.5356   28.5946 H         1 DTR         0.0795
    131 H22        20.4778  -10.6961   27.7844 H         1 DTR         0.2216
    132 H23        18.1057  -11.3009   26.3576 H         1 DTR         0.0541
    133 H24        16.1615  -10.2055   25.3137 H         1 DTR         0.0530
    134 H25        15.8649   -7.7430   25.4191 H         1 DTR         0.0510
    135 H26        17.5766   -6.3143   26.4740 H         1 DTR         0.0540
    136 H27        20.6964   -7.4454   24.9182 H         1 DPR         0.0802
    137 H28        21.1914   -9.5991   23.6679 H         1 DPR         0.0313
    138 H29        21.0040   -9.5385   25.4533 H         1 DPR         0.0313
    139 H30        23.6931   -9.3036   23.8096 H         1 DPR         0.0287
    140 H31        23.3749  -10.4074   25.1905 H         1 DPR         0.0287
    141 H32        23.7813   -8.6627   26.8076 H         1 DPR         0.0524
    142 H33        24.5433   -7.7591   25.4549 H         1 DPR         0.0524
    143 H34        23.3890   -6.0940   23.6704 H         1 DLE         0.1883
    144 H35        23.0137   -6.8963   20.9657 H         1 DLE         0.0800
    145 H36        24.6091   -4.6258   22.2524 H         1 DLE         0.0315
    146 H37        24.6173   -4.9300   20.4821 H         1 DLE         0.0315
    147 H38        25.5766   -6.7426   22.7343 H         1 DLE         0.0298
    148 H39        25.9844   -8.4988   21.0403 H         1 DLE         0.0232
    149 H40        25.1352   -7.4966   19.8151 H         1 DLE         0.0232
    150 H41        24.2382   -8.1270   21.2380 H         1 DLE         0.0232
    151 H42        27.2274   -5.1108   21.8441 H         1 DLE         0.0232
    152 H43        27.0047   -5.8002   20.2005 H         1 DLE         0.0232
    153 H44        27.6979   -6.8124   21.5126 H         1 DLE         0.0232
    154 H45        21.8689   -4.1379   22.7703 H         1 DAL         0.1883
    155 H46        21.0377   -2.6244   20.4578 H         1 DAL         0.0797
    156 H47        19.6600   -1.3015   22.0572 H         1 DAL         0.0277
    157 H48        21.3458   -1.5159   22.6389 H         1 DAL         0.0277
    158 H49        20.0196   -2.4994   23.3465 H         1 DAL         0.0277
    159 H50        19.5574   -5.1781   22.3819 H         1 DPN         0.1885
    160 H51        16.9060   -4.9375   21.1226 H         1 DPN         0.0823
    161 H52        17.1893   -5.9485   23.3795 H         1 DPN         0.0474
    162 H53        18.1656   -7.2684   22.6505 H         1 DPN         0.0474
    163 H54        16.9699   -9.2573   22.6239 H         1 DPN         0.0557
    164 H55        14.8811   -5.6511   21.7905 H         1 DPN         0.0557
    165 H56        14.8890  -10.5624   22.2435 H         1 DPN         0.0599
    166 H57        12.8047   -6.9534   21.2929 H         1 DPN         0.0599
    167 H58        12.7962   -9.4147   21.5796 H         1 DPN         0.0559
    168 H59        19.8603   -6.9388   20.7607 H         1 DGL         0.1883
    169 H60        18.8656   -8.6237   18.6769 H         1 DGL         0.0801
    170 H61        21.6105   -7.6139   19.6046 H         1 DGL         0.0330
    171 H62        21.4635   -8.6495   18.1443 H         1 DGL         0.0330
    172 H63        20.3277  -10.3994   19.4872 H         1 DGL         0.0433
    173 H64        20.4398   -9.3609   20.9486 H         1 DGL         0.0433
    174 H65        20.3469   -5.3435   18.6562 H         1 DAL         0.1883
    175 H66        20.5902   -5.0937   15.7882 H         1 DAL         0.0797
    176 H67        20.6387   -2.7001   16.1547 H         1 DAL         0.0277
    177 H68        21.7003   -3.5700   17.3136 H         1 DAL         0.0277
    178 H69        20.1051   -2.9440   17.8524 H         1 DAL         0.0277
    179 H70        17.9926   -4.3130   18.1403 H         1 DLE         0.1883
    180 H71        16.1511   -3.2916   16.2596 H         1 DLE         0.0800
    181 H72        15.5778   -4.8953   18.8033 H         1 DLE         0.0315
    182 H73        14.2830   -4.2043   17.7676 H         1 DLE         0.0315
    183 H74        16.6501   -2.6358   18.8821 H         1 DLE         0.0298
    184 H75        15.3305   -0.6293   18.2521 H         1 DLE         0.0232
    185 H76        14.0734   -1.6939   17.5359 H         1 DLE         0.0232
    186 H77        15.7260   -1.6568   16.8328 H         1 DLE         0.0232
    187 H78        15.1432   -3.3451   20.7387 H         1 DLE         0.0232
    188 H79        13.7617   -2.5690   19.8926 H         1 DLE         0.0232
    189 H80        15.1314   -1.5673   20.4819 H         1 DLE         0.0232
    190 H81        16.7421   -6.6724   17.1431 H         1 DLE         0.1883
    191 H82        14.4397   -7.6858   15.7766 H         1 DLE         0.0800
    192 H83        16.9403   -8.7779   17.0003 H         1 DLE         0.0315
    193 H84        16.0709   -9.8000   15.8062 H         1 DLE         0.0315
    194 H85        15.7029  -10.3339   18.1918 H         1 DLE         0.0298
    195 H86        14.0370   -9.0821   19.4770 H         1 DLE         0.0232
    196 H87        14.0560   -7.7833   18.2363 H         1 DLE         0.0232
    197 H88        15.5332   -8.1279   19.1985 H         1 DLE         0.0232
    198 H89        14.1828  -10.9948   16.3442 H         1 DLE         0.0232
    199 H90        13.2119   -9.5132   16.6421 H         1 DLE         0.0232
    200 H91        13.3300  -10.7797   17.9105 H         1 DLE         0.0232
    201 H92        17.7646   -6.8614   14.9398 H         1 DAR         0.1875
    202 H93        17.6768   -8.2103   12.3706 H         1 DAR         0.0726
    203 H94        19.7901   -8.2200   13.3994 H         1 DAR         0.0307
    204 H95        19.6940   -6.4853   13.8559 H         1 DAR         0.0307
    205 H96        19.8805   -5.7857   11.5552 H         1 DAR         0.0301
    206 H97        19.6806   -7.4706   10.9654 H         1 DAR         0.0301
    207 H98        21.9314   -7.5639   12.7118 H         1 DAR         0.0689
    208 H99        22.1422   -6.0706   11.7359 H         1 DAR         0.0689
    209 H100       21.4674   -7.4800    9.7221 H         1 DAR         0.2642
    210 H101       23.5798  -10.4892   11.4843 H         1 DAR         0.2615
    211 H102       23.0065   -9.1314   12.4895 H         1 DAR         0.2615
    212 H103       22.2134   -9.2574    8.4723 H         1 DAR         0.2615
    213 H104       23.1404  -10.5597    9.2644 H         1 DAR         0.2615
@<TRIPOS>BOND
     1    1    2 1  
     2    2    3 1  
     3    2    5 1  
     4    3    4 2  
     5    3    9 am 
     6    5    6 1  
     7    6    7 ar 
     8    6    8 ar 
     9    9   10 1  
    10   10   11 1  
    11   10   21 1  
    12   11   12 1  
    13   12   13 2  
    14   12   20 1  
    15   13   14 1  
    16   14   15 1  
    17   15   16 ar 
    18   15   20 ar 
    19   16   17 ar 
    20   17   18 ar 
    21   18   19 ar 
    22   19   20 ar 
    23   21   22 2  
    24   21   23 am 
    25   23   24 1  
    26   24   25 1  
    27   24   35 1  
    28   25   26 1  
    29   26   27 2  
    30   26   34 1  
    31   27   28 1  
    32   28   29 1  
    33   29   30 ar 
    34   29   34 ar 
    35   30   31 ar 
    36   31   32 ar 
    37   32   33 ar 
    38   33   34 ar 
    39   35   36 2  
    40   35   37 am 
    41   37   38 1  
    42   37   41 1  
    43   38   39 1  
    44   38   42 1  
    45   39   40 1  
    46   40   41 1  
    47   42   43 2  
    48   42   44 am 
    49   44   45 1  
    50   45   46 1  
    51   45   50 1  
    52   46   47 1  
    53   47   48 1  
    54   47   49 1  
    55   50   51 2  
    56   50   52 am 
    57   52   53 1  
    58   53   54 1  
    59   53   55 1  
    60   55   56 2  
    61   55   57 am 
    62   57   58 1  
    63   58   59 1  
    64   58   61 1  
    65   59   60 2  
    66   59   68 am 
    67   61   62 1  
    68   62   63 ar 
    69   62   64 ar 
    70   63   65 ar 
    71   64   66 ar 
    72   65   67 ar 
    73   66   67 ar 
    74   68   69 1  
    75   69   70 1  
    76   69   72 1  
    77   70   71 2  
    78   70   77 am 
    79   72   73 1  
    80   73   74 1  
    81   74   75 ar 
    82   74   76 ar 
    83   77   78 1  
    84   78   79 1  
    85   78   80 1  
    86   80   81 2  
    87   80   82 am 
    88   82   83 1  
    89   83   84 1  
    90   83   88 1  
    91   84   85 1  
    92   85   86 1  
    93   85   87 1  
    94   88   89 2  
    95   88   90 am 
    96   90   91 1  
    97   91   92 1  
    98   91   96 1  
    99   92   93 1  
   100   93   94 1  
   101   93   95 1  
   102   96   97 2  
   103   96   98 am 
   104   98   99 1  
   105   99  100 1  
   106   99  107 1  
   107  100  101 1  
   108  101  102 1  
   109  102  103 1  
   110  103  104 ar 
   111  104  105 ar 
   112  104  106 ar 
   113  107  108 ar 
   114  107  109 ar 
   115    1  110 1  
   116    1  111 1  
   117    1  112 1  
   118    2  113 1  
   119    5  114 1  
   120    5  115 1  
   121    9  116 1  
   122   10  117 1  
   123   11  118 1  
   124   11  119 1  
   125   13  120 1  
   126   14  121 1  
   127   16  122 1  
   128   17  123 1  
   129   18  124 1  
   130   19  125 1  
   131   23  126 1  
   132   24  127 1  
   133   25  128 1  
   134   25  129 1  
   135   27  130 1  
   136   28  131 1  
   137   30  132 1  
   138   31  133 1  
   139   32  134 1  
   140   33  135 1  
   141   38  136 1  
   142   39  137 1  
   143   39  138 1  
   144   40  139 1  
   145   40  140 1  
   146   41  141 1  
   147   41  142 1  
   148   44  143 1  
   149   45  144 1  
   150   46  145 1  
   151   46  146 1  
   152   47  147 1  
   153   48  148 1  
   154   48  149 1  
   155   48  150 1  
   156   49  151 1  
   157   49  152 1  
   158   49  153 1  
   159   52  154 1  
   160   53  155 1  
   161   54  156 1  
   162   54  157 1  
   163   54  158 1  
   164   57  159 1  
   165   58  160 1  
   166   61  161 1  
   167   61  162 1  
   168   63  163 1  
   169   64  164 1  
   170   65  165 1  
   171   66  166 1  
   172   67  167 1  
   173   68  168 1  
   174   69  169 1  
   175   72  170 1  
   176   72  171 1  
   177   73  172 1  
   178   73  173 1  
   179   77  174 1  
   180   78  175 1  
   181   79  176 1  
   182   79  177 1  
   183   79  178 1  
   184   82  179 1  
   185   83  180 1  
   186   84  181 1  
   187   84  182 1  
   188   85  183 1  
   189   86  184 1  
   190   86  185 1  
   191   86  186 1  
   192   87  187 1  
   193   87  188 1  
   194   87  189 1  
   195   90  190 1  
   196   91  191 1  
   197   92  192 1  
   198   92  193 1  
   199   93  194 1  
   200   94  195 1  
   201   94  196 1  
   202   94  197 1  
   203   95  198 1  
   204   95  199 1  
   205   95  200 1  
   206   98  201 1  
   207   99  202 1  
   208  100  203 1  
   209  100  204 1  
   210  101  205 1  
   211  101  206 1  
   212  102  207 1  
   213  102  208 1  
   214  103  209 1  
   215  105  210 1  
   216  105  211 1  
   217  106  212 1  
   218  106  213 1  
@<TRIPOS>SUBSTRUCTURE
     1 DAS         1

