5nad_ligand
  -I-interpret- 

 64 68  0  0  0  0  0  0  0  0999 V2000
   -0.1130   37.3980   45.9350 C   0  0  0  0  0
    0.9170   35.9700   47.5120 C   0  0  0  0  0
    0.6830   37.2490   47.0390 C   0  0  0  0  0
   -0.8640   33.9200   45.2810 C   0  0  0  0  0
   -0.3500   32.9010   46.0780 C   0  0  0  0  0
    0.9480   35.0940   49.6750 C   0  0  0  0  0
    1.7040   35.0720   50.9840 C   0  0  0  0  0
    0.9880   35.8700   52.0500 C   0  0  0  0  0
   -0.3980   38.6430   45.5170 O   0  0  0  0  0
   -0.5460   39.3580   41.9570 C   0  0  0  0  0
    0.3460   39.5120   40.9670 F   0  0  0  0  0
   -1.9770   39.4820   41.7650 C   0  0  0  0  0
   -2.3860   39.7670   40.4890 O   0  0  0  0  0
   -1.5750   40.4850   39.5310 C   0  0  0  0  0
   -2.8460   39.3040   42.8620 C   0  0  0  0  0
   -2.4130   39.0080   44.1470 C   0  0  0  0  0
   -1.0610   38.8940   44.3580 C   0  0  0  0  0
   -0.1110   39.0660   43.2960 C   0  0  0  0  0
    1.1670   38.9400   43.6370 F   0  0  0  0  0
   -0.6650   36.3400   45.3150 N   0  0  0  0  0
   -0.4090   35.0720   45.7730 N   0  0  0  0  0
    0.4020   33.5030   47.0510 N   0  0  0  0  0
    0.3650   34.8540   46.8430 C   0  0  0  0  0
    1.7170   35.8180   48.6580 N   0  0  0  0  0
    1.7580   35.8700   53.1300 F   0  0  0  0  0
   -0.1470   35.2480   52.3250 F   0  0  0  0  0
    0.7640   37.1030   51.5910 F   0  0  0  0  0
   -1.7010   33.9490   44.0340 C   0  0  0  0  0
   -2.0340   32.7460   43.4530 C   0  0  0  0  0
   -2.7720   32.6660   42.2780 C   0  0  0  0  0
   -3.1970   33.7960   41.6320 C   0  0  0  0  0
   -2.8340   35.0970   42.2010 C   0  0  0  0  0
   -3.2440   36.3810   41.5160 C   0  0  0  0  0
   -2.0790   35.1120   43.3730 C   0  0  0  0  0
   -3.9760   33.7400   40.3770 C   0  0  0  0  0
   -5.1560   33.9930   40.3800 O   0  0  0  0  0
   -3.3330   33.4630   39.2150 N   0  0  0  0  0
   -4.2650   33.1200   38.1240 C   0  0  0  0  0
   -4.8820   31.7310   38.2120 C   0  0  0  0  0
   -3.7880   32.0310   37.1680 C   0  0  0  0  0
    1.1213   38.1162   47.5329 H   0  0  0  0  0
   -0.5144   31.8309   45.9519 H   0  0  0  0  0
   -0.0081   35.5959   49.8236 H   0  0  0  0  0
    0.7873   34.0697   49.3386 H   0  0  0  0  0
    2.6870   35.5146   50.8228 H   0  0  0  0  0
    1.7823   34.0382   51.3205 H   0  0  0  0  0
   -1.3434   41.4754   39.9229 H   0  0  0  0  0
   -0.6495   39.9362   39.3567 H   0  0  0  0  0
   -2.1230   40.5827   38.5938 H   0  0  0  0  0
   -3.9178   39.4046   42.6908 H   0  0  0  0  0
   -3.1232   38.8705   44.9623 H   0  0  0  0  0
    2.6737   36.1554   48.7643 H   0  0  0  0  0
   -1.7070   31.8230   43.9318 H   0  0  0  0  0
   -3.0164   31.6878   41.8640 H   0  0  0  0  0
   -2.8151   36.4099   40.5143 H   0  0  0  0  0
   -4.3311   36.4243   41.4486 H   0  0  0  0  0
   -2.8804   37.2313   42.0930 H   0  0  0  0  0
   -1.7733   36.0729   43.7870 H   0  0  0  0  0
   -2.3190   33.4890   39.1077 H   0  0  0  0  0
   -4.6557   34.1300   38.0003 H   0  0  0  0  0
   -5.8708   31.2744   38.2553 H   0  0  0  0  0
   -5.1084   30.9810   38.9699 H   0  0  0  0  0
   -2.8508   31.6018   36.8136 H   0  0  0  0  0
   -3.6109   31.8943   36.1012 H   0  0  0  0  0
  1  3  4  0  0  0
  1  9  1  0  0  0
 20  1  4  0  0  0
  3  2  4  0  0  0
  2 23  4  0  0  0
  2 24  1  0  0  0
  4  5  4  0  0  0
 21  4  4  0  0  0
  4 28  1  0  0  0
  5 22  4  0  0  0
  6  7  1  0  0  0
 24  6  1  0  0  0
  7  8  1  0  0  0
  8 25  1  0  0  0
  8 26  1  0  0  0
  8 27  1  0  0  0
  9 17  1  0  0  0
 10 11  1  0  0  0
 10 12  4  0  0  0
 18 10  4  0  0  0
 12 13  1  0  0  0
 15 12  4  0  0  0
 13 14  1  0  0  0
 16 15  4  0  0  0
 17 16  4  0  0  0
 17 18  4  0  0  0
 18 19  1  0  0  0
 20 21  4  0  0  0
 21 23  4  0  0  0
 22 23  4  0  0  0
 28 29  4  0  0  0
 28 34  4  0  0  0
 29 30  4  0  0  0
 30 31  4  0  0  0
 31 32  4  0  0  0
 31 35  1  0  0  0
 32 33  1  0  0  0
 32 34  4  0  0  0
 35 36  2  0  0  0
 35 37  1  0  0  0
 37 38  1  0  0  0
 38 39  1  0  0  0
 38 40  1  0  0  0
 39 40  1  0  0  0
  3 41  1  0  0  0
  5 42  1  0  0  0
  6 43  1  0  0  0
  6 44  1  0  0  0
  7 45  1  0  0  0
  7 46  1  0  0  0
 14 47  1  0  0  0
 14 48  1  0  0  0
 14 49  1  0  0  0
 15 50  1  0  0  0
 16 51  1  0  0  0
 24 52  1  0  0  0
 29 53  1  0  0  0
 30 54  1  0  0  0
 33 55  1  0  0  0
 33 56  1  0  0  0
 33 57  1  0  0  0
 34 58  1  0  0  0
 37 59  1  0  0  0
 38 60  1  0  0  0
 39 61  1  0  0  0
 39 62  1  0  0  0
 40 63  1  0  0  0
 40 64  1  0  0  0
M  END
$$$$
