3qk0_ligand
  -I-interpret- 

 45 48  0  0  0  0  0  0  0  0999 V2000
   20.5040   12.7750   23.9330 C   0  0  0  0  0
   20.8980   13.7940   23.0430 C   0  0  0  0  0
   22.2000   13.8610   22.5390 C   0  0  0  0  0
   18.5130   13.8730   23.8250 C   0  0  0  0  0
   14.9600   14.9730   24.0960 C   0  0  0  0  0
   24.7190   13.3920   21.1370 C   0  0  0  0  0
   27.0310   12.8050   21.4400 C   0  0  0  0  0
   26.2920   16.9900   19.8950 C   0  0  0  0  0
   24.8110   18.6810   20.7830 C   0  0  0  0  0
   16.4010   15.0090   23.5690 C   0  0  0  0  0
   16.7240   15.8470   22.7240 O   0  0  0  0  0
   17.2130   14.0850   24.1100 N   0  0  0  0  0
   19.2140   12.8500   24.3290 N   0  0  0  0  0
   19.5410   14.7620   22.8010 S   0  0  0  0  0
   21.4560   11.8320   24.2970 C   0  0  0  0  0
   22.7530   11.8970   23.7970 C   0  0  0  0  0
   23.1440   12.9110   22.9240 C   0  0  0  0  0
   24.4500   12.9100   22.4210 C   0  0  0  0  0
   25.5050   12.3630   23.1530 C   0  0  0  0  0
   26.7380   12.3320   22.6660 N   0  0  0  0  0
   28.6700   12.7250   20.8740 Cl  0  0  0  0  0
   26.0260   13.3570   20.6360 C   0  0  0  0  0
   26.3440   13.8160   19.4130 N   0  0  0  0  0
   25.4320   14.8280   18.5050 S   0  0  0  0  0
   24.1030   14.2050   18.1750 O   0  0  0  0  0
   26.1760   15.1370   17.2390 O   0  0  0  0  0
   25.1850   16.3140   19.3770 C   0  0  0  0  0
   26.1040   18.1790   20.6000 C   0  0  0  0  0
   24.6350   19.8290   21.4660 F   0  0  0  0  0
   23.7020   18.0040   20.2650 C   0  0  0  0  0
   23.8900   16.8140   19.5570 C   0  0  0  0  0
   22.4766   14.6553   21.8457 H   0  0  0  0  0
   14.7217   15.9282   24.5639 H   0  0  0  0  0
   14.2757   14.7923   23.2670 H   0  0  0  0  0
   14.8628   14.1731   24.8300 H   0  0  0  0  0
   23.9115   13.7951   20.5258 H   0  0  0  0  0
   27.2959   16.5913   19.7494 H   0  0  0  0  0
   16.7989   13.4757   24.8155 H   0  0  0  0  0
   21.1838   11.0303   24.9834 H   0  0  0  0  0
   23.4782   11.1394   24.0941 H   0  0  0  0  0
   25.3116   11.9533   24.1444 H   0  0  0  0  0
   27.2312   13.5066   19.0161 H   0  0  0  0  0
   26.9615   18.7150   21.0068 H   0  0  0  0  0
   22.6980   18.4019   20.4126 H   0  0  0  0  0
   23.0335   16.2784   19.1474 H   0  0  0  0  0
  2  1  4  0  0  0
  1 13  4  0  0  0
 15  1  4  0  0  0
  3  2  4  0  0  0
  2 14  4  0  0  0
 17  3  4  0  0  0
  4 12  1  0  0  0
 13  4  4  0  0  0
 14  4  4  0  0  0
 10  5  1  0  0  0
  6 18  4  0  0  0
 22  6  4  0  0  0
  7 20  4  0  0  0
  7 21  1  0  0  0
 22  7  4  0  0  0
 27  8  4  0  0  0
  8 28  4  0  0  0
 28  9  4  0  0  0
  9 29  1  0  0  0
  9 30  4  0  0  0
 10 11  2  0  0  0
 12 10  1  0  0  0
 16 15  4  0  0  0
 17 16  4  0  0  0
 18 17  1  0  0  0
 18 19  4  0  0  0
 20 19  4  0  0  0
 23 22  1  0  0  0
 24 23  1  0  0  0
 24 25  2  0  0  0
 24 26  2  0  0  0
 24 27  1  0  0  0
 27 31  4  0  0  0
 30 31  4  0  0  0
  3 32  1  0  0  0
  5 33  1  0  0  0
  5 34  1  0  0  0
  5 35  1  0  0  0
  6 36  1  0  0  0
  8 37  1  0  0  0
 12 38  1  0  0  0
 15 39  1  0  0  0
 16 40  1  0  0  0
 19 41  1  0  0  0
 23 42  1  0  0  0
 28 43  1  0  0  0
 30 44  1  0  0  0
 31 45  1  0  0  0
M  END
$$$$
