5dri_ligand
  -I-interpret- 

 25 26  0  0  0  0  0  0  0  0999 V2000
   33.9710   77.3580   63.3060 C   0  0  0  0  0
   30.4840   76.4260   61.1950 C   0  0  0  0  0
   32.6470   78.0930   61.6970 C   0  0  0  0  0
   38.7860   80.8230   63.3780 O   0  0  0  0  0
   37.7160   80.8120   63.9900 C   0  0  0  0  0
   37.5430   80.7200   65.1900 O   0  0  0  0  0
   36.3530   80.9290   63.0750 C   0  0  0  0  0
   36.3750   81.8250   62.1450 O   0  0  0  0  0
   35.1490   79.9450   63.1990 C   0  0  0  0  0
   34.6580   79.4390   62.3070 C   0  0  0  0  0
   34.8410   79.7780   61.2110 O   0  0  0  0  0
   33.7200   78.2190   62.4750 C   0  0  0  0  0
   33.1290   76.1910   63.4900 C   0  0  0  0  0
   32.0110   76.0500   62.6950 C   0  0  0  0  0
   31.0160   75.0490   62.6360 N   0  0  0  0  0
   30.1420   75.3830   61.6960 C   0  0  0  0  0
   31.7410   76.8680   61.8720 C   0  0  0  0  0
   34.8576   77.4711   63.9299 H   0  0  0  0  0
   29.9681   76.9521   60.3918 H   0  0  0  0  0
   32.4159   78.8492   60.9468 H   0  0  0  0  0
   38.6144   80.9064   62.4372 H   0  0  0  0  0
   34.3533   80.5803   63.5881 H   0  0  0  0  0
   35.5741   79.1072   63.7517 H   0  0  0  0  0
   33.3751   75.4408   64.2415 H   0  0  0  0  0
   29.2578   74.8082   61.4206 H   0  0  0  0  0
 12  1  4  0  0  0
  1 13  4  0  0  0
  2 16  4  0  0  0
 17  2  4  0  0  0
 12  3  4  0  0  0
  3 17  4  0  0  0
  5  4  1  0  0  0
  5  6  2  0  0  0
  7  5  1  0  0  0
  7  8  2  0  0  0
  9  7  1  0  0  0
 10  9  1  0  0  0
 10 11  2  0  0  0
 10 12  1  0  0  0
 13 14  4  0  0  0
 14 15  4  0  0  0
 14 17  4  0  0  0
 15 16  4  0  0  0
  1 18  1  0  0  0
  2 19  1  0  0  0
  3 20  1  0  0  0
  4 21  1  0  0  0
  9 22  1  0  0  0
  9 23  1  0  0  0
 13 24  1  0  0  0
 16 25  1  0  0  0
M  END
$$$$
