6bo6_ligand
  -I-interpret- 

 63 67  0  0  0  0  0  0  0  0999 V2000
  -58.2140  -61.5570  -32.8570 C   0  0  0  0  0
  -62.5490  -59.3440  -34.1840 C   0  0  0  0  0
  -67.3830  -61.1380  -38.0750 C   0  0  0  0  0
  -61.1230  -59.6190  -33.6740 C   0  0  0  0  0
  -58.9480  -58.7880  -33.0930 C   0  0  0  0  0
  -59.0060  -59.5480  -31.7410 C   0  0  0  0  0
  -57.6810  -60.7370  -34.0440 C   0  0  0  0  0
  -61.6960  -57.2800  -35.1840 C   0  0  0  0  0
  -57.7320  -61.5510  -35.3030 C   0  0  0  0  0
  -58.1150  -60.7240  -31.6360 C   0  0  0  0  0
  -63.2160  -52.9840  -42.3340 C   0  0  0  0  0
  -64.2540  -55.1280  -41.6190 C   0  0  0  0  0
  -65.3960  -55.9710  -41.7010 C   0  0  0  0  0
  -65.6040  -56.8990  -40.7120 C   0  0  0  0  0
  -64.6720  -56.9650  -39.6680 C   0  0  0  0  0
  -63.5750  -56.0910  -39.6700 C   0  0  0  0  0
  -63.6570  -57.7460  -37.6090 C   0  0  0  0  0
  -64.7160  -57.8950  -38.5070 C   0  0  0  0  0
  -65.6020  -59.6240  -37.1760 C   0  0  0  0  0
  -63.6290  -58.6090  -36.4660 C   0  0  0  0  0
  -60.2700  -57.6480  -34.7190 C   0  0  0  0  0
  -63.9930  -54.1110  -42.6730 N   0  0  0  0  0
  -63.4020  -55.2080  -40.6300 N   0  0  0  0  0
  -65.6690  -58.8340  -38.2660 N   0  0  0  0  0
  -66.6270  -60.6130  -36.9510 N   0  0  0  0  0
  -64.6020  -59.5140  -36.2940 N   0  0  0  0  0
  -62.5210  -58.5210  -35.4380 N   0  0  0  0  0
  -60.3450  -58.4050  -33.5260 N   0  3  0  0  0
  -58.5110  -59.5420  -34.2840 O   0  0  0  0  0
  -57.4860  -62.7480  -32.7380 O   0  0  0  0  0
  -58.4840  -61.4730  -30.5240 O   0  0  0  0  0
  -58.7340  -58.5820  -30.7050 O   0  0  0  0  0
  -58.7860  -61.4680  -36.0560 O   0  0  0  0  0
  -56.7450  -62.3000  -35.6250 O   0  0  0  0  0
  -62.6850  -56.4710  -38.2570 S   0  0  0  0  0
  -59.2576  -61.8314  -33.0107 H   0  0  0  0  0
  -63.0953  -58.7949  -33.4170 H   0  0  0  0  0
  -63.0329  -60.2963  -34.4010 H   0  0  0  0  0
  -67.9059  -60.3213  -38.5727 H   0  0  0  0  0
  -66.7012  -61.6166  -38.7780 H   0  0  0  0  0
  -68.1072  -61.8686  -37.7146 H   0  0  0  0  0
  -60.6208  -60.2544  -34.4035 H   0  0  0  0  0
  -61.2005  -60.0912  -32.6947 H   0  0  0  0  0
  -58.2405  -57.9933  -32.8566 H   0  0  0  0  0
  -59.9997  -59.9851  -31.6428 H   0  0  0  0  0
  -56.6595  -60.4496  -33.7947 H   0  0  0  0  0
  -61.6253  -56.7116  -36.1114 H   0  0  0  0  0
  -62.1783  -56.6939  -34.4017 H   0  0  0  0  0
  -57.0839  -60.3865  -31.5306 H   0  0  0  0  0
  -63.7050  -52.4361  -41.5285 H   0  0  0  0  0
  -62.2289  -53.3101  -42.0063 H   0  0  0  0  0
  -63.1157  -52.3378  -43.2061 H   0  0  0  0  0
  -66.0933  -55.8817  -42.5340 H   0  0  0  0  0
  -66.4672  -57.5640  -40.7377 H   0  0  0  0  0
  -59.7003  -56.7368  -34.5365 H   0  0  0  0  0
  -59.7755  -58.2357  -35.4924 H   0  0  0  0  0
  -64.3660  -54.2258  -43.6154 H   0  0  0  0  0
  -66.8207  -60.9430  -36.0055 H   0  0  0  0  0
  -60.8089  -57.8193  -32.8317 H   0  0  0  0  0
  -57.8232  -63.2551  -31.9959 H   0  0  0  0  0
  -57.9092  -62.2383  -30.4500 H   0  0  0  0  0
  -59.3280  -57.8342  -30.8024 H   0  0  0  0  0
  -59.4161  -60.8635  -35.6571 H   0  0  0  0  0
  7  1  1  0  0  0
 10  1  1  0  0  0
  1 30  1  0  0  0
  2  4  1  0  0  0
 27  2  1  0  0  0
 25  3  1  0  0  0
  4 28  1  0  0  0
  5  6  1  0  0  0
 28  5  1  0  0  0
  5 29  1  0  0  0
  6 10  1  0  0  0
  6 32  1  0  0  0
  7  9  1  0  0  0
 29  7  1  0  0  0
  8 21  1  0  0  0
 27  8  1  0  0  0
  9 33  1  0  0  0
  9 34  2  0  0  0
 10 31  1  0  0  0
 22 11  1  0  0  0
 12 13  4  0  0  0
 12 22  1  0  0  0
 23 12  4  0  0  0
 14 13  4  0  0  0
 15 14  4  0  0  0
 16 15  4  0  0  0
 18 15  4  0  0  0
 16 23  4  0  0  0
 35 16  4  0  0  0
 17 18  4  0  0  0
 20 17  4  0  0  0
 17 35  4  0  0  0
 18 24  4  0  0  0
 19 24  4  0  0  0
 19 25  1  0  0  0
 26 19  4  0  0  0
 20 26  4  0  0  0
 20 27  1  0  0  0
 21 28  1  0  0  0
  1 36  1  0  0  0
  2 37  1  0  0  0
  2 38  1  0  0  0
  3 39  1  0  0  0
  3 40  1  0  0  0
  3 41  1  0  0  0
  4 42  1  0  0  0
  4 43  1  0  0  0
  5 44  1  0  0  0
  6 45  1  0  0  0
  7 46  1  0  0  0
  8 47  1  0  0  0
  8 48  1  0  0  0
 10 49  1  0  0  0
 11 50  1  0  0  0
 11 51  1  0  0  0
 11 52  1  0  0  0
 13 53  1  0  0  0
 14 54  1  0  0  0
 21 55  1  0  0  0
 21 56  1  0  0  0
 22 57  1  0  0  0
 25 58  1  0  0  0
 28 59  1  0  0  0
 30 60  1  0  0  0
 31 61  1  0  0  0
 32 62  1  0  0  0
 33 63  1  0  0  0
M  END
$$$$
