2xj1_ligand
  -I-interpret- 

 48 50  0  0  0  0  0  0  0  0999 V2000
  -20.4820  -32.1700   -4.7560 C   0  0  0  0  0
  -20.7090  -30.6430   -4.7420 C   0  0  0  0  0
  -21.6460  -30.2350   -3.5910 C   0  0  0  0  0
  -21.8830  -28.7740   -3.5700 N   0  3  0  0  0
  -22.9640  -30.9900   -3.7540 C   0  0  0  0  0
  -22.7710  -32.5200   -3.8110 C   0  0  0  0  0
  -21.8260  -32.9080   -4.9490 C   0  0  0  0  0
  -21.5930  -34.3680   -5.0880 N   0  0  0  0  0
  -22.1160  -35.4220   -4.4480 C   0  0  0  0  0
  -22.0800  -35.5190   -3.1030 N   0  0  0  0  0
  -22.6330  -36.4880   -5.1900 C   0  0  0  0  0
  -23.1010  -37.5650   -4.5620 N   0  0  0  0  0
  -23.0910  -37.6520   -3.2210 C   0  0  0  0  0
  -22.5510  -36.6120   -2.4530 C   0  0  0  0  0
  -22.5370  -36.6250   -1.0330 C   0  0  0  0  0
  -22.3620  -35.4140   -0.3590 C   0  0  0  0  0
  -22.7360  -37.7770   -0.2680 C   0  0  0  0  0
  -22.7450  -37.7090    1.1400 C   0  0  0  0  0
  -22.5590  -36.4850    1.7820 C   0  0  0  0  0
  -22.3470  -35.3270    1.0320 C   0  0  0  0  0
  -22.1900  -34.0870    1.6650 C   0  0  0  0  0
  -21.4830  -32.9920    1.1620 C   0  0  0  0  0
  -21.4240  -31.7880    1.8820 C   0  0  0  0  0
  -20.7680  -30.8650    1.3760 O   0  0  0  0  0
  -22.0350  -31.6700    2.9760 O   0  0  0  0  0
  -20.0415  -32.4738   -3.8064 H   0  0  0  0  0
  -19.8143  -32.4238   -5.5793 H   0  0  0  0  0
  -21.1668  -30.3489   -5.6865 H   0  0  0  0  0
  -19.7480  -30.1479   -4.6027 H   0  0  0  0  0
  -21.1778  -30.4925   -2.6410 H   0  0  0  0  0
  -20.9930  -28.2879   -3.4607 H   0  0  0  0  0
  -22.3219  -28.4893   -4.4456 H   0  0  0  0  0
  -22.4969  -28.5415   -2.7893 H   0  0  0  0  0
  -23.4163  -30.6745   -4.6942 H   0  0  0  0  0
  -23.5885  -30.7635   -2.8898 H   0  0  0  0  0
  -23.7394  -32.9896   -3.9837 H   0  0  0  0  0
  -22.3398  -32.8546   -2.8675 H   0  0  0  0  0
  -22.3144  -32.6069   -5.8758 H   0  0  0  0  0
  -20.9082  -34.6135   -5.8029 H   0  0  0  0  0
  -22.6530  -36.4378   -6.2787 H   0  0  0  0  0
  -23.5037  -38.5332   -2.7299 H   0  0  0  0  0
  -22.2323  -34.5028   -0.9429 H   0  0  0  0  0
  -22.8855  -38.7361   -0.7639 H   0  0  0  0  0
  -22.8975  -38.6142    1.7277 H   0  0  0  0  0
  -22.5792  -36.4326    2.8706 H   0  0  0  0  0
  -22.6629  -33.9654    2.6395 H   0  0  0  0  0
  -20.9727  -33.0731    0.2022 H   0  0  0  0  0
  -22.4763  -32.4964    3.1855 H   0  0  0  0  0
  1  2  1  0  0  0
  1  7  1  0  0  0
  2  3  1  0  0  0
  3  4  1  0  0  0
  3  5  1  0  0  0
  5  6  1  0  0  0
  6  7  1  0  0  0
  7  8  1  0  0  0
  8  9  1  0  0  0
  9 10  4  0  0  0
  9 11  4  0  0  0
 10 14  4  0  0  0
 11 12  4  0  0  0
 12 13  4  0  0  0
 13 14  4  0  0  0
 14 15  1  0  0  0
 15 16  4  0  0  0
 15 17  4  0  0  0
 16 20  4  0  0  0
 17 18  4  0  0  0
 18 19  4  0  0  0
 19 20  4  0  0  0
 20 21  1  0  0  0
 21 22  2  0  0  0
 22 23  1  0  0  0
 23 24  2  0  0  0
 23 25  1  0  0  0
  1 26  1  0  0  0
  1 27  1  0  0  0
  2 28  1  0  0  0
  2 29  1  0  0  0
  3 30  1  0  0  0
  4 31  1  0  0  0
  4 32  1  0  0  0
  4 33  1  0  0  0
  5 34  1  0  0  0
  5 35  1  0  0  0
  6 36  1  0  0  0
  6 37  1  0  0  0
  7 38  1  0  0  0
  8 39  1  0  0  0
 11 40  1  0  0  0
 13 41  1  0  0  0
 16 42  1  0  0  0
 17 43  1  0  0  0
 18 44  1  0  0  0
 19 45  1  0  0  0
 21 46  1  0  0  0
 22 47  1  0  0  0
 25 48  1  0  0  0
M  END
$$$$
