2x2k_ligand
  -I-interpret- 

 33 35  0  0  0  0  0  0  0  0999 V2000
   -7.9550   10.6140   10.7070 C   0  0  0  0  0
   -9.3340   11.1530   11.2050 C   0  0  0  0  0
   -9.5600   12.4320   11.5350 C   0  0  0  0  0
  -10.8510   12.4830   11.9000 C   0  0  0  0  0
  -11.5500   13.7780   12.3660 C   0  0  0  0  0
  -11.4450   11.2750   11.8050 N   0  0  0  0  0
  -10.5230   10.4010   11.3670 C   0  0  0  0  0
  -10.5470    9.0240   11.0560 C   0  0  0  0  0
  -11.6100    8.1100   11.1920 C   0  0  0  0  0
  -11.5590    6.7460   10.8190 C   0  0  0  0  0
  -10.5820    5.8950   10.2480 C   0  0  0  0  0
  -10.8990    4.5230   10.0220 C   0  0  0  0  0
  -10.0160    3.6230    9.4830 N   0  0  0  0  0
  -12.1770    4.0350   10.3460 C   0  0  0  0  0
  -13.1300    4.8780   10.9040 C   0  0  0  0  0
  -12.8440    6.2290   11.1470 C   0  0  0  0  0
  -13.6150    7.2060   11.6800 N   0  0  0  0  0
  -12.9000    8.3410   11.7170 C   0  0  0  0  0
  -13.3370    9.4080   12.1600 O   0  0  0  0  0
   -7.6707   11.1362    9.7934 H   0  0  0  0  0
   -7.2006   10.7854   11.4748 H   0  0  0  0  0
   -8.0349    9.5456   10.5065 H   0  0  0  0  0
   -8.8470   13.2561   11.5120 H   0  0  0  0  0
  -11.0446   14.1638   13.2514 H   0  0  0  0  0
  -11.5062   14.5201   11.5688 H   0  0  0  0  0
  -12.5910   13.5614   12.6057 H   0  0  0  0  0
   -9.6192    8.6135   10.6575 H   0  0  0  0  0
   -9.5986    6.2841    9.9841 H   0  0  0  0  0
   -9.0772    3.9238    9.2212 H   0  0  0  0  0
  -10.2980    2.6527    9.3439 H   0  0  0  0  0
  -12.4215    2.9895   10.1584 H   0  0  0  0  0
  -14.1142    4.4835   11.1565 H   0  0  0  0  0
  -14.5775    7.0976   11.9997 H   0  0  0  0  0
  1  2  1  0  0  0
  2  3  4  0  0  0
  2  7  4  0  0  0
  3  4  4  0  0  0
  4  5  1  0  0  0
  4  6  4  0  0  0
  6  7  4  0  0  0
  7  8  1  0  0  0
  8  9  2  0  0  0
  9 10  1  0  0  0
  9 18  1  0  0  0
 10 11  4  0  0  0
 10 16  4  0  0  0
 11 12  4  0  0  0
 12 13  1  0  0  0
 12 14  4  0  0  0
 14 15  4  0  0  0
 15 16  4  0  0  0
 16 17  1  0  0  0
 17 18  1  0  0  0
 18 19  2  0  0  0
  1 20  1  0  0  0
  1 21  1  0  0  0
  1 22  1  0  0  0
  3 23  1  0  0  0
  5 24  1  0  0  0
  5 25  1  0  0  0
  5 26  1  0  0  0
  8 27  1  0  0  0
 11 28  1  0  0  0
 13 29  1  0  0  0
 13 30  1  0  0  0
 14 31  1  0  0  0
 15 32  1  0  0  0
 17 33  1  0  0  0
M  END
$$$$
