6cbf_ligand
  -I-interpret- 

 32 34  0  0  0  0  0  0  0  0999 V2000
   12.9700    9.7700    2.9040 C   0  0  0  0  0
   12.8940   10.1550    1.5670 C   0  0  0  0  0
   11.6820   10.1090    0.8720 C   0  0  0  0  0
   10.5230    9.6790    1.5160 C   0  0  0  0  0
   10.6190    9.2820    2.8490 C   0  0  0  0  0
   11.8240    9.3290    3.5400 C   0  0  0  0  0
   14.2630    9.8150    3.6380 C   0  0  0  0  0
   14.4390   10.0110    5.0010 C   0  0  0  0  0
   15.7610    9.9840    5.2750 N   0  0  0  0  0
   16.4040    9.7610    4.0600 N   0  0  0  0  0
   15.5120    9.6560    3.0680 C   0  0  0  0  0
    9.4260    8.8140    3.6170 C   0  0  0  0  0
    9.1150    7.6070    3.5720 O   0  0  0  0  0
    8.8020    9.6570    4.2990 O   0  0  0  0  0
    9.3150    9.5950    0.8410 O   0  0  0  0  0
    8.5180   10.6230    0.3670 C   0  0  0  0  0
    8.4850   11.8910    0.9650 C   0  0  0  0  0
    7.6530   12.8830    0.4420 C   0  0  0  0  0
    6.8510   12.6140   -0.6700 C   0  0  0  0  0
    6.8730   11.3540   -1.2620 C   0  0  0  0  0
    7.6990   10.3610   -0.7390 C   0  0  0  0  0
   13.7934   10.4973    1.0552 H   0  0  0  0  0
   11.6432   10.4098   -0.1750 H   0  0  0  0  0
   11.8657    9.0181    4.5839 H   0  0  0  0  0
   13.6422   10.1617    5.7293 H   0  0  0  0  0
   15.7285    9.4793    2.0144 H   0  0  0  0  0
    9.2082   10.5199    4.1890 H   0  0  0  0  0
    9.1067   12.1015    1.8352 H   0  0  0  0  0
    7.6291   13.8705    0.9028 H   0  0  0  0  0
    6.2058   13.3933   -1.0755 H   0  0  0  0  0
    6.2475   11.1454   -2.1299 H   0  0  0  0  0
    7.7080    9.3709   -1.1948 H   0  0  0  0  0
  1  2  4  0  0  0
  1  6  4  0  0  0
  1  7  1  0  0  0
  2  3  4  0  0  0
  3  4  4  0  0  0
  4  5  4  0  0  0
  4 15  1  0  0  0
  5  6  4  0  0  0
  5 12  1  0  0  0
  7  8  4  0  0  0
  7 11  4  0  0  0
  8  9  4  0  0  0
  9 10  4  0  0  0
 10 11  4  0  0  0
 12 13  2  0  0  0
 12 14  1  0  0  0
 15 16  1  0  0  0
 16 17  4  0  0  0
 16 21  4  0  0  0
 17 18  4  0  0  0
 18 19  4  0  0  0
 19 20  4  0  0  0
 20 21  4  0  0  0
  2 22  1  0  0  0
  3 23  1  0  0  0
  6 24  1  0  0  0
  8 25  1  0  0  0
 11 26  1  0  0  0
 14 27  1  0  0  0
 17 28  1  0  0  0
 18 29  1  0  0  0
 19 30  1  0  0  0
 20 31  1  0  0  0
 21 32  1  0  0  0
M  END
$$$$
