3muf_ligand
  -I-interpret- 

 27 27  0  0  0  0  0  0  0  0999 V2000
   27.2750   33.4150    0.5400 C   0  0  0  0  0
   27.7070   32.4750   -0.4210 C   0  0  0  0  0
   26.7640   31.8290   -1.4630 C   0  0  0  0  0
   25.3130   32.0360   -0.9760 C   0  0  0  0  0
   25.0180   33.5190   -0.6880 C   0  0  0  0  0
   25.8350   33.9780    0.5550 C   0  0  0  0  0
   28.2520   33.9460    1.5980 C   0  0  0  0  0
   27.0040   30.3810   -1.5520 O   0  0  0  0  0
   25.1260   31.2940    0.2620 O   0  0  0  0  0
   25.2830   34.3650   -1.8620 O   0  0  0  0  0
   27.7890   34.7910    2.4030 O   0  0  0  0  0
   29.4470   33.5400    1.6020 O   0  0  0  0  0
   27.9840   29.5920   -2.6750 P   0  0  0  0  0
   27.2910   28.4700   -3.3510 O   0  0  0  0  0
   28.4140   30.6100   -3.9020 O   0  0  0  0  0
   29.2840   29.1940   -1.6880 O   0  0  0  0  0
   28.7590   32.1900   -0.4289 H   0  0  0  0  0
   26.9389   32.2838   -2.4380 H   0  0  0  0  0
   24.6405   31.6889   -1.7605 H   0  0  0  0  0
   23.9564   33.6297   -0.4670 H   0  0  0  0  0
   25.8938   35.0663    0.5419 H   0  0  0  0  0
   25.3331   33.6080    1.4490 H   0  0  0  0  0
   25.3050   30.3638    0.1064 H   0  0  0  0  0
   24.7626   34.0512   -2.6052 H   0  0  0  0  0
   29.5682   32.8984    0.8982 H   0  0  0  0  0
   28.8735   31.3707   -3.5390 H   0  0  0  0  0
   29.6515   29.9946   -1.3064 H   0  0  0  0  0
  1  2  2  0  0  0
  1  6  1  0  0  0
  1  7  1  0  0  0
  2  3  1  0  0  0
  3  4  1  0  0  0
  3  8  1  0  0  0
  4  5  1  0  0  0
  4  9  1  0  0  0
  5  6  1  0  0  0
  5 10  1  0  0  0
  7 11  2  0  0  0
  7 12  1  0  0  0
  8 13  1  0  0  0
 13 14  2  0  0  0
 13 15  1  0  0  0
 13 16  1  0  0  0
  2 17  1  0  0  0
  3 18  1  0  0  0
  4 19  1  0  0  0
  5 20  1  0  0  0
  6 21  1  0  0  0
  6 22  1  0  0  0
  9 23  1  0  0  0
 10 24  1  0  0  0
 12 25  1  0  0  0
 15 26  1  0  0  0
 16 27  1  0  0  0
M  END
$$$$
