### 
### Created by X-TOOL on Mon Sep 10 21:13:08 2018
### 

@<TRIPOS>MOLECULE
3muf_ligand
   24    24     1     0     0
SMALL
GAST_HUCK


@<TRIPOS>ATOM
      1 C1         27.2750   33.4150    0.5400 C.2       1 S3P        -0.0206
      2 C2         27.7070   32.4750   -0.4210 C.2       1 S3P        -0.0423
      3 C3         26.7640   31.8290   -1.4630 C.3       1 S3P         0.1415
      4 C4         25.3130   32.0360   -0.9760 C.3       1 S3P         0.1213
      5 C5         25.0180   33.5190   -0.6880 C.3       1 S3P         0.0922
      6 C6         25.8350   33.9780    0.5550 C.3       1 S3P         0.0034
      7 C7         28.2520   33.9460    1.5980 C.2       1 S3P         0.0477
      8 O1         27.0040   30.3810   -1.5520 O.3       1 S3P        -0.2592
      9 O2         25.1260   31.2940    0.2620 O.3       1 S3P        -0.3840
     10 O3         25.2830   34.3650   -1.8620 O.3       1 S3P        -0.3873
     11 O4         27.7890   34.7910    2.4030 O.co2     1 S3P        -0.5666
     12 O5         29.4470   33.5400    1.6020 O.co2     1 S3P        -0.5666
     13 P1         27.9840   29.5920   -2.6750 P.3       1 S3P         0.2044
     14 O6         27.2910   28.4700   -3.3510 O.co2     1 S3P        -0.5536
     15 O7         28.4140   30.6100   -3.9020 O.co2     1 S3P        -0.5536
     16 O8         29.2840   29.1940   -1.6880 O.co2     1 S3P        -0.5536
     17 H          28.7590   32.1900   -0.4289 H         1 S3P         0.0595
     18 H          26.9389   32.2838   -2.4380 H         1 S3P         0.0831
     19 H          24.6405   31.6889   -1.7605 H         1 S3P         0.0674
     20 H          23.9564   33.6297   -0.4670 H         1 S3P         0.0641
     21 H          25.8938   35.0663    0.5419 H         1 S3P         0.0411
     22 H          25.3331   33.6080    1.4490 H         1 S3P         0.0411
     23 H          25.7290   31.6298    0.9292 H         1 S3P         0.2103
     24 H          24.7626   34.0512   -2.6052 H         1 S3P         0.2101
@<TRIPOS>BOND
     1    1    2 2  
     2    1    6 1  
     3    1    7 1  
     4    2    3 1  
     5    3    4 1  
     6    3    8 1  
     7    4    5 1  
     8    4    9 1  
     9    5    6 1  
    10    5   10 1  
    11    7   11 ar 
    12    7   12 ar 
    13    8   13 1  
    14   13   14 ar 
    15   13   15 ar 
    16   13   16 ar 
    17    2   17 1  
    18    3   18 1  
    19    4   19 1  
    20    5   20 1  
    21    6   21 1  
    22    6   22 1  
    23    9   23 1  
    24   10   24 1  
@<TRIPOS>SUBSTRUCTURE
     1 S3P         1

