3hii_ligand
  -I-interpret- 

 49 50  0  0  0  0  0  0  0  0999 V2000
  -28.3070  -13.4570   73.1330 C   0  0  0  0  0
  -27.3080  -13.6030   72.1840 C   0  0  0  0  0
  -27.6270  -13.8790   70.8610 C   0  0  0  0  0
  -28.9540  -14.0140   70.4850 C   0  0  0  0  0
  -29.9570  -13.8850   71.4380 C   0  0  0  0  0
  -29.6320  -13.6100   72.7570 C   0  0  0  0  0
  -28.3350  -12.1160   75.2200 C   0  0  0  0  0
  -29.6970  -12.3080   75.8240 C   0  0  0  0  0
  -29.3220  -14.3200   69.0770 C   0  0  0  0  0
  -30.7090  -11.4320   75.1000 C   0  0  0  0  0
  -34.1200   -9.6500   73.9860 C   0  0  0  0  0
  -35.1620  -10.5300   73.6920 C   0  0  0  0  0
  -36.2790  -10.0830   72.9950 C   0  0  0  0  0
  -36.3690   -8.7560   72.5940 C   0  0  0  0  0
  -35.3330   -7.8730   72.8910 C   0  0  0  0  0
  -34.2100   -8.3160   73.5820 C   0  0  0  0  0
  -31.9200   -9.2880   75.0050 C   0  0  0  0  0
  -30.9000  -10.0920   75.7860 C   0  0  0  0  0
  -37.5800   -8.2700   71.8560 C   0  0  0  0  0
  -27.9580  -13.2270   74.4360 O   0  0  0  0  0
  -33.0300  -10.1240   74.6720 O   0  0  0  0  0
  -28.6640  -13.8820   68.0960 N   0  0  0  0  0
  -30.3680  -15.1110   68.8550 N   0  0  0  0  0
  -38.0680   -8.9750   70.9310 N   0  0  0  0  0
  -38.1400   -7.1010   72.1840 N   0  0  0  0  0
  -26.2635  -13.5004   72.4783 H   0  0  0  0  0
  -26.8354  -13.9892   70.1199 H   0  0  0  0  0
  -31.0013  -14.0003   71.1477 H   0  0  0  0  0
  -30.4220  -13.5137   73.5018 H   0  0  0  0  0
  -27.6116  -12.0006   76.0272 H   0  0  0  0  0
  -28.3614  -11.2339   74.5802 H   0  0  0  0  0
  -29.6670  -12.0294   76.8774 H   0  0  0  0  0
  -29.9903  -13.3533   75.7275 H   0  0  0  0  0
  -31.6672  -11.9516   75.0970 H   0  0  0  0  0
  -30.3385  -11.2475   74.0916 H   0  0  0  0  0
  -35.1002  -11.5709   74.0096 H   0  0  0  0  0
  -37.0871  -10.7765   72.7623 H   0  0  0  0  0
  -35.4028   -6.8305   72.5805 H   0  0  0  0  0
  -33.4003   -7.6222   73.8082 H   0  0  0  0  0
  -31.4624   -8.9097   74.0909 H   0  0  0  0  0
  -32.2645   -8.4503   75.6114 H   0  0  0  0  0
  -29.9522   -9.5548   75.8201 H   0  0  0  0  0
  -31.2514  -10.2449   76.8064 H   0  0  0  0  0
  -28.9357  -14.1349   67.1459 H   0  0  0  0  0
  -30.6286  -15.3559   67.8997 H   0  0  0  0  0
  -30.9096  -15.4727   69.6400 H   0  0  0  0  0
  -37.6388   -9.8684   70.6901 H   0  0  0  0  0
  -38.9674   -6.7740   71.6850 H   0  0  0  0  0
  -37.7398   -6.5362   72.9332 H   0  0  0  0  0
  1  2  4  0  0  0
  1  6  4  0  0  0
 20  1  1  0  0  0
  2  3  4  0  0  0
  3  4  4  0  0  0
  5  4  4  0  0  0
  4  9  1  0  0  0
  6  5  4  0  0  0
  8  7  1  0  0  0
  7 20  1  0  0  0
 10  8  1  0  0  0
  9 22  2  0  0  0
  9 23  1  0  0  0
 18 10  1  0  0  0
 11 12  4  0  0  0
 11 16  4  0  0  0
 21 11  1  0  0  0
 12 13  4  0  0  0
 13 14  4  0  0  0
 15 14  4  0  0  0
 14 19  1  0  0  0
 16 15  4  0  0  0
 17 18  1  0  0  0
 17 21  1  0  0  0
 19 24  2  0  0  0
 19 25  1  0  0  0
  2 26  1  0  0  0
  3 27  1  0  0  0
  5 28  1  0  0  0
  6 29  1  0  0  0
  7 30  1  0  0  0
  7 31  1  0  0  0
  8 32  1  0  0  0
  8 33  1  0  0  0
 10 34  1  0  0  0
 10 35  1  0  0  0
 12 36  1  0  0  0
 13 37  1  0  0  0
 15 38  1  0  0  0
 16 39  1  0  0  0
 17 40  1  0  0  0
 17 41  1  0  0  0
 18 42  1  0  0  0
 18 43  1  0  0  0
 22 44  1  0  0  0
 23 45  1  0  0  0
 23 46  1  0  0  0
 24 47  1  0  0  0
 25 48  1  0  0  0
 25 49  1  0  0  0
M  END
$$$$
