2wuf_ligand
  -I-interpret- 

 49 50  0  0  0  0  0  0  0  0999 V2000
    9.8520  -39.5360    9.4710 C   0  0  0  0  0
   10.0020  -40.8720   10.2100 C   0  0  0  0  0
    9.3170  -40.9380   11.5830 C   0  0  0  0  0
    9.3580  -39.8410   12.3420 C   0  0  0  0  0
    8.8290  -39.7800   13.7770 C   0  0  0  0  0
    8.7710  -40.7940   14.3670 O   0  0  0  0  0
    8.4360  -38.4380   14.4350 C   0  0  0  0  0
    8.1160  -37.2910   13.7200 O   0  0  0  0  0
    8.8250  -38.1850   15.5080 O   0  0  0  0  0
   11.4110  -41.4270   10.1720 C   0  0  0  0  0
   11.7950  -41.8220   11.1990 O   0  0  0  0  0
   12.3530  -40.8410    9.0590 C   0  0  0  0  0
   11.8860  -40.7930    7.5550 C   0  0  0  0  0
   13.1880  -40.7600    6.6710 C   0  0  0  0  0
   13.1780  -40.5560    5.0860 C   0  0  0  0  0
   13.6170  -39.1350    4.6850 C   0  0  0  0  0
   14.2080  -39.2170    3.2680 C   0  0  0  0  0
   14.8770  -40.5890    3.1900 C   0  0  0  0  0
   15.3420  -41.0980    2.2260 O   0  0  0  0  0
   14.2690  -41.4080    4.3180 C   0  0  0  0  0
   13.7930  -42.7620    3.7230 C   0  0  0  0  0
   15.3830  -41.8210    5.2510 C   0  0  0  0  0
   14.6720  -42.8430    6.1110 C   0  0  0  0  0
   13.8430  -42.0530    7.0810 C   0  0  0  0  0
   13.5430  -42.5400    8.0880 O   0  0  0  0  0
   10.5085  -38.7946    9.9265 H   0  0  0  0  0
   10.1235  -39.6690    8.4238 H   0  0  0  0  0
    8.8178  -39.1985    9.5395 H   0  0  0  0  0
    9.4136  -41.5749    9.6203 H   0  0  0  0  0
    8.8173  -41.8447   11.9240 H   0  0  0  0  0
    9.7930  -38.9370   11.9157 H   0  0  0  0  0
    7.8013  -37.5368   12.8470 H   0  0  0  0  0
   13.2093  -41.5154    9.0515 H   0  0  0  0  0
   12.4731  -39.7934    9.3350 H   0  0  0  0  0
   11.2710  -39.9124    7.3696 H   0  0  0  0  0
   11.2763  -41.6633    7.3121 H   0  0  0  0  0
   13.6900  -39.8132    6.8700 H   0  0  0  0  0
   12.1534  -40.8242    4.8286 H   0  0  0  0  0
   14.3590  -38.7530    5.3861 H   0  0  0  0  0
   12.7667  -38.4534    4.7047 H   0  0  0  0  0
   14.9193  -38.4122    3.0824 H   0  0  0  0  0
   13.4385  -39.1014    2.5047 H   0  0  0  0  0
   13.4241  -43.4005    4.5257 H   0  0  0  0  0
   12.9935  -42.5807    3.0046 H   0  0  0  0  0
   14.6287  -43.2514    3.2227 H   0  0  0  0  0
   15.8169  -40.9947    5.8141 H   0  0  0  0  0
   16.2650  -42.2090    4.7416 H   0  0  0  0  0
   15.3813  -43.4887    6.6287 H   0  0  0  0  0
   14.0526  -43.5072    5.5083 H   0  0  0  0  0
  1  2  1  0  0  0
  2  3  1  0  0  0
  2 10  1  0  0  0
  3  4  2  0  0  0
  4  5  1  0  0  0
  5  6  2  0  0  0
  5  7  1  0  0  0
  7  8  1  0  0  0
  7  9  2  0  0  0
 10 11  2  0  0  0
 10 12  1  0  0  0
 12 13  1  0  0  0
 13 14  1  0  0  0
 14 15  1  0  0  0
 14 24  1  0  0  0
 15 16  1  0  0  0
 15 20  1  0  0  0
 16 17  1  0  0  0
 17 18  1  0  0  0
 18 19  2  0  0  0
 18 20  1  0  0  0
 20 21  1  0  0  0
 20 22  1  0  0  0
 22 23  1  0  0  0
 23 24  1  0  0  0
 24 25  2  0  0  0
  1 26  1  0  0  0
  1 27  1  0  0  0
  1 28  1  0  0  0
  2 29  1  0  0  0
  3 30  1  0  0  0
  4 31  1  0  0  0
  8 32  1  0  0  0
 12 33  1  0  0  0
 12 34  1  0  0  0
 13 35  1  0  0  0
 13 36  1  0  0  0
 14 37  1  0  0  0
 15 38  1  0  0  0
 16 39  1  0  0  0
 16 40  1  0  0  0
 17 41  1  0  0  0
 17 42  1  0  0  0
 21 43  1  0  0  0
 21 44  1  0  0  0
 21 45  1  0  0  0
 22 46  1  0  0  0
 22 47  1  0  0  0
 23 48  1  0  0  0
 23 49  1  0  0  0
M  END
$$$$
