6exs_ligand
  -I-interpret- 

 44 43  0  0  0  0  0  0  0  0999 V2000
   18.2000    2.2200   32.3260 O   0  0  0  0  0
   17.9890    3.0050   33.1800 C   0  0  0  0  0
   16.9450    3.7570   33.2150 O   0  0  0  0  0
   18.9150    3.3020   34.3230 C   0  0  0  0  0
   20.3040    3.0730   34.0060 N   0  0  0  0  0
   21.0450    4.0040   33.4290 C   0  0  0  0  0
   20.6920    4.6160   32.4320 O   0  0  0  0  0
   22.3680    4.3340   34.0380 C   0  0  0  0  0
   22.7470    3.2740   34.9620 N   0  3  0  0  0
   23.4520    4.4370   32.9640 C   0  0  0  0  0
   23.9650    6.0980   32.4500 S   0  0  0  0  0
   24.8400    7.0040   33.8350 C   0  0  0  0  0
   26.1310    6.2640   34.0720 C   0  0  0  0  0
   23.8750    7.0570   35.0270 C   0  0  0  0  0
   24.4290    7.5520   36.3440 C   0  0  0  0  0
   24.3640    6.5860   37.3410 O   0  0  0  0  0
   25.1470    8.4450   33.4360 C   0  0  0  0  0
   24.4730    9.5150   34.2780 C   0  0  0  0  0
   24.8480   10.8970   33.8170 C   0  0  0  0  0
   16.9803    4.3155   33.9950 H   0  0  0  0  0
   18.6500    2.6354   35.1437 H   0  0  0  0  0
   18.8034    4.3573   34.5720 H   0  0  0  0  0
   20.7243    2.1716   34.2324 H   0  0  0  0  0
   22.2779    5.2900   34.5538 H   0  0  0  0  0
   22.0363    3.1877   35.6885 H   0  0  0  0  0
   22.8241    2.3930   34.4537 H   0  0  0  0  0
   23.6451    3.5015   35.3886 H   0  0  0  0  0
   23.0284    3.9720   32.0738 H   0  0  0  0  0
   24.3397    3.9767   33.3978 H   0  0  0  0  0
   25.9116    5.2342   34.3537 H   0  0  0  0  0
   26.7265    6.2733   33.1591 H   0  0  0  0  0
   26.6856    6.7511   34.8740 H   0  0  0  0  0
   23.5672    6.0265   35.2043 H   0  0  0  0  0
   23.0980    7.7683   34.7470 H   0  0  0  0  0
   23.8316    8.4064   36.6620 H   0  0  0  0  0
   25.4768    7.8120   36.1934 H   0  0  0  0  0
   24.7252    6.9435   38.1554 H   0  0  0  0  0
   24.7758    8.5711   32.4189 H   0  0  0  0  0
   26.2210    8.5803   33.5641 H   0  0  0  0  0
   24.7974    9.3960   35.3118 H   0  0  0  0  0
   23.3933    9.4003   34.1824 H   0  0  0  0  0
   25.9277   11.0244   33.8958 H   0  0  0  0  0
   24.5401   11.0287   32.7797 H   0  0  0  0  0
   24.3470   11.6357   34.4426 H   0  0  0  0  0
  1  2  2  0  0  0
  2  3  1  0  0  0
  2  4  1  0  0  0
  4  5  1  0  0  0
  5  6  1  0  0  0
  6  7  2  0  0  0
  6  8  1  0  0  0
  8  9  1  0  0  0
  8 10  1  0  0  0
 10 11  1  0  0  0
 11 12  1  0  0  0
 12 13  1  0  0  0
 12 14  1  0  0  0
 12 17  1  0  0  0
 14 15  1  0  0  0
 15 16  1  0  0  0
 17 18  1  0  0  0
 18 19  1  0  0  0
  3 20  1  0  0  0
  4 21  1  0  0  0
  4 22  1  0  0  0
  5 23  1  0  0  0
  8 24  1  0  0  0
  9 25  1  0  0  0
  9 26  1  0  0  0
  9 27  1  0  0  0
 10 28  1  0  0  0
 10 29  1  0  0  0
 13 30  1  0  0  0
 13 31  1  0  0  0
 13 32  1  0  0  0
 14 33  1  0  0  0
 14 34  1  0  0  0
 15 35  1  0  0  0
 15 36  1  0  0  0
 16 37  1  0  0  0
 17 38  1  0  0  0
 17 39  1  0  0  0
 18 40  1  0  0  0
 18 41  1  0  0  0
 19 42  1  0  0  0
 19 43  1  0  0  0
 19 44  1  0  0  0
M  END
$$$$
