4ca8_ligand
  -I-interpret- 

 89 93  0  0  0  0  0  0  0  0999 V2000
   25.0690   -1.4040  -44.7990 C   0  0  0  0  0
   24.1390   -1.2400  -44.0070 O   0  0  0  0  0
   24.9020   -2.2720  -45.8310 O   0  0  0  0  0
   24.8230   -1.7660  -47.1390 C   0  0  0  0  0
   24.7530   -2.8320  -48.0470 C   0  0  0  0  0
   25.4400   -2.7530  -49.2630 C   0  0  0  0  0
   25.3680   -3.7980  -50.1840 C   0  0  0  0  0
   24.6110   -4.9280  -49.8940 C   0  0  0  0  0
   23.9340   -5.0110  -48.6790 C   0  0  0  0  0
   23.9970   -3.9650  -47.7590 C   0  0  0  0  0
   25.2640    2.1410  -44.3550 O   0  0  0  0  0
   26.5480    1.8000  -43.7470 P   0  0  0  0  0
   27.8170    2.0910  -44.4230 O   0  0  0  0  0
   26.4710   -0.0120  -43.3530 C   0  0  0  0  0
   26.2470   -0.8190  -44.5730 N   0  0  0  0  0
   27.7490   -0.5050  -42.6920 C   0  0  0  0  0
   27.5890   -1.8840  -42.4340 C   0  0  0  0  0
   26.9010   -2.3280  -41.3050 C   0  0  0  0  0
   26.7500   -3.6920  -41.0690 C   0  0  0  0  0
   27.2680   -4.6330  -41.9500 C   0  0  0  0  0
   27.9580   -4.2050  -43.0800 C   0  0  0  0  0
   28.1130   -2.8410  -43.3140 C   0  0  0  0  0
   26.6190    4.9370  -43.0960 C   0  0  0  0  0
   26.8170    6.4720  -42.9010 C   0  0  0  0  0
   27.3380    7.1280  -41.8690 C   0  0  0  0  0
   26.5030    7.3900  -43.8690 O   0  0  0  0  0
   26.8610    8.6940  -43.3860 N   0  0  0  0  0
   27.3560    8.4430  -42.1760 C   0  0  0  0  0
   27.8240    9.4100  -41.3890 C   0  0  0  0  0
   28.8010    9.1230  -40.4240 C   0  0  0  0  0
   29.2920   10.1450  -39.6160 C   0  0  0  0  0
   28.8250   11.4490  -39.7820 C   0  0  0  0  0
   27.8700   11.7410  -40.7570 C   0  0  0  0  0
   27.3720   10.7250  -41.5710 C   0  0  0  0  0
   26.6050    2.6580  -42.0120 C   0  0  0  0  0
   27.2860    4.0640  -42.0320 C   0  0  0  0  0
   28.8240    3.8680  -42.2150 C   0  0  0  0  0
   29.3430    2.7790  -41.9460 O   0  0  0  0  0
   29.5510    4.9320  -42.6270 N   0  0  0  0  0
   31.0320    4.8470  -42.7030 C   0  0  0  0  0
   31.5710    4.8990  -41.2490 C   0  0  0  0  0
   32.7860    4.6950  -41.0750 O   0  0  0  0  0
   31.7620    5.9550  -43.4280 C   0  0  0  0  0
   30.9940    6.9690  -44.0410 C   0  0  0  0  0
   31.0220    8.2820  -43.5560 C   0  0  0  0  0
   30.2880    6.6980  -45.2150 C   0  0  0  0  0
   30.3050    9.2940  -44.2030 C   0  0  0  0  0
   29.5720    7.6960  -45.8730 C   0  0  0  0  0
   29.5900    8.9950  -45.3680 C   0  0  0  0  0
   28.8980    9.9580  -46.0250 O   0  0  0  0  0
   30.7500    5.1760  -40.3530 O   0  0  0  0  0
   25.7072   -1.1648  -47.3508 H   0  0  0  0  0
   23.9319   -1.1458  -47.2362 H   0  0  0  0  0
   26.0354   -1.8692  -49.4922 H   0  0  0  0  0
   25.9046   -3.7290  -51.1303 H   0  0  0  0  0
   24.5476   -5.7444  -50.6134 H   0  0  0  0  0
   23.3501   -5.9013  -48.4456 H   0  0  0  0  0
   23.4551   -4.0343  -46.8158 H   0  0  0  0  0
   28.5463    1.7965  -43.8726 H   0  0  0  0  0
   25.6353   -0.1343  -42.6640 H   0  0  0  0  0
   27.0023   -0.9295  -45.2495 H   0  0  0  0  0
   27.9321    0.0375  -41.7645 H   0  0  0  0  0
   28.6053   -0.3363  -43.3450 H   0  0  0  0  0
   26.4804   -1.6055  -40.6056 H   0  0  0  0  0
   26.2170   -4.0267  -40.1790 H   0  0  0  0  0
   27.1350   -5.6976  -41.7577 H   0  0  0  0  0
   28.3743   -4.9322  -43.7771 H   0  0  0  0  0
   28.6536   -2.5103  -44.2008 H   0  0  0  0  0
   27.0767    4.6776  -44.0506 H   0  0  0  0  0
   25.5476    4.7460  -43.0359 H   0  0  0  0  0
   27.6891    6.6827  -40.9382 H   0  0  0  0  0
   29.1737    8.1054  -40.3074 H   0  0  0  0  0
   30.0406    9.9264  -38.8544 H   0  0  0  0  0
   29.2089   12.2460  -39.1453 H   0  0  0  0  0
   27.5136   12.7635  -40.8819 H   0  0  0  0  0
   26.6367   10.9509  -42.3433 H   0  0  0  0  0
   27.1915    2.0200  -41.3509 H   0  0  0  0  0
   25.5755    2.7980  -41.6825 H   0  0  0  0  0
   27.1530    4.5985  -41.0914 H   0  0  0  0  0
   29.0791    5.7981  -42.8871 H   0  0  0  0  0
   31.2172    3.9332  -43.2676 H   0  0  0  0  0
   32.2938    5.4641  -44.2431 H   0  0  0  0  0
   32.3493    6.4619  -42.6623 H   0  0  0  0  0
   31.6072    8.5176  -42.6671 H   0  0  0  0  0
   30.2972    5.6877  -45.6240 H   0  0  0  0  0
   30.3033   10.3078  -43.8026 H   0  0  0  0  0
   29.0036    7.4632  -46.7735 H   0  0  0  0  0
   28.4723    9.5752  -46.7956 H   0  0  0  0  0
   29.8790    5.2860  -40.7415 H   0  0  0  0  0
  1  2  2  0  0  0
  1  3  1  0  0  0
 15  1  1  0  0  0
  3  4  1  0  0  0
  4  5  1  0  0  0
  5  6  4  0  0  0
  5 10  4  0  0  0
  6  7  4  0  0  0
  7  8  4  0  0  0
  9  8  4  0  0  0
 10  9  4  0  0  0
 12 11  2  0  0  0
 12 13  1  0  0  0
 12 14  1  0  0  0
 35 12  1  0  0  0
 14 15  1  0  0  0
 14 16  1  0  0  0
 16 17  1  0  0  0
 17 18  4  0  0  0
 17 22  4  0  0  0
 18 19  4  0  0  0
 19 20  4  0  0  0
 21 20  4  0  0  0
 22 21  4  0  0  0
 23 24  1  0  0  0
 36 23  1  0  0  0
 24 25  4  0  0  0
 24 26  4  0  0  0
 25 28  4  0  0  0
 26 27  4  0  0  0
 27 28  4  0  0  0
 28 29  1  0  0  0
 29 30  4  0  0  0
 29 34  4  0  0  0
 30 31  4  0  0  0
 31 32  4  0  0  0
 33 32  4  0  0  0
 34 33  4  0  0  0
 35 36  1  0  0  0
 36 37  1  0  0  0
 37 38  2  0  0  0
 37 39  1  0  0  0
 39 40  1  0  0  0
 40 41  1  0  0  0
 40 43  1  0  0  0
 41 42  2  0  0  0
 41 51  1  0  0  0
 43 44  1  0  0  0
 44 45  4  0  0  0
 44 46  4  0  0  0
 45 47  4  0  0  0
 46 48  4  0  0  0
 47 49  4  0  0  0
 48 49  4  0  0  0
 49 50  1  0  0  0
  4 52  1  0  0  0
  4 53  1  0  0  0
  6 54  1  0  0  0
  7 55  1  0  0  0
  8 56  1  0  0  0
  9 57  1  0  0  0
 10 58  1  0  0  0
 13 59  1  0  0  0
 14 60  1  0  0  0
 15 61  1  0  0  0
 16 62  1  0  0  0
 16 63  1  0  0  0
 18 64  1  0  0  0
 19 65  1  0  0  0
 20 66  1  0  0  0
 21 67  1  0  0  0
 22 68  1  0  0  0
 23 69  1  0  0  0
 23 70  1  0  0  0
 25 71  1  0  0  0
 30 72  1  0  0  0
 31 73  1  0  0  0
 32 74  1  0  0  0
 33 75  1  0  0  0
 34 76  1  0  0  0
 35 77  1  0  0  0
 35 78  1  0  0  0
 36 79  1  0  0  0
 39 80  1  0  0  0
 40 81  1  0  0  0
 43 82  1  0  0  0
 43 83  1  0  0  0
 45 84  1  0  0  0
 46 85  1  0  0  0
 47 86  1  0  0  0
 48 87  1  0  0  0
 50 88  1  0  0  0
 51 89  1  0  0  0
M  END
$$$$
