6d55_ligand
  -I-interpret- 

 68 73  0  0  0  0  0  0  0  0999 V2000
   36.9590   28.6180   26.7860 N   0  0  0  0  0
   35.8510   28.0030   21.5120 N   0  0  0  0  0
   39.4120   28.6100   26.5080 C   0  0  0  0  0
   35.6950   28.9220   26.2940 C   0  0  0  0  0
   34.6540   29.3960   27.1280 C   0  0  0  0  0
   33.4330   29.6370   26.5750 C   0  0  0  0  0
   33.0240   29.5050   25.3160 C   0  0  0  0  0
   35.3450   28.7500   24.9510 C   0  0  0  0  0
   36.5540   26.7980   19.9970 C   0  0  0  0  0
   37.1310   27.2940   18.6170 C   0  0  0  0  0
   32.8780   28.7140   22.2880 C   0  0  0  0  0
   33.3110   32.2960   21.0120 C   0  0  0  0  0
   34.0390   33.5840   21.3430 C   0  0  0  0  0
   32.4730   32.2330   19.9180 C   0  0  0  0  0
   30.8090   31.1070   18.4440 C   0  0  0  0  0
   39.5730   28.5650   27.9810 N   0  3  0  0  0
   40.8750   27.8970   28.3280 C   0  0  0  0  0
   38.4400   27.8310   28.6370 C   0  0  0  0  0
   35.4050   28.2660   22.8400 C   0  0  0  0  0
   37.1620   27.3310   21.2930 C   0  0  0  0  0
   36.7340   25.3320   19.5760 C   0  0  0  0  0
   35.1200   27.2570   20.4340 C   0  0  0  0  0
   32.8050   29.9500   21.4490 C   0  0  0  0  0
   33.5110   31.1600   21.7920 C   0  0  0  0  0
   37.0710   28.5440   28.2870 C   0  0  0  0  0
   31.7740   31.0650   19.6070 C   0  0  0  0  0
   31.9310   29.9300   20.3510 C   0  0  0  0  0
   38.0670   29.3140   26.1770 C   0  0  0  0  0
   34.0660   29.0120   24.4830 C   0  0  0  0  0
   32.2810   33.2890   19.1220 F   0  0  0  0  0
   36.2110   28.2750   23.9250 N   0  0  0  0  0
   37.1460   25.8400   18.1620 N   0  3  0  0  0
   34.0690   28.6820   23.1180 N   0  0  0  0  0
   32.1380   30.1700   27.6950 Cl  0  0  0  0  0
   39.4100   27.5976   26.1040 H   0  0  0  0  0
   40.2392   29.1616   26.0612 H   0  0  0  0  0
   34.8262   29.5646   28.1910 H   0  0  0  0  0
   32.0192   29.7440   24.9676 H   0  0  0  0  0
   38.0294   27.9093   18.5695 H   0  0  0  0  0
   36.6209   28.0619   18.0355 H   0  0  0  0  0
   32.9075   27.8529   21.6203 H   0  0  0  0  0
   32.0077   28.6983   22.9441 H   0  0  0  0  0
   34.6794   33.8632   20.5063 H   0  0  0  0  0
   33.3112   34.3748   21.5249 H   0  0  0  0  0
   34.6480   33.4367   22.2350 H   0  0  0  0  0
   30.0410   31.8558   18.6377 H   0  0  0  0  0
   31.3499   31.3664   17.5339 H   0  0  0  0  0
   30.3428   30.1290   18.3249 H   0  0  0  0  0
   39.5706   29.5244   28.3273 H   0  0  0  0  0
   41.0118   27.9103   29.4093 H   0  0  0  0  0
   40.8582   26.8658   27.9752 H   0  0  0  0  0
   41.6953   28.4325   27.8501 H   0  0  0  0  0
   38.5839   27.8344   29.7174 H   0  0  0  0  0
   38.4161   26.8035   28.2740 H   0  0  0  0  0
   37.6114   26.6747   22.0382 H   0  0  0  0  0
   38.1059   27.8758   21.3123 H   0  0  0  0  0
   35.9285   24.6084   19.7007 H   0  0  0  0  0
   37.3790   24.6598   20.1418 H   0  0  0  0  0
   34.4088   27.7283   19.7556 H   0  0  0  0  0
   34.3034   26.5631   20.6334 H   0  0  0  0  0
   34.1883   31.1847   22.6457 H   0  0  0  0  0
   36.2348   27.9805   28.7010 H   0  0  0  0  0
   37.0454   29.5450   28.7176 H   0  0  0  0  0
   31.3852   29.0217   20.0955 H   0  0  0  0  0
   38.0986   30.3317   26.5660 H   0  0  0  0  0
   37.9287   29.3158   25.0958 H   0  0  0  0  0
   37.9942   25.4681   17.7347 H   0  0  0  0  0
   36.5775   25.5711   17.3589 H   0  0  0  0  0
  4  1  1  0  0  0
  1 25  1  0  0  0
  1 28  1  0  0  0
 19  2  1  0  0  0
  2 20  1  0  0  0
  2 22  1  0  0  0
  3 16  1  0  0  0
 28  3  1  0  0  0
  4  5  4  0  0  0
  8  4  4  0  0  0
  5  6  4  0  0  0
  7  6  4  0  0  0
  6 34  1  0  0  0
 29  7  4  0  0  0
  8 29  4  0  0  0
 31  8  4  0  0  0
  9 10  1  0  0  0
 20  9  1  0  0  0
  9 21  1  0  0  0
 22  9  1  0  0  0
 10 32  1  0  0  0
 23 11  1  0  0  0
 11 33  1  0  0  0
 12 13  1  0  0  0
 12 14  4  0  0  0
 24 12  4  0  0  0
 14 26  4  0  0  0
 14 30  1  0  0  0
 26 15  1  0  0  0
 16 17  1  0  0  0
 18 16  1  0  0  0
 25 18  1  0  0  0
 19 31  4  0  0  0
 33 19  4  0  0  0
 21 32  1  0  0  0
 23 24  4  0  0  0
 23 27  4  0  0  0
 26 27  4  0  0  0
 29 33  4  0  0  0
  3 35  1  0  0  0
  3 36  1  0  0  0
  5 37  1  0  0  0
  7 38  1  0  0  0
 10 39  1  0  0  0
 10 40  1  0  0  0
 11 41  1  0  0  0
 11 42  1  0  0  0
 13 43  1  0  0  0
 13 44  1  0  0  0
 13 45  1  0  0  0
 15 46  1  0  0  0
 15 47  1  0  0  0
 15 48  1  0  0  0
 16 49  1  0  0  0
 17 50  1  0  0  0
 17 51  1  0  0  0
 17 52  1  0  0  0
 18 53  1  0  0  0
 18 54  1  0  0  0
 20 55  1  0  0  0
 20 56  1  0  0  0
 21 57  1  0  0  0
 21 58  1  0  0  0
 22 59  1  0  0  0
 22 60  1  0  0  0
 24 61  1  0  0  0
 25 62  1  0  0  0
 25 63  1  0  0  0
 27 64  1  0  0  0
 28 65  1  0  0  0
 28 66  1  0  0  0
 32 67  1  0  0  0
 32 68  1  0  0  0
M  END
$$$$
