5fdg_ligand
  -I-interpret- 

 56 58  0  0  0  0  0  0  0  0999 V2000
   -1.4230   30.0490   20.7240 Cl  0  0  0  0  0
   -1.5490   30.9820   19.2830 C   0  0  0  0  0
   -1.3810   30.3540   18.0590 C   0  0  0  0  0
   -1.4860   31.0900   16.8860 C   0  0  0  0  0
   -1.8140   32.3490   19.3290 C   0  0  0  0  0
   -1.9140   33.0820   18.1470 C   0  0  0  0  0
   -1.7550   32.4580   16.9070 C   0  0  0  0  0
   -1.8270   33.1690   15.6860 C   0  0  0  0  0
   -0.7470   34.2270   15.6990 C   0  0  0  0  0
   -1.2560   35.1720   14.5270 C   0  0  0  0  0
   -0.3250   36.5000   14.3080 C   0  0  0  0  0
    0.3050   33.2150   15.1820 C   0  0  0  0  0
    0.2060   32.7420   13.8920 O   0  0  0  0  0
    1.3140   32.5520   16.1260 C   0  0  0  0  0
    2.3160   31.5540   15.5520 C   0  0  0  0  0
    2.2390   31.0580   14.4250 O   0  0  0  0  0
    3.2410   30.9980   16.6250 C   0  0  0  0  0
    3.1930   31.5240   17.7560 O   0  0  0  0  0
    4.1290   30.1580   16.3530 O   0  0  0  0  0
   -0.3230   35.3740   16.3950 C   0  0  0  0  0
    1.0490   35.7590   15.5430 C   0  0  0  0  0
    0.9510   36.0320   14.0470 N   0  3  0  0  0
    2.3440   36.4270   13.7310 C   0  0  0  0  0
    3.3640   35.4900   13.9090 C   0  0  0  0  0
    4.2890   35.7240   14.9360 C   0  0  0  0  0
    5.3470   34.8580   15.1970 C   0  0  0  0  0
    5.5020   33.7400   14.3960 C   0  0  0  0  0
    4.5840   33.5170   13.3690 C   0  0  0  0  0
    3.5160   34.3750   13.1000 C   0  0  0  0  0
   -1.1672   29.2860   18.0171 H   0  0  0  0  0
   -1.3552   30.5872   15.9278 H   0  0  0  0  0
   -1.9433   32.8462   20.2903 H   0  0  0  0  0
   -2.1181   34.1518   18.1908 H   0  0  0  0  0
   -2.8076   33.6323   15.5765 H   0  0  0  0  0
   -1.6805   32.4908   14.8454 H   0  0  0  0  0
   -2.2564   35.5135   14.7927 H   0  0  0  0  0
   -1.2248   34.5941   13.6033 H   0  0  0  0  0
   -0.3379   37.1411   15.1894 H   0  0  0  0  0
   -0.6970   37.1120   13.4863 H   0  0  0  0  0
    0.9609   34.0804   15.0876 H   0  0  0  0  0
    0.9243   32.1284   13.7213 H   0  0  0  0  0
    0.7086   31.9734   16.8238 H   0  0  0  0  0
    1.9214   33.3718   16.5096 H   0  0  0  0  0
    4.0181   29.8585   15.4477 H   0  0  0  0  0
   -0.1543   35.2111   17.4595 H   0  0  0  0  0
   -1.0640   36.1727   16.4290 H   0  0  0  0  0
    1.6812   34.8746   15.6221 H   0  0  0  0  0
    1.3876   36.7009   15.9746 H   0  0  0  0  0
    0.8711   35.6189   13.1178 H   0  0  0  0  0
    2.5749   37.2326   14.4280 H   0  0  0  0  0
    2.3415   36.6433   12.6627 H   0  0  0  0  0
    4.1757   36.6160   15.5522 H   0  0  0  0  0
    6.0392   35.0562   16.0153 H   0  0  0  0  0
    6.3259   33.0465   14.5643 H   0  0  0  0  0
    4.7066   32.6304   12.7469 H   0  0  0  0  0
    2.8249   34.1747   12.2812 H   0  0  0  0  0
  1  2  1  0  0  0
  2  3  4  0  0  0
  2  5  4  0  0  0
  3  4  4  0  0  0
  4  7  4  0  0  0
  5  6  4  0  0  0
  6  7  4  0  0  0
  7  8  1  0  0  0
  8  9  1  0  0  0
  9 10  1  0  0  0
  9 12  1  0  0  0
  9 20  1  0  0  0
 10 11  1  0  0  0
 11 22  1  0  0  0
 12 13  1  0  0  0
 12 14  1  0  0  0
 14 15  1  0  0  0
 15 16  2  0  0  0
 15 17  1  0  0  0
 17 18  2  0  0  0
 17 19  1  0  0  0
 20 21  1  0  0  0
 21 22  1  0  0  0
 22 23  1  0  0  0
 23 24  1  0  0  0
 24 25  4  0  0  0
 24 29  4  0  0  0
 25 26  4  0  0  0
 26 27  4  0  0  0
 27 28  4  0  0  0
 28 29  4  0  0  0
  3 30  1  0  0  0
  4 31  1  0  0  0
  5 32  1  0  0  0
  6 33  1  0  0  0
  8 34  1  0  0  0
  8 35  1  0  0  0
 10 36  1  0  0  0
 10 37  1  0  0  0
 11 38  1  0  0  0
 11 39  1  0  0  0
 12 40  1  0  0  0
 13 41  1  0  0  0
 14 42  1  0  0  0
 14 43  1  0  0  0
 19 44  1  0  0  0
 20 45  1  0  0  0
 20 46  1  0  0  0
 21 47  1  0  0  0
 21 48  1  0  0  0
 22 49  1  0  0  0
 23 50  1  0  0  0
 23 51  1  0  0  0
 25 52  1  0  0  0
 26 53  1  0  0  0
 27 54  1  0  0  0
 28 55  1  0  0  0
 29 56  1  0  0  0
M  END
$$$$
