4mr6_ligand
  -I-interpret- 

 49 51  0  0  0  0  0  0  0  0999 V2000
   -7.5970   45.7380   38.6640 O   0  0  0  0  0
   -8.3790   46.9340   38.7580 C   0  0  0  0  0
   -7.5560   44.8380   39.7210 C   0  0  0  0  0
   -6.7870   43.7010   39.6000 C   0  0  0  0  0
   -6.6870   42.8180   40.7080 C   0  0  0  0  0
   -8.1000   42.6380   44.1230 N   0  0  0  0  0
   -5.4150   41.2530   39.3210 C   0  0  0  0  0
   -5.9360   41.7010   40.6110 O   0  0  0  0  0
   -7.3830   43.1060   41.8930 C   0  0  0  0  0
  -11.6250   45.0390   48.9500 O   0  0  0  0  0
   -8.9760   44.5320   43.0780 N   0  0  0  0  0
   -7.2840   42.2630   43.0750 C   0  0  0  0  0
   -8.8960   43.7270   44.0950 C   0  0  0  0  0
  -12.8400   44.6750   51.3310 O   0  0  0  0  0
   -6.5360   41.3030   43.2840 O   0  0  0  0  0
   -9.6670   44.0170   45.3480 C   0  0  0  0  0
   -9.8750   43.0640   46.3510 C   0  0  0  0  0
  -10.5510   43.3820   47.5480 C   0  0  0  0  0
  -10.6660   42.3180   48.6060 C   0  0  0  0  0
  -11.0100   44.6780   47.7190 C   0  0  0  0  0
  -12.9430   44.6260   48.9530 C   0  0  0  0  0
  -13.5370   45.2960   50.2470 C   0  0  0  0  0
  -10.8160   45.6350   46.7450 C   0  0  0  0  0
  -11.2540   47.0750   46.9670 C   0  0  0  0  0
  -10.1450   45.3170   45.5490 C   0  0  0  0  0
   -8.1970   44.2640   41.9580 C   0  0  0  0  0
   -8.2790   45.1540   40.8750 C   0  0  0  0  0
   -9.4251   46.6712   38.9155 H   0  0  0  0  0
   -8.0237   47.5340   39.5958 H   0  0  0  0  0
   -8.2814   47.5040   37.8340 H   0  0  0  0  0
   -6.2639   43.4828   38.6690 H   0  0  0  0  0
   -8.1014   42.0608   44.9640 H   0  0  0  0  0
   -6.2458   41.0600   38.6423 H   0  0  0  0  0
   -4.7733   42.0276   38.9009 H   0  0  0  0  0
   -4.8387   40.3385   39.4611 H   0  0  0  0  0
  -13.1541   45.0386   52.1621 H   0  0  0  0  0
   -9.5051   42.0493   46.2039 H   0  0  0  0  0
  -11.2017   41.4600   48.1999 H   0  0  0  0  0
   -9.6686   42.0100   48.9196 H   0  0  0  0  0
  -11.2107   42.7161   49.4621 H   0  0  0  0  0
  -13.0399   43.5404   48.9634 H   0  0  0  0  0
  -13.4748   44.9216   48.0486 H   0  0  0  0  0
  -13.4017   46.3776   50.2433 H   0  0  0  0  0
  -14.6149   45.1517   50.3211 H   0  0  0  0  0
  -12.3294   47.1034   47.1423 H   0  0  0  0  0
  -10.7325   47.4826   47.8330 H   0  0  0  0  0
  -11.0127   47.6670   46.0842 H   0  0  0  0  0
   -9.9985   46.0791   44.7836 H   0  0  0  0  0
   -8.8845   46.0586   40.9320 H   0  0  0  0  0
  1  2  1  0  0  0
  3  1  1  0  0  0
  4  3  4  0  0  0
  3 27  4  0  0  0
  5  4  4  0  0  0
  5  8  1  0  0  0
  9  5  4  0  0  0
  6 12  1  0  0  0
 13  6  1  0  0  0
  8  7  1  0  0  0
 12  9  1  0  0  0
 26  9  4  0  0  0
 10 20  1  0  0  0
 21 10  1  0  0  0
 13 11  2  0  0  0
 11 26  1  0  0  0
 12 15  2  0  0  0
 16 13  1  0  0  0
 22 14  1  0  0  0
 17 16  4  0  0  0
 16 25  4  0  0  0
 18 17  4  0  0  0
 18 19  1  0  0  0
 20 18  4  0  0  0
 20 23  4  0  0  0
 21 22  1  0  0  0
 23 24  1  0  0  0
 23 25  4  0  0  0
 26 27  4  0  0  0
  2 28  1  0  0  0
  2 29  1  0  0  0
  2 30  1  0  0  0
  4 31  1  0  0  0
  6 32  1  0  0  0
  7 33  1  0  0  0
  7 34  1  0  0  0
  7 35  1  0  0  0
 14 36  1  0  0  0
 17 37  1  0  0  0
 19 38  1  0  0  0
 19 39  1  0  0  0
 19 40  1  0  0  0
 21 41  1  0  0  0
 21 42  1  0  0  0
 22 43  1  0  0  0
 22 44  1  0  0  0
 24 45  1  0  0  0
 24 46  1  0  0  0
 24 47  1  0  0  0
 25 48  1  0  0  0
 27 49  1  0  0  0
M  END
$$$$
