4tnw_ligand
  -I-interpret- 

 54 53  0  0  0  0  0  0  0  0999 V2000
  -52.9820  -14.9140   29.8170 N   0  3  0  0  0
  -49.3710  -14.3420   33.0790 P   0  0  0  0  0
  -47.2420  -15.4650   31.9850 C   0  0  0  0  0
  -45.9260  -16.1510   32.3490 C   0  0  0  0  0
  -45.2990  -16.7270   31.0850 C   0  0  0  0  0
  -51.6760  -14.8250   31.8910 C   0  0  0  0  0
  -48.0560  -15.2730   33.1410 O   0  0  0  0  0
  -52.2940  -15.7270   30.8280 C   0  0  0  0  0
  -50.2880  -15.1270   32.0140 O   0  0  0  0  0
  -52.0670  -13.9000   29.2720 C   0  0  0  0  0
  -50.0700  -14.4120   34.4160 O   0  0  0  0  0
  -53.4470  -15.7830   28.7260 C   0  0  0  0  0
  -48.9950  -12.9970   32.5080 O   0  0  0  0  0
  -54.1300  -14.2520   30.4450 C   0  0  0  0  0
  -45.4160  -16.9880   34.5240 C   0  0  0  0  0
  -46.1190  -17.2220   33.2720 O   0  0  0  0  0
  -44.2020  -17.8120   34.8810 C   0  0  0  0  0
  -45.8280  -16.1380   35.2940 O   0  0  0  0  0
  -43.2720  -16.9710   35.7480 C   0  0  0  0  0
  -42.2050  -17.8310   36.4150 C   0  0  0  0  0
  -41.3850  -18.6050   35.3900 C   0  0  0  0  0
  -40.3980  -19.5400   36.0790 C   0  0  0  0  0
  -43.9320  -17.0450   31.3420 O   0  0  0  0  0
  -47.7814  -16.0961   31.2786 H   0  0  0  0  0
  -47.0195  -14.4913   31.5486 H   0  0  0  0  0
  -45.2822  -15.4032   32.8120 H   0  0  0  0  0
  -45.3589  -15.9941   30.2804 H   0  0  0  0  0
  -45.8349  -17.6289   30.7892 H   0  0  0  0  0
  -52.1727  -14.9930   32.8466 H   0  0  0  0  0
  -51.7987  -13.7814   31.6012 H   0  0  0  0  0
  -51.5057  -16.3059   30.3467 H   0  0  0  0  0
  -53.0133  -16.3963   31.2999 H   0  0  0  0  0
  -51.7231  -13.2520   30.0782 H   0  0  0  0  0
  -51.2116  -14.3943   28.8115 H   0  0  0  0  0
  -52.5904  -13.3047   28.5238 H   0  0  0  0  0
  -50.2401  -15.3301   34.6392 H   0  0  0  0  0
  -52.5916  -16.2829   28.2717 H   0  0  0  0  0
  -54.1352  -16.5282   29.1250 H   0  0  0  0  0
  -53.9577  -15.1799   27.9754 H   0  0  0  0  0
  -54.8111  -15.0058   30.8400 H   0  0  0  0  0
  -53.7806  -13.6147   31.2574 H   0  0  0  0  0
  -54.6486  -13.6451   29.7028 H   0  0  0  0  0
  -43.6832  -18.1167   33.9721 H   0  0  0  0  0
  -44.5095  -18.7035   35.4277 H   0  0  0  0  0
  -43.8648  -16.4897   36.5258 H   0  0  0  0  0
  -42.7773  -16.2360   35.1131 H   0  0  0  0  0
  -42.7006  -18.5471   37.0705 H   0  0  0  0  0
  -41.5328  -17.1763   36.9697 H   0  0  0  0  0
  -40.8278  -17.8955   34.7782 H   0  0  0  0  0
  -42.0615  -19.1995   34.7759 H   0  0  0  0  0
  -39.7208  -18.9560   36.7023 H   0  0  0  0  0
  -40.9447  -20.2496   36.7001 H   0  0  0  0  0
  -39.8251  -20.0807   35.3256 H   0  0  0  0  0
  -43.5342  -17.4082   30.5473 H   0  0  0  0  0
  8  1  1  0  0  0
  1 10  1  0  0  0
  1 12  1  0  0  0
  1 14  1  0  0  0
  2  7  1  0  0  0
  9  2  1  0  0  0
  2 11  1  0  0  0
  2 13  2  0  0  0
  3  4  1  0  0  0
  7  3  1  0  0  0
  4  5  1  0  0  0
  4 16  1  0  0  0
  5 23  1  0  0  0
  6  8  1  0  0  0
  6  9  1  0  0  0
 16 15  1  0  0  0
 15 17  1  0  0  0
 15 18  2  0  0  0
 17 19  1  0  0  0
 19 20  1  0  0  0
 20 21  1  0  0  0
 21 22  1  0  0  0
  3 24  1  0  0  0
  3 25  1  0  0  0
  4 26  1  0  0  0
  5 27  1  0  0  0
  5 28  1  0  0  0
  6 29  1  0  0  0
  6 30  1  0  0  0
  8 31  1  0  0  0
  8 32  1  0  0  0
 10 33  1  0  0  0
 10 34  1  0  0  0
 10 35  1  0  0  0
 11 36  1  0  0  0
 12 37  1  0  0  0
 12 38  1  0  0  0
 12 39  1  0  0  0
 14 40  1  0  0  0
 14 41  1  0  0  0
 14 42  1  0  0  0
 17 43  1  0  0  0
 17 44  1  0  0  0
 19 45  1  0  0  0
 19 46  1  0  0  0
 20 47  1  0  0  0
 20 48  1  0  0  0
 21 49  1  0  0  0
 21 50  1  0  0  0
 22 51  1  0  0  0
 22 52  1  0  0  0
 22 53  1  0  0  0
 23 54  1  0  0  0
M  END
$$$$
