### 
### Created by X-TOOL on Mon Sep 10 21:13:20 2018
### 

@<TRIPOS>MOLECULE
4tnw_ligand
   53    52     1     0     0
SMALL
GAST_HUCK


@<TRIPOS>ATOM
      1 N         -52.9820  -14.9140   29.8170 N.4       1 POV         0.2388
      2 P         -49.3710  -14.3420   33.0790 P.3       1 POV         0.2554
      3 C1        -47.2420  -15.4650   31.9850 C.3       1 POV         0.1164
      4 C2        -45.9260  -16.1510   32.3490 C.3       1 POV         0.1387
      5 C3        -45.2990  -16.7270   31.0850 C.3       1 POV         0.0774
      6 C11       -51.6760  -14.8250   31.8910 C.3       1 POV         0.1234
      7 O11       -48.0560  -15.2730   33.1410 O.3       1 POV        -0.2511
      8 C12       -52.2940  -15.7270   30.8280 C.3       1 POV        -0.0017
      9 O12       -50.2880  -15.1270   32.0140 O.3       1 POV        -0.2488
     10 C13       -52.0670  -13.9000   29.2720 C.3       1 POV        -0.0417
     11 O13       -50.0700  -14.4120   34.4160 O.co2     1 POV        -0.6177
     12 C14       -53.4470  -15.7830   28.7260 C.3       1 POV        -0.0417
     13 O14       -48.9950  -12.9970   32.5080 O.co2     1 POV        -0.6177
     14 C15       -54.1300  -14.2520   30.4450 C.3       1 POV        -0.0417
     15 C21       -45.4160  -16.9880   34.5240 C.2       1 POV         0.2341
     16 O21       -46.1190  -17.2220   33.2720 O.3       1 POV        -0.2685
     17 C22       -44.2020  -17.8120   34.8810 C.3       1 POV         0.0487
     18 O22       -45.8280  -16.1380   35.2940 O.2       1 POV        -0.3704
     19 C23       -43.2720  -16.9710   35.7480 C.3       1 POV        -0.0348
     20 C24       -42.2050  -17.8310   36.4150 C.3       1 POV        -0.0511
     21 C25       -41.3850  -18.6050   35.3900 C.3       1 POV        -0.0558
     22 C26       -40.3980  -19.5400   36.0790 C.3       1 POV        -0.0653
     23 O31       -43.9320  -17.0450   31.3420 O.3       1 POV        -0.3920
     24 H         -47.7859  -16.0908   31.2622 H         1 POV         0.0651
     25 H         -47.0242  -14.4865   31.5320 H         1 POV         0.0651
     26 H         -45.2479  -15.4085   32.7949 H         1 POV         0.0700
     27 H         -45.3581  -15.9858   30.2744 H         1 POV         0.0587
     28 H         -45.8392  -17.6383   30.7888 H         1 POV         0.0587
     29 H         -52.1765  -14.9967   32.8553 H         1 POV         0.0674
     30 H         -51.7986  -13.7723   31.5966 H         1 POV         0.0674
     31 H         -51.5008  -16.3156   30.3439 H         1 POV         0.0841
     32 H         -53.0171  -16.4066   31.3026 H         1 POV         0.0841
     33 H         -52.5941  -13.2986   28.5168 H         1 POV         0.0778
     34 H         -51.2033  -14.3976   28.8069 H         1 POV         0.0778
     35 H         -51.7192  -13.2453   30.0846 H         1 POV         0.0778
     36 H         -54.1320  -16.5433   29.1294 H         1 POV         0.0778
     37 H         -52.5834  -16.2787   28.2586 H         1 POV         0.0778
     38 H         -53.9736  -15.1773   27.9738 H         1 POV         0.0778
     39 H         -53.7780  -13.6030   31.2604 H         1 POV         0.0778
     40 H         -54.8146  -15.0115   30.8504 H         1 POV         0.0778
     41 H         -54.6584  -13.6448   29.6953 H         1 POV         0.0778
     42 H         -43.6776  -18.1141   33.9625 H         1 POV         0.0518
     43 H         -44.5145  -18.7084   35.4366 H         1 POV         0.0518
     44 H         -43.8651  -16.4688   36.5265 H         1 POV         0.0291
     45 H         -42.7802  -16.2158   35.1173 H         1 POV         0.0291
     46 H         -42.6950  -18.5455   37.0928 H         1 POV         0.0267
     47 H         -41.5319  -17.1803   36.9924 H         1 POV         0.0267
     48 H         -40.8290  -17.8936   34.7618 H         1 POV         0.0263
     49 H         -42.0635  -19.1984   34.7595 H         1 POV         0.0263
     50 H         -39.8192  -20.0863   35.3196 H         1 POV         0.0230
     51 H         -40.9485  -20.2567   36.7061 H         1 POV         0.0230
     52 H         -39.7139  -18.9519   36.7084 H         1 POV         0.0230
     53 H         -43.4675  -16.2570   31.5982 H         1 POV         0.2095
@<TRIPOS>BOND
     1    8    1 1  
     2    1   10 1  
     3    1   12 1  
     4    1   14 1  
     5    2    7 1  
     6    9    2 1  
     7    2   11 ar 
     8    2   13 ar 
     9    3    4 1  
    10    7    3 1  
    11    4    5 1  
    12    4   16 1  
    13    5   23 1  
    14    6    8 1  
    15    6    9 1  
    16   16   15 1  
    17   15   17 1  
    18   15   18 2  
    19   17   19 1  
    20   19   20 1  
    21   20   21 1  
    22   21   22 1  
    23    3   24 1  
    24    3   25 1  
    25    4   26 1  
    26    5   27 1  
    27    5   28 1  
    28    6   29 1  
    29    6   30 1  
    30    8   31 1  
    31    8   32 1  
    32   10   33 1  
    33   10   34 1  
    34   10   35 1  
    35   12   36 1  
    36   12   37 1  
    37   12   38 1  
    38   14   39 1  
    39   14   40 1  
    40   14   41 1  
    41   17   42 1  
    42   17   43 1  
    43   19   44 1  
    44   19   45 1  
    45   20   46 1  
    46   20   47 1  
    47   21   48 1  
    48   21   49 1  
    49   22   50 1  
    50   22   51 1  
    51   22   52 1  
    52   23   53 1  
@<TRIPOS>SUBSTRUCTURE
     1 POV         1

