1d3p_ligand
  -I-interpret- 

 78 83  0  0  0  0  0  0  0  0999 V2000
  -23.9940  -30.7750   24.3250 C   0  0  0  0  0
  -24.3270  -32.0090   23.5060 C   0  0  0  0  0
  -23.4380  -32.3890   22.3880 C   0  0  0  0  0
  -22.2370  -31.5650   22.0390 C   0  0  0  0  0
  -21.9300  -30.3610   22.8010 C   0  0  0  0  0
  -22.7970  -29.9500   23.9710 C   0  0  0  0  0
  -23.4720  -33.7660   21.3860 S   0  0  0  0  0
  -22.0890  -33.3730   20.4860 C   0  0  0  0  0
  -21.4850  -32.1650   20.9830 C   0  0  0  0  0
  -20.0220  -31.7720   20.6760 C   0  0  0  0  0
  -21.5670  -34.2480   19.4080 C   0  0  0  0  0
  -20.9210  -33.7190   18.1810 C   0  0  0  0  0
  -20.2840  -34.6560   17.1910 C   0  0  0  0  0
  -20.4120  -36.1460   17.5260 C   0  0  0  0  0
  -21.0100  -36.6180   18.7200 N   0  0  0  0  0
  -21.5800  -35.7130   19.6340 C   0  0  0  0  0
  -20.2720  -36.9910   16.5030 O   0  0  0  0  0
  -19.2670  -38.0560   16.8160 C   0  0  0  0  0
  -18.9900  -33.8760   22.0940 C   0  0  0  0  0
  -18.8250  -32.6320   21.2430 C   0  0  0  0  0
  -17.4020  -32.2260   20.9170 C   0  0  0  0  0
  -16.2300  -33.0930   21.3540 C   0  0  0  0  0
  -16.4900  -34.3800   22.0930 C   0  0  0  0  0
  -17.8510  -34.7010   22.5430 C   0  0  0  0  0
  -15.4370  -35.2690   22.1850 O   0  0  0  0  0
  -15.2970  -36.3530   23.1420 C   0  0  0  0  0
  -13.3210  -33.9030   26.1030 C   0  0  0  0  0
  -14.3200  -34.1770   27.1840 C   0  0  0  0  0
  -15.1360  -35.4110   26.7880 C   0  0  0  0  0
  -14.5280  -35.7720   25.4690 N   0  3  0  0  0
  -13.7400  -34.6460   24.8620 C   0  0  0  0  0
  -18.3920  -37.5470   13.8330 C   0  0  0  0  0
  -17.7740  -38.3120   14.9930 N   0  3  0  0  0
  -16.5970  -39.1690   14.5220 C   0  0  0  0  0
  -16.1140  -38.3340   13.3300 C   0  0  0  0  0
  -17.1020  -37.1810   13.1160 C   0  0  0  0  0
  -15.6990  -36.0210   24.5810 C   0  0  0  0  0
  -19.0660  -38.8860   15.5360 C   0  0  0  0  0
  -24.6930  -30.4970   25.4850 O   0  0  0  0  0
  -25.2087  -32.6060   23.7390 H   0  0  0  0  0
  -21.0690  -29.7518   22.5258 H   0  0  0  0  0
  -22.5516  -29.0604   24.5511 H   0  0  0  0  0
  -19.9007  -30.7980   21.1500 H   0  0  0  0  0
  -19.9378  -31.8753   19.5942 H   0  0  0  0  0
  -20.9079  -32.6449   17.9959 H   0  0  0  0  0
  -19.7682  -34.3004   16.2990 H   0  0  0  0  0
  -22.0469  -36.1022   20.5388 H   0  0  0  0  0
  -19.6201  -38.6881   17.6307 H   0  0  0  0  0
  -18.3247  -37.6112   17.1358 H   0  0  0  0  0
  -19.9961  -34.1750   22.3879 H   0  0  0  0  0
  -17.2161  -31.3049   20.3646 H   0  0  0  0  0
  -15.2081  -32.7845   21.1336 H   0  0  0  0  0
  -18.0199  -35.5479   23.2081 H   0  0  0  0  0
  -14.2376  -36.6082   23.1677 H   0  0  0  0  0
  -15.9651  -37.1475   22.8095 H   0  0  0  0  0
  -12.3321  -34.2356   26.4186 H   0  0  0  0  0
  -13.2793  -32.8331   25.8987 H   0  0  0  0  0
  -13.8069  -34.3570   28.1287 H   0  0  0  0  0
  -14.9796  -33.3182   27.3082 H   0  0  0  0  0
  -15.0876  -36.2157   27.5217 H   0  0  0  0  0
  -16.2080  -35.2217   26.7331 H   0  0  0  0  0
  -13.8898  -36.5596   25.5822 H   0  0  0  0  0
  -14.3023  -34.0421   24.1498 H   0  0  0  0  0
  -12.9093  -34.9708   24.2355 H   0  0  0  0  0
  -19.0314  -36.7086   14.1092 H   0  0  0  0  0
  -19.1203  -38.0995   13.2393 H   0  0  0  0  0
  -17.2575  -37.8527   15.7431 H   0  0  0  0  0
  -16.8616  -40.1965   14.2723 H   0  0  0  0  0
  -15.8373  -39.3455   15.2835 H   0  0  0  0  0
  -15.1176  -37.9397   13.5297 H   0  0  0  0  0
  -16.0647  -38.9544   12.4351 H   0  0  0  0  0
  -16.6952  -36.2511   13.5134 H   0  0  0  0  0
  -17.2864  -37.0289   12.0525 H   0  0  0  0  0
  -16.2428  -36.8771   24.9802 H   0  0  0  0  0
  -16.2978  -35.1105   24.5573 H   0  0  0  0  0
  -19.8995  -38.8135   14.8374 H   0  0  0  0  0
  -19.0200  -39.9596   15.7187 H   0  0  0  0  0
  -25.4276  -31.1093   25.5692 H   0  0  0  0  0
  1 39  1  0  0  0
  1  6  4  0  0  0
  1  2  4  0  0  0
  2  3  4  0  0  0
  3  7  4  0  0  0
  3  4  4  0  0  0
  4  9  4  0  0  0
  4  5  4  0  0  0
  5  6  4  0  0  0
  9 10  1  0  0  0
  9  8  4  0  0  0
  8 11  1  0  0  0
  8  7  4  0  0  0
 11 16  4  0  0  0
 11 12  4  0  0  0
 12 13  4  0  0  0
 13 14  4  0  0  0
 14 17  1  0  0  0
 14 15  4  0  0  0
 15 16  4  0  0  0
 17 18  1  0  0  0
 18 38  1  0  0  0
 38 33  1  0  0  0
 33 34  1  0  0  0
 33 32  1  0  0  0
 32 36  1  0  0  0
 36 35  1  0  0  0
 35 34  1  0  0  0
 10 20  1  0  0  0
 20 19  4  0  0  0
 20 21  4  0  0  0
 21 22  4  0  0  0
 22 23  4  0  0  0
 23 25  1  0  0  0
 23 24  4  0  0  0
 24 19  4  0  0  0
 25 26  1  0  0  0
 26 37  1  0  0  0
 37 30  1  0  0  0
 30 31  1  0  0  0
 30 29  1  0  0  0
 29 28  1  0  0  0
 28 27  1  0  0  0
 27 31  1  0  0  0
  2 40  1  0  0  0
  5 41  1  0  0  0
  6 42  1  0  0  0
 10 43  1  0  0  0
 10 44  1  0  0  0
 12 45  1  0  0  0
 13 46  1  0  0  0
 16 47  1  0  0  0
 18 48  1  0  0  0
 18 49  1  0  0  0
 19 50  1  0  0  0
 21 51  1  0  0  0
 22 52  1  0  0  0
 24 53  1  0  0  0
 26 54  1  0  0  0
 26 55  1  0  0  0
 27 56  1  0  0  0
 27 57  1  0  0  0
 28 58  1  0  0  0
 28 59  1  0  0  0
 29 60  1  0  0  0
 29 61  1  0  0  0
 30 62  1  0  0  0
 31 63  1  0  0  0
 31 64  1  0  0  0
 32 65  1  0  0  0
 32 66  1  0  0  0
 33 67  1  0  0  0
 34 68  1  0  0  0
 34 69  1  0  0  0
 35 70  1  0  0  0
 35 71  1  0  0  0
 36 72  1  0  0  0
 36 73  1  0  0  0
 37 74  1  0  0  0
 37 75  1  0  0  0
 38 76  1  0  0  0
 38 77  1  0  0  0
 39 78  1  0  0  0
M  END
$$$$
