4oon_ligand
  -I-interpret- 

 70 72  0  0  0  0  0  0  0  0999 V2000
  -41.1270   12.5730   -4.6300 C   0  0  0  0  0
  -41.8990   10.4710   -2.9010 C   0  0  0  0  0
  -33.6450   10.9610    7.7630 C   0  0  0  0  0
  -40.2220   12.0620   -3.6930 C   0  0  0  0  0
  -40.6000   10.9850   -2.8360 C   0  0  0  0  0
  -42.4280   12.0620   -4.6770 C   0  0  0  0  0
  -42.8130   11.0120   -3.8180 C   0  0  0  0  0
  -34.9980   10.9640    7.6530 C   0  0  0  0  0
  -34.8900   11.9780    9.6460 C   0  0  0  0  0
  -38.8010   12.3400   -3.3830 C   0  0  0  0  0
  -39.3870   10.6310   -2.0540 C   0  0  0  0  0
  -32.9440   10.4360    2.9570 C   0  0  0  0  0
  -35.7430   10.4150    6.4840 C   0  0  0  0  0
  -35.3190   11.9900   -0.0630 C   0  0  0  0  0
  -34.9500    9.6720    5.4840 C   0  0  0  0  0
  -34.2640   12.8680   -0.5840 C   0  0  0  0  0
  -36.4820   10.0460   -2.1510 C   0  0  0  0  0
  -40.0960   10.4370    5.8640 C   0  0  0  0  0
  -39.4630   10.0960    3.4780 C   0  0  0  0  0
  -38.8500   12.2100    4.5370 C   0  0  0  0  0
  -36.7790   12.0190   -0.4990 C   0  0  0  0  0
  -34.8090    9.1050    1.9450 C   0  0  0  0  0
  -34.0600    9.4720    3.2300 C   0  0  0  0  0
  -36.9890   11.4440   -1.9140 C   0  0  0  0  0
  -39.0210   10.7070    4.8120 C   0  0  0  0  0
  -35.6260   11.5120    8.6890 N   0  0  0  0  0
  -37.0320   10.6250    6.3180 N   0  0  0  0  0
  -34.8740   11.1610    0.8110 N   0  0  0  0  0
  -38.3750   11.4730   -2.4230 N   0  0  0  0  0
  -35.3970   12.5750   10.7850 N   0  0  0  0  0
  -34.9120   10.1200    4.2180 N   0  0  0  0  0
  -34.4150   14.0760   -0.6280 O   0  0  0  0  0
  -36.4830    9.2060   -1.2550 O   0  0  0  0  0
  -40.0450    9.3960    6.5190 O   0  0  0  0  0
  -38.1500   13.2400   -3.8970 O   0  0  0  0  0
  -39.3430    9.7320   -1.2200 O   0  0  0  0  0
  -33.0560   11.6040    3.2440 O   0  0  0  0  0
  -34.3180    8.6960    5.8460 O   0  0  0  0  0
  -33.1960   12.3620   -0.9200 O   0  0  0  0  0
  -36.1440    9.7590   -3.2910 O   0  0  0  0  0
  -41.0220   11.2290    6.0740 O   0  0  0  0  0
  -43.3250   12.5870   -5.5540 O   0  0  0  0  0
  -44.0790   10.5140   -3.8700 O   0  0  0  0  0
  -35.6290   10.1820    1.4880 O   0  0  0  0  0
  -37.7530   10.1050    5.1890 O   0  0  0  0  0
  -33.1880   11.7210    9.2860 S   0  0  0  0  0
  -40.8208   13.3620   -5.3169 H   0  0  0  0  0
  -42.1996    9.6553   -2.2435 H   0  0  0  0  0
  -32.9519   10.5536    7.0269 H   0  0  0  0  0
  -32.0233   10.0793    2.4953 H   0  0  0  0  0
  -39.5977    9.0211    3.5990 H   0  0  0  0  0
  -40.4044   10.5487    3.1667 H   0  0  0  0  0
  -38.7002   10.2851    2.7227 H   0  0  0  0  0
  -39.7924   12.6214    4.1754 H   0  0  0  0  0
  -38.5608   12.7160    5.4581 H   0  0  0  0  0
  -38.0760   12.3544    3.7832 H   0  0  0  0  0
  -37.1048   13.0591   -0.5087 H   0  0  0  0  0
  -37.3490   11.4061    0.1993 H   0  0  0  0  0
  -35.4502    8.2484    2.1529 H   0  0  0  0  0
  -34.0752    8.8788    1.1714 H   0  0  0  0  0
  -33.6904    8.5212    3.6141 H   0  0  0  0  0
  -36.3720   12.1539   -2.4649 H   0  0  0  0  0
  -36.4055   12.6679   10.9064 H   0  0  0  0  0
  -34.7626   12.9227   11.5041 H   0  0  0  0  0
  -35.4839   10.9198    3.9466 H   0  0  0  0  0
  -36.7757    9.6133   -0.4364 H   0  0  0  0  0
  -33.2507   11.4084   -0.8239 H   0  0  0  0  0
  -40.9302   11.9880    5.4935 H   0  0  0  0  0
  -44.1647   12.1308   -5.4627 H   0  0  0  0  0
  -44.5791   10.9838   -4.5414 H   0  0  0  0  0
  4  1  4  0  0  0
  1  6  4  0  0  0
  5  2  4  0  0  0
  2  7  4  0  0  0
  8  3  4  0  0  0
  3 46  4  0  0  0
  5  4  4  0  0  0
 10  4  1  0  0  0
 11  5  1  0  0  0
  7  6  4  0  0  0
  6 42  1  0  0  0
  7 43  1  0  0  0
 13  8  1  0  0  0
  8 26  4  0  0  0
 26  9  4  0  0  0
  9 30  1  0  0  0
  9 46  4  0  0  0
 29 10  1  0  0  0
 10 35  2  0  0  0
 29 11  1  0  0  0
 11 36  2  0  0  0
 23 12  1  0  0  0
 12 37  2  0  0  0
 15 13  1  0  0  0
 13 27  2  0  0  0
 14 16  1  0  0  0
 14 21  1  0  0  0
 28 14  2  0  0  0
 31 15  1  0  0  0
 15 38  2  0  0  0
 16 32  2  0  0  0
 16 39  1  0  0  0
 24 17  1  0  0  0
 17 33  1  0  0  0
 17 40  2  0  0  0
 25 18  1  0  0  0
 18 34  2  0  0  0
 18 41  1  0  0  0
 25 19  1  0  0  0
 25 20  1  0  0  0
 21 24  1  0  0  0
 22 23  1  0  0  0
 44 22  1  0  0  0
 23 31  1  0  0  0
 24 29  1  0  0  0
 45 25  1  0  0  0
 27 45  1  0  0  0
 28 44  1  0  0  0
  1 47  1  0  0  0
  2 48  1  0  0  0
  3 49  1  0  0  0
 12 50  1  0  0  0
 19 51  1  0  0  0
 19 52  1  0  0  0
 19 53  1  0  0  0
 20 54  1  0  0  0
 20 55  1  0  0  0
 20 56  1  0  0  0
 21 57  1  0  0  0
 21 58  1  0  0  0
 22 59  1  0  0  0
 22 60  1  0  0  0
 23 61  1  0  0  0
 24 62  1  0  0  0
 30 63  1  0  0  0
 30 64  1  0  0  0
 31 65  1  0  0  0
 33 66  1  0  0  0
 39 67  1  0  0  0
 41 68  1  0  0  0
 42 69  1  0  0  0
 43 70  1  0  0  0
M  END
$$$$
