1q6t_ligand
  -I-interpret- 

100106  0  0  0  0  0  0  0  0999 V2000
   37.3040   50.6450   55.7380 C   0  0  0  0  0
   38.6670   50.4010   55.3650 C   0  0  0  0  0
   39.0250   49.2260   54.6430 C   0  0  0  0  0
   38.0140   48.2280   54.2720 C   0  0  0  0  0
   36.6320   48.5110   54.6900 C   0  0  0  0  0
   36.2860   49.7040   55.4060 C   0  0  0  0  0
   36.8800   47.4460   50.1430 C   0  0  0  0  0
   37.6890   48.1590   51.1120 C   0  0  0  0  0
   37.4480   49.5860   51.2740 C   0  0  0  0  0
   36.4410   50.2540   50.5020 C   0  0  0  0  0
   35.6470   49.4950   49.5430 C   0  0  0  0  0
   35.8920   48.0900   49.3840 C   0  0  0  0  0
   38.1420   43.6260   52.8000 C   0  0  0  0  0
   37.1240   44.6020   52.4910 C   0  0  0  0  0
   36.1600   44.2730   51.4770 C   0  0  0  0  0
   36.1990   43.0330   50.7970 C   0  0  0  0  0
   37.2020   42.0560   51.0960 C   0  0  0  0  0
   38.1740   42.3800   52.1140 C   0  0  0  0  0
   38.4060   46.9190   53.4430 C   0  0  0  0  0
   39.5590   46.2100   54.0950 N   0  0  0  0  0
   37.1360   45.9930   53.2770 C   0  0  0  0  0
   38.7600   47.4460   51.9640 C   0  0  0  0  0
   40.9200   44.8760   57.8840 C   0  0  0  0  0
   41.6110   44.7220   56.6380 C   0  0  0  0  0
   41.0400   45.2110   55.4750 C   0  0  0  0  0
   39.7360   45.8790   55.4800 C   0  0  0  0  0
   39.0480   46.0320   56.7270 C   0  0  0  0  0
   39.6380   45.5270   57.9350 C   0  0  0  0  0
   41.4070   45.2350   54.1750 N   0  0  0  0  0
   40.5860   45.8100   53.2850 N   0  0  0  0  0
   34.5550   50.1210   48.7430 C   0  0  0  0  0
   34.0850   51.2050   49.3970 F   0  0  0  0  0
   33.5590   49.2200   48.6220 F   0  0  0  0  0
   35.0940   50.6430   47.0590 P   0  0  0  0  0
   35.6380   49.4280   46.2800 O   0  0  0  0  0
   36.1580   51.6450   47.2360 O   0  0  0  0  0
   33.8310   51.2100   46.4060 O   0  0  0  0  0
   38.5790   40.0340   50.1320 C   0  0  0  0  0
   39.8150   36.7380   48.5030 C   0  0  0  0  0
   39.8350   38.0120   49.1610 C   0  0  0  0  0
   38.6110   38.7320   49.4690 C   0  0  0  0  0
   37.3210   38.0980   49.0760 C   0  0  0  0  0
   37.3700   36.8570   48.4450 N   0  0  0  0  0
   38.5150   36.1710   48.1510 C   0  0  0  0  0
   37.2860   40.6640   50.3870 C   0  0  0  0  0
   36.0690   40.0170   49.9930 C   0  0  0  0  0
   36.0640   38.7520   49.3490 C   0  0  0  0  0
   34.4530   38.0370   48.9140 P   0  0  0  0  0
   33.4450   39.1590   48.7060 O   0  0  0  0  0
   33.9700   37.1750   49.9840 O   0  0  0  0  0
   34.5960   37.2630   47.5800 O   0  0  0  0  0
   38.7920   35.7210   45.4280 C   0  0  0  0  0
   38.4930   34.7740   46.2060 O   0  0  0  0  0
   38.3450   34.9320   47.4800 C   0  0  0  0  0
   39.0750   34.0460   48.4990 C   0  0  0  0  0
   39.4330   33.5860   49.8670 C   0  0  0  0  0
   38.4120   33.2000   50.9290 C   0  0  0  0  0
   40.4320   32.4330   49.6680 C   0  0  0  0  0
   37.0449   51.5554   56.2786 H   0  0  0  0  0
   39.4376   51.1224   55.6368 H   0  0  0  0  0
   40.0658   49.0655   54.3617 H   0  0  0  0  0
   35.8485   47.7928   54.4483 H   0  0  0  0  0
   35.2515   49.8902   55.6945 H   0  0  0  0  0
   37.0445   46.3780   50.0001 H   0  0  0  0  0
   38.0407   50.1537   51.9913 H   0  0  0  0  0
   36.2701   51.3227   50.6313 H   0  0  0  0  0
   35.3044   47.5176   48.6662 H   0  0  0  0  0
   38.8896   43.8448   53.5625 H   0  0  0  0  0
   35.3822   44.9943   51.2265 H   0  0  0  0  0
   35.4526   42.8177   50.0323 H   0  0  0  0  0
   38.9486   41.6544   52.3620 H   0  0  0  0  0
   36.9329   45.6857   54.3029 H   0  0  0  0  0
   36.4715   46.6107   52.6729 H   0  0  0  0  0
   39.5255   48.2052   52.1247 H   0  0  0  0  0
   38.9908   46.5401   51.4035 H   0  0  0  0  0
   41.3698   44.4965   58.8015 H   0  0  0  0  0
   42.5797   44.2232   56.6059 H   0  0  0  0  0
   38.0792   46.5304   56.7590 H   0  0  0  0  0
   39.1169   45.6364   58.8861 H   0  0  0  0  0
   34.9379   48.7806   46.1695 H   0  0  0  0  0
   33.1771   50.5127   46.3178 H   0  0  0  0  0
   39.5042   40.5266   50.4311 H   0  0  0  0  0
   40.7400   36.2094   48.2728 H   0  0  0  0  0
   40.7933   38.4517   49.4373 H   0  0  0  0  0
   35.1186   40.5114   50.1940 H   0  0  0  0  0
   33.7508   39.7360   48.0024 H   0  0  0  0  0
   34.9153   37.8588   46.8983 H   0  0  0  0  0
   38.0217   36.4903   45.4813 H   0  0  0  0  0
   39.7514   36.1445   45.7251 H   0  0  0  0  0
   38.8604   35.3435   44.4077 H   0  0  0  0  0
   37.3080   34.6785   47.2598 H   0  0  0  0  0
   40.0120   34.5899   48.3797 H   0  0  0  0  0
   38.3939   33.2101   48.3392 H   0  0  0  0  0
   39.7808   34.5072   50.3345 H   0  0  0  0  0
   37.7693   34.0545   51.1408 H   0  0  0  0  0
   37.8067   32.3700   50.5646 H   0  0  0  0  0
   38.9318   32.9003   51.8390 H   0  0  0  0  0
   39.9575   31.6381   49.0927 H   0  0  0  0  0
   41.3063   32.8002   49.1304 H   0  0  0  0  0
   40.7375   32.0468   50.6404 H   0  0  0  0  0
  2  1  4  0  0  0
  6  1  4  0  0  0
  3  2  4  0  0  0
  4  3  4  0  0  0
  4  5  4  0  0  0
 19  4  1  0  0  0
  5  6  4  0  0  0
  8  7  4  0  0  0
  7 12  4  0  0  0
  8  9  4  0  0  0
 22  8  1  0  0  0
  9 10  4  0  0  0
 10 11  4  0  0  0
 12 11  4  0  0  0
 11 31  1  0  0  0
 13 14  4  0  0  0
 18 13  4  0  0  0
 15 14  4  0  0  0
 14 21  1  0  0  0
 16 15  4  0  0  0
 17 16  4  0  0  0
 17 18  4  0  0  0
 45 17  1  0  0  0
 19 20  1  0  0  0
 21 19  1  0  0  0
 19 22  1  0  0  0
 20 26  4  0  0  0
 20 30  4  0  0  0
 24 23  4  0  0  0
 28 23  4  0  0  0
 25 24  4  0  0  0
 26 25  4  0  0  0
 29 25  4  0  0  0
 26 27  4  0  0  0
 27 28  4  0  0  0
 30 29  4  0  0  0
 31 32  1  0  0  0
 31 33  1  0  0  0
 31 34  1  0  0  0
 34 35  1  0  0  0
 34 36  2  0  0  0
 34 37  1  0  0  0
 41 38  4  0  0  0
 38 45  4  0  0  0
 39 40  4  0  0  0
 44 39  4  0  0  0
 40 41  4  0  0  0
 42 41  4  0  0  0
 43 42  4  0  0  0
 42 47  4  0  0  0
 44 43  4  0  0  0
 54 44  1  0  0  0
 46 45  4  0  0  0
 47 46  4  0  0  0
 47 48  1  0  0  0
 48 49  1  0  0  0
 48 50  2  0  0  0
 48 51  1  0  0  0
 53 52  1  0  0  0
 53 54  1  0  0  0
 54 55  1  0  0  0
 55 56  1  0  0  0
 56 57  1  0  0  0
 56 58  1  0  0  0
  1 59  1  0  0  0
  2 60  1  0  0  0
  3 61  1  0  0  0
  5 62  1  0  0  0
  6 63  1  0  0  0
  7 64  1  0  0  0
  9 65  1  0  0  0
 10 66  1  0  0  0
 12 67  1  0  0  0
 13 68  1  0  0  0
 15 69  1  0  0  0
 16 70  1  0  0  0
 18 71  1  0  0  0
 21 72  1  0  0  0
 21 73  1  0  0  0
 22 74  1  0  0  0
 22 75  1  0  0  0
 23 76  1  0  0  0
 24 77  1  0  0  0
 27 78  1  0  0  0
 28 79  1  0  0  0
 35 80  1  0  0  0
 37 81  1  0  0  0
 38 82  1  0  0  0
 39 83  1  0  0  0
 40 84  1  0  0  0
 46 85  1  0  0  0
 49 86  1  0  0  0
 51 87  1  0  0  0
 52 88  1  0  0  0
 52 89  1  0  0  0
 52 90  1  0  0  0
 54 91  1  0  0  0
 55 92  1  0  0  0
 55 93  1  0  0  0
 56 94  1  0  0  0
 57 95  1  0  0  0
 57 96  1  0  0  0
 57 97  1  0  0  0
 58 98  1  0  0  0
 58 99  1  0  0  0
 58100  1  0  0  0
M  END
$$$$
