### 
### Created by X-TOOL on Mon Sep 10 21:12:50 2018
### 

@<TRIPOS>MOLECULE
1q6t_ligand
   96   102     1     0     0
SMALL
GAST_HUCK


@<TRIPOS>ATOM
      1 C1         37.3040   50.6450   55.7380 C.ar      1 600        -0.0340
      2 C2         38.6670   50.4010   55.3650 C.ar      1 600        -0.0323
      3 C3         39.0250   49.2260   54.6430 C.ar      1 600        -0.0362
      4 C4         38.0140   48.2280   54.2720 C.ar      1 600        -0.0104
      5 C5         36.6320   48.5110   54.6900 C.ar      1 600        -0.0362
      6 C6         36.2860   49.7040   55.4060 C.ar      1 600        -0.0323
      7 C10        36.8800   47.4460   50.1430 C.ar      1 600        -0.0289
      8 C11        37.6890   48.1590   51.1120 C.ar      1 600        -0.0160
      9 C12        37.4480   49.5860   51.2740 C.ar      1 600        -0.0289
     10 C13        36.4410   50.2540   50.5020 C.ar      1 600        -0.0385
     11 C14        35.6470   49.4950   49.5430 C.ar      1 600         0.0219
     12 C15        35.8920   48.0900   49.3840 C.ar      1 600        -0.0385
     13 C20        38.1420   43.6260   52.8000 C.ar      1 600        -0.0435
     14 C21        37.1240   44.6020   52.4910 C.ar      1 600        -0.0296
     15 C22        36.1600   44.2730   51.4770 C.ar      1 600        -0.0435
     16 C23        36.1990   43.0330   50.7970 C.ar      1 600        -0.0419
     17 C24        37.2020   42.0560   51.0960 C.ar      1 600         0.0066
     18 C25        38.1740   42.3800   52.1140 C.ar      1 600        -0.0419
     19 C30        38.4060   46.9190   53.4430 C.3       1 600         0.1140
     20 N31        39.5590   46.2100   54.0950 N.pl3     1 600        -0.1787
     21 C32        37.1360   45.9930   53.2770 C.3       1 600         0.0038
     22 C35        38.7600   47.4460   51.9640 C.3       1 600         0.0102
     23 C40        40.9200   44.8760   57.8840 C.ar      1 600        -0.0707
     24 C41        41.6110   44.7220   56.6380 C.ar      1 600        -0.0506
     25 C42        41.0400   45.2110   55.4750 C.ar      1 600         0.0753
     26 C43        39.7360   45.8790   55.4800 C.ar      1 600         0.1061
     27 C44        39.0480   46.0320   56.7270 C.ar      1 600        -0.0323
     28 C45        39.6380   45.5270   57.9350 C.ar      1 600        -0.0695
     29 N46        41.4070   45.2350   54.1750 N.2       1 600        -0.2001
     30 N47        40.5860   45.8100   53.2850 N.2       1 600        -0.0826
     31 C52        34.5550   50.1210   48.7430 C.3       1 600         0.2931
     32 F53        34.0850   51.2050   49.3970 F         1 600        -0.2419
     33 F54        33.5590   49.2200   48.6220 F         1 600        -0.2419
     34 P55        35.0940   50.6430   47.0590 P.3       1 600         0.0966
     35 O56        35.6380   49.4280   46.2800 O.co2     1 600        -0.5668
     36 O57        36.1580   51.6450   47.2360 O.co2     1 600        -0.5668
     37 O58        33.8310   51.2100   46.4060 O.co2     1 600        -0.5668
     38 C61        38.5790   40.0340   50.1320 C.ar      1 600        -0.0051
     39 C62        39.8150   36.7380   48.5030 C.ar      1 600        -0.0097
     40 C63        39.8350   38.0120   49.1610 C.ar      1 600        -0.0201
     41 C64        38.6110   38.7320   49.4690 C.ar      1 600         0.0368
     42 C65        37.3210   38.0980   49.0760 C.ar      1 600         0.0817
     43 N66        37.3700   36.8570   48.4450 N.ar      1 600        -0.2694
     44 C67        38.5150   36.1710   48.1510 C.ar      1 600         0.0758
     45 C68        37.2860   40.6640   50.3870 C.ar      1 600         0.0239
     46 C69        36.0690   40.0170   49.9930 C.ar      1 600        -0.0102
     47 C70        36.0640   38.7520   49.3490 C.ar      1 600         0.0530
     48 P79        34.4530   38.0370   48.9140 P.3       1 600        -0.0233
     49 O80        33.4450   39.1590   48.7060 O.co2     1 600        -0.6789
     50 O81        33.9700   37.1750   49.9840 O.co2     1 600        -0.6789
     51 O82        34.5960   37.2630   47.5800 O.co2     1 600        -0.6789
     52 C76        38.7920   35.7210   45.4280 C.3       1 600         0.0404
     53 O77        38.4930   34.7740   46.2060 O.3       1 600        -0.3614
     54 C71        38.3450   34.9320   47.4800 C.3       1 600         0.1159
     55 C72        39.0750   34.0460   48.4990 C.3       1 600        -0.0092
     56 C73        39.4330   33.5860   49.8670 C.3       1 600        -0.0419
     57 C74        38.4120   33.2000   50.9290 C.3       1 600        -0.0624
     58 C75        40.4320   32.4330   49.6680 C.3       1 600        -0.0624
     59 H1         37.0463   51.5503   56.2756 H         1 600         0.0856
     60 H2         39.4334   51.1184   55.6353 H         1 600         0.0698
     61 H3         40.0600   49.0664   54.3632 H         1 600         0.0851
     62 H4         35.8528   47.7968   54.4496 H         1 600         0.0851
     63 H5         35.2572   49.8892   55.6929 H         1 600         0.0698
     64 H6         37.0436   46.3839   50.0009 H         1 600         0.0652
     65 H7         38.0374   50.1505   51.9874 H         1 600         0.0652
     66 H8         36.2710   51.3169   50.6306 H         1 600         0.0835
     67 H9         35.3076   47.5208   48.6702 H         1 600         0.0835
     68 H10        38.8855   43.8436   53.5583 H         1 600         0.0618
     69 H11        35.3864   44.9904   51.2279 H         1 600         0.0618
     70 H12        35.4568   42.8189   50.0365 H         1 600         0.0695
     71 H13        38.9444   41.6584   52.3606 H         1 600         0.0695
     72 H14        36.8070   45.7571   54.2998 H         1 600         0.0413
     73 H15        36.3776   46.6179   52.7828 H         1 600         0.0413
     74 H16        39.5978   48.1505   52.0721 H         1 600         0.0439
     75 H17        39.0901   46.5694   51.3872 H         1 600         0.0439
     76 H18        41.3673   44.4985   58.7964 H         1 600         0.0540
     77 H19        42.5743   44.2260   56.6061 H         1 600         0.0596
     78 H20        38.0845   46.5277   56.7588 H         1 600         0.0566
     79 H21        39.1198   45.6358   58.8809 H         1 600         0.0580
     80 H22        39.4991   40.5239   50.4295 H         1 600         0.0939
     81 H23        40.7349   36.2123   48.2740 H         1 600         0.0709
     82 H24        40.7881   38.4493   49.4358 H         1 600         0.0883
     83 H25        35.1238   40.5087   50.1929 H         1 600         0.0754
     84 H26        38.8613   35.3413   44.3979 H         1 600         0.0527
     85 H27        39.7601   36.1493   45.7268 H         1 600         0.0527
     86 H28        38.0153   36.4981   45.4808 H         1 600         0.0527
     87 H29        37.2777   34.6904   47.5918 H         1 600         0.0834
     88 H30        40.0982   34.2409   48.1454 H         1 600         0.0323
     89 H31        38.7316   33.0756   48.1112 H         1 600         0.0323
     90 H32        39.9790   34.4298   50.3140 H         1 600         0.0298
     91 H33        38.9354   32.8973   51.8479 H         1 600         0.0232
     92 H34        37.8005   32.3623   50.5625 H         1 600         0.0232
     93 H35        37.7627   34.0615   51.1438 H         1 600         0.0232
     94 H36        41.1683   32.7142   48.9006 H         1 600         0.0232
     95 H37        39.8915   31.5312   49.3445 H         1 600         0.0232
     96 H38        40.9506   32.2293   50.6165 H         1 600         0.0232
@<TRIPOS>BOND
     1    2    1 ar 
     2    6    1 ar 
     3    3    2 ar 
     4    4    3 ar 
     5    4    5 ar 
     6   19    4 1  
     7    5    6 ar 
     8    8    7 ar 
     9    7   12 ar 
    10    8    9 ar 
    11   22    8 1  
    12    9   10 ar 
    13   10   11 ar 
    14   12   11 ar 
    15   11   31 1  
    16   13   14 ar 
    17   18   13 ar 
    18   15   14 ar 
    19   14   21 1  
    20   16   15 ar 
    21   17   16 ar 
    22   17   18 ar 
    23   45   17 1  
    24   19   20 1  
    25   21   19 1  
    26   19   22 1  
    27   20   26 1  
    28   20   30 1  
    29   24   23 ar 
    30   28   23 ar 
    31   25   24 ar 
    32   26   25 ar 
    33   29   25 1  
    34   26   27 ar 
    35   27   28 ar 
    36   30   29 2  
    37   31   32 1  
    38   31   33 1  
    39   31   34 1  
    40   34   35 ar 
    41   34   36 ar 
    42   34   37 ar 
    43   41   38 ar 
    44   38   45 ar 
    45   39   40 ar 
    46   44   39 ar 
    47   40   41 ar 
    48   42   41 ar 
    49   43   42 ar 
    50   42   47 ar 
    51   44   43 ar 
    52   54   44 1  
    53   46   45 ar 
    54   47   46 ar 
    55   47   48 1  
    56   48   49 ar 
    57   48   50 ar 
    58   48   51 ar 
    59   53   52 1  
    60   53   54 1  
    61   54   55 1  
    62   55   56 1  
    63   56   57 1  
    64   56   58 1  
    65    1   59 1  
    66    2   60 1  
    67    3   61 1  
    68    5   62 1  
    69    6   63 1  
    70    7   64 1  
    71    9   65 1  
    72   10   66 1  
    73   12   67 1  
    74   13   68 1  
    75   15   69 1  
    76   16   70 1  
    77   18   71 1  
    78   21   72 1  
    79   21   73 1  
    80   22   74 1  
    81   22   75 1  
    82   23   76 1  
    83   24   77 1  
    84   27   78 1  
    85   28   79 1  
    86   38   80 1  
    87   39   81 1  
    88   40   82 1  
    89   46   83 1  
    90   52   84 1  
    91   52   85 1  
    92   52   86 1  
    93   54   87 1  
    94   55   88 1  
    95   55   89 1  
    96   56   90 1  
    97   57   91 1  
    98   57   92 1  
    99   57   93 1  
   100   58   94 1  
   101   58   95 1  
   102   58   96 1  
@<TRIPOS>SUBSTRUCTURE
     1 600         1

