4odm_ligand
  -I-interpret- 

116118  0  0  0  0  0  0  0  0999 V2000
   15.3750    7.1890   25.2530 N   0  3  0  0  0
   15.0960    7.6010   26.6250 C   0  0  0  0  0
   16.2690    7.3160   27.5540 C   0  0  0  0  0
   17.0050    6.3580   27.3530 O   0  0  0  0  0
   13.8490    6.8950   27.1650 C   0  0  0  0  0
   12.5420    7.4200   26.6060 C   0  0  0  0  0
   11.1140    6.4790   27.1840 S   0  0  0  0  0
   11.5400    4.8390   26.6110 C   0  0  0  0  0
   16.4280    8.1500   28.5780 N   0  0  0  0  0
   17.3950    7.8890   29.6400 C   0  0  0  0  0
   16.9020    6.7930   30.5910 C   0  0  0  0  0
   15.6920    6.5720   30.7130 O   0  0  0  0  0
   17.6480    9.1770   30.4270 C   0  0  0  0  0
   18.4690   10.1960   29.6740 C   0  0  0  0  0
   18.6260   11.4660   30.4940 C   0  0  0  0  0
   19.3740   12.5260   29.7040 C   0  0  0  0  0
   19.4420   13.8210   30.4450 N   0  3  0  0  0
   17.8310    6.1050   31.2910 N   0  0  0  0  0
   19.2970    6.2450   31.2640 C   0  0  0  0  0
   19.9050    5.8440   29.9250 C   0  0  0  0  0
   19.4940    4.8390   29.3360 O   0  0  0  0  0
   19.7690    5.2570   32.3420 C   0  0  0  0  0
   18.5880    5.0390   33.2220 C   0  0  0  0  0
   17.3950    5.1400   32.3160 C   0  0  0  0  0
   20.8710    6.6200   29.4430 N   0  0  0  0  0
   21.5330    6.2630   28.1970 C   0  0  0  0  0
   22.5340    5.1410   28.4380 C   0  0  0  0  0
   23.4940    5.2980   29.1820 O   0  0  0  0  0
   22.1960    7.4790   27.5440 C   0  0  0  0  0
   21.2120    8.4980   27.0430 C   0  0  0  0  0
   19.9770    8.0990   26.5620 C   0  0  0  0  0
   21.5110    9.8490   27.0690 C   0  0  0  0  0
   19.0580    9.0280   26.1100 C   0  0  0  0  0
   20.5980   10.7850   26.6190 C   0  0  0  0  0
   19.3710   10.3730   26.1390 C   0  0  0  0  0
   22.2610    4.0000   27.8180 N   0  0  0  0  0
   23.1280    2.8340   27.8590 C   0  0  0  0  0
   23.6790    2.6510   26.4540 C   0  0  0  0  0
   22.9130    2.4530   25.5050 O   0  0  0  0  0
   22.3350    1.5770   28.2590 C   0  0  0  0  0
   21.9080    1.6720   29.7230 C   0  0  0  0  0
   23.1490    0.3210   28.0180 C   0  0  0  0  0
   22.9830    2.2280   30.6250 C   0  0  0  0  0
   24.9990    2.7350   26.3160 N   0  0  0  0  0
   25.6200    2.7150   24.9930 C   0  0  0  0  0
   25.4990    1.3620   24.2890 C   0  0  0  0  0
   25.0030    1.2970   23.1610 O   0  0  0  0  0
   27.0790    3.1710   25.0690 C   0  0  0  0  0
   27.2340    4.6290   25.4000 C   0  0  0  0  0
   26.9500    5.5980   24.4510 C   0  0  0  0  0
   27.6610    5.0330   26.6550 C   0  0  0  0  0
   27.0830    6.9400   24.7470 C   0  0  0  0  0
   27.7960    6.3780   26.9560 C   0  0  0  0  0
   27.5090    7.3350   26.0010 C   0  0  0  0  0
   25.8980    0.3380   24.8500 O   0  0  0  0  0
   16.2082    7.6720   24.9170 H   0  0  0  0  0
   15.5309    6.1813   25.2269 H   0  0  0  0  0
   14.5802    7.4267   24.6596 H   0  0  0  0  0
   14.9260    8.6774   26.5990 H   0  0  0  0  0
   13.8271    7.0628   28.2418 H   0  0  0  0  0
   13.9234    5.8470   26.8747 H   0  0  0  0  0
   12.5829    7.3353   25.5201 H   0  0  0  0  0
   12.4232    8.4505   26.9408 H   0  0  0  0  0
   11.6460    4.8507   25.5262 H   0  0  0  0  0
   12.4809    4.5295   27.0660 H   0  0  0  0  0
   10.7517    4.1409   26.8928 H   0  0  0  0  0
   15.8586    8.9951   28.6224 H   0  0  0  0  0
   18.3207    7.5439   29.1795 H   0  0  0  0  0
   18.2056    8.9071   31.3238 H   0  0  0  0  0
   16.6778    9.6285   30.6343 H   0  0  0  0  0
   17.9619   10.4384   28.7401 H   0  0  0  0  0
   19.4562    9.7784   29.4762 H   0  0  0  0  0
   19.1914   11.2349   31.3968 H   0  0  0  0  0
   17.6365   11.8472   30.7462 H   0  0  0  0  0
   18.8438   12.6939   28.7666 H   0  0  0  0  0
   20.3913   12.1737   29.5338 H   0  0  0  0  0
   19.9499   14.5056   29.8848 H   0  0  0  0  0
   18.4964   14.1596   30.6229 H   0  0  0  0  0
   19.9260   13.6790   31.3316 H   0  0  0  0  0
   19.5961    7.2803   31.4280 H   0  0  0  0  0
   20.6181    5.6500   32.9013 H   0  0  0  0  0
   20.1194    4.3228   31.9032 H   0  0  0  0  0
   18.5451    5.7744   34.0254 H   0  0  0  0  0
   18.6324    4.0707   33.7206 H   0  0  0  0  0
   17.1064    4.1782   31.8921 H   0  0  0  0  0
   16.4950    5.4614   32.8402 H   0  0  0  0  0
   21.1475    7.4636   29.9453 H   0  0  0  0  0
   20.7777    5.9033   27.4982 H   0  0  0  0  0
   22.7646    7.1216   26.6855 H   0  0  0  0  0
   22.8131    7.9628   28.3011 H   0  0  0  0  0
   19.7256    7.0386   26.5392 H   0  0  0  0  0
   22.4779   10.1792   27.4488 H   0  0  0  0  0
   18.0897    8.7000   25.7320 H   0  0  0  0  0
   20.8467   11.8460   26.6432 H   0  0  0  0  0
   18.6497   11.1086   25.7831 H   0  0  0  0  0
   21.3948    3.9377   27.2830 H   0  0  0  0  0
   23.9215    2.9769   28.5925 H   0  0  0  0  0
   21.4424    1.5188   27.6361 H   0  0  0  0  0
   21.6808    0.6625   30.0656 H   0  0  0  0  0
   21.0543    2.3478   29.7735 H   0  0  0  0  0
   23.4040    0.2522   26.9605 H   0  0  0  0  0
   24.0624    0.3621   28.6114 H   0  0  0  0  0
   22.5638   -0.5512   28.3095 H   0  0  0  0  0
   23.8617    1.5846   30.5803 H   0  0  0  0  0
   23.2492    3.2321   30.2947 H   0  0  0  0  0
   22.6117    2.2675   31.6491 H   0  0  0  0  0
   25.5868    2.8146   27.1458 H   0  0  0  0  0
   25.0635    3.4243   24.3804 H   0  0  0  0  0
   24.7475    2.1767   22.8738 H   0  0  0  0  0
   27.5250    3.0082   24.0878 H   0  0  0  0  0
   27.5597    2.6013   25.8643 H   0  0  0  0  0
   26.6172    5.2968   23.4577 H   0  0  0  0  0
   27.8929    4.2846   27.4128 H   0  0  0  0  0
   26.8515    7.6895   23.9901 H   0  0  0  0  0
   28.1293    6.6825   27.9481 H   0  0  0  0  0
   27.6179    8.3939   26.2352 H   0  0  0  0  0
  1  2  1  0  0  0
  2  3  1  0  0  0
  2  5  1  0  0  0
  3  4  2  0  0  0
  3  9  1  0  0  0
  5  6  1  0  0  0
  6  7  1  0  0  0
  7  8  1  0  0  0
  9 10  1  0  0  0
 10 11  1  0  0  0
 10 13  1  0  0  0
 11 12  2  0  0  0
 11 18  1  0  0  0
 13 14  1  0  0  0
 14 15  1  0  0  0
 15 16  1  0  0  0
 16 17  1  0  0  0
 18 19  1  0  0  0
 18 24  1  0  0  0
 19 20  1  0  0  0
 19 22  1  0  0  0
 20 21  2  0  0  0
 20 25  1  0  0  0
 22 23  1  0  0  0
 23 24  1  0  0  0
 25 26  1  0  0  0
 26 27  1  0  0  0
 26 29  1  0  0  0
 27 28  2  0  0  0
 27 36  1  0  0  0
 29 30  1  0  0  0
 30 31  4  0  0  0
 30 32  4  0  0  0
 31 33  4  0  0  0
 32 34  4  0  0  0
 33 35  4  0  0  0
 34 35  4  0  0  0
 36 37  1  0  0  0
 37 38  1  0  0  0
 37 40  1  0  0  0
 38 39  2  0  0  0
 38 44  1  0  0  0
 40 41  1  0  0  0
 40 42  1  0  0  0
 41 43  1  0  0  0
 44 45  1  0  0  0
 45 46  1  0  0  0
 45 48  1  0  0  0
 46 47  1  0  0  0
 46 55  2  0  0  0
 48 49  1  0  0  0
 49 50  4  0  0  0
 49 51  4  0  0  0
 50 52  4  0  0  0
 51 53  4  0  0  0
 52 54  4  0  0  0
 53 54  4  0  0  0
  1 56  1  0  0  0
  1 57  1  0  0  0
  1 58  1  0  0  0
  2 59  1  0  0  0
  5 60  1  0  0  0
  5 61  1  0  0  0
  6 62  1  0  0  0
  6 63  1  0  0  0
  8 64  1  0  0  0
  8 65  1  0  0  0
  8 66  1  0  0  0
  9 67  1  0  0  0
 10 68  1  0  0  0
 13 69  1  0  0  0
 13 70  1  0  0  0
 14 71  1  0  0  0
 14 72  1  0  0  0
 15 73  1  0  0  0
 15 74  1  0  0  0
 16 75  1  0  0  0
 16 76  1  0  0  0
 17 77  1  0  0  0
 17 78  1  0  0  0
 17 79  1  0  0  0
 19 80  1  0  0  0
 22 81  1  0  0  0
 22 82  1  0  0  0
 23 83  1  0  0  0
 23 84  1  0  0  0
 24 85  1  0  0  0
 24 86  1  0  0  0
 25 87  1  0  0  0
 26 88  1  0  0  0
 29 89  1  0  0  0
 29 90  1  0  0  0
 31 91  1  0  0  0
 32 92  1  0  0  0
 33 93  1  0  0  0
 34 94  1  0  0  0
 35 95  1  0  0  0
 36 96  1  0  0  0
 37 97  1  0  0  0
 40 98  1  0  0  0
 41 99  1  0  0  0
 41100  1  0  0  0
 42101  1  0  0  0
 42102  1  0  0  0
 42103  1  0  0  0
 43104  1  0  0  0
 43105  1  0  0  0
 43106  1  0  0  0
 44107  1  0  0  0
 45108  1  0  0  0
 47109  1  0  0  0
 48110  1  0  0  0
 48111  1  0  0  0
 50112  1  0  0  0
 51113  1  0  0  0
 52114  1  0  0  0
 53115  1  0  0  0
 54116  1  0  0  0
M  END
$$$$
