### 
### Created by X-TOOL on Mon Sep 10 21:13:23 2018
### 

@<TRIPOS>MOLECULE
4odm_ligand
  115   117     1     0     0
SMALL
GAST_HUCK


@<TRIPOS>ATOM
      1 N          15.3750    7.1890   25.2530 N.4       1 MET         0.2379
      2 CA         15.0960    7.6010   26.6250 C.3       1 MET         0.0658
      3 C          16.2690    7.3160   27.5540 C.2       1 MET         0.2267
      4 O          17.0050    6.3580   27.3530 O.2       1 MET        -0.3907
      5 CB         13.8490    6.8950   27.1650 C.3       1 MET         0.0168
      6 CG         12.5420    7.4200   26.6060 C.3       1 MET         0.0007
      7 SD         11.1140    6.4790   27.1840 S.3       1 MET        -0.1638
      8 CE         11.5400    4.8390   26.6110 C.3       1 MET        -0.0181
      9 N          16.4280    8.1500   28.5780 N.am      1 LYS        -0.2610
     10 CA         17.3950    7.8890   29.6400 C.3       1 LYS         0.1313
     11 C          16.9020    6.7930   30.5910 C.2       1 LYS         0.2064
     12 O          15.6920    6.5720   30.7130 O.2       1 LYS        -0.3942
     13 CB         17.6480    9.1770   30.4270 C.3       1 LYS        -0.0122
     14 CG         18.4690   10.1960   29.6740 C.3       1 LYS        -0.0440
     15 CD         18.6260   11.4660   30.4940 C.3       1 LYS        -0.0124
     16 CE         19.3740   12.5260   29.7040 C.3       1 LYS        -0.0354
     17 NZ         19.4420   13.8210   30.4450 N.4       1 LYS         0.2185
     18 N          17.8310    6.1050   31.2910 N.am      1 PRO        -0.2498
     19 CA         19.2970    6.2450   31.2640 C.3       1 PRO         0.1338
     20 C          19.9050    5.8440   29.9250 C.2       1 PRO         0.2042
     21 O          19.4940    4.8390   29.3360 O.2       1 PRO        -0.3944
     22 CB         19.7690    5.2570   32.3420 C.3       1 PRO        -0.0104
     23 CG         18.5880    5.0390   33.2220 C.3       1 PRO        -0.0281
     24 CD         17.3950    5.1400   32.3160 C.3       1 PRO         0.0369
     25 N          20.8710    6.6200   29.4430 N.am      1 PHE        -0.2619
     26 CA         21.5330    6.2630   28.1970 C.3       1 PHE         0.1404
     27 C          22.5340    5.1410   28.4380 C.2       1 PHE         0.2060
     28 O          23.4940    5.2980   29.1820 O.2       1 PHE        -0.3942
     29 CB         22.1960    7.4790   27.5440 C.3       1 PHE         0.0214
     30 CG         21.2120    8.4980   27.0430 C.ar      1 PHE        -0.0386
     31 CD1        19.9770    8.0990   26.5620 C.ar      1 PHE        -0.0601
     32 CD2        21.5110    9.8490   27.0690 C.ar      1 PHE        -0.0601
     33 CE1        19.0580    9.0280   26.1100 C.ar      1 PHE        -0.0686
     34 CE2        20.5980   10.7850   26.6190 C.ar      1 PHE        -0.0686
     35 CZ         19.3710   10.3730   26.1390 C.ar      1 PHE        -0.0687
     36 N          22.2610    4.0000   27.8180 N.am      1 ILE        -0.2633
     37 CA         23.1280    2.8340   27.8590 C.3       1 ILE         0.1335
     38 C          23.6790    2.6510   26.4540 C.2       1 ILE         0.2037
     39 O          22.9130    2.4530   25.5050 O.2       1 ILE        -0.3944
     40 CB         22.3350    1.5770   28.2590 C.3       1 ILE        -0.0037
     41 CG1        21.9080    1.6720   29.7230 C.3       1 ILE        -0.0491
     42 CG2        23.1490    0.3210   28.0180 C.3       1 ILE        -0.0582
     43 CD1        22.9830    2.2280   30.6250 C.3       1 ILE        -0.0648
     44 N          24.9990    2.7350   26.3160 N.am      1 PHE        -0.2677
     45 CA         25.6200    2.7150   24.9930 C.3       1 PHE         0.1039
     46 C          25.4990    1.3620   24.2890 C.2       1 PHE         0.0621
     47 O          25.0030    1.2970   23.1610 O.co2     1 PHE        -0.5664
     48 CB         27.0790    3.1710   25.0690 C.3       1 PHE         0.0159
     49 CG         27.2340    4.6290   25.4000 C.ar      1 PHE        -0.0392
     50 CD1        26.9500    5.5980   24.4510 C.ar      1 PHE        -0.0602
     51 CD2        27.6610    5.0330   26.6550 C.ar      1 PHE        -0.0602
     52 CE1        27.0830    6.9400   24.7470 C.ar      1 PHE        -0.0686
     53 CE2        27.7960    6.3780   26.9560 C.ar      1 PHE        -0.0686
     54 CZ         27.5090    7.3350   26.0010 C.ar      1 PHE        -0.0687
     55 OXT        25.8980    0.3380   24.8500 O.co2     1 PHE        -0.5664
     56 H1         14.5772    7.3938   24.6719 H         1 MET         0.2015
     57 H2         15.5614    6.1986   25.2309 H         1 MET         0.2015
     58 H3         16.1790    7.6900   24.9086 H         1 MET         0.2015
     59 H4         14.9111    8.6853   26.6231 H         1 MET         0.1098
     60 H5         13.8300    7.0180   28.2579 H         1 MET         0.0354
     61 H6         13.9244    5.8259   26.9175 H         1 MET         0.0354
     62 H7         12.5802    7.3639   25.5081 H         1 MET         0.0380
     63 H8         12.4220    8.4687   26.9157 H         1 MET         0.0380
     64 H9         10.7452    4.1335   26.8948 H         1 MET         0.0340
     65 H10        12.4894    4.5255   27.0695 H         1 MET         0.0340
     66 H11        11.6473    4.8494   25.5163 H         1 MET         0.0340
     67 H12        15.8698    8.9785   28.6215 H         1 LYS         0.1884
     68 H13        18.3388    7.5578   29.1823 H         1 LYS         0.0800
     69 H14        18.1803    8.9187   31.3543 H         1 LYS         0.0312
     70 H15        16.6764    9.6288   30.6756 H         1 LYS         0.0312
     71 H16        17.9655   10.4373   28.7262 H         1 LYS         0.0269
     72 H17        19.4636    9.7756   29.4642 H         1 LYS         0.0269
     73 H18        19.1874   11.2363   31.4116 H         1 LYS         0.0317
     74 H19        17.6300   11.8496   30.7599 H         1 LYS         0.0317
     75 H20        18.8563   12.6894   28.7473 H         1 LYS         0.0813
     76 H21        20.3973   12.1713   29.5113 H         1 LYS         0.0813
     77 H22        19.9437   14.4984   29.8923 H         1 LYS         0.1994
     78 H23        19.9202   13.6820   31.3214 H         1 LYS         0.1994
     79 H24        18.5081   14.1567   30.6213 H         1 LYS         0.1994
     80 H25        19.5919    7.2763   31.5076 H         1 PRO         0.0802
     81 H26        20.6038    5.6844   32.9169 H         1 PRO         0.0313
     82 H27        20.0871    4.3094   31.8829 H         1 PRO         0.0313
     83 H28        18.5434    5.8101   34.0051 H         1 PRO         0.0287
     84 H29        18.6339    4.0442   33.6891 H         1 PRO         0.0287
     85 H30        17.1588    4.1650   31.8647 H         1 PRO         0.0524
     86 H31        16.5161    5.5141   32.8615 H         1 PRO         0.0524
     87 H32        21.1421    7.4470   29.9354 H         1 PHE         0.1885
     88 H33        20.7667    5.8887   27.5022 H         1 PHE         0.0823
     89 H34        22.8013    7.1315   26.6938 H         1 PHE         0.0474
     90 H35        22.8491    7.9607   28.2865 H         1 PHE         0.0474
     91 H36        19.7270    7.0445   26.5394 H         1 PHE         0.0557
     92 H37        22.4725   10.1774   27.4467 H         1 PHE         0.0557
     93 H38        18.0950    8.7018   25.7341 H         1 PHE         0.0599
     94 H39        20.8453   11.8401   26.6431 H         1 PHE         0.0599
     95 H40        18.6536   11.1046   25.7851 H         1 PHE         0.0559
     96 H41        21.4118    3.9389   27.2935 H         1 ILE         0.1883
     97 H42        23.9473    2.9968   28.5747 H         1 ILE         0.0803
     98 H43        21.4301    1.5252   27.6357 H         1 ILE         0.0345
     99 H44        21.6438    0.6641   30.0755 H         1 ILE         0.0267
    100 H45        21.0259    2.3260   29.7874 H         1 ILE         0.0267
    101 H46        23.4450    0.2734   26.9597 H         1 ILE         0.0235
    102 H47        22.5435   -0.5623   28.2694 H         1 ILE         0.0235
    103 H48        24.0491    0.3405   28.6500 H         1 ILE         0.0235
    104 H49        22.6095    2.2683   31.6589 H         1 ILE         0.0230
    105 H50        23.2525    3.2414   30.2928 H         1 ILE         0.0230
    106 H51        23.8704    1.5795   30.5808 H         1 ILE         0.0230
    107 H52        25.5753    2.8130   27.1295 H         1 PHE         0.1877
    108 H53        25.0796    3.4464   24.3741 H         1 PHE         0.0749
    109 H54        27.5541    2.9825   24.0950 H         1 PHE         0.0467
    110 H55        27.5883    2.5815   25.8456 H         1 PHE         0.0467
    111 H56        26.6190    5.2984   23.4632 H         1 PHE         0.0557
    112 H57        27.8916    4.2887   27.4086 H         1 PHE         0.0557
    113 H58        26.8528    7.6853   23.9943 H         1 PHE         0.0599
    114 H59        28.1275    6.6808   27.9427 H         1 PHE         0.0599
    115 H60        27.6173    8.3881   26.2340 H         1 PHE         0.0559
@<TRIPOS>BOND
     1    1    2 1  
     2    2    3 1  
     3    2    5 1  
     4    3    4 2  
     5    3    9 am 
     6    5    6 1  
     7    6    7 1  
     8    7    8 1  
     9    9   10 1  
    10   10   11 1  
    11   10   13 1  
    12   11   12 2  
    13   11   18 am 
    14   13   14 1  
    15   14   15 1  
    16   15   16 1  
    17   16   17 1  
    18   18   19 1  
    19   18   24 1  
    20   19   20 1  
    21   19   22 1  
    22   20   21 2  
    23   20   25 am 
    24   22   23 1  
    25   23   24 1  
    26   25   26 1  
    27   26   27 1  
    28   26   29 1  
    29   27   28 2  
    30   27   36 am 
    31   29   30 1  
    32   30   31 ar 
    33   30   32 ar 
    34   31   33 ar 
    35   32   34 ar 
    36   33   35 ar 
    37   34   35 ar 
    38   36   37 1  
    39   37   38 1  
    40   37   40 1  
    41   38   39 2  
    42   38   44 am 
    43   40   41 1  
    44   40   42 1  
    45   41   43 1  
    46   44   45 1  
    47   45   46 1  
    48   45   48 1  
    49   46   47 ar 
    50   46   55 ar 
    51   48   49 1  
    52   49   50 ar 
    53   49   51 ar 
    54   50   52 ar 
    55   51   53 ar 
    56   52   54 ar 
    57   53   54 ar 
    58    1   56 1  
    59    1   57 1  
    60    1   58 1  
    61    2   59 1  
    62    5   60 1  
    63    5   61 1  
    64    6   62 1  
    65    6   63 1  
    66    8   64 1  
    67    8   65 1  
    68    8   66 1  
    69    9   67 1  
    70   10   68 1  
    71   13   69 1  
    72   13   70 1  
    73   14   71 1  
    74   14   72 1  
    75   15   73 1  
    76   15   74 1  
    77   16   75 1  
    78   16   76 1  
    79   17   77 1  
    80   17   78 1  
    81   17   79 1  
    82   19   80 1  
    83   22   81 1  
    84   22   82 1  
    85   23   83 1  
    86   23   84 1  
    87   24   85 1  
    88   24   86 1  
    89   25   87 1  
    90   26   88 1  
    91   29   89 1  
    92   29   90 1  
    93   31   91 1  
    94   32   92 1  
    95   33   93 1  
    96   34   94 1  
    97   35   95 1  
    98   36   96 1  
    99   37   97 1  
   100   40   98 1  
   101   41   99 1  
   102   41  100 1  
   103   42  101 1  
   104   42  102 1  
   105   42  103 1  
   106   43  104 1  
   107   43  105 1  
   108   43  106 1  
   109   44  107 1  
   110   45  108 1  
   111   48  109 1  
   112   48  110 1  
   113   50  111 1  
   114   51  112 1  
   115   52  113 1  
   116   53  114 1  
   117   54  115 1  
@<TRIPOS>SUBSTRUCTURE
     1 MET         1

