1fcy_ligand
  -I-interpret- 

 55 58  0  0  0  0  0  0  0  0999 V2000
   34.6330   18.3790   88.3370 C   0  0  0  0  0
   35.5520   17.4410   87.7130 C   0  0  0  0  0
   35.6220   16.1120   88.2530 C   0  0  0  0  0
   36.5060   15.2120   87.6690 C   0  0  0  0  0
   37.3130   15.5740   86.5590 C   0  0  0  0  0
   37.2340   16.8700   86.0530 C   0  0  0  0  0
   36.3560   17.8050   86.6300 C   0  0  0  0  0
   42.7800   13.8630   81.8470 C   0  0  0  0  0
   43.1920   13.0000   80.6640 C   0  0  0  0  0
   44.6050   13.3080   80.2110 C   0  0  0  0  0
   45.0020   14.7270   80.2690 C   0  0  0  0  0
   44.8770   15.3370   81.6410 C   0  0  0  0  0
   43.5400   14.9400   82.3100 C   0  0  0  0  0
   42.2110   13.2960   79.5200 C   0  0  0  0  0
   43.1640   11.5340   81.0310 C   0  0  0  0  0
   44.8570   16.8250   81.3310 C   0  0  0  0  0
   46.0300   15.0210   82.6060 C   0  0  0  0  0
   34.1880   18.1160   89.4160 O   0  0  0  0  0
   34.3400   19.4520   87.6620 O   0  0  0  0  0
   38.2000   14.6500   85.9490 C   0  0  0  0  0
   39.0090   14.9880   84.8700 C   0  0  0  0  0
   38.8870   16.3130   84.3900 C   0  0  0  0  0
   38.0310   17.2340   84.9560 C   0  0  0  0  0
   41.1550   14.3290   83.5980 C   0  0  0  0  0
   41.5880   13.5660   82.4990 C   0  0  0  0  0
   43.1150   15.6960   83.4000 C   0  0  0  0  0
   41.9660   15.3780   84.0030 C   0  0  0  0  0
   39.9170   13.9910   84.2450 C   0  0  0  0  0
   39.5140   12.7970   84.3100 O   0  0  0  0  0
   34.9991   15.8172   89.0975 H   0  0  0  0  0
   36.5813   14.2028   88.0738 H   0  0  0  0  0
   36.3026   18.8178   86.2306 H   0  0  0  0  0
   44.6633   13.0144   79.1629 H   0  0  0  0  0
   45.2695   12.7742   80.8904 H   0  0  0  0  0
   44.3357   15.2786   79.6058 H   0  0  0  0  0
   46.0522   14.7830   79.9825 H   0  0  0  0  0
   41.1980   13.0507   79.8391 H   0  0  0  0  0
   42.2656   14.3533   79.2607 H   0  0  0  0  0
   42.4756   12.6933   78.6511 H   0  0  0  0  0
   43.8547   11.3537   81.8547 H   0  0  0  0  0
   42.1546   11.2559   81.3340 H   0  0  0  0  0
   43.4626   10.9389   80.1679 H   0  0  0  0  0
   45.7817   17.1018   80.8246 H   0  0  0  0  0
   44.0071   17.0491   80.6864 H   0  0  0  0  0
   44.7679   17.3873   82.2605 H   0  0  0  0  0
   46.0961   13.9426   82.7504 H   0  0  0  0  0
   46.9654   15.3906   82.1858 H   0  0  0  0  0
   45.8437   15.5064   83.5640 H   0  0  0  0  0
   34.8163   19.4444   86.8285 H   0  0  0  0  0
   38.2492   13.6345   86.3420 H   0  0  0  0  0
   39.4944   16.6184   83.5380 H   0  0  0  0  0
   37.9731   18.2446   84.5518 H   0  0  0  0  0
   40.9806   12.7296   82.1531 H   0  0  0  0  0
   43.7118   16.5357   83.7562 H   0  0  0  0  0
   41.6495   15.9747   84.8585 H   0  0  0  0  0
  1 19  1  0  0  0
  1 18  2  0  0  0
  1  2  1  0  0  0
  2  7  4  0  0  0
  2  3  4  0  0  0
  3  4  4  0  0  0
  4  5  4  0  0  0
  5 20  4  0  0  0
  5  6  4  0  0  0
  6 23  4  0  0  0
  6  7  4  0  0  0
 23 22  4  0  0  0
 22 21  4  0  0  0
 21 28  1  0  0  0
 21 20  4  0  0  0
 28 29  2  0  0  0
 28 24  1  0  0  0
 24 27  4  0  0  0
 24 25  4  0  0  0
 25  8  4  0  0  0
  8 13  4  0  0  0
  8  9  1  0  0  0
  9 15  1  0  0  0
  9 14  1  0  0  0
  9 10  1  0  0  0
 10 11  1  0  0  0
 11 12  1  0  0  0
 12 17  1  0  0  0
 12 16  1  0  0  0
 12 13  1  0  0  0
 13 26  4  0  0  0
 26 27  4  0  0  0
  3 30  1  0  0  0
  4 31  1  0  0  0
  7 32  1  0  0  0
 10 33  1  0  0  0
 10 34  1  0  0  0
 11 35  1  0  0  0
 11 36  1  0  0  0
 14 37  1  0  0  0
 14 38  1  0  0  0
 14 39  1  0  0  0
 15 40  1  0  0  0
 15 41  1  0  0  0
 15 42  1  0  0  0
 16 43  1  0  0  0
 16 44  1  0  0  0
 16 45  1  0  0  0
 17 46  1  0  0  0
 17 47  1  0  0  0
 17 48  1  0  0  0
 19 49  1  0  0  0
 20 50  1  0  0  0
 22 51  1  0  0  0
 23 52  1  0  0  0
 25 53  1  0  0  0
 26 54  1  0  0  0
 27 55  1  0  0  0
M  END
$$$$
