### 
### Created by X-TOOL on Mon Sep 10 21:12:56 2018
### 

@<TRIPOS>MOLECULE
2itk_ligand
   92    94     1     0     0
SMALL
GAST_HUCK


@<TRIPOS>ATOM
      1 N          35.4070   32.0600   24.2830 N.4       1 PHE         0.2377
      2 CA         34.5740   31.3450   23.3130 C.3       1 PHE         0.0621
      3 C          34.7720   29.8460   23.6530 C.2       1 PHE         0.2265
      4 O          35.9280   29.1490   23.5020 O.2       1 PHE        -0.3907
      5 CB         34.9440   31.6710   21.8630 C.3       1 PHE        -0.0040
      6 N          33.6700   29.2940   24.1150 N.am      1 D11        -0.2583
      7 CA         33.3440   27.9220   24.5770 C.3       1 D11         0.1615
      8 CB         32.0100   27.5790   25.1320 C.3       1 D11         0.1262
      9 CG2        31.7050   26.1080   25.4170 C.3       1 D11        -0.0298
     10 OG1        31.0260   27.9220   24.2050 O.3       1 D11        -0.2685
     11 P          30.0650   29.1950   24.2400 P.3       1 D11         0.2014
     12 O1P        30.9470   30.5570   24.0170 O.co2     1 D11        -0.5537
     13 O2P        29.3570   29.3030   25.6960 O.co2     1 D11        -0.5537
     14 O3P        29.1560   28.8350   22.9450 O.co2     1 D11        -0.5537
     15 C          34.4510   27.4590   25.5280 C.2       1 D11         0.2093
     16 O          34.4610   28.3130   26.6050 O.2       1 D11        -0.3941
     17 N1         35.3120   26.4910   25.3980 N.am      1 YCP        -0.2498
     18 C2         35.5890   25.6340   24.2010 C.3       1 YCP         0.0367
     19 C3         35.7020   24.1640   24.1950 C.3       1 YCP        -0.0321
     20 C4         36.6990   24.0090   25.3860 C.3       1 YCP        -0.0470
     21 C5         36.6090   24.6930   26.7880 C.3       1 YCP        -0.0121
     22 C6         36.2670   26.1920   26.4850 C.3       1 YCP         0.1337
     23 C          37.6910   26.7620   26.5280 C.2       1 YCP         0.2042
     24 O1         38.8560   26.4170   27.0700 O.2       1 YCP        -0.3944
     25 C1         40.8380   28.4860   22.4850 C.ar      1 NAL        -0.0547
     26 C2         39.5120   28.7360   22.9470 C.ar      1 NAL        -0.0377
     27 C3         38.4440   28.0600   22.2650 C.ar      1 NAL        -0.0564
     28 C4         38.6450   27.1660   21.1580 C.ar      1 NAL        -0.0567
     29 C4A        39.9850   26.9410   20.7100 C.ar      1 NAL        -0.0222
     30 C5         40.3080   26.0770   19.6120 C.ar      1 NAL        -0.0568
     31 C6         41.6470   25.8600   19.1770 C.ar      1 NAL        -0.0634
     32 C7         42.7120   26.5290   19.8490 C.ar      1 NAL        -0.0637
     33 C8         42.4830   27.4140   20.9560 C.ar      1 NAL        -0.0578
     34 C8A        41.1110   27.6130   21.3740 C.ar      1 NAL        -0.0259
     35 C9         39.0990   29.6370   24.1170 C.3       1 NAL         0.0217
     36 C10        39.0370   28.7490   25.4170 C.3       1 NAL         0.1405
     37 C11        39.3080   29.6310   26.6390 C.2       1 NAL         0.2060
     38 N          37.8170   27.8570   25.7210 N.am      1 NAL        -0.2619
     39 O2         38.1290   30.0950   27.1730 O.2       1 NAL        -0.3942
     40 N          40.4670   29.8500   27.2680 N.am      1 GLN        -0.2634
     41 CA         40.7720   30.5930   28.5110 C.3       1 GLN         0.1327
     42 C          40.2630   32.0510   28.5900 C.2       1 GLN         0.1993
     43 O          39.6330   32.4170   29.7470 O.2       1 GLN        -0.3947
     44 CB         42.2960   30.6010   28.7910 C.3       1 GLN         0.0045
     45 CG         43.0810   30.6490   30.1310 C.3       1 GLN         0.0412
     46 CD         44.6170   30.8290   29.9950 C.2       1 GLN         0.1737
     47 OE1        45.4740   29.9410   30.5390 O.2       1 GLN        -0.3973
     48 NE2        45.0780   31.9090   29.3130 N.am      1 GLN        -0.3009
     49 N          40.4830   32.7980   27.4860 N.am      1 NH2        -0.2990
     50 H1         35.3305   33.0525   24.1245 H         1 PHE         0.2015
     51 H2         36.3680   31.7756   24.1749 H         1 PHE         0.2015
     52 H3         35.0957   31.8440   25.2171 H         1 PHE         0.2015
     53 H4         33.5194   31.6192   23.4632 H         1 PHE         0.1095
     54 H5         34.2887   31.1082   21.1820 H         1 PHE         0.0310
     55 H6         35.9915   31.3897   21.6797 H         1 PHE         0.0310
     56 H7         34.8175   32.7492   21.6858 H         1 PHE         0.0310
     57 H8         32.8970   29.9264   24.1646 H         1 D11         0.1885
     58 H9         33.4242   27.3019   23.6720 H         1 D11         0.0830
     59 H10        31.8816   28.1524   26.0619 H         1 D11         0.0695
     60 H11        30.6862   26.0165   25.8215 H         1 D11         0.0260
     61 H12        32.4269   25.7192   26.1503 H         1 D11         0.0260
     62 H13        31.7824   25.5301   24.4843 H         1 D11         0.0260
     63 H14        36.5467   25.9984   23.8009 H         1 YCP         0.0524
     64 H15        34.7828   25.8640   23.4889 H         1 YCP         0.0524
     65 H16        36.1200   23.7835   23.2514 H         1 YCP         0.0285
     66 H17        34.7382   23.6726   24.3937 H         1 YCP         0.0285
     67 H18        37.6731   24.3212   24.9815 H         1 YCP         0.0268
     68 H19        36.7192   22.9300   25.5989 H         1 YCP         0.0268
     69 H20        37.5692   24.6150   27.3189 H         1 YCP         0.0312
     70 H21        35.8162   24.2302   27.3941 H         1 YCP         0.0312
     71 H22        35.7513   26.5914   27.3707 H         1 YCP         0.0802
     72 H23        41.6678   28.9697   22.9875 H         1 NAL         0.0531
     73 H24        37.4293   28.2339   22.6044 H         1 NAL         0.0586
     74 H25        37.8061   26.6765   20.6766 H         1 NAL         0.0620
     75 H26        39.5026   25.5697   19.0933 H         1 NAL         0.0619
     76 H27        41.8536   25.1951   18.3461 H         1 NAL         0.0598
     77 H28        43.7291   26.3637   19.5125 H         1 NAL         0.0611
     78 H29        43.3038   27.9129   21.4585 H         1 NAL         0.0603
     79 H30        38.1108   30.0774   23.9183 H         1 NAL         0.0476
     80 H31        39.8387   30.4404   24.2487 H         1 NAL         0.0476
     81 H32        39.8817   28.0509   25.3213 H         1 NAL         0.0824
     82 H33        36.9774   28.1247   25.2484 H         1 NAL         0.1885
     83 H34        41.2640   29.4421   26.8226 H         1 GLN         0.1883
     84 H35        40.2814   30.0414   29.3265 H         1 GLN         0.0801
     85 H36        42.6619   31.4789   28.2385 H         1 GLN         0.0337
     86 H37        42.6593   29.6838   28.3043 H         1 GLN         0.0337
     87 H38        42.8957   29.7066   30.6672 H         1 GLN         0.0504
     88 H39        42.6915   31.4904   30.7229 H         1 GLN         0.0504
     89 H40        46.0623   32.0517   29.2087 H         1 GLN         0.1814
     90 H41        44.4332   32.5616   28.9150 H         1 GLN         0.1814
     91 H42        40.1829   33.7515   27.4595 H         1 NH2         0.1815
     92 H43        40.9459   32.3974   26.6953 H         1 NH2         0.1815
@<TRIPOS>BOND
     1    2    1 1  
     2    3    2 1  
     3    2    5 1  
     4    3    4 2  
     5    6    3 am 
     6    7    6 1  
     7    7    8 1  
     8   15    7 1  
     9    8    9 1  
    10    8   10 1  
    11   10   11 1  
    12   11   12 ar 
    13   11   13 ar 
    14   11   14 ar 
    15   15   16 2  
    16   17   15 am 
    17   17   18 1  
    18   22   17 1  
    19   18   19 1  
    20   20   19 1  
    21   21   20 1  
    22   22   21 1  
    23   23   22 1  
    24   23   24 2  
    25   38   23 am 
    26   26   25 ar 
    27   25   34 ar 
    28   26   27 ar 
    29   35   26 1  
    30   27   28 ar 
    31   28   29 ar 
    32   29   30 ar 
    33   34   29 ar 
    34   30   31 ar 
    35   32   31 ar 
    36   33   32 ar 
    37   34   33 ar 
    38   36   35 1  
    39   36   37 1  
    40   36   38 1  
    41   37   39 2  
    42   37   40 am 
    43   40   41 1  
    44   41   42 1  
    45   41   44 1  
    46   42   43 2  
    47   42   49 am 
    48   44   45 1  
    49   45   46 1  
    50   46   47 2  
    51   46   48 am 
    52    1   50 1  
    53    1   51 1  
    54    1   52 1  
    55    2   53 1  
    56    5   54 1  
    57    5   55 1  
    58    5   56 1  
    59    6   57 1  
    60    7   58 1  
    61    8   59 1  
    62    9   60 1  
    63    9   61 1  
    64    9   62 1  
    65   18   63 1  
    66   18   64 1  
    67   19   65 1  
    68   19   66 1  
    69   20   67 1  
    70   20   68 1  
    71   21   69 1  
    72   21   70 1  
    73   22   71 1  
    74   25   72 1  
    75   27   73 1  
    76   28   74 1  
    77   30   75 1  
    78   31   76 1  
    79   32   77 1  
    80   33   78 1  
    81   35   79 1  
    82   35   80 1  
    83   36   81 1  
    84   38   82 1  
    85   40   83 1  
    86   41   84 1  
    87   44   85 1  
    88   44   86 1  
    89   45   87 1  
    90   45   88 1  
    91   48   89 1  
    92   48   90 1  
    93   49   91 1  
    94   49   92 1  
@<TRIPOS>SUBSTRUCTURE
     1 PHE         1

