2itk_ligand
  -I-interpret- 

 94 96  0  0  0  0  0  0  0  0999 V2000
   35.4070   32.0600   24.2830 N   0  3  0  0  0
   34.5740   31.3450   23.3130 C   0  0  0  0  0
   34.7720   29.8460   23.6530 C   0  0  0  0  0
   35.9280   29.1490   23.5020 O   0  0  0  0  0
   34.9440   31.6710   21.8630 C   0  0  0  0  0
   33.6700   29.2940   24.1150 N   0  0  0  0  0
   33.3440   27.9220   24.5770 C   0  0  0  0  0
   32.0100   27.5790   25.1320 C   0  0  0  0  0
   31.7050   26.1080   25.4170 C   0  0  0  0  0
   31.0260   27.9220   24.2050 O   0  0  0  0  0
   30.0650   29.1950   24.2400 P   0  0  0  0  0
   30.9470   30.5570   24.0170 O   0  0  0  0  0
   29.3570   29.3030   25.6960 O   0  0  0  0  0
   29.1560   28.8350   22.9450 O   0  0  0  0  0
   34.4510   27.4590   25.5280 C   0  0  0  0  0
   34.4610   28.3130   26.6050 O   0  0  0  0  0
   35.3120   26.4910   25.3980 N   0  0  0  0  0
   35.5890   25.6340   24.2010 C   0  0  0  0  0
   35.7020   24.1640   24.1950 C   0  0  0  0  0
   36.6990   24.0090   25.3860 C   0  0  0  0  0
   36.6090   24.6930   26.7880 C   0  0  0  0  0
   36.2670   26.1920   26.4850 C   0  0  0  0  0
   37.6910   26.7620   26.5280 C   0  0  0  0  0
   38.8560   26.4170   27.0700 O   0  0  0  0  0
   40.8380   28.4860   22.4850 C   0  0  0  0  0
   39.5120   28.7360   22.9470 C   0  0  0  0  0
   38.4440   28.0600   22.2650 C   0  0  0  0  0
   38.6450   27.1660   21.1580 C   0  0  0  0  0
   39.9850   26.9410   20.7100 C   0  0  0  0  0
   40.3080   26.0770   19.6120 C   0  0  0  0  0
   41.6470   25.8600   19.1770 C   0  0  0  0  0
   42.7120   26.5290   19.8490 C   0  0  0  0  0
   42.4830   27.4140   20.9560 C   0  0  0  0  0
   41.1110   27.6130   21.3740 C   0  0  0  0  0
   39.0990   29.6370   24.1170 C   0  0  0  0  0
   39.0370   28.7490   25.4170 C   0  0  0  0  0
   39.3080   29.6310   26.6390 C   0  0  0  0  0
   37.8170   27.8570   25.7210 N   0  0  0  0  0
   38.1290   30.0950   27.1730 O   0  0  0  0  0
   40.4670   29.8500   27.2680 N   0  0  0  0  0
   40.7720   30.5930   28.5110 C   0  0  0  0  0
   40.2630   32.0510   28.5900 C   0  0  0  0  0
   39.6330   32.4170   29.7470 O   0  0  0  0  0
   42.2960   30.6010   28.7910 C   0  0  0  0  0
   43.0810   30.6490   30.1310 C   0  0  0  0  0
   44.6170   30.8290   29.9950 C   0  0  0  0  0
   45.4740   29.9410   30.5390 O   0  0  0  0  0
   45.0780   31.9090   29.3130 N   0  0  0  0  0
   40.4830   32.7980   27.4860 N   0  0  0  0  0
   35.1191   31.8072   25.2283 H   0  0  0  0  0
   36.3845   31.8039   24.1440 H   0  0  0  0  0
   35.2954   33.0651   24.1497 H   0  0  0  0  0
   33.5278   31.6420   23.3857 H   0  0  0  0  0
   35.9915   31.4229   21.6921 H   0  0  0  0  0
   34.3165   31.0876   21.1893 H   0  0  0  0  0
   34.7864   32.7338   21.6793 H   0  0  0  0  0
   32.8815   29.9391   24.1656 H   0  0  0  0  0
   33.2827   27.3814   23.6325 H   0  0  0  0  0
   32.0174   28.1183   26.0792 H   0  0  0  0  0
   30.6962   26.0189   25.8201 H   0  0  0  0  0
   31.7797   25.5369   24.4916 H   0  0  0  0  0
   32.4225   25.7233   26.1418 H   0  0  0  0  0
   31.3788   30.5206   23.1604 H   0  0  0  0  0
   29.7120   28.8071   22.1629 H   0  0  0  0  0
   36.6017   25.9382   23.9364 H   0  0  0  0  0
   34.6943   25.7930   23.5990 H   0  0  0  0  0
   36.0301   23.7256   23.2525 H   0  0  0  0  0
   34.7613   23.6238   24.3014 H   0  0  0  0  0
   37.5969   24.4724   24.9772 H   0  0  0  0  0
   36.5601   22.9602   25.6484 H   0  0  0  0  0
   37.5401   24.5954   27.3462 H   0  0  0  0  0
   35.8530   24.2251   27.4186 H   0  0  0  0  0
   35.5967   26.7051   27.1746 H   0  0  0  0  0
   41.6724   28.9724   22.9903 H   0  0  0  0  0
   37.4237   28.2349   22.6062 H   0  0  0  0  0
   37.8015   26.6738   20.6739 H   0  0  0  0  0
   39.4981   25.5669   19.0904 H   0  0  0  0  0
   41.8547   25.1914   18.3416 H   0  0  0  0  0
   43.7348   26.3628   19.5107 H   0  0  0  0  0
   43.3083   27.9157   21.4612 H   0  0  0  0  0
   38.1254   30.0862   23.9210 H   0  0  0  0  0
   39.8219   30.4426   24.2454 H   0  0  0  0  0
   39.8003   28.0044   25.1912 H   0  0  0  0  0
   36.9606   28.1301   25.2389 H   0  0  0  0  0
   41.2800   29.4340   26.8137 H   0  0  0  0  0
   40.2151   30.0389   29.2666 H   0  0  0  0  0
   42.5581   31.5772   28.3831 H   0  0  0  0  0
   42.5552   29.5967   28.4558 H   0  0  0  0  0
   42.9218   29.6881   30.6202 H   0  0  0  0  0
   42.7125   31.5172   30.6773 H   0  0  0  0  0
   46.0820   32.0553   29.2078 H   0  0  0  0  0
   44.4203   32.5739   28.9059 H   0  0  0  0  0
   40.1613   33.7654   27.4523 H   0  0  0  0  0
   40.9708   32.3946   26.6862 H   0  0  0  0  0
  2  1  1  0  0  0
  3  2  1  0  0  0
  2  5  1  0  0  0
  3  4  2  0  0  0
  6  3  1  0  0  0
  7  6  1  0  0  0
  7  8  1  0  0  0
 15  7  1  0  0  0
  8  9  1  0  0  0
  8 10  1  0  0  0
 10 11  1  0  0  0
 11 12  1  0  0  0
 11 13  2  0  0  0
 11 14  1  0  0  0
 15 16  2  0  0  0
 17 15  1  0  0  0
 17 18  1  0  0  0
 22 17  1  0  0  0
 18 19  1  0  0  0
 20 19  1  0  0  0
 21 20  1  0  0  0
 22 21  1  0  0  0
 23 22  1  0  0  0
 23 24  2  0  0  0
 38 23  1  0  0  0
 26 25  4  0  0  0
 25 34  4  0  0  0
 26 27  4  0  0  0
 35 26  1  0  0  0
 27 28  4  0  0  0
 28 29  4  0  0  0
 29 30  4  0  0  0
 34 29  4  0  0  0
 30 31  4  0  0  0
 32 31  4  0  0  0
 33 32  4  0  0  0
 34 33  4  0  0  0
 36 35  1  0  0  0
 36 37  1  0  0  0
 36 38  1  0  0  0
 37 39  2  0  0  0
 37 40  1  0  0  0
 40 41  1  0  0  0
 41 42  1  0  0  0
 41 44  1  0  0  0
 42 43  2  0  0  0
 42 49  1  0  0  0
 44 45  1  0  0  0
 45 46  1  0  0  0
 46 47  2  0  0  0
 46 48  1  0  0  0
  1 50  1  0  0  0
  1 51  1  0  0  0
  1 52  1  0  0  0
  2 53  1  0  0  0
  5 54  1  0  0  0
  5 55  1  0  0  0
  5 56  1  0  0  0
  6 57  1  0  0  0
  7 58  1  0  0  0
  8 59  1  0  0  0
  9 60  1  0  0  0
  9 61  1  0  0  0
  9 62  1  0  0  0
 12 63  1  0  0  0
 14 64  1  0  0  0
 18 65  1  0  0  0
 18 66  1  0  0  0
 19 67  1  0  0  0
 19 68  1  0  0  0
 20 69  1  0  0  0
 20 70  1  0  0  0
 21 71  1  0  0  0
 21 72  1  0  0  0
 22 73  1  0  0  0
 25 74  1  0  0  0
 27 75  1  0  0  0
 28 76  1  0  0  0
 30 77  1  0  0  0
 31 78  1  0  0  0
 32 79  1  0  0  0
 33 80  1  0  0  0
 35 81  1  0  0  0
 35 82  1  0  0  0
 36 83  1  0  0  0
 38 84  1  0  0  0
 40 85  1  0  0  0
 41 86  1  0  0  0
 44 87  1  0  0  0
 44 88  1  0  0  0
 45 89  1  0  0  0
 45 90  1  0  0  0
 48 91  1  0  0  0
 48 92  1  0  0  0
 49 93  1  0  0  0
 49 94  1  0  0  0
M  END
$$$$
