5za8_ligand
  -I-interpret- 

 48 50  0  0  0  0  0  0  0  0999 V2000
  -26.3220  -17.6460    2.0930 N   0  0  0  0  0
  -30.3850  -18.8650   -4.7030 O   0  0  0  0  0
  -30.1710  -18.7470   -3.5100 C   0  0  0  0  0
  -30.8710  -19.3630   -2.5440 N   0  0  0  0  0
  -31.8660  -20.2300   -2.7050 C   0  0  0  0  0
  -32.4550  -20.7290   -1.6240 N   0  0  0  0  0
  -32.2970  -20.5860   -3.9050 N   0  0  0  0  0
  -29.0820  -17.8260   -3.0550 C   0  0  0  0  0
  -28.5980  -17.9770   -1.7930 N   0  0  0  0  0
  -28.5460  -16.8390   -3.8660 C   0  0  0  0  0
  -28.9780  -16.6200   -5.1360 N   0  0  0  0  0
  -27.5690  -16.0540   -3.3550 N   0  0  0  0  0
  -27.0800  -16.2040   -2.0920 C   0  0  0  0  0
  -27.6090  -17.2050   -1.2570 C   0  0  0  0  0
  -27.2260  -17.5180    0.0800 C   0  0  0  0  0
  -27.8130  -18.5390    0.8220 C   0  0  0  0  0
  -27.2750  -18.6460    2.0550 N   0  0  0  0  0
  -25.5780  -17.5250    3.3740 C   0  0  0  0  0
  -26.2740  -16.9800    0.9440 C   0  0  0  0  0
  -26.1100  -15.2640   -1.7160 N   0  0  0  0  0
  -26.4480  -14.3360   -0.6140 C   0  0  0  0  0
  -26.7150  -12.9170   -1.0970 C   0  0  0  0  0
  -25.4160  -12.1120   -1.1440 C   0  0  0  0  0
  -24.3250  -12.6710   -2.0670 C   0  0  0  0  0
  -24.7550  -13.7680   -3.0560 C   0  0  0  0  0
  -24.8370  -15.1430   -2.4030 C   0  0  0  0  0
  -32.1417  -20.4454   -0.6957 H   0  0  0  0  0
  -33.2206  -21.3958   -1.7223 H   0  0  0  0  0
  -31.8633  -20.1925   -4.7401 H   0  0  0  0  0
  -29.7254  -17.1939   -5.5266 H   0  0  0  0  0
  -28.5548  -15.8818   -5.6985 H   0  0  0  0  0
  -28.6141  -19.1779    0.4503 H   0  0  0  0  0
  -26.2793  -17.3153    4.1816 H   0  0  0  0  0
  -25.0550  -18.4592    3.5786 H   0  0  0  0  0
  -24.8559  -16.7120    3.2979 H   0  0  0  0  0
  -25.6028  -16.1521    0.7157 H   0  0  0  0  0
  -25.5969  -14.3021    0.0662 H   0  0  0  0  0
  -27.3569  -14.7023   -0.1367 H   0  0  0  0  0
  -27.4060  -12.4329   -0.4069 H   0  0  0  0  0
  -27.1412  -12.9591   -2.0993 H   0  0  0  0  0
  -25.0055  -12.1262   -0.1344 H   0  0  0  0  0
  -25.6754  -11.1268   -1.5315 H   0  0  0  0  0
  -23.5832  -13.1294   -1.4130 H   0  0  0  0  0
  -23.9871  -11.8324   -2.6759 H   0  0  0  0  0
  -24.0094  -13.8165   -3.8496 H   0  0  0  0  0
  -25.7467  -13.5136   -3.4301 H   0  0  0  0  0
  -24.7554  -15.9177   -3.1654 H   0  0  0  0  0
  -24.0214  -15.2606   -1.6895 H   0  0  0  0  0
  1 17  4  0  0  0
  1 18  1  0  0  0
 19  1  4  0  0  0
  3  2  2  0  0  0
  3  4  1  0  0  0
  8  3  1  0  0  0
  4  5  4  0  0  0
  5  6  1  0  0  0
  5  7  2  0  0  0
  9  8  4  0  0  0
  8 10  4  0  0  0
 14  9  4  0  0  0
 10 11  1  0  0  0
 12 10  4  0  0  0
 13 12  4  0  0  0
 14 13  4  0  0  0
 13 20  1  0  0  0
 15 14  1  0  0  0
 15 16  4  0  0  0
 15 19  4  0  0  0
 16 17  4  0  0  0
 20 21  1  0  0  0
 20 26  1  0  0  0
 21 22  1  0  0  0
 22 23  1  0  0  0
 23 24  1  0  0  0
 24 25  1  0  0  0
 25 26  1  0  0  0
  6 27  1  0  0  0
  6 28  1  0  0  0
  7 29  1  0  0  0
 11 30  1  0  0  0
 11 31  1  0  0  0
 16 32  1  0  0  0
 18 33  1  0  0  0
 18 34  1  0  0  0
 18 35  1  0  0  0
 19 36  1  0  0  0
 21 37  1  0  0  0
 21 38  1  0  0  0
 22 39  1  0  0  0
 22 40  1  0  0  0
 23 41  1  0  0  0
 23 42  1  0  0  0
 24 43  1  0  0  0
 24 44  1  0  0  0
 25 45  1  0  0  0
 25 46  1  0  0  0
 26 47  1  0  0  0
 26 48  1  0  0  0
M  END
$$$$
