5laz_ligand
  -I-interpret- 

 67 73  0  0  0  0  0  0  0  0999 V2000
  -12.7180    8.3060   -6.8480 C   0  0  0  0  0
  -11.8930    8.7580   -5.7180 C   0  0  0  0  0
  -12.5180    9.0860   -4.5080 C   0  0  0  0  0
  -11.7750    9.5350   -3.4720 C   0  0  0  0  0
  -10.4060    9.6770   -3.6110 C   0  0  0  0  0
   -9.7860    9.3570   -4.8070 C   0  0  0  0  0
  -10.2170   10.1430   -1.0890 C   0  0  0  0  0
   -7.8000    9.5800   -0.9660 C   0  0  0  0  0
   -6.7640   10.7330   -0.9590 C   0  0  0  0  0
   -4.7860    9.0880   -0.6020 C   0  0  0  0  0
   -2.6850    9.5280   -1.6190 C   0  0  0  0  0
   -3.1810   10.6880   -2.1780 C   0  0  0  0  0
   -5.5700   12.9570    1.4420 C   0  0  0  0  0
   -4.8950   14.1510    1.6610 C   0  0  0  0  0
   -5.0890   15.2480    0.8390 C   0  0  0  0  0
   -5.9530   15.1700   -0.2120 C   0  0  0  0  0
   -6.6590   13.9890   -0.4560 C   0  0  0  0  0
   -6.5010   12.8820    0.3680 C   0  0  0  0  0
   -9.1640   11.9560    1.6140 C   0  0  0  0  0
  -14.0030    7.9970   -6.6490 O   0  0  0  0  0
  -12.2120    8.2160   -7.9450 O   0  0  0  0  0
  -10.5180    8.9210   -5.8720 C   0  0  0  0  0
   -9.5370   10.1490   -2.4910 C   0  0  0  0  0
   -8.9660   10.1650   -0.1240 C   0  0  0  0  0
   -8.3660    9.2490   -2.3020 N   0  3  0  0  0
   -5.3210   10.2680   -1.1650 C   0  0  0  0  0
   -3.5010    8.7090   -0.8540 C   0  0  0  0  0
   -2.1610   11.7450   -3.1590 Cl  0  0  0  0  0
   -4.4740   11.0760   -1.8960 C   0  0  0  0  0
   -4.9010   12.2270   -2.4390 F   0  0  0  0  0
   -7.0590   11.4920    0.3660 C   0  0  0  0  0
   -6.4260   10.8260    1.5800 C   0  0  0  0  0
   -6.6300    9.6740    1.9410 O   0  0  0  0  0
   -5.5780   11.7460    2.1280 N   0  0  0  0  0
   -4.2390   16.6890    1.1340 Cl  0  0  0  0  0
   -8.5730   11.4960    0.3080 N   0  3  0  0  0
  -10.5290   12.6060    1.3850 C   0  0  0  0  0
  -10.8550   13.6730    2.4150 C   0  0  0  0  0
  -10.5490   14.0670    0.9560 C   0  0  0  0  0
  -13.5977    8.9797   -4.4025 H   0  0  0  0  0
  -12.2550    9.7855   -2.5260 H   0  0  0  0  0
   -8.7042    9.4543   -4.8981 H   0  0  0  0  0
  -10.8735    9.2877   -0.9289 H   0  0  0  0  0
  -10.8992   10.9789   -0.9341 H   0  0  0  0  0
   -7.3283    8.6647   -0.6084 H   0  0  0  0  0
   -6.8659   11.4032   -1.8125 H   0  0  0  0  0
   -5.4104    8.4709    0.0440 H   0  0  0  0  0
   -1.6426    9.2533   -1.7803 H   0  0  0  0  0
   -4.1989   14.2258    2.4964 H   0  0  0  0  0
   -6.0938   16.0317   -0.8645 H   0  0  0  0  0
   -7.3423   13.9358   -1.3036 H   0  0  0  0  0
   -8.4950   12.6876    2.0671 H   0  0  0  0  0
   -9.2878   11.0941    2.2697 H   0  0  0  0  0
  -14.2232    8.1292   -5.7240 H   0  0  0  0  0
  -10.0364    8.7042   -6.8255 H   0  0  0  0  0
   -9.2826   11.1643   -2.7954 H   0  0  0  0  0
   -9.2090    9.6094    0.7817 H   0  0  0  0  0
   -8.6436    8.2688   -2.3513 H   0  0  0  0  0
   -7.6741    9.3858   -3.0389 H   0  0  0  0  0
   -3.1180    7.7689   -0.4569 H   0  0  0  0  0
   -5.0091   11.5642    2.9549 H   0  0  0  0  0
   -8.9431   12.1704   -0.3617 H   0  0  0  0  0
  -11.0099   11.7112    0.9898 H   0  0  0  0  0
  -10.5535   13.9598    3.4225 H   0  0  0  0  0
  -11.6068   13.8737    3.1783 H   0  0  0  0  0
  -10.9724   14.6863    0.1652 H   0  0  0  0  0
   -9.9236   14.7720    0.4083 H   0  0  0  0  0
  2  1  1  0  0  0
  1 20  1  0  0  0
  1 21  2  0  0  0
  3  2  4  0  0  0
 22  2  4  0  0  0
  4  3  4  0  0  0
  5  4  4  0  0  0
  5  6  4  0  0  0
 23  5  1  0  0  0
  6 22  4  0  0  0
  7 23  1  0  0  0
 24  7  1  0  0  0
  8  9  1  0  0  0
 24  8  1  0  0  0
  8 25  1  0  0  0
  9 26  1  0  0  0
  9 31  1  0  0  0
 26 10  4  0  0  0
 10 27  4  0  0  0
 11 12  4  0  0  0
 27 11  4  0  0  0
 12 28  1  0  0  0
 12 29  4  0  0  0
 13 14  4  0  0  0
 18 13  4  0  0  0
 13 34  1  0  0  0
 14 15  4  0  0  0
 16 15  4  0  0  0
 15 35  1  0  0  0
 17 16  4  0  0  0
 18 17  4  0  0  0
 31 18  1  0  0  0
 36 19  1  0  0  0
 19 37  1  0  0  0
 25 23  1  0  0  0
 24 36  1  0  0  0
 26 29  4  0  0  0
 29 30  1  0  0  0
 31 32  1  0  0  0
 31 36  1  0  0  0
 32 33  2  0  0  0
 32 34  1  0  0  0
 37 38  1  0  0  0
 37 39  1  0  0  0
 38 39  1  0  0  0
  3 40  1  0  0  0
  4 41  1  0  0  0
  6 42  1  0  0  0
  7 43  1  0  0  0
  7 44  1  0  0  0
  8 45  1  0  0  0
  9 46  1  0  0  0
 10 47  1  0  0  0
 11 48  1  0  0  0
 14 49  1  0  0  0
 16 50  1  0  0  0
 17 51  1  0  0  0
 19 52  1  0  0  0
 19 53  1  0  0  0
 20 54  1  0  0  0
 22 55  1  0  0  0
 23 56  1  0  0  0
 24 57  1  0  0  0
 25 58  1  0  0  0
 25 59  1  0  0  0
 27 60  1  0  0  0
 34 61  1  0  0  0
 36 62  1  0  0  0
 37 63  1  0  0  0
 38 64  1  0  0  0
 38 65  1  0  0  0
 39 66  1  0  0  0
 39 67  1  0  0  0
M  END
$$$$
