4xtm_ligand
  -I-interpret- 

 30 30  0  0  0  0  0  0  0  0999 V2000
   -8.4520  -15.6650  -32.8850 O   0  0  0  0  0
   -7.1100  -15.2120  -33.0200 C   0  0  0  0  0
   -6.6590  -15.4590  -34.3540 O   0  0  0  0  0
   -6.2210  -15.9640  -32.0340 C   0  0  0  0  0
   -4.8450  -15.5500  -32.1990 N   0  0  0  0  0
   -6.3370  -17.4700  -32.2290 C   0  0  0  0  0
   -5.6760  -18.1420  -31.1530 O   0  0  0  0  0
   -7.8060  -17.8990  -32.2750 C   0  0  0  0  0
   -8.3770  -17.7930  -30.9670 O   0  0  0  0  0
   -8.5990  -17.0350  -33.2420 C   0  0  0  0  0
  -10.0710  -17.4150  -33.2370 C   0  0  0  0  0
  -10.7770  -16.6030  -34.1890 O   0  0  0  0  0
   -4.0170  -15.4410  -31.1640 C   0  0  0  0  0
   -4.3380  -15.8270  -30.0390 O   0  0  0  0  0
   -2.6770  -14.8150  -31.4680 C   0  0  0  0  0
   -7.0610  -14.1432  -32.8115 H   0  0  0  0  0
   -7.2194  -14.9852  -34.9729 H   0  0  0  0  0
   -6.5537  -15.7255  -31.0238 H   0  0  0  0  0
   -4.5002  -15.3358  -33.1348 H   0  0  0  0  0
   -5.8677  -17.7361  -33.1761 H   0  0  0  0  0
   -4.7552  -17.8717  -31.1259 H   0  0  0  0  0
   -7.8494  -18.9322  -32.6197 H   0  0  0  0  0
   -7.8768  -18.3384  -30.3555 H   0  0  0  0  0
   -8.2113  -17.1978  -34.2476 H   0  0  0  0  0
  -10.4854  -17.2525  -32.2420 H   0  0  0  0  0
  -10.1764  -18.4660  -33.5061 H   0  0  0  0  0
  -11.7065  -16.8431  -34.1857 H   0  0  0  0  0
   -2.5540  -13.9136  -30.8677 H   0  0  0  0  0
   -1.8838  -15.5234  -31.2288 H   0  0  0  0  0
   -2.6293  -14.5578  -32.5261 H   0  0  0  0  0
  1  2  1  0  0  0
  1 10  1  0  0  0
  2  3  1  0  0  0
  2  4  1  0  0  0
  4  5  1  0  0  0
  4  6  1  0  0  0
  5 13  1  0  0  0
  6  7  1  0  0  0
  6  8  1  0  0  0
  8  9  1  0  0  0
  8 10  1  0  0  0
 10 11  1  0  0  0
 11 12  1  0  0  0
 13 14  2  0  0  0
 13 15  1  0  0  0
  2 16  1  0  0  0
  3 17  1  0  0  0
  4 18  1  0  0  0
  5 19  1  0  0  0
  6 20  1  0  0  0
  7 21  1  0  0  0
  8 22  1  0  0  0
  9 23  1  0  0  0
 10 24  1  0  0  0
 11 25  1  0  0  0
 11 26  1  0  0  0
 12 27  1  0  0  0
 15 28  1  0  0  0
 15 29  1  0  0  0
 15 30  1  0  0  0
M  END
$$$$
