1t32_ligand
  -I-interpret- 

 84 90  0  0  0  0  0  0  0  0999 V2000
   12.2900   76.8260    5.0230 O   0  0  0  0  0
   10.0080   67.5470    6.5890 P   0  0  0  0  0
    8.4840   67.2520    6.8930 O   0  0  0  0  0
   10.3390   66.5300    5.5010 O   0  0  0  0  0
   10.8370   67.2750    7.7990 O   0  0  0  0  0
   10.4900   69.1160    5.9740 C   0  0  0  0  0
    8.4970   69.7310    4.7890 O   0  0  0  0  0
    9.6560   69.4210    4.7300 C   0  0  0  0  0
   13.4310   67.7340    1.5920 C   0  0  0  0  0
   14.0610   67.7070    0.2840 C   0  0  0  0  0
   13.4720   68.4660   -0.8420 C   0  0  0  0  0
   12.2600   69.2710   -0.7210 C   0  0  0  0  0
   11.5830   69.3240    0.5990 C   0  0  0  0  0
   12.1860   68.5200    1.8380 C   0  0  0  0  0
   11.5640   68.5460    3.1470 C   0  0  0  0  0
   10.3350   69.3490    3.3380 C   0  0  0  0  0
    9.7210   70.1350    2.1730 C   0  0  0  0  0
   10.3650   70.0990    0.8260 C   0  0  0  0  0
    7.4070   70.5060    1.7450 O   0  0  0  0  0
    8.4420   71.0440    2.1760 C   0  0  0  0  0
   10.3350   72.5980    9.0280 C   0  0  0  0  0
    9.1320   71.8380    8.8430 C   0  0  0  0  0
    9.0680   70.6840    7.8760 C   0  0  0  0  0
   10.2180   70.2350    7.0330 C   0  0  0  0  0
   11.5970   71.0600    7.1890 C   0  0  0  0  0
   11.5650   72.3060    8.2860 C   0  0  0  0  0
   12.7960   73.1330    8.5200 C   0  0  0  0  0
   14.0320   72.8690    7.7970 C   0  0  0  0  0
   14.1110   71.7530    6.7840 C   0  0  0  0  0
   12.9230   70.8980    6.5130 C   0  0  0  0  0
    8.5290   72.4060    2.6580 N   0  0  0  0  0
    7.3100   73.2940    2.6650 C   0  0  0  0  0
   12.2310   73.9170    2.7090 C   0  0  0  0  0
   11.9620   74.8410    3.9140 N   0  0  0  0  0
   11.1900   74.1620    5.0490 C   0  0  0  0  0
    9.7930   73.6660    4.4930 C   0  0  0  0  0
    9.9780   72.8410    3.1350 C   0  0  0  0  0
   10.8450   73.6000    2.0860 C   0  0  0  0  0
   12.4400   76.1780    3.9610 C   0  0  0  0  0
   15.2240   78.2560    1.9530 C   0  0  0  0  0
   14.4820   77.5740    3.0170 C   0  0  0  0  0
   13.1730   76.8880    2.7590 C   0  0  0  0  0
   12.6210   76.9100    1.3590 C   0  0  0  0  0
   13.3130   77.5590    0.2870 C   0  0  0  0  0
   14.6870   78.2730    0.5920 C   0  0  0  0  0
   15.3860   78.9230   -0.5060 C   0  0  0  0  0
   14.8020   78.9020   -1.8600 C   0  0  0  0  0
   13.5130   78.2410   -2.1440 C   0  0  0  0  0
   12.7730   77.5700   -1.0760 C   0  0  0  0  0
    7.9618   67.4307    6.1075 H   0  0  0  0  0
    9.8037   66.7083    4.7243 H   0  0  0  0  0
   11.5554   69.0949    5.7449 H   0  0  0  0  0
   13.8762   67.1689    2.4108 H   0  0  0  0  0
   14.9705   67.1260    0.1309 H   0  0  0  0  0
   13.9686   68.4217   -1.8113 H   0  0  0  0  0
   11.8632   69.8180   -1.5763 H   0  0  0  0  0
   11.9937   67.9841    3.9763 H   0  0  0  0  0
    9.9211   70.6577    0.0020 H   0  0  0  0  0
   10.3342   73.4198    9.7441 H   0  0  0  0  0
    8.2429   72.1018    9.4158 H   0  0  0  0  0
    8.1257   70.1437    7.7857 H   0  0  0  0  0
   12.7639   73.9464    9.2448 H   0  0  0  0  0
   14.9106   73.4846    7.9896 H   0  0  0  0  0
   15.0428   71.5722    6.2481 H   0  0  0  0  0
   13.0251   70.1026    5.7747 H   0  0  0  0  0
    6.9351   73.4023    1.6472 H   0  0  0  0  0
    6.5391   72.8457    3.2917 H   0  0  0  0  0
    7.5779   74.2735    3.0611 H   0  0  0  0  0
   12.7392   73.0043    3.0203 H   0  0  0  0  0
   12.8862   74.3992    1.9835 H   0  0  0  0  0
   11.0327   74.8697    5.8629 H   0  0  0  0  0
   11.7596   73.3124    5.4257 H   0  0  0  0  0
    9.1675   74.5357    4.2918 H   0  0  0  0  0
    9.3307   73.0170    5.2367 H   0  0  0  0  0
   10.5652   71.9359    3.2902 H   0  0  0  0  0
   10.9742   72.9802    1.1987 H   0  0  0  0  0
   10.3490   74.5281    1.8020 H   0  0  0  0  0
   16.1711   78.7481    2.1744 H   0  0  0  0  0
   14.8936   77.5649    4.0263 H   0  0  0  0  0
   11.6693   76.4189    1.1560 H   0  0  0  0  0
   16.3378   79.4236   -0.3285 H   0  0  0  0  0
   15.3378   79.3888   -2.6749 H   0  0  0  0  0
   13.1100   78.2532   -3.1567 H   0  0  0  0  0
   11.8237   77.0800   -1.2924 H   0  0  0  0  0
 39  1  2  0  0  0
  2  3  1  0  0  0
  2  4  1  0  0  0
  2  5  2  0  0  0
  6  2  1  0  0  0
  8  6  1  0  0  0
  6 24  1  0  0  0
  8  7  2  0  0  0
 16  8  1  0  0  0
  9 10  4  0  0  0
 14  9  4  0  0  0
 11 10  4  0  0  0
 12 11  4  0  0  0
 13 12  4  0  0  0
 13 14  4  0  0  0
 18 13  4  0  0  0
 15 14  4  0  0  0
 16 15  4  0  0  0
 17 16  4  0  0  0
 17 18  4  0  0  0
 20 17  1  0  0  0
 20 19  2  0  0  0
 31 20  1  0  0  0
 22 21  4  0  0  0
 26 21  4  0  0  0
 23 22  4  0  0  0
 24 23  4  0  0  0
 24 25  4  0  0  0
 25 26  4  0  0  0
 25 30  4  0  0  0
 26 27  4  0  0  0
 27 28  4  0  0  0
 29 28  4  0  0  0
 30 29  4  0  0  0
 31 32  1  0  0  0
 37 31  1  0  0  0
 34 33  1  0  0  0
 33 38  1  0  0  0
 34 35  1  0  0  0
 39 34  1  0  0  0
 35 36  1  0  0  0
 36 37  1  0  0  0
 38 37  1  0  0  0
 42 39  1  0  0  0
 41 40  4  0  0  0
 40 45  4  0  0  0
 41 42  4  0  0  0
 42 43  4  0  0  0
 43 44  4  0  0  0
 44 45  4  0  0  0
 44 49  4  0  0  0
 45 46  4  0  0  0
 46 47  4  0  0  0
 47 48  4  0  0  0
 48 49  4  0  0  0
  3 50  1  0  0  0
  4 51  1  0  0  0
  6 52  1  0  0  0
  9 53  1  0  0  0
 10 54  1  0  0  0
 11 55  1  0  0  0
 12 56  1  0  0  0
 15 57  1  0  0  0
 18 58  1  0  0  0
 21 59  1  0  0  0
 22 60  1  0  0  0
 23 61  1  0  0  0
 27 62  1  0  0  0
 28 63  1  0  0  0
 29 64  1  0  0  0
 30 65  1  0  0  0
 32 66  1  0  0  0
 32 67  1  0  0  0
 32 68  1  0  0  0
 33 69  1  0  0  0
 33 70  1  0  0  0
 35 71  1  0  0  0
 35 72  1  0  0  0
 36 73  1  0  0  0
 36 74  1  0  0  0
 37 75  1  0  0  0
 38 76  1  0  0  0
 38 77  1  0  0  0
 40 78  1  0  0  0
 41 79  1  0  0  0
 43 80  1  0  0  0
 46 81  1  0  0  0
 47 82  1  0  0  0
 48 83  1  0  0  0
 49 84  1  0  0  0
M  END
$$$$
