1o3h_ligand
  -I-interpret- 

 34 36  0  0  0  0  0  0  0  0999 V2000
   43.9920   -3.0850   26.0230 C   0  0  0  0  0
   44.3040   -1.7060   26.1130 C   0  0  0  0  0
   44.1810   -1.0010   27.3120 C   0  0  0  0  0
   43.7530   -1.6780   28.4200 C   0  0  0  0  0
   43.4410   -2.9980   28.3750 C   0  0  0  0  0
   43.5400   -3.7500   27.1920 C   0  0  0  0  0
   44.1550   -3.7530   24.7840 C   0  0  0  0  0
   43.8530   -5.0280   24.6700 N   0  0  0  0  0
   44.6180   -3.0670   23.7560 N   0  0  0  0  0
   43.5800   -1.2370   29.6300 N   0  0  0  0  0
   43.0550   -3.3590   29.6590 C   0  0  0  0  0
   43.1700   -2.1950   30.4230 C   0  0  0  0  0
   42.9440   -2.0180   31.8010 C   0  0  0  0  0
   42.5940   -3.1000   32.6100 C   0  0  0  0  0
   42.3750   -2.9290   33.9790 C   0  0  0  0  0
   41.9910   -4.1270   34.8490 C   0  0  0  0  0
   42.5070   -1.6770   34.5530 C   0  0  0  0  0
   42.8540   -0.6020   33.7630 C   0  0  0  0  0
   43.0760   -0.7450   32.3950 C   0  0  0  0  0
   43.3980    0.3720   31.6390 O   0  0  0  0  0
   43.0890    1.1080   34.6370 Br  0  0  0  0  0
   44.6494   -1.1812   25.2223 H   0  0  0  0  0
   44.4200    0.0613   27.3632 H   0  0  0  0  0
   43.2785   -4.8080   27.1731 H   0  0  0  0  0
   43.9754   -5.5031   23.7758 H   0  0  0  0  0
   44.7471   -3.5250   22.8538 H   0  0  0  0  0
   44.8467   -2.0788   23.8637 H   0  0  0  0  0
   42.7308   -4.3426   29.9990 H   0  0  0  0  0
   42.4902   -4.0910   32.1681 H   0  0  0  0  0
   41.0573   -4.5549   34.4841 H   0  0  0  0  0
   42.7798   -4.8777   34.8000 H   0  0  0  0  0
   41.8633   -3.7991   35.8806 H   0  0  0  0  0
   42.3380   -1.5418   35.6213 H   0  0  0  0  0
   43.4435    1.1418   32.2108 H   0  0  0  0  0
  1  2  4  0  0  0
  1  6  4  0  0  0
  1  7  1  0  0  0
  2  3  4  0  0  0
  3  4  4  0  0  0
  4  5  4  0  0  0
  4 10  4  0  0  0
  5  6  4  0  0  0
  5 11  4  0  0  0
  7  8  2  0  0  0
  7  9  1  0  0  0
 10 12  4  0  0  0
 11 12  4  0  0  0
 12 13  1  0  0  0
 13 14  4  0  0  0
 13 19  4  0  0  0
 14 15  4  0  0  0
 15 16  1  0  0  0
 15 17  4  0  0  0
 17 18  4  0  0  0
 18 19  4  0  0  0
 18 21  1  0  0  0
 19 20  1  0  0  0
  2 22  1  0  0  0
  3 23  1  0  0  0
  6 24  1  0  0  0
  8 25  1  0  0  0
  9 26  1  0  0  0
  9 27  1  0  0  0
 11 28  1  0  0  0
 14 29  1  0  0  0
 16 30  1  0  0  0
 16 31  1  0  0  0
 16 32  1  0  0  0
 17 33  1  0  0  0
 20 34  1  0  0  0
M  END
$$$$
