4msn_ligand
  -I-interpret- 

 19 20  0  0  0  0  0  0  0  0999 V2000
    3.8080  -27.7220  -34.9920 C   0  0  0  0  0
    4.2670  -28.7340  -34.1400 C   0  0  0  0  0
    3.9700  -27.8490  -36.3750 C   0  0  0  0  0
    4.8850  -29.8740  -34.6450 C   0  0  0  0  0
    4.5930  -28.9970  -36.8740 C   0  0  0  0  0
    5.0480  -30.0030  -36.0220 C   0  0  0  0  0
    3.0390  -26.4750  -33.1350 C   0  0  0  0  0
    3.4790  -27.4590  -32.2510 C   0  0  0  0  0
    3.2080  -26.6220  -34.4750 N   0  0  0  0  0
    4.0980  -28.6010  -32.7610 C   0  0  0  0  0
    3.5390  -26.8930  -37.2200 N   0  0  0  0  0
    2.8230  -27.1890  -38.1660 O   0  0  0  0  0
    3.8440  -25.7190  -37.0770 O   0  0  0  0  0
    5.2368  -30.6556  -33.9717 H   0  0  0  0  0
    4.7257  -29.1079  -37.9502 H   0  0  0  0  0
    5.5307  -30.8894  -36.4335 H   0  0  0  0  0
    2.5546  -25.5788  -32.7473 H   0  0  0  0  0
    3.3415  -27.3381  -31.1765 H   0  0  0  0  0
    4.4470  -29.3835  -32.0872 H   0  0  0  0  0
  1  2  4  0  0  0
  1  3  4  0  0  0
  9  1  4  0  0  0
  2  4  4  0  0  0
  2 10  4  0  0  0
  3  5  4  0  0  0
  3 11  1  0  0  0
  4  6  4  0  0  0
  5  6  4  0  0  0
  7  8  4  0  0  0
  7  9  4  0  0  0
  8 10  4  0  0  0
 11 12  2  0  0  0
 11 13  2  0  0  0
  4 14  1  0  0  0
  5 15  1  0  0  0
  6 16  1  0  0  0
  7 17  1  0  0  0
  8 18  1  0  0  0
 10 19  1  0  0  0
M  END
$$$$
