5dyt_ligand
  -I-interpret- 

 58 61  0  0  0  0  0  0  0  0999 V2000
    6.0510   -9.5990  -14.5260 C   0  0  0  0  0
    5.6850   -7.1670  -13.0750 C   0  0  0  0  0
    5.2130   -5.2180  -14.3990 C   0  0  0  0  0
    7.3790   -5.4850  -13.3550 C   0  0  0  0  0
    2.2730  -14.1550  -15.7920 C   0  0  0  0  0
    1.6230  -12.6790  -17.5550 C   0  0  0  0  0
    0.9760  -11.1880  -19.3120 C   0  0  0  0  0
    4.4050  -15.3820  -12.9500 C   0  0  0  0  0
    4.3600  -13.9620  -13.3140 N   0  0  0  0  0
    5.2460  -13.1000  -12.5080 C   0  0  0  0  0
    5.5500  -11.8190  -13.2750 C   0  0  0  0  0
    6.7090  -12.0180  -14.2630 C   0  0  0  0  0
    6.9690  -10.7100  -15.0430 C   0  0  0  0  0
    6.1700   -9.4510  -13.0560 N   0  3  0  0  0
    5.2900   -8.3840  -12.5460 C   0  0  0  0  0
    4.8030   -6.4320  -13.8640 C   0  0  0  0  0
    6.4970   -4.7510  -14.1410 C   0  0  0  0  0
    6.9720   -6.6980  -12.8180 C   0  0  0  0  0
    5.9010  -10.7060  -12.3250 C   0  0  0  0  0
    2.8030  -13.3950  -13.2380 S   0  0  0  0  0
    2.6340  -12.1240  -12.3940 O   0  0  0  0  0
    1.9740  -14.5690  -12.6810 O   0  0  0  0  0
    2.3310  -13.0740  -14.9090 C   0  0  0  0  0
    1.9170  -13.9670  -17.1180 C   0  0  0  0  0
    1.2690  -12.4770  -18.8820 C   0  0  0  0  0
    1.0490  -10.1060  -18.4400 C   0  0  0  0  0
    1.4140  -10.3010  -17.1170 C   0  0  0  0  0
    1.6970  -11.5920  -16.6740 C   0  0  0  0  0
    2.0600  -11.7820  -15.3450 C   0  0  0  0  0
    5.0201   -9.8566  -14.7688 H   0  0  0  0  0
    6.3409   -8.6593  -14.9962 H   0  0  0  0  0
    4.5318   -4.6341  -15.0180 H   0  0  0  0  0
    8.3840   -5.1096  -13.1620 H   0  0  0  0  0
    2.5103  -15.1569  -15.4342 H   0  0  0  0  0
    0.6843  -11.0221  -20.3491 H   0  0  0  0  0
    4.0299  -15.5075  -11.9343 H   0  0  0  0  0
    3.7845  -15.9527  -13.6409 H   0  0  0  0  0
    5.4339  -15.7375  -13.0052 H   0  0  0  0  0
    6.1769  -13.6288  -12.3032 H   0  0  0  0  0
    4.7521  -12.8509  -11.5688 H   0  0  0  0  0
    4.6523  -11.5563  -13.8346 H   0  0  0  0  0
    6.4489  -12.8092  -14.9662 H   0  0  0  0  0
    7.6082  -12.2909  -13.7106 H   0  0  0  0  0
    8.0076  -10.4103  -14.9034 H   0  0  0  0  0
    6.7673  -10.8778  -16.1009 H   0  0  0  0  0
    7.1426   -9.1956  -12.8852 H   0  0  0  0  0
    4.2609   -8.5907  -12.8397 H   0  0  0  0  0
    5.3575   -8.3464  -11.4587 H   0  0  0  0  0
    3.7985   -6.8071  -14.0599 H   0  0  0  0  0
    6.8166   -3.7970  -14.5603 H   0  0  0  0  0
    7.6545   -7.2804  -12.1991 H   0  0  0  0  0
    6.7973  -10.9877  -11.7723 H   0  0  0  0  0
    5.0605  -10.5442  -11.6501 H   0  0  0  0  0
    1.8682  -14.8116  -17.8053 H   0  0  0  0  0
    1.2215  -13.3161  -19.5760 H   0  0  0  0  0
    0.8186   -9.1026  -18.7982 H   0  0  0  0  0
    1.4789   -9.4557  -16.4319 H   0  0  0  0  0
    2.1305  -10.9367  -14.6604 H   0  0  0  0  0
 13  1  1  0  0  0
 14  1  1  0  0  0
 15  2  1  0  0  0
  2 16  4  0  0  0
  2 18  4  0  0  0
 16  3  4  0  0  0
  3 17  4  0  0  0
  4 17  4  0  0  0
 18  4  4  0  0  0
 23  5  4  0  0  0
  5 24  4  0  0  0
 24  6  4  0  0  0
  6 25  4  0  0  0
  6 28  4  0  0  0
 25  7  4  0  0  0
  7 26  4  0  0  0
  9  8  1  0  0  0
  9 10  1  0  0  0
 20  9  1  0  0  0
 10 11  1  0  0  0
 11 12  1  0  0  0
 11 19  1  0  0  0
 12 13  1  0  0  0
 14 15  1  0  0  0
 19 14  1  0  0  0
 20 21  2  0  0  0
 20 22  2  0  0  0
 20 23  1  0  0  0
 23 29  4  0  0  0
 26 27  4  0  0  0
 27 28  4  0  0  0
 28 29  4  0  0  0
  1 30  1  0  0  0
  1 31  1  0  0  0
  3 32  1  0  0  0
  4 33  1  0  0  0
  5 34  1  0  0  0
  7 35  1  0  0  0
  8 36  1  0  0  0
  8 37  1  0  0  0
  8 38  1  0  0  0
 10 39  1  0  0  0
 10 40  1  0  0  0
 11 41  1  0  0  0
 12 42  1  0  0  0
 12 43  1  0  0  0
 13 44  1  0  0  0
 13 45  1  0  0  0
 14 46  1  0  0  0
 15 47  1  0  0  0
 15 48  1  0  0  0
 16 49  1  0  0  0
 17 50  1  0  0  0
 18 51  1  0  0  0
 19 52  1  0  0  0
 19 53  1  0  0  0
 24 54  1  0  0  0
 25 55  1  0  0  0
 26 56  1  0  0  0
 27 57  1  0  0  0
 29 58  1  0  0  0
M  END
$$$$
