4d2r_ligand
  -I-interpret- 

 58 62  0  0  0  0  0  0  0  0999 V2000
    1.5100   -3.9800   53.1740 C   0  0  0  0  0
    2.6870   -3.8130   52.3120 N   0  3  0  0  0
    6.2150   -4.7410   52.6610 O   0  0  0  0  0
    3.6950   -2.9800   52.9710 C   0  0  0  0  0
   10.6190   -2.4560   55.2000 N   0  0  0  0  0
    8.3600   -3.0100   56.5320 O   0  0  0  0  0
    4.8950   -2.7270   52.0490 C   0  0  0  0  0
   12.6720   -1.4290   55.5940 N   0  0  0  0  0
    5.4910   -4.0420   51.5790 C   0  0  0  0  0
   12.4610   -3.3250   54.1240 N   0  0  0  0  0
    4.4360   -4.9590   50.9950 C   0  0  0  0  0
   15.7300   -5.4660   51.6780 N   0  0  0  0  0
    3.2660   -5.1130   51.9710 C   0  0  0  0  0
   12.7640   -7.4830   50.6990 N   0  0  0  0  0
    7.3560   -4.1680   53.1860 C   0  0  0  0  0
    8.5440   -3.9600   52.4970 C   0  0  0  0  0
    9.6250   -3.3810   53.1430 C   0  0  0  0  0
    9.5530   -3.0690   54.5000 C   0  0  0  0  0
    8.3340   -3.3100   55.1970 C   0  0  0  0  0
    7.2550   -3.8830   54.5410 C   0  0  0  0  0
    7.2150   -3.3580   57.3240 C   0  0  0  0  0
   11.9650   -2.3960   54.9630 C   0  0  0  0  0
   13.9870   -1.4190   55.3340 C   0  0  0  0  0
   14.6030   -2.3220   54.4860 C   0  0  0  0  0
   13.7830   -3.2760   53.8910 C   0  0  0  0  0
   14.3220   -4.2770   52.9690 C   0  0  0  0  0
   15.6230   -4.4180   52.5540 C   0  0  0  0  0
   14.4890   -6.0350   51.4910 C   0  0  0  0  0
   13.5640   -5.3210   52.2780 C   0  0  0  0  0
   12.2260   -5.7130   52.2580 C   0  0  0  0  0
   11.8910   -6.7930   51.4530 C   0  0  0  0  0
   14.0500   -7.1070   50.7150 C   0  0  0  0  0
    0.7603   -4.5746   52.6519 H   0  0  0  0  0
    1.8032   -4.4880   54.0927 H   0  0  0  0  0
    1.0959   -3.0010   53.4150 H   0  0  0  0  0
    2.3856   -3.3508   51.4541 H   0  0  0  0  0
    4.0453   -3.4985   53.8635 H   0  0  0  0  0
    3.2425   -2.0212   53.2240 H   0  0  0  0  0
   10.3276   -1.9637   56.0445 H   0  0  0  0  0
    5.6537   -2.1711   52.5998 H   0  0  0  0  0
    4.5609   -2.1592   51.1806 H   0  0  0  0  0
    6.2057   -3.7887   50.7959 H   0  0  0  0  0
    4.8778   -5.9385   50.8119 H   0  0  0  0  0
    4.0678   -4.5297   50.0632 H   0  0  0  0  0
    2.4966   -5.7235   51.4983 H   0  0  0  0  0
    3.6339   -5.5805   52.8844 H   0  0  0  0  0
    8.6260   -4.2516   51.4499 H   0  0  0  0  0
   10.5376   -3.1681   52.5863 H   0  0  0  0  0
    6.3368   -4.1074   55.0838 H   0  0  0  0  0
    6.3360   -2.8441   56.9350 H   0  0  0  0  0
    7.0573   -4.4356   57.2786 H   0  0  0  0  0
    7.3851   -3.0577   58.3579 H   0  0  0  0  0
   14.6031   -0.6598   55.8158 H   0  0  0  0  0
   15.6754   -2.2880   54.2938 H   0  0  0  0  0
   16.4517   -3.7869   52.8752 H   0  0  0  0  0
   11.4736   -5.1924   52.8505 H   0  0  0  0  0
   10.8464   -7.1034   51.4307 H   0  0  0  0  0
   14.7709   -7.6528   50.1062 H   0  0  0  0  0
  2  1  1  0  0  0
  4  2  1  0  0  0
 13  2  1  0  0  0
  3  9  1  0  0  0
 15  3  1  0  0  0
  7  4  1  0  0  0
  5 18  1  0  0  0
 22  5  1  0  0  0
 19  6  1  0  0  0
  6 21  1  0  0  0
  9  7  1  0  0  0
 22  8  4  0  0  0
 23  8  4  0  0  0
  9 11  1  0  0  0
 10 22  4  0  0  0
 25 10  4  0  0  0
 11 13  1  0  0  0
 12 27  4  0  0  0
 28 12  4  0  0  0
 14 31  4  0  0  0
 32 14  4  0  0  0
 16 15  4  0  0  0
 20 15  4  0  0  0
 17 16  4  0  0  0
 18 17  4  0  0  0
 18 19  4  0  0  0
 19 20  4  0  0  0
 24 23  4  0  0  0
 25 24  4  0  0  0
 26 25  1  0  0  0
 26 27  4  0  0  0
 29 26  4  0  0  0
 28 29  4  0  0  0
 28 32  4  0  0  0
 29 30  4  0  0  0
 30 31  4  0  0  0
  1 33  1  0  0  0
  1 34  1  0  0  0
  1 35  1  0  0  0
  2 36  1  0  0  0
  4 37  1  0  0  0
  4 38  1  0  0  0
  5 39  1  0  0  0
  7 40  1  0  0  0
  7 41  1  0  0  0
  9 42  1  0  0  0
 11 43  1  0  0  0
 11 44  1  0  0  0
 13 45  1  0  0  0
 13 46  1  0  0  0
 16 47  1  0  0  0
 17 48  1  0  0  0
 20 49  1  0  0  0
 21 50  1  0  0  0
 21 51  1  0  0  0
 21 52  1  0  0  0
 23 53  1  0  0  0
 24 54  1  0  0  0
 27 55  1  0  0  0
 30 56  1  0  0  0
 31 57  1  0  0  0
 32 58  1  0  0  0
M  END
$$$$
