4wv6_ligand
  -I-interpret- 

179180  0  0  0  0  0  0  0  0999 V2000
  -16.2940   -8.4960   13.8490 N   0  3  0  0  0
  -16.3950   -9.6240   12.9170 C   0  0  0  0  0
  -17.6620  -10.4420   13.1420 C   0  0  0  0  0
  -18.3030  -10.3000   14.1780 O   0  0  0  0  0
  -15.1500  -10.4450   13.2330 C   0  0  0  0  0
  -14.9510  -10.2200   14.7060 C   0  0  0  0  0
  -15.4330   -8.8130   15.0010 C   0  0  0  0  0
  -18.0100  -11.2840   12.1770 N   0  0  0  0  0
  -19.2680  -12.0200   12.2050 C   0  0  0  0  0
  -19.2250  -13.1220   13.2610 C   0  0  0  0  0
  -20.1440  -13.2590   14.0680 O   0  0  0  0  0
  -19.5820  -12.6270   10.8260 C   0  0  0  0  0
  -20.8580  -13.4450   10.8630 C   0  0  0  0  0
  -19.6830  -11.5140    9.7790 C   0  0  0  0  0
  -18.1590  -13.9160   13.2330 N   0  0  0  0  0
  -17.9220  -14.9350   14.2400 C   0  0  0  0  0
  -16.5350  -14.7410   14.8050 C   0  0  0  0  0
  -15.6590  -14.1920   14.1370 O   0  0  0  0  0
  -18.0410  -16.3480   13.6700 C   0  0  0  0  0
  -19.4140  -16.7130   13.1560 C   0  0  0  0  0
  -19.3850  -18.1390   12.6090 C   0  0  0  0  0
  -20.7530  -18.6120   12.1950 C   0  0  0  0  0
  -20.6650  -19.8210   11.3210 N   0  3  0  0  0
  -16.3400  -15.2140   16.0250 N   0  0  0  0  0
  -15.1330  -14.9150   16.7610 C   0  0  0  0  0
  -14.8630  -16.0330   17.7640 C   0  0  0  0  0
  -15.7220  -16.3290   18.5820 O   0  0  0  0  0
  -15.3150  -13.5540   17.4550 C   0  0  0  0  0
  -14.3000  -13.1680   18.4900 C   0  0  0  0  0
  -14.5810  -11.7570   19.0060 C   0  0  0  0  0
  -16.0040  -11.6170   19.5350 C   0  0  0  0  0
  -16.1360  -10.5270   20.5380 N   0  3  0  0  0
  -13.6800  -16.6620   17.6970 N   0  0  0  0  0
  -13.3550  -17.6260   18.7490 C   0  0  0  0  0
  -12.7800  -16.9150   19.9630 C   0  0  0  0  0
  -12.1860  -15.8390   19.8290 O   0  0  0  0  0
  -12.3050  -18.5140   18.1000 C   0  0  0  0  0
  -11.5560  -17.5750   17.1990 C   0  0  0  0  0
  -12.6270  -16.6040   16.6700 C   0  0  0  0  0
  -12.9400  -17.5250   21.1310 N   0  0  0  0  0
  -12.2840  -17.0540   22.3400 C   0  0  0  0  0
  -10.9420  -17.7550   22.4720 C   0  0  0  0  0
  -10.8780  -18.9830   22.5490 O   0  0  0  0  0
  -13.1640  -17.3290   23.5620 C   0  0  0  0  0
  -12.5630  -16.8870   24.8740 C   0  0  0  0  0
  -13.4850  -17.1470   26.0400 C   0  0  0  0  0
  -12.7970  -16.8030   27.3320 C   0  0  0  0  0
  -13.7540  -16.6160   28.4480 N   0  3  0  0  0
   -9.8670  -16.9730   22.4660 N   0  0  0  0  0
   -8.5170  -17.5070   22.5820 C   0  0  0  0  0
   -7.8100  -16.7920   23.7230 C   0  0  0  0  0
   -8.1810  -15.6730   24.0760 O   0  0  0  0  0
   -7.7430  -17.3320   21.2560 C   0  0  0  0  0
   -7.7010  -15.8540   20.8550 C   0  0  0  0  0
   -8.4170  -18.1430   20.1460 C   0  0  0  0  0
   -6.8010  -15.5610   19.6800 C   0  0  0  0  0
   -6.8020  -17.4310   24.3110 N   0  0  0  0  0
   -5.9600  -16.7490   25.2840 C   0  0  0  0  0
   -5.1520  -15.6740   24.5420 C   0  0  0  0  0
   -5.1690  -15.6180   23.3130 O   0  0  0  0  0
   -5.0320  -17.7360   26.0170 C   0  0  0  0  0
   -5.6670  -18.4560   27.2240 C   0  0  0  0  0
   -4.6210  -19.2870   27.9820 C   0  0  0  0  0
   -5.1220  -19.9240   29.2080 N   0  0  0  0  0
   -4.3700  -20.6530   30.0330 C   0  0  0  0  0
   -4.8950  -21.2050   31.1310 N   0  0  0  0  0
   -3.0820  -20.8350   29.7670 N   0  0  0  0  0
   -4.4500  -14.8260   25.2850 N   0  0  0  0  0
   -3.6370  -13.7760   24.6800 C   0  0  0  0  0
   -2.5260  -14.3440   23.8020 C   0  0  0  0  0
   -1.7600  -15.2070   24.2350 O   0  0  0  0  0
   -3.0360  -12.8950   25.7670 C   0  0  0  0  0
   -2.1610  -11.7750   25.2290 C   0  0  0  0  0
   -1.9890  -10.6620   26.2400 C   0  0  0  0  0
   -3.2840  -10.1490   26.6800 N   0  0  0  0  0
   -3.5680   -8.8700   26.8940 C   0  0  0  0  0
   -4.7870   -8.5370   27.2900 N   0  0  0  0  0
   -2.6520   -7.9250   26.7130 N   0  0  0  0  0
   -2.3750  -13.9500   22.6440 O   0  0  0  0  0
  -17.2289   -8.2830   14.1968 H   0  0  0  0  0
  -15.8852   -7.7050   13.3515 H   0  0  0  0  0
  -16.4524   -9.3027   11.8770 H   0  0  0  0  0
  -14.2861  -10.1410   12.6419 H   0  0  0  0  0
  -15.2680  -11.4991   12.9820 H   0  0  0  0  0
  -13.9020  -10.3362   14.9784 H   0  0  0  0  0
  -15.5092  -10.9521   15.2896 H   0  0  0  0  0
  -15.9635   -8.7436   15.9507 H   0  0  0  0  0
  -14.6118   -8.1056   15.1160 H   0  0  0  0  0
  -17.3762  -11.4207   11.3896 H   0  0  0  0  0
  -20.0593  -11.3160   12.4625 H   0  0  0  0  0
  -18.7688  -13.2993   10.5524 H   0  0  0  0  0
  -20.7475  -14.2559   11.5829 H   0  0  0  0  0
  -21.6896  -12.8055   11.1590 H   0  0  0  0  0
  -21.0511  -13.8596    9.8736 H   0  0  0  0  0
  -20.4793  -10.8244   10.0593 H   0  0  0  0  0
  -18.7360  -10.9766    9.7293 H   0  0  0  0  0
  -19.9054  -11.9515    8.8058 H   0  0  0  0  0
  -17.4833  -13.8054   12.4769 H   0  0  0  0  0
  -18.6807  -14.8293   15.0154 H   0  0  0  0  0
  -17.8155  -17.0367   14.4842 H   0  0  0  0  0
  -17.3608  -16.4037   12.8201 H   0  0  0  0  0
  -19.7020  -16.0234   12.3625 H   0  0  0  0  0
  -20.1372  -16.6484   13.9689 H   0  0  0  0  0
  -19.0200  -18.7987   13.3962 H   0  0  0  0  0
  -18.7389  -18.1543   11.7313 H   0  0  0  0  0
  -21.2430  -17.8141   11.6370 H   0  0  0  0  0
  -21.3177  -18.8705   13.0908 H   0  0  0  0  0
  -21.6046  -20.1175   11.0573 H   0  0  0  0  0
  -20.1307  -19.5945   10.4822 H   0  0  0  0  0
  -20.1999  -20.5732   11.8291 H   0  0  0  0  0
  -17.0553  -15.8009   16.4543 H   0  0  0  0  0
  -14.2712  -14.8541   16.0964 H   0  0  0  0  0
  -16.2660  -13.6174   17.9838 H   0  0  0  0  0
  -15.2304  -12.8069   16.6659 H   0  0  0  0  0
  -13.3068  -13.1923   18.0416 H   0  0  0  0  0
  -14.3553  -13.8695   19.3224 H   0  0  0  0  0
  -14.4542  -11.0592   18.1783 H   0  0  0  0  0
  -13.8908  -11.5486   19.8235 H   0  0  0  0  0
  -16.2754  -12.5545   20.0204 H   0  0  0  0  0
  -16.6533  -11.3784   18.6926 H   0  0  0  0  0
  -17.1032  -10.4764   20.8581 H   0  0  0  0  0
  -15.5239  -10.7201   21.3308 H   0  0  0  0  0
  -15.8711   -9.6395   20.1107 H   0  0  0  0  0
  -14.2226  -18.1819   19.1044 H   0  0  0  0  0
  -12.7447  -19.3507   17.5570 H   0  0  0  0  0
  -11.6564  -18.9955   18.8318 H   0  0  0  0  0
  -11.0509  -18.1033   16.3904 H   0  0  0  0  0
  -10.7590  -17.0526   17.7281 H   0  0  0  0  0
  -12.2409  -15.5952   16.5237 H   0  0  0  0  0
  -12.9917  -16.8823   15.6812 H   0  0  0  0  0
  -13.5405  -18.3479   21.1818 H   0  0  0  0  0
  -12.1244  -15.9774   22.2802 H   0  0  0  0  0
  -13.3022  -18.4086   23.6206 H   0  0  0  0  0
  -14.0864  -16.7644   23.4260 H   0  0  0  0  0
  -12.3805  -15.8138   24.8189 H   0  0  0  0  0
  -11.6455  -17.4532   25.0345 H   0  0  0  0  0
  -13.7580  -18.2022   26.0509 H   0  0  0  0  0
  -14.3767  -16.5290   25.9348 H   0  0  0  0  0
  -12.2582  -15.8664   27.1887 H   0  0  0  0  0
  -12.1332  -17.6278   27.5911 H   0  0  0  0  0
  -13.2412  -16.3852   29.2990 H   0  0  0  0  0
  -14.3961  -15.8570   28.2201 H   0  0  0  0  0
  -14.2810  -17.4776   28.5903 H   0  0  0  0  0
   -9.9919  -15.9646   22.3771 H   0  0  0  0  0
   -8.5606  -18.5755   22.7929 H   0  0  0  0  0
   -6.7239  -17.6909   21.3995 H   0  0  0  0  0
   -7.3097  -15.2991   21.7077 H   0  0  0  0  0
   -8.7126  -15.5690   20.5659 H   0  0  0  0  0
   -8.4242  -19.1976   20.4215 H   0  0  0  0  0
   -9.4410  -17.7938   20.0133 H   0  0  0  0  0
   -7.8640  -18.0129   19.2158 H   0  0  0  0  0
   -5.7806  -15.8578   19.9226 H   0  0  0  0  0
   -7.1466  -16.1206   18.8108 H   0  0  0  0  0
   -6.8279  -14.4936   19.4607 H   0  0  0  0  0
   -6.6174  -18.4068   24.0783 H   0  0  0  0  0
   -6.5833  -16.2856   26.0488 H   0  0  0  0  0
   -4.1957  -17.1532   26.4032 H   0  0  0  0  0
   -4.7628  -18.5083   25.2965 H   0  0  0  0  0
   -6.4483  -19.1239   26.8613 H   0  0  0  0  0
   -6.0768  -17.7072   27.9019 H   0  0  0  0  0
   -3.8250  -18.6042   28.2792 H   0  0  0  0  0
   -4.3031  -20.0870   27.3134 H   0  0  0  0  0
   -6.1070  -19.8006   29.4425 H   0  0  0  0  0
   -4.3075  -21.7591   31.7541 H   0  0  0  0  0
   -5.8832  -21.0722   31.3460 H   0  0  0  0  0
   -2.6696  -20.4174   28.9328 H   0  0  0  0  0
   -4.4798  -14.9105   26.3011 H   0  0  0  0  0
   -4.2909  -13.1827   24.0409 H   0  0  0  0  0
   -1.9942  -15.4149   25.1425 H   0  0  0  0  0
   -2.4069  -13.5298   26.3910 H   0  0  0  0  0
   -3.8625  -12.4330   26.3069 H   0  0  0  0  0
   -2.6406  -11.3613   24.3419 H   0  0  0  0  0
   -1.1777  -12.1870   25.0021 H   0  0  0  0  0
   -1.4313   -9.8496   25.7740 H   0  0  0  0  0
   -1.4565  -11.0555   27.1058 H   0  0  0  0  0
   -4.0295  -10.8276   26.8352 H   0  0  0  0  0
   -5.4939   -9.2594   27.4269 H   0  0  0  0  0
   -2.8887   -6.9468   26.8790 H   0  0  0  0  0
   -1.7120   -8.1776   26.4080 H   0  0  0  0  0
  1  2  1  0  0  0
  1  7  1  0  0  0
  2  3  1  0  0  0
  2  5  1  0  0  0
  3  4  2  0  0  0
  3  8  1  0  0  0
  5  6  1  0  0  0
  6  7  1  0  0  0
  8  9  1  0  0  0
  9 10  1  0  0  0
  9 12  1  0  0  0
 10 11  2  0  0  0
 10 15  1  0  0  0
 12 13  1  0  0  0
 12 14  1  0  0  0
 15 16  1  0  0  0
 16 17  1  0  0  0
 16 19  1  0  0  0
 17 18  2  0  0  0
 17 24  1  0  0  0
 19 20  1  0  0  0
 20 21  1  0  0  0
 21 22  1  0  0  0
 22 23  1  0  0  0
 24 25  1  0  0  0
 25 26  1  0  0  0
 25 28  1  0  0  0
 26 27  2  0  0  0
 26 33  1  0  0  0
 28 29  1  0  0  0
 29 30  1  0  0  0
 30 31  1  0  0  0
 31 32  1  0  0  0
 33 34  1  0  0  0
 33 39  1  0  0  0
 34 35  1  0  0  0
 34 37  1  0  0  0
 35 36  2  0  0  0
 35 40  1  0  0  0
 37 38  1  0  0  0
 38 39  1  0  0  0
 40 41  1  0  0  0
 41 42  1  0  0  0
 41 44  1  0  0  0
 42 43  2  0  0  0
 42 49  1  0  0  0
 44 45  1  0  0  0
 45 46  1  0  0  0
 46 47  1  0  0  0
 47 48  1  0  0  0
 49 50  1  0  0  0
 50 51  1  0  0  0
 50 53  1  0  0  0
 51 52  2  0  0  0
 51 57  1  0  0  0
 53 54  1  0  0  0
 53 55  1  0  0  0
 54 56  1  0  0  0
 57 58  1  0  0  0
 58 59  1  0  0  0
 58 61  1  0  0  0
 59 60  2  0  0  0
 59 68  1  0  0  0
 61 62  1  0  0  0
 62 63  1  0  0  0
 63 64  1  0  0  0
 64 65  1  0  0  0
 65 66  1  0  0  0
 65 67  2  0  0  0
 68 69  1  0  0  0
 69 70  1  0  0  0
 69 72  1  0  0  0
 70 71  1  0  0  0
 70 79  2  0  0  0
 72 73  1  0  0  0
 73 74  1  0  0  0
 74 75  1  0  0  0
 75 76  1  0  0  0
 76 77  2  0  0  0
 76 78  1  0  0  0
  1 80  1  0  0  0
  1 81  1  0  0  0
  2 82  1  0  0  0
  5 83  1  0  0  0
  5 84  1  0  0  0
  6 85  1  0  0  0
  6 86  1  0  0  0
  7 87  1  0  0  0
  7 88  1  0  0  0
  8 89  1  0  0  0
  9 90  1  0  0  0
 12 91  1  0  0  0
 13 92  1  0  0  0
 13 93  1  0  0  0
 13 94  1  0  0  0
 14 95  1  0  0  0
 14 96  1  0  0  0
 14 97  1  0  0  0
 15 98  1  0  0  0
 16 99  1  0  0  0
 19100  1  0  0  0
 19101  1  0  0  0
 20102  1  0  0  0
 20103  1  0  0  0
 21104  1  0  0  0
 21105  1  0  0  0
 22106  1  0  0  0
 22107  1  0  0  0
 23108  1  0  0  0
 23109  1  0  0  0
 23110  1  0  0  0
 24111  1  0  0  0
 25112  1  0  0  0
 28113  1  0  0  0
 28114  1  0  0  0
 29115  1  0  0  0
 29116  1  0  0  0
 30117  1  0  0  0
 30118  1  0  0  0
 31119  1  0  0  0
 31120  1  0  0  0
 32121  1  0  0  0
 32122  1  0  0  0
 32123  1  0  0  0
 34124  1  0  0  0
 37125  1  0  0  0
 37126  1  0  0  0
 38127  1  0  0  0
 38128  1  0  0  0
 39129  1  0  0  0
 39130  1  0  0  0
 40131  1  0  0  0
 41132  1  0  0  0
 44133  1  0  0  0
 44134  1  0  0  0
 45135  1  0  0  0
 45136  1  0  0  0
 46137  1  0  0  0
 46138  1  0  0  0
 47139  1  0  0  0
 47140  1  0  0  0
 48141  1  0  0  0
 48142  1  0  0  0
 48143  1  0  0  0
 49144  1  0  0  0
 50145  1  0  0  0
 53146  1  0  0  0
 54147  1  0  0  0
 54148  1  0  0  0
 55149  1  0  0  0
 55150  1  0  0  0
 55151  1  0  0  0
 56152  1  0  0  0
 56153  1  0  0  0
 56154  1  0  0  0
 57155  1  0  0  0
 58156  1  0  0  0
 61157  1  0  0  0
 61158  1  0  0  0
 62159  1  0  0  0
 62160  1  0  0  0
 63161  1  0  0  0
 63162  1  0  0  0
 64163  1  0  0  0
 66164  1  0  0  0
 66165  1  0  0  0
 67166  1  0  0  0
 68167  1  0  0  0
 69168  1  0  0  0
 71169  1  0  0  0
 72170  1  0  0  0
 72171  1  0  0  0
 73172  1  0  0  0
 73173  1  0  0  0
 74174  1  0  0  0
 74175  1  0  0  0
 75176  1  0  0  0
 77177  1  0  0  0
 78178  1  0  0  0
 78179  1  0  0  0
M  END
$$$$
