### 
### Created by X-TOOL on Mon Sep 10 21:13:20 2018
### 

@<TRIPOS>MOLECULE
4wv6_ligand
  180   181     1     0     0
SMALL
GAST_HUCK


@<TRIPOS>ATOM
      1 N         -16.2940   -8.4960   13.8490 N.4       1 PRO         0.2461
      2 CA        -16.3950   -9.6240   12.9170 C.3       1 PRO         0.0670
      3 C         -17.6620  -10.4420   13.1420 C.2       1 PRO         0.2268
      4 O         -18.3030  -10.3000   14.1780 O.2       1 PRO        -0.3907
      5 CB        -15.1500  -10.4450   13.2330 C.3       1 PRO         0.0127
      6 CG        -14.9510  -10.2200   14.7060 C.3       1 PRO        -0.0053
      7 CD        -15.4330   -8.8130   15.0010 C.3       1 PRO        -0.0313
      8 N         -18.0100  -11.2840   12.1770 N.am      1 VAL        -0.2608
      9 CA        -19.2680  -12.0200   12.2050 C.3       1 VAL         0.1334
     10 C         -19.2250  -13.1220   13.2610 C.2       1 VAL         0.2042
     11 O         -20.1440  -13.2590   14.0680 O.2       1 VAL        -0.3944
     12 CB        -19.5820  -12.6270   10.8260 C.3       1 VAL        -0.0063
     13 CG1       -20.8580  -13.4450   10.8630 C.3       1 VAL        -0.0584
     14 CG2       -19.6830  -11.5140    9.7790 C.3       1 VAL        -0.0584
     15 N         -18.1590  -13.9160   13.2330 N.am      1 LYS        -0.2637
     16 CA        -17.9220  -14.9350   14.2400 C.3       1 LYS         0.1310
     17 C         -16.5350  -14.7410   14.8050 C.2       1 LYS         0.2039
     18 O         -15.6590  -14.1920   14.1370 O.2       1 LYS        -0.3944
     19 CB        -18.0410  -16.3480   13.6700 C.3       1 LYS        -0.0122
     20 CG        -19.4140  -16.7130   13.1560 C.3       1 LYS        -0.0440
     21 CD        -19.3850  -18.1390   12.6090 C.3       1 LYS        -0.0124
     22 CE        -20.7530  -18.6120   12.1950 C.3       1 LYS        -0.0354
     23 NZ        -20.6650  -19.8210   11.3210 N.4       1 LYS         0.2185
     24 N         -16.3400  -15.2140   16.0250 N.am      1 LYS        -0.2637
     25 CA        -15.1330  -14.9150   16.7610 C.3       1 LYS         0.1312
     26 C         -14.8630  -16.0330   17.7640 C.2       1 LYS         0.2064
     27 O         -15.7220  -16.3290   18.5820 O.2       1 LYS        -0.3942
     28 CB        -15.3150  -13.5540   17.4550 C.3       1 LYS        -0.0122
     29 CG        -14.3000  -13.1680   18.4900 C.3       1 LYS        -0.0440
     30 CD        -14.5810  -11.7570   19.0060 C.3       1 LYS        -0.0124
     31 CE        -16.0040  -11.6170   19.5350 C.3       1 LYS        -0.0354
     32 NZ        -16.1360  -10.5270   20.5380 N.4       1 LYS         0.2185
     33 N         -13.6800  -16.6620   17.6970 N.am      1 PRO        -0.2498
     34 CA        -13.3550  -17.6260   18.7490 C.3       1 PRO         0.1338
     35 C         -12.7800  -16.9150   19.9630 C.2       1 PRO         0.2041
     36 O         -12.1860  -15.8390   19.8290 O.2       1 PRO        -0.3944
     37 CB        -12.3050  -18.5140   18.1000 C.3       1 PRO        -0.0104
     38 CG        -11.5560  -17.5750   17.1990 C.3       1 PRO        -0.0281
     39 CD        -12.6270  -16.6040   16.6700 C.3       1 PRO         0.0369
     40 N         -12.9400  -17.5250   21.1310 N.am      1 LYS        -0.2637
     41 CA        -12.2840  -17.0540   22.3400 C.3       1 LYS         0.1310
     42 C         -10.9420  -17.7550   22.4720 C.2       1 LYS         0.2039
     43 O         -10.8780  -18.9830   22.5490 O.2       1 LYS        -0.3944
     44 CB        -13.1640  -17.3290   23.5620 C.3       1 LYS        -0.0122
     45 CG        -12.5630  -16.8870   24.8740 C.3       1 LYS        -0.0440
     46 CD        -13.4850  -17.1470   26.0400 C.3       1 LYS        -0.0124
     47 CE        -12.7970  -16.8030   27.3320 C.3       1 LYS        -0.0354
     48 NZ        -13.7540  -16.6160   28.4480 N.4       1 LYS         0.2185
     49 N          -9.8670  -16.9730   22.4660 N.am      1 ILE        -0.2635
     50 CA         -8.5170  -17.5070   22.5820 C.3       1 ILE         0.1335
     51 C          -7.8100  -16.7920   23.7230 C.2       1 ILE         0.2042
     52 O          -8.1810  -15.6730   24.0760 O.2       1 ILE        -0.3944
     53 CB         -7.7430  -17.3320   21.2560 C.3       1 ILE        -0.0037
     54 CG1        -7.7010  -15.8540   20.8550 C.3       1 ILE        -0.0491
     55 CG2        -8.4170  -18.1430   20.1460 C.3       1 ILE        -0.0582
     56 CD1        -6.8010  -15.5610   19.6800 C.3       1 ILE        -0.0648
     57 N          -6.8020  -17.4310   24.3110 N.am      1 ARG        -0.2637
     58 CA         -5.9600  -16.7490   25.2840 C.3       1 ARG         0.1310
     59 C          -5.1520  -15.6740   24.5420 C.2       1 ARG         0.2033
     60 O          -5.1690  -15.6180   23.3130 O.2       1 ARG        -0.3944
     61 CB         -5.0320  -17.7360   26.0170 C.3       1 ARG        -0.0092
     62 CG         -5.6670  -18.4560   27.2240 C.3       1 ARG        -0.0156
     63 CD         -4.6210  -19.2870   27.9820 C.3       1 ARG         0.0627
     64 NE         -5.1220  -19.9240   29.2080 N.pl3     1 ARG        -0.2723
     65 CZ         -4.3700  -20.6530   30.0330 C.cat     1 ARG         0.2882
     66 NH1        -4.8950  -21.2050   31.1310 N.pl3     1 ARG        -0.2849
     67 NH2        -3.0820  -20.8350   29.7670 N.pl3     1 ARG        -0.2849
     68 N          -4.4500  -14.8260   25.2850 N.am      1 ARG        -0.2695
     69 CA         -3.6370  -13.7760   24.6800 C.3       1 ARG         0.0945
     70 C          -2.5260  -14.3440   23.8020 C.2       1 ARG         0.0601
     71 O          -1.7600  -15.2070   24.2350 O.co2     1 ARG        -0.5666
     72 CB         -3.0360  -12.8950   25.7670 C.3       1 ARG        -0.0148
     73 CG         -2.1610  -11.7750   25.2290 C.3       1 ARG        -0.0162
     74 CD         -1.9890  -10.6620   26.2400 C.3       1 ARG         0.0627
     75 NE         -3.2840  -10.1490   26.6800 N.pl3     1 ARG        -0.2723
     76 CZ         -3.5680   -8.8700   26.8940 C.cat     1 ARG         0.2882
     77 NH1        -4.7870   -8.5370   27.2900 N.pl3     1 ARG        -0.2849
     78 NH2        -2.6520   -7.9250   26.7130 N.pl3     1 ARG        -0.2849
     79 OXT        -2.3750  -13.9500   22.6440 O.co2     1 ARG        -0.5666
     80 H1        -17.2164   -8.2666   14.1846 H         1 PRO         0.2035
     81 H2        -15.9071   -7.7033   13.3611 H         1 PRO         0.2035
     82 H3        -16.3763   -9.2695   11.8759 H         1 PRO         0.1099
     83 H4        -14.2839  -10.0840   12.6589 H         1 PRO         0.0347
     84 H5        -15.3154  -11.5107   13.0162 H         1 PRO         0.0347
     85 H6        -13.8862  -10.3178   14.9640 H         1 PRO         0.0320
     86 H7        -15.5368  -10.9502   15.2836 H         1 PRO         0.0320
     87 H8        -16.0053   -8.7822   15.9399 H         1 PRO         0.0814
     88 H9        -14.5870   -8.1128   15.0641 H         1 PRO         0.0814
     89 H10       -17.3886  -11.4180   11.4050 H         1 VAL         0.1885
     90 H11       -20.0728  -11.3174   12.4669 H         1 VAL         0.0802
     91 H12       -18.7543  -13.2949   10.5453 H         1 VAL         0.0343
     92 H13       -21.0540  -13.8640    9.8650 H         1 VAL         0.0234
     93 H14       -21.6981  -12.8007   11.1616 H         1 VAL         0.0234
     94 H15       -20.7477  -14.2638   11.5892 H         1 VAL         0.0234
     95 H16       -18.7483  -10.9341    9.7691 H         1 VAL         0.0234
     96 H17       -20.5237  -10.8502   10.0294 H         1 VAL         0.0234
     97 H18       -19.8494  -11.9582    8.7865 H         1 VAL         0.0234
     98 H19       -17.4966  -13.8076   12.4918 H         1 LYS         0.1883
     99 H20       -18.6631  -14.8168   15.0443 H         1 LYS         0.0800
    100 H21       -17.7729  -17.0605   14.4640 H         1 LYS         0.0312
    101 H22       -17.3284  -16.4417   12.8373 H         1 LYS         0.0312
    102 H23       -19.7032  -16.0176   12.3542 H         1 LYS         0.0269
    103 H24       -20.1429  -16.6492   13.9773 H         1 LYS         0.0269
    104 H25       -18.9980  -18.8109   13.3892 H         1 LYS         0.0317
    105 H26       -18.7186  -18.1704   11.7344 H         1 LYS         0.0317
    106 H27       -21.2595  -17.8064   11.6432 H         1 LYS         0.0813
    107 H28       -21.3341  -18.8615   13.0951 H         1 LYS         0.0813
    108 H29       -21.5931  -20.1150   11.0597 H         1 LYS         0.1994
    109 H30       -20.2055  -20.5652   11.8221 H         1 LYS         0.1994
    110 H31       -20.1371  -19.5984   10.4916 H         1 LYS         0.1994
    111 H32       -17.0413  -15.7894   16.4459 H         1 LYS         0.1883
    112 H33       -14.2841  -14.8511   16.0644 H         1 LYS         0.0800
    113 H34       -16.2998  -13.5621   17.9450 H         1 LYS         0.0312
    114 H35       -15.3006  -12.7801   16.6735 H         1 LYS         0.0312
    115 H36       -13.2956  -13.1976   18.0425 H         1 LYS         0.0269
    116 H37       -14.3487  -13.8778   19.3289 H         1 LYS         0.0269
    117 H38       -14.4359  -11.0420   18.1828 H         1 LYS         0.0317
    118 H39       -13.8757  -11.5287   19.8186 H         1 LYS         0.0317
    119 H40       -16.3002  -12.5663   20.0052 H         1 LYS         0.0813
    120 H41       -16.6745  -11.4014   18.6900 H         1 LYS         0.0813
    121 H42       -17.0915  -10.4761   20.8550 H         1 LYS         0.1994
    122 H43       -15.8745   -9.6493   20.1168 H         1 LYS         0.1994
    123 H44       -15.5315  -10.7168   21.3220 H         1 LYS         0.1994
    124 H45       -14.2408  -18.2079   19.0434 H         1 PRO         0.0802
    125 H46       -12.7770  -19.3212   17.5207 H         1 PRO         0.0313
    126 H47       -11.6360  -18.9489   18.8572 H         1 PRO         0.0313
    127 H48       -11.0870  -18.1246   16.3696 H         1 PRO         0.0287
    128 H49       -10.7832  -17.0310   17.7618 H         1 PRO         0.0287
    129 H50       -12.2230  -15.5850   16.5781 H         1 PRO         0.0524
    130 H51       -13.0108  -16.9357   15.6940 H         1 PRO         0.0524
    131 H52       -13.5287  -18.3318   21.1808 H         1 LYS         0.1883
    132 H53       -12.1167  -15.9697   22.2614 H         1 LYS         0.0800
    133 H54       -13.3496  -18.4119   23.6159 H         1 LYS         0.0312
    134 H55       -14.1185  -16.7997   23.4250 H         1 LYS         0.0312
    135 H56       -12.3532  -15.8084   24.8220 H         1 LYS         0.0269
    136 H57       -11.6236  -17.4359   25.0361 H         1 LYS         0.0269
    137 H58       -13.7671  -18.2102   26.0503 H         1 LYS         0.0317
    138 H59       -14.3887  -16.5289   25.9337 H         1 LYS         0.0317
    139 H60       -12.2296  -15.8710   27.1931 H         1 LYS         0.0813
    140 H61       -12.1055  -17.6180   27.5922 H         1 LYS         0.0813
    141 H62       -13.2483  -16.3878   29.2896 H         1 LYS         0.1994
    142 H63       -14.2755  -17.4669   28.5896 H         1 LYS         0.1994
    143 H64       -14.3891  -15.8660   28.2239 H         1 LYS         0.1994
    144 H65        -9.9895  -15.9844   22.3789 H         1 ILE         0.1883
    145 H66        -8.5750  -18.5807   22.8140 H         1 ILE         0.0803
    146 H67        -6.7139  -17.6956   21.3930 H         1 ILE         0.0345
    147 H68        -7.3440  -15.2719   21.7174 H         1 ILE         0.0267
    148 H69        -8.7219  -15.5370   20.5958 H         1 ILE         0.0267
    149 H70        -8.4471  -19.2042   20.4340 H         1 ILE         0.0235
    150 H71        -7.8457  -18.0325   19.2125 H         1 ILE         0.0235
    151 H72        -9.4424  -17.7751   19.9940 H         1 ILE         0.0235
    152 H73        -6.8273  -14.4840   19.4577 H         1 ILE         0.0230
    153 H74        -7.1488  -16.1252   18.8021 H         1 ILE         0.0230
    154 H75        -5.7709  -15.8601   19.9236 H         1 ILE         0.0230
    155 H76        -6.6210  -18.3877   24.0829 H         1 ARG         0.1883
    156 H77        -6.6028  -16.2606   26.0311 H         1 ARG         0.0800
    157 H78        -4.1552  -17.1771   26.3760 H         1 ARG         0.0313
    158 H79        -4.7091  -18.5006   25.2952 H         1 ARG         0.0313
    159 H80        -6.4653  -19.1227   26.8660 H         1 ARG         0.0301
    160 H81        -6.0939  -17.7062   27.9063 H         1 ARG         0.0301
    161 H82        -3.7872  -18.6236   28.2554 H         1 ARG         0.0689
    162 H83        -4.2558  -20.0767   27.3089 H         1 ARG         0.0689
    163 H84        -6.1166  -19.7994   29.4448 H         1 ARG         0.2642
    164 H85        -4.3021  -21.7658   31.7594 H         1 ARG         0.2615
    165 H86        -5.8926  -21.0697   31.3489 H         1 ARG         0.2615
    166 H87        -2.6659  -20.4146   28.9238 H         1 ARG         0.2615
    167 H88        -2.4989  -21.3966   30.4039 H         1 ARG         0.2615
    168 H89        -4.4792  -14.9089   26.2811 H         1 ARG         0.1875
    169 H90        -4.2911  -13.1571   24.0482 H         1 ARG         0.0726
    170 H91        -2.4245  -13.5268   26.4279 H         1 ARG         0.0307
    171 H92        -3.8576  -12.4470   26.3451 H         1 ARG         0.0307
    172 H93        -2.6273  -11.3632   24.3218 H         1 ARG         0.0301
    173 H94        -1.1714  -12.1850   24.9789 H         1 ARG         0.0301
    174 H95        -1.4156   -9.8437   25.7800 H         1 ARG         0.0689
    175 H96        -1.4407  -11.0493   27.1114 H         1 ARG         0.0689
    176 H97        -4.0368  -10.8343   26.8367 H         1 ARG         0.2642
    177 H98        -5.0213   -7.5485   27.4598 H         1 ARG         0.2615
    178 H99        -5.5009   -9.2665   27.4282 H         1 ARG         0.2615
    179 H100       -1.7028   -8.1801   26.4051 H         1 ARG         0.2615
    180 H101       -2.8910   -6.9372   26.8806 H         1 ARG         0.2615
@<TRIPOS>BOND
     1    1    2 1  
     2    1    7 1  
     3    2    3 1  
     4    2    5 1  
     5    3    4 2  
     6    3    8 am 
     7    5    6 1  
     8    6    7 1  
     9    8    9 1  
    10    9   10 1  
    11    9   12 1  
    12   10   11 2  
    13   10   15 am 
    14   12   13 1  
    15   12   14 1  
    16   15   16 1  
    17   16   17 1  
    18   16   19 1  
    19   17   18 2  
    20   17   24 am 
    21   19   20 1  
    22   20   21 1  
    23   21   22 1  
    24   22   23 1  
    25   24   25 1  
    26   25   26 1  
    27   25   28 1  
    28   26   27 2  
    29   26   33 am 
    30   28   29 1  
    31   29   30 1  
    32   30   31 1  
    33   31   32 1  
    34   33   34 1  
    35   33   39 1  
    36   34   35 1  
    37   34   37 1  
    38   35   36 2  
    39   35   40 am 
    40   37   38 1  
    41   38   39 1  
    42   40   41 1  
    43   41   42 1  
    44   41   44 1  
    45   42   43 2  
    46   42   49 am 
    47   44   45 1  
    48   45   46 1  
    49   46   47 1  
    50   47   48 1  
    51   49   50 1  
    52   50   51 1  
    53   50   53 1  
    54   51   52 2  
    55   51   57 am 
    56   53   54 1  
    57   53   55 1  
    58   54   56 1  
    59   57   58 1  
    60   58   59 1  
    61   58   61 1  
    62   59   60 2  
    63   59   68 am 
    64   61   62 1  
    65   62   63 1  
    66   63   64 1  
    67   64   65 ar 
    68   65   66 ar 
    69   65   67 ar 
    70   68   69 1  
    71   69   70 1  
    72   69   72 1  
    73   70   71 ar 
    74   70   79 ar 
    75   72   73 1  
    76   73   74 1  
    77   74   75 1  
    78   75   76 ar 
    79   76   77 ar 
    80   76   78 ar 
    81    1   80 1  
    82    1   81 1  
    83    2   82 1  
    84    5   83 1  
    85    5   84 1  
    86    6   85 1  
    87    6   86 1  
    88    7   87 1  
    89    7   88 1  
    90    8   89 1  
    91    9   90 1  
    92   12   91 1  
    93   13   92 1  
    94   13   93 1  
    95   13   94 1  
    96   14   95 1  
    97   14   96 1  
    98   14   97 1  
    99   15   98 1  
   100   16   99 1  
   101   19  100 1  
   102   19  101 1  
   103   20  102 1  
   104   20  103 1  
   105   21  104 1  
   106   21  105 1  
   107   22  106 1  
   108   22  107 1  
   109   23  108 1  
   110   23  109 1  
   111   23  110 1  
   112   24  111 1  
   113   25  112 1  
   114   28  113 1  
   115   28  114 1  
   116   29  115 1  
   117   29  116 1  
   118   30  117 1  
   119   30  118 1  
   120   31  119 1  
   121   31  120 1  
   122   32  121 1  
   123   32  122 1  
   124   32  123 1  
   125   34  124 1  
   126   37  125 1  
   127   37  126 1  
   128   38  127 1  
   129   38  128 1  
   130   39  129 1  
   131   39  130 1  
   132   40  131 1  
   133   41  132 1  
   134   44  133 1  
   135   44  134 1  
   136   45  135 1  
   137   45  136 1  
   138   46  137 1  
   139   46  138 1  
   140   47  139 1  
   141   47  140 1  
   142   48  141 1  
   143   48  142 1  
   144   48  143 1  
   145   49  144 1  
   146   50  145 1  
   147   53  146 1  
   148   54  147 1  
   149   54  148 1  
   150   55  149 1  
   151   55  150 1  
   152   55  151 1  
   153   56  152 1  
   154   56  153 1  
   155   56  154 1  
   156   57  155 1  
   157   58  156 1  
   158   61  157 1  
   159   61  158 1  
   160   62  159 1  
   161   62  160 1  
   162   63  161 1  
   163   63  162 1  
   164   64  163 1  
   165   66  164 1  
   166   66  165 1  
   167   67  166 1  
   168   67  167 1  
   169   68  168 1  
   170   69  169 1  
   171   72  170 1  
   172   72  171 1  
   173   73  172 1  
   174   73  173 1  
   175   74  174 1  
   176   74  175 1  
   177   75  176 1  
   178   77  177 1  
   179   77  178 1  
   180   78  179 1  
   181   78  180 1  
@<TRIPOS>SUBSTRUCTURE
     1 PRO         1

