3iux_ligand
  -I-interpret- 

293300  0  0  0  0  0  0  0  0999 V2000
    0.3630   34.3500   12.0330 N   0  3  0  0  0
    0.7940   33.6150   10.7900 C   0  0  0  0  0
    0.1830   34.2260    9.5390 C   0  0  0  0  0
   -1.0110   34.1370    9.3090 O   0  0  0  0  0
    0.4440   32.1330   10.9160 C   0  0  0  0  0
    0.7870   31.1040    9.4690 S   0  0  0  0  0
    1.0540   34.8390    8.7420 N   0  0  0  0  0
    0.7240   35.5260    7.5100 C   0  0  0  0  0
    1.0590   34.6230    6.3280 C   0  0  0  0  0
    2.2110   34.4820    5.9650 O   0  0  0  0  0
    1.4890   36.8340    7.4200 C   0  0  0  0  0
    1.2110   37.5730    6.1130 C   0  0  0  0  0
    0.3410   37.1820    5.3410 O   0  0  0  0  0
    1.9380   38.6500    5.8810 N   0  0  0  0  0
    0.0450   34.0610    5.6970 N   0  0  0  0  0
    0.3360   33.1220    4.6000 C   0  0  0  0  0
    0.9490   33.7890    3.3550 C   0  0  0  0  0
    1.4630   33.0840    2.4730 O   0  0  0  0  0
   -0.9250   32.3320    4.2580 C   0  0  0  0  0
   -1.4440   31.2640    5.6260 S   0  0  0  0  0
    0.9120   35.1310    3.2790 N   0  0  0  0  0
    1.6680   35.8400    2.2410 C   0  0  0  0  0
    3.1800   35.8830    2.5270 C   0  0  0  0  0
    4.0010   36.1420    1.6180 O   0  0  0  0  0
    1.1190   37.2460    2.0250 C   0  0  0  0  0
   -0.2190   37.2330    1.3280 C   0  0  0  0  0
   -0.5390   38.6070    0.7720 C   0  0  0  0  0
   -1.8780   38.6240    0.0350 C   0  0  0  0  0
   -2.1420   39.9290   -0.6260 N   0  3  0  0  0
    3.5640   35.6580    3.7820 N   0  0  0  0  0
    4.9660   35.7020    4.1610 C   0  0  0  0  0
    5.1840   34.9070    5.4440 C   0  0  0  0  0
    5.4380   35.4910    6.4970 O   0  0  0  0  0
    5.4160   37.1910    4.3480 C   0  0  0  0  0
    5.0870   33.5770    5.3400 N   0  0  0  0  0
    5.4390   32.7990    6.4940 C   0  0  0  0  0
    6.9380   32.9660    6.6680 C   0  0  0  0  0
    7.6830   33.0960    5.6820 O   0  0  0  0  0
    5.1050   31.3650    6.0680 C   0  0  0  0  0
    4.0860   31.5300    4.9510 C   0  0  0  0  0
    4.5640   32.7430    4.2440 C   0  0  0  0  0
    7.3670   33.0210    7.9120 N   0  0  0  0  0
    8.7770   33.0660    8.2170 C   0  0  0  0  0
    9.1420   31.7500    8.8870 C   0  0  0  0  0
   10.2970   31.3280    8.8340 O   0  0  0  0  0
    9.0840   34.2260    9.1680 C   0  0  0  0  0
   10.5300   34.3580    9.5000 C   0  0  0  0  0
   11.3690   34.3620    8.2560 C   0  0  0  0  0
   12.3570   33.5940    8.2060 O   0  0  0  0  0
   11.0010   35.0970    7.3110 O   0  0  0  0  0
    8.1570   31.1040    9.5100 N   0  0  0  0  0
    8.4660   29.8720   10.2820 C   0  0  0  0  0
    7.9000   28.6150    9.6470 C   0  0  0  0  0
    6.8340   28.6490    8.9830 O   0  0  0  0  0
    7.9280   29.9510   11.7150 C   0  0  0  0  0
    6.4910   30.0770   11.7130 O   0  0  0  0  0
    8.5070   31.1350   12.4170 C   0  0  0  0  0
    8.5540   27.4890    9.9060 N   0  0  0  0  0
    8.0790   26.2200    9.3710 C   0  0  0  0  0
    6.5990   25.9790    9.7850 C   0  0  0  0  0
    5.7740   25.6250    8.9470 O   0  0  0  0  0
    8.9290   25.0260    9.8820 C   0  0  0  0  0
    8.2480   23.7460    9.6630 C   0  0  0  0  0
    8.1730   23.2290    8.3760 C   0  0  0  0  0
    7.5940   23.0870   10.7160 C   0  0  0  0  0
    7.4600   22.0390    8.1450 C   0  0  0  0  0
    6.9020   21.9070   10.5260 C   0  0  0  0  0
    6.8070   21.3800    9.2470 C   0  0  0  0  0
    6.2520   26.1790   11.0650 N   0  0  0  0  0
    4.8510   25.7950   11.4610 C   0  0  0  0  0
    3.8120   26.7430   10.8410 C   0  0  0  0  0
    2.6780   26.3190   10.6020 O   0  0  0  0  0
    4.6660   25.6330   12.9900 C   0  0  0  0  0
    5.2400   24.2970   13.5650 C   0  0  0  0  0
    5.1750   24.3370   15.0440 C   0  0  0  0  0
    4.5110   23.0740   13.0490 C   0  0  0  0  0
    4.2130   27.9760   10.5290 N   0  0  0  0  0
    3.2970   28.8660    9.8230 C   0  0  0  0  0
    3.1390   28.4270    8.3510 C   0  0  0  0  0
    2.0230   28.3490    7.8320 O   0  0  0  0  0
    3.7440   30.3190    9.9140 C   0  0  0  0  0
    2.7100   31.4870    8.9870 S   0  0  0  0  0
    4.2380   28.0600    7.6860 N   0  0  0  0  0
    4.0830   27.3820    6.3940 C   0  0  0  0  0
    3.1520   26.1570    6.4900 C   0  0  0  0  0
    2.2870   25.9550    5.6150 O   0  0  0  0  0
    5.4170   26.9360    5.7900 C   0  0  0  0  0
    6.2410   28.0520    5.1860 C   0  0  0  0  0
    7.3940   28.5420    5.8140 C   0  0  0  0  0
    5.8660   28.6170    3.9610 C   0  0  0  0  0
    8.1360   29.5580    5.2280 C   0  0  0  0  0
    6.5980   29.6350    3.3810 C   0  0  0  0  0
    7.7220   30.1130    4.0120 C   0  0  0  0  0
    8.4490   31.1220    3.3910 O   0  0  0  0  0
    3.3060   25.3670    7.5400 N   0  0  0  0  0
    2.5680   24.1380    7.6490 C   0  0  0  0  0
    1.0680   24.4460    7.9010 C   0  0  0  0  0
    0.1890   23.7440    7.4440 O   0  0  0  0  0
    3.1950   23.2650    8.7880 C   0  0  0  0  0
    2.7170   21.8820    8.7920 C   0  0  0  0  0
    1.7850   21.3340    9.6280 C   0  0  0  0  0
    3.1340   20.8520    7.9080 C   0  0  0  0  0
    1.5670   20.0150    9.2790 N   0  0  0  0  0
    2.3780   19.6980    8.2260 C   0  0  0  0  0
    4.0490   20.8120    6.8400 C   0  0  0  0  0
    2.5180   18.4860    7.5300 C   0  0  0  0  0
    4.1870   19.6010    6.1290 C   0  0  0  0  0
    3.4510   18.4400    6.5240 C   0  0  0  0  0
    0.8020   25.5060    8.6620 N   0  0  0  0  0
   -0.5910   25.9330    8.8810 C   0  0  0  0  0
   -1.2140   26.4080    7.5660 C   0  0  0  0  0
   -2.3560   26.1110    7.2640 O   0  0  0  0  0
   -0.6380   27.0700    9.9210 C   0  0  0  0  0
   -2.0040   27.6150   10.3000 C   0  0  0  0  0
   -1.8750   28.4720   11.6230 C   0  0  0  0  0
   -2.9130   29.4960   11.7830 N   0  0  0  0  0
   -2.8100   30.5440   12.6040 C   0  0  0  0  0
   -1.7230   30.6980   13.3680 N   0  0  0  0  0
   -3.7930   31.4370   12.6710 N   0  0  0  0  0
   -0.4370   27.1860    6.8190 N   0  0  0  0  0
   -0.8970   27.7330    5.5610 C   0  0  0  0  0
   -1.2120   26.6510    4.5360 C   0  0  0  0  0
   -2.1580   26.7790    3.7550 O   0  0  0  0  0
    0.1240   28.7200    5.0150 C   0  0  0  0  0
    0.2050   30.1840    6.0830 S   0  0  0  0  0
   -0.4590   25.5530    4.5920 N   0  0  0  0  0
   -0.7090   24.3610    3.7480 C   0  0  0  0  0
   -2.1210   23.8250    3.9410 C   0  0  0  0  0
   -2.7330   23.3560    3.0160 O   0  0  0  0  0
    0.3270   23.2790    4.1910 C   0  0  0  0  0
    0.0120   21.8210    3.8370 C   0  0  0  0  0
    0.0990   21.5620    2.3230 C   0  0  0  0  0
    0.9440   20.9100    4.6120 C   0  0  0  0  0
   -2.6520   23.9720    5.1490 N   0  0  0  0  0
   -3.9280   23.3760    5.5350 C   0  0  0  0  0
   -5.1390   24.2570    5.3890 C   0  0  0  0  0
   -6.2750   23.7950    5.4830 O   0  0  0  0  0
   -3.8170   23.0180    7.0000 C   0  0  0  0  0
   -2.8220   21.9140    7.2240 C   0  0  0  0  0
   -2.6860   21.6210    8.6880 C   0  0  0  0  0
   -3.6370   21.1340    9.3360 O   0  0  0  0  0
   -1.5040   21.8870    9.2390 N   0  0  0  0  0
   -4.9320   25.6150    4.7660 N   0  0  0  0  0
   -6.1050   26.4510    4.5600 C   0  0  0  0  0
   -5.5050   27.8460    4.5520 C   0  0  0  0  0
   -5.1230   28.3120    5.9450 C   0  0  0  0  0
   -4.2740   29.3440    6.2170 N   0  0  0  0  0
   -5.5680   27.8520    7.1810 C   0  0  0  0  0
   -4.1610   29.5160    7.5550 C   0  0  0  0  0
   -4.9670   28.6060    8.1330 N   0  0  0  0  0
   -6.8170   26.0780    3.2710 C   0  0  0  0  0
   -6.2600   25.4870    2.3390 O   0  0  0  0  0
   -8.0080   26.3880    3.1640 N   0  0  0  0  0
    0.5997   35.3379   11.9417 H   0  0  0  0  0
   -0.6450   34.2504   12.1532 H   0  0  0  0  0
    0.8436   33.9574   12.8425 H   0  0  0  0  0
    1.8753   33.7097   10.6904 H   0  0  0  0  0
   -0.6337   32.0876   11.0726 H   0  0  0  0  0
    1.0653   31.7415   11.7215 H   0  0  0  0  0
    2.0349   34.8241    9.0213 H   0  0  0  0  0
   -0.3415   35.7553    7.4922 H   0  0  0  0  0
    2.5545   36.6084    7.4631 H   0  0  0  0  0
    1.1712   37.4713    8.2452 H   0  0  0  0  0
    1.7869   39.1940    5.0315 H   0  0  0  0  0
    2.6509   38.9382    6.5512 H   0  0  0  0  0
   -0.9170   34.2718    5.9626 H   0  0  0  0  0
    1.1078   32.4392    4.9553 H   0  0  0  0  0
   -0.7103   31.7020    3.3948 H   0  0  0  0  0
   -1.7277   33.0406    4.0539 H   0  0  0  0  0
    0.3536   35.6603    3.9487 H   0  0  0  0  0
    1.5374   35.2692    1.3216 H   0  0  0  0  0
    1.8232   37.7930    1.3981 H   0  0  0  0  0
    0.9890   37.7135    3.0010 H   0  0  0  0  0
   -0.9901   36.9519    2.0453 H   0  0  0  0  0
   -0.1845   36.5170    0.5068 H   0  0  0  0  0
    0.2443   38.8814    0.0654 H   0  0  0  0  0
   -0.5974   39.3082    1.6045 H   0  0  0  0  0
   -2.6681   38.4490    0.7653 H   0  0  0  0  0
   -1.8492   37.8542   -0.7361 H   0  0  0  0  0
   -3.0431   39.8913   -1.1025 H   0  0  0  0  0
   -2.1585   40.6677    0.0771 H   0  0  0  0  0
   -1.4049   40.1203   -1.3046 H   0  0  0  0  0
    2.8605   35.4508    4.4909 H   0  0  0  0  0
    5.5689   35.2524    3.3720 H   0  0  0  0  0
    5.2770   37.7315    3.4117 H   0  0  0  0  0
    4.8150   37.6554    5.1298 H   0  0  0  0  0
    6.4680   37.2183    4.6321 H   0  0  0  0  0
    4.9361   33.0711    7.4220 H   0  0  0  0  0
    4.7136   30.7727    6.8951 H   0  0  0  0  0
    5.9891   30.8193    5.7384 H   0  0  0  0  0
    3.0653   31.6296    5.3202 H   0  0  0  0  0
    4.0252   30.6572    4.3009 H   0  0  0  0  0
    5.3140   32.5226    3.4844 H   0  0  0  0  0
    3.7783   33.2378    3.6731 H   0  0  0  0  0
    6.6897   33.0320    8.6746 H   0  0  0  0  0
    9.3532   33.2149    7.3038 H   0  0  0  0  0
    8.5509   34.0350   10.0994 H   0  0  0  0  0
    8.7775   35.1462    8.6707 H   0  0  0  0  0
   10.8256   33.5106   10.1185 H   0  0  0  0  0
   10.6831   35.2991   10.0281 H   0  0  0  0  0
   10.2246   35.5946    7.5777 H   0  0  0  0  0
    7.1996   31.4518    9.4576 H   0  0  0  0  0
    9.5543   29.8110   10.2853 H   0  0  0  0  0
    8.2128   29.0340   12.2309 H   0  0  0  0  0
    6.1738   30.1249   12.6178 H   0  0  0  0  0
    9.5927   31.0430   12.4468 H   0  0  0  0  0
    8.2326   32.0436   11.8810 H   0  0  0  0  0
    8.1168   31.1796   13.4338 H   0  0  0  0  0
    9.3945   27.5126   10.4834 H   0  0  0  0  0
    8.1666   26.2798    8.2862 H   0  0  0  0  0
    9.0906   25.1514   10.9526 H   0  0  0  0  0
    9.8706   25.0136    9.3330 H   0  0  0  0  0
    8.6641   23.7428    7.5496 H   0  0  0  0  0
    7.6336   23.5204   11.7153 H   0  0  0  0  0
    7.4020   21.6190    7.1408 H   0  0  0  0  0
    6.4370   21.3971   11.3697 H   0  0  0  0  0
    6.2378   20.4664    9.0753 H   0  0  0  0  0
    6.9075   26.5734   11.7397 H   0  0  0  0  0
    4.6763   24.8025   11.0458 H   0  0  0  0  0
    3.5939   25.6344   13.1869 H   0  0  0  0  0
    5.2077   26.4489   13.4685 H   0  0  0  0  0
    6.2734   24.2115   13.2289 H   0  0  0  0  0
    5.7651   25.1773   15.4097 H   0  0  0  0  0
    4.1379   24.4558   15.3577 H   0  0  0  0  0
    5.5743   23.4072   15.4492 H   0  0  0  0  0
    3.4597   23.1336   13.3305 H   0  0  0  0  0
    4.5959   23.0332   11.9631 H   0  0  0  0  0
    4.9546   22.1780   13.4833 H   0  0  0  0  0
    5.1491   28.2933   10.7809 H   0  0  0  0  0
    2.3243   28.7948   10.3097 H   0  0  0  0  0
    4.7450   30.3713    9.4859 H   0  0  0  0  0
    3.6840   30.6051   10.9641 H   0  0  0  0  0
    5.1650   28.2471    8.0682 H   0  0  0  0  0
    3.6363   28.1289    5.7377 H   0  0  0  0  0
    5.1839   26.2409    4.9834 H   0  0  0  0  0
    6.0064   26.5095    6.6017 H   0  0  0  0  0
    7.7102   28.1224    6.7690 H   0  0  0  0  0
    4.9760   28.2451    3.4533 H   0  0  0  0  0
    9.0404   29.9233    5.7145 H   0  0  0  0  0
    6.2854   30.0578    2.4262 H   0  0  0  0  0
    8.0125   31.3727    2.5736 H   0  0  0  0  0
    3.9554   25.6328    8.2803 H   0  0  0  0  0
    2.6284   23.5717    6.7196 H   0  0  0  0  0
    2.9099   23.7134    9.7397 H   0  0  0  0  0
    4.2726   23.2392    8.6261 H   0  0  0  0  0
    1.2893   21.8576   10.4454 H   0  0  0  0  0
    4.6343   21.6909    6.5697 H   0  0  0  0  0
    1.9099   17.6163    7.7788 H   0  0  0  0  0
    4.8593   19.5500    5.2726 H   0  0  0  0  0
    3.6355   17.4948    6.0134 H   0  0  0  0  0
    1.5661   26.0246    9.0952 H   0  0  0  0  0
   -1.1610   25.0824    9.2548 H   0  0  0  0  0
   -0.1035   27.9051    9.4681 H   0  0  0  0  0
   -0.2253   26.6477   10.8372 H   0  0  0  0  0
   -2.6939   26.7877   10.4665 H   0  0  0  0  0
   -2.3833   28.2428    9.4937 H   0  0  0  0  0
   -0.9174   28.9907   11.5769 H   0  0  0  0  0
   -1.9723   27.7830   12.4620 H   0  0  0  0  0
   -3.7667   29.4016   11.2328 H   0  0  0  0  0
   -1.6513   31.4972   13.9977 H   0  0  0  0  0
   -0.9658   30.0162   13.3209 H   0  0  0  0  0
   -4.6268   31.3218   12.0949 H   0  0  0  0  0
    0.5065   27.4026    7.1405 H   0  0  0  0  0
   -1.8321   28.2585    5.7550 H   0  0  0  0  0
   -0.1728   29.0244    4.0114 H   0  0  0  0  0
    1.1036   28.2430    4.9857 H   0  0  0  0  0
    0.3244   25.5321    5.2449 H   0  0  0  0  0
   -0.6063   24.6194    2.6941 H   0  0  0  0  0
    0.3511   23.3206    5.2799 H   0  0  0  0  0
    1.2498   23.5190    3.6629 H   0  0  0  0  0
   -1.0183   21.6073    4.1215 H   0  0  0  0  0
   -0.6166   22.2003    1.8048 H   0  0  0  0  0
    1.1071   21.7867    1.9746 H   0  0  0  0  0
   -0.1320   20.5161    2.1207 H   0  0  0  0  0
    1.9764   21.1377    4.3465 H   0  0  0  0  0
    0.7990   21.0681    5.6807 H   0  0  0  0  0
    0.7243   19.8716    4.3640 H   0  0  0  0  0
   -2.1454   24.5267    5.8390 H   0  0  0  0  0
   -4.0862   22.5349    4.8600 H   0  0  0  0  0
   -4.7929   22.6786    7.3472 H   0  0  0  0  0
   -3.4827   23.8999    7.5464 H   0  0  0  0  0
   -1.8532   22.2249    6.8330 H   0  0  0  0  0
   -3.1681   21.0155    6.7131 H   0  0  0  0  0
   -1.3472   21.6932   10.2281 H   0  0  0  0  0
   -0.7550   22.2847    8.6722 H   0  0  0  0  0
   -4.0017   25.9363    4.4983 H   0  0  0  0  0
   -6.8829   26.3464    5.3163 H   0  0  0  0  0
   -6.2515   28.5346    4.1562 H   0  0  0  0  0
   -4.6022   27.8240    3.9416 H   0  0  0  0  0
   -6.2702   27.0360    7.3516 H   0  0  0  0  0
   -3.5376   30.2499    8.0658 H   0  0  0  0  0
   -8.5209   26.1561    2.3134 H   0  0  0  0  0
   -8.4785   26.8759    3.9263 H   0  0  0  0  0
  1  2  1  0  0  0
  2  3  1  0  0  0
  2  5  1  0  0  0
  3  4  2  0  0  0
  3  7  1  0  0  0
  5  6  1  0  0  0
  6 82  1  0  0  0
  7  8  1  0  0  0
  8  9  1  0  0  0
  8 11  1  0  0  0
  9 10  2  0  0  0
  9 15  1  0  0  0
 11 12  1  0  0  0
 12 13  2  0  0  0
 12 14  1  0  0  0
 15 16  1  0  0  0
 16 17  1  0  0  0
 16 19  1  0  0  0
 17 18  2  0  0  0
 17 21  1  0  0  0
 19 20  1  0  0  0
 20125  1  0  0  0
 21 22  1  0  0  0
 22 23  1  0  0  0
 22 25  1  0  0  0
 23 24  2  0  0  0
 23 30  1  0  0  0
 25 26  1  0  0  0
 26 27  1  0  0  0
 27 28  1  0  0  0
 28 29  1  0  0  0
 30 31  1  0  0  0
 31 32  1  0  0  0
 31 34  1  0  0  0
 32 33  2  0  0  0
 32 35  1  0  0  0
 35 36  1  0  0  0
 35 41  1  0  0  0
 36 37  1  0  0  0
 36 39  1  0  0  0
 37 38  2  0  0  0
 37 42  1  0  0  0
 39 40  1  0  0  0
 40 41  1  0  0  0
 42 43  1  0  0  0
 43 44  1  0  0  0
 43 46  1  0  0  0
 44 45  2  0  0  0
 44 51  1  0  0  0
 46 47  1  0  0  0
 47 48  1  0  0  0
 48 49  2  0  0  0
 48 50  1  0  0  0
 51 52  1  0  0  0
 52 53  1  0  0  0
 52 55  1  0  0  0
 53 54  2  0  0  0
 53 58  1  0  0  0
 55 56  1  0  0  0
 55 57  1  0  0  0
 58 59  1  0  0  0
 59 60  1  0  0  0
 59 62  1  0  0  0
 60 61  2  0  0  0
 60 69  1  0  0  0
 62 63  1  0  0  0
 63 64  4  0  0  0
 63 65  4  0  0  0
 64 66  4  0  0  0
 65 67  4  0  0  0
 66 68  4  0  0  0
 67 68  4  0  0  0
 69 70  1  0  0  0
 70 71  1  0  0  0
 70 73  1  0  0  0
 71 72  2  0  0  0
 71 77  1  0  0  0
 73 74  1  0  0  0
 74 75  1  0  0  0
 74 76  1  0  0  0
 77 78  1  0  0  0
 78 79  1  0  0  0
 78 81  1  0  0  0
 79 80  2  0  0  0
 79 83  1  0  0  0
 81 82  1  0  0  0
 83 84  1  0  0  0
 84 85  1  0  0  0
 84 87  1  0  0  0
 85 86  2  0  0  0
 85 95  1  0  0  0
 87 88  1  0  0  0
 88 89  4  0  0  0
 88 90  4  0  0  0
 89 91  4  0  0  0
 90 92  4  0  0  0
 91 93  4  0  0  0
 92 93  4  0  0  0
 93 94  1  0  0  0
 95 96  1  0  0  0
 96 97  1  0  0  0
 96 99  1  0  0  0
 97 98  2  0  0  0
 97109  1  0  0  0
 99100  1  0  0  0
100101  4  0  0  0
100102  4  0  0  0
101103  4  0  0  0
102104  4  0  0  0
102105  4  0  0  0
103104  4  0  0  0
104106  4  0  0  0
105107  4  0  0  0
106108  4  0  0  0
107108  4  0  0  0
109110  1  0  0  0
110111  1  0  0  0
110113  1  0  0  0
111112  2  0  0  0
111120  1  0  0  0
113114  1  0  0  0
114115  1  0  0  0
115116  1  0  0  0
116117  1  0  0  0
117118  1  0  0  0
117119  2  0  0  0
120121  1  0  0  0
121122  1  0  0  0
121124  1  0  0  0
122123  2  0  0  0
122126  1  0  0  0
124125  1  0  0  0
126127  1  0  0  0
127128  1  0  0  0
127130  1  0  0  0
128129  2  0  0  0
128134  1  0  0  0
130131  1  0  0  0
131132  1  0  0  0
131133  1  0  0  0
134135  1  0  0  0
135136  1  0  0  0
135138  1  0  0  0
136137  2  0  0  0
136143  1  0  0  0
138139  1  0  0  0
139140  1  0  0  0
140141  2  0  0  0
140142  1  0  0  0
143144  1  0  0  0
144145  1  0  0  0
144151  1  0  0  0
145146  1  0  0  0
146147  4  0  0  0
146148  4  0  0  0
147149  4  0  0  0
148150  4  0  0  0
149150  4  0  0  0
151152  2  0  0  0
151153  1  0  0  0
  1154  1  0  0  0
  1155  1  0  0  0
  1156  1  0  0  0
  2157  1  0  0  0
  5158  1  0  0  0
  5159  1  0  0  0
  7160  1  0  0  0
  8161  1  0  0  0
 11162  1  0  0  0
 11163  1  0  0  0
 14164  1  0  0  0
 14165  1  0  0  0
 15166  1  0  0  0
 16167  1  0  0  0
 19168  1  0  0  0
 19169  1  0  0  0
 21170  1  0  0  0
 22171  1  0  0  0
 25172  1  0  0  0
 25173  1  0  0  0
 26174  1  0  0  0
 26175  1  0  0  0
 27176  1  0  0  0
 27177  1  0  0  0
 28178  1  0  0  0
 28179  1  0  0  0
 29180  1  0  0  0
 29181  1  0  0  0
 29182  1  0  0  0
 30183  1  0  0  0
 31184  1  0  0  0
 34185  1  0  0  0
 34186  1  0  0  0
 34187  1  0  0  0
 36188  1  0  0  0
 39189  1  0  0  0
 39190  1  0  0  0
 40191  1  0  0  0
 40192  1  0  0  0
 41193  1  0  0  0
 41194  1  0  0  0
 42195  1  0  0  0
 43196  1  0  0  0
 46197  1  0  0  0
 46198  1  0  0  0
 47199  1  0  0  0
 47200  1  0  0  0
 50201  1  0  0  0
 51202  1  0  0  0
 52203  1  0  0  0
 55204  1  0  0  0
 56205  1  0  0  0
 57206  1  0  0  0
 57207  1  0  0  0
 57208  1  0  0  0
 58209  1  0  0  0
 59210  1  0  0  0
 62211  1  0  0  0
 62212  1  0  0  0
 64213  1  0  0  0
 65214  1  0  0  0
 66215  1  0  0  0
 67216  1  0  0  0
 68217  1  0  0  0
 69218  1  0  0  0
 70219  1  0  0  0
 73220  1  0  0  0
 73221  1  0  0  0
 74222  1  0  0  0
 75223  1  0  0  0
 75224  1  0  0  0
 75225  1  0  0  0
 76226  1  0  0  0
 76227  1  0  0  0
 76228  1  0  0  0
 77229  1  0  0  0
 78230  1  0  0  0
 81231  1  0  0  0
 81232  1  0  0  0
 83233  1  0  0  0
 84234  1  0  0  0
 87235  1  0  0  0
 87236  1  0  0  0
 89237  1  0  0  0
 90238  1  0  0  0
 91239  1  0  0  0
 92240  1  0  0  0
 94241  1  0  0  0
 95242  1  0  0  0
 96243  1  0  0  0
 99244  1  0  0  0
 99245  1  0  0  0
101246  1  0  0  0
105247  1  0  0  0
106248  1  0  0  0
107249  1  0  0  0
108250  1  0  0  0
109251  1  0  0  0
110252  1  0  0  0
113253  1  0  0  0
113254  1  0  0  0
114255  1  0  0  0
114256  1  0  0  0
115257  1  0  0  0
115258  1  0  0  0
116259  1  0  0  0
118260  1  0  0  0
118261  1  0  0  0
119262  1  0  0  0
120263  1  0  0  0
121264  1  0  0  0
124265  1  0  0  0
124266  1  0  0  0
126267  1  0  0  0
127268  1  0  0  0
130269  1  0  0  0
130270  1  0  0  0
131271  1  0  0  0
132272  1  0  0  0
132273  1  0  0  0
132274  1  0  0  0
133275  1  0  0  0
133276  1  0  0  0
133277  1  0  0  0
134278  1  0  0  0
135279  1  0  0  0
138280  1  0  0  0
138281  1  0  0  0
139282  1  0  0  0
139283  1  0  0  0
142284  1  0  0  0
142285  1  0  0  0
143286  1  0  0  0
144287  1  0  0  0
145288  1  0  0  0
145289  1  0  0  0
148290  1  0  0  0
149291  1  0  0  0
153292  1  0  0  0
153293  1  0  0  0
M  END
$$$$
