### 
### Created by X-TOOL on Mon Sep 10 21:13:00 2018
### 

@<TRIPOS>MOLECULE
3iux_ligand
  295   302     1     0     0
SMALL
GAST_HUCK


@<TRIPOS>ATOM
      1 N           0.3630   34.3500   12.0330 N.4       1 CYS         0.2385
      2 CA          0.7940   33.6150   10.7900 C.3       1 CYS         0.0749
      3 C           0.1830   34.2260    9.5390 C.2       1 CYS         0.2277
      4 O          -1.0110   34.1370    9.3090 O.2       1 CYS        -0.3907
      5 CB          0.4440   32.1330   10.9160 C.3       1 CYS         0.0643
      6 SG          0.7870   31.1040    9.4690 S.3       1 CYS        -0.0848
      7 N           1.0540   34.8390    8.7420 N.am      1 ASN        -0.2589
      8 CA          0.7240   35.5260    7.5100 C.3       1 ASN         0.1477
      9 C           1.0590   34.6230    6.3280 C.2       1 ASN         0.2063
     10 O           2.2110   34.4820    5.9650 O.2       1 ASN        -0.3942
     11 CB          1.4890   36.8340    7.4200 C.3       1 ASN         0.0773
     12 CG          1.2110   37.5730    6.1130 C.2       1 ASN         0.1780
     13 OD1         0.3410   37.1820    5.3410 O.2       1 ASN        -0.3970
     14 ND2         1.9380   38.6500    5.8810 N.am      1 ASN        -0.3007
     15 N           0.0450   34.0610    5.6970 N.am      1 CYS        -0.2628
     16 CA          0.3360   33.1220    4.6000 C.3       1 CYS         0.1406
     17 C           0.9490   33.7890    3.3550 C.2       1 CYS         0.2047
     18 O           1.4630   33.0840    2.4730 O.2       1 CYS        -0.3944
     19 CB         -0.9250   32.3320    4.2580 C.3       1 CYS         0.0443
     20 SG         -1.4440   31.2640    5.6260 S.3       1 CYS        -0.0882
     21 N           0.9120   35.1310    3.2790 N.am      1 LYS        -0.2637
     22 CA          1.6680   35.8400    2.2410 C.3       1 LYS         0.1310
     23 C           3.1800   35.8830    2.5270 C.2       1 LYS         0.2039
     24 O           4.0010   36.1420    1.6180 O.2       1 LYS        -0.3944
     25 CB          1.1190   37.2460    2.0250 C.3       1 LYS        -0.0122
     26 CG         -0.2190   37.2330    1.3280 C.3       1 LYS        -0.0440
     27 CD         -0.5390   38.6070    0.7720 C.3       1 LYS        -0.0124
     28 CE         -1.8780   38.6240    0.0350 C.3       1 LYS        -0.0354
     29 NZ         -2.1420   39.9290   -0.6260 N.4       1 LYS         0.2185
     30 N           3.5640   35.6580    3.7820 N.am      1 ALA        -0.2640
     31 CA          4.9660   35.7020    4.1610 C.3       1 ALA         0.1284
     32 C           5.1840   34.9070    5.4440 C.2       1 ALA         0.2061
     33 O           5.4380   35.4910    6.4970 O.2       1 ALA        -0.3942
     34 CB          5.4160   37.1910    4.3480 C.3       1 ALA        -0.0244
     35 N           5.0870   33.5770    5.3400 N.am      1 PRO        -0.2498
     36 CA          5.4390   32.7990    6.4940 C.3       1 PRO         0.1338
     37 C           6.9380   32.9660    6.6680 C.2       1 PRO         0.2041
     38 O           7.6830   33.0960    5.6820 O.2       1 PRO        -0.3944
     39 CB          5.1050   31.3650    6.0680 C.3       1 PRO        -0.0104
     40 CG          4.0860   31.5300    4.9510 C.3       1 PRO        -0.0281
     41 CD          4.5640   32.7430    4.2440 C.3       1 PRO         0.0369
     42 N           7.3670   33.0210    7.9120 N.am      1 GLU        -0.2636
     43 CA          8.7770   33.0660    8.2170 C.3       1 GLU         0.1325
     44 C           9.1420   31.7500    8.8870 C.2       1 GLU         0.2041
     45 O          10.2970   31.3280    8.8340 O.2       1 GLU        -0.3944
     46 CB          9.0840   34.2260    9.1680 C.3       1 GLU        -0.0008
     47 CG         10.5300   34.3580    9.5000 C.3       1 GLU         0.0044
     48 CD         11.3690   34.3620    8.2560 C.2       1 GLU         0.0350
     49 OE1        12.3570   33.5940    8.2060 O.co2     1 GLU        -0.5690
     50 OE2        11.0010   35.0970    7.3110 O.co2     1 GLU        -0.5690
     51 N           8.1570   31.1040    9.5100 N.am      1 THR        -0.2613
     52 CA          8.4660   29.8720   10.2820 C.3       1 THR         0.1565
     53 C           7.9000   28.6150    9.6470 C.2       1 THR         0.2066
     54 O           6.8340   28.6490    8.9830 O.2       1 THR        -0.3943
     55 CB          7.9280   29.9510   11.7150 C.3       1 THR         0.0924
     56 OG1         6.4910   30.0770   11.7130 O.3       1 THR        -0.3874
     57 CG2         8.5070   31.1350   12.4170 C.3       1 THR        -0.0346
     58 N           8.5540   27.4890    9.9060 N.am      1 PHE        -0.2619
     59 CA          8.0790   26.2200    9.3710 C.3       1 PHE         0.1404
     60 C           6.5990   25.9790    9.7850 C.2       1 PHE         0.2060
     61 O           5.7740   25.6250    8.9470 O.2       1 PHE        -0.3942
     62 CB          8.9290   25.0260    9.8820 C.3       1 PHE         0.0214
     63 CG          8.2480   23.7460    9.6630 C.ar      1 PHE        -0.0386
     64 CD1         8.1730   23.2290    8.3760 C.ar      1 PHE        -0.0601
     65 CD2         7.5940   23.0870   10.7160 C.ar      1 PHE        -0.0601
     66 CE1         7.4600   22.0390    8.1450 C.ar      1 PHE        -0.0686
     67 CE2         6.9020   21.9070   10.5260 C.ar      1 PHE        -0.0686
     68 CZ          6.8070   21.3800    9.2470 C.ar      1 PHE        -0.0687
     69 N           6.2520   26.1790   11.0650 N.am      1 LEU        -0.2636
     70 CA          4.8510   25.7950   11.4610 C.3       1 LEU         0.1312
     71 C           3.8120   26.7430   10.8410 C.2       1 LEU         0.2039
     72 O           2.6780   26.3190   10.6020 O.2       1 LEU        -0.3944
     73 CB          4.6660   25.6330   12.9900 C.3       1 LEU        -0.0101
     74 CG          5.2400   24.2970   13.5650 C.3       1 LEU        -0.0425
     75 CD1         5.1750   24.3370   15.0440 C.3       1 LEU        -0.0625
     76 CD2         4.5110   23.0740   13.0490 C.3       1 LEU        -0.0625
     77 N           4.2130   27.9760   10.5290 N.am      1 CYS        -0.2629
     78 CA          3.2970   28.8660    9.8230 C.3       1 CYS         0.1406
     79 C           3.1390   28.4270    8.3510 C.2       1 CYS         0.2048
     80 O           2.0230   28.3490    7.8320 O.2       1 CYS        -0.3943
     81 CB          3.7440   30.3190    9.9140 C.3       1 CYS         0.0443
     82 SG          2.7100   31.4870    8.9870 S.3       1 CYS        -0.0880
     83 N           4.2380   28.0600    7.6860 N.am      1 TYR        -0.2621
     84 CA          4.0830   27.3820    6.3940 C.3       1 TYR         0.1390
     85 C           3.1520   26.1570    6.4900 C.2       1 TYR         0.2058
     86 O           2.2870   25.9550    5.6150 O.2       1 TYR        -0.3942
     87 CB          5.4170   26.9360    5.7900 C.3       1 TYR         0.0163
     88 CG          6.2410   28.0520    5.1860 C.ar      1 TYR        -0.0493
     89 CD1         7.3940   28.5420    5.8140 C.ar      1 TYR        -0.0685
     90 CD2         5.8660   28.6170    3.9610 C.ar      1 TYR        -0.0685
     91 CE1         8.1360   29.5580    5.2280 C.ar      1 TYR        -0.0398
     92 CE2         6.5980   29.6350    3.3810 C.ar      1 TYR        -0.0398
     93 CZ          7.7220   30.1130    4.0120 C.ar      1 TYR         0.0805
     94 OH          8.4490   31.1220    3.3910 O.3       1 TYR        -0.3376
     95 N           3.3060   25.3670    7.5400 N.am      1 TRP        -0.2625
     96 CA          2.5680   24.1380    7.6490 C.3       1 TRP         0.1352
     97 C           1.0680   24.4460    7.9010 C.2       1 TRP         0.2052
     98 O           0.1890   23.7440    7.4440 O.2       1 TRP        -0.3942
     99 CB          3.1950   23.2650    8.7880 C.3       1 TRP         0.0042
    100 CG          2.7170   21.8820    8.7920 C.2       1 TRP        -0.0418
    101 CD1         1.7850   21.3340    9.6280 C.2       1 TRP         0.0167
    102 CD2         3.1340   20.8520    7.9080 C.ar      1 TRP        -0.0214
    103 NE1         1.5670   20.0150    9.2790 N.pl3     1 TRP        -0.2890
    104 CE2         2.3780   19.6980    8.2260 C.ar      1 TRP         0.0603
    105 CE3         4.0490   20.8120    6.8400 C.ar      1 TRP        -0.0747
    106 CZ2         2.5180   18.4860    7.5300 C.ar      1 TRP        -0.0443
    107 CZ3         4.1870   19.6010    6.1290 C.ar      1 TRP        -0.0792
    108 CH2         3.4510   18.4400    6.5240 C.ar      1 TRP        -0.0768
    109 N           0.8020   25.5060    8.6620 N.am      1 ARG        -0.2636
    110 CA         -0.5910   25.9330    8.8810 C.3       1 ARG         0.1311
    111 C          -1.2140   26.4080    7.5660 C.2       1 ARG         0.2039
    112 O          -2.3560   26.1110    7.2640 O.2       1 ARG        -0.3944
    113 CB         -0.6380   27.0700    9.9210 C.3       1 ARG        -0.0092
    114 CG         -2.0040   27.6150   10.3000 C.3       1 ARG        -0.0156
    115 CD         -1.8750   28.4720   11.6230 C.3       1 ARG         0.0627
    116 NE         -2.9130   29.4960   11.7830 N.pl3     1 ARG        -0.2723
    117 CZ         -2.8100   30.5440   12.6040 C.cat     1 ARG         0.2882
    118 NH1        -1.7230   30.6980   13.3680 N.pl3     1 ARG        -0.2849
    119 NH2        -3.7930   31.4370   12.6710 N.pl3     1 ARG        -0.2849
    120 N          -0.4370   27.1860    6.8190 N.am      1 CYS        -0.2629
    121 CA         -0.8970   27.7330    5.5610 C.3       1 CYS         0.1406
    122 C          -1.2120   26.6510    4.5360 C.2       1 CYS         0.2047
    123 O          -2.1580   26.7790    3.7550 O.2       1 CYS        -0.3944
    124 CB          0.1240   28.7200    5.0150 C.3       1 CYS         0.0443
    125 SG          0.2050   30.1840    6.0830 S.3       1 CYS        -0.0882
    126 N          -0.4590   25.5530    4.5920 N.am      1 LEU        -0.2637
    127 CA         -0.7090   24.3610    3.7480 C.3       1 LEU         0.1312
    128 C          -2.1210   23.8250    3.9410 C.2       1 LEU         0.2039
    129 O          -2.7330   23.3560    3.0160 O.2       1 LEU        -0.3944
    130 CB          0.3270   23.2790    4.1910 C.3       1 LEU        -0.0101
    131 CG          0.0120   21.8210    3.8370 C.3       1 LEU        -0.0425
    132 CD1         0.0990   21.5620    2.3230 C.3       1 LEU        -0.0625
    133 CD2         0.9440   20.9100    4.6120 C.3       1 LEU        -0.0625
    134 N          -2.6520   23.9720    5.1490 N.am      1 GLN        -0.2636
    135 CA         -3.9280   23.3760    5.5350 C.3       1 GLN         0.1330
    136 C          -5.1390   24.2570    5.3890 C.2       1 GLN         0.2041
    137 O          -6.2750   23.7950    5.4830 O.2       1 GLN        -0.3944
    138 CB         -3.8170   23.0180    7.0000 C.3       1 GLN         0.0045
    139 CG         -2.8220   21.9140    7.2240 C.3       1 GLN         0.0412
    140 CD         -2.6860   21.6210    8.6880 C.2       1 GLN         0.1737
    141 OE1        -3.6370   21.1340    9.3360 O.2       1 GLN        -0.3973
    142 NE2        -1.5040   21.8870    9.2390 N.am      1 GLN        -0.3009
    143 N          -4.9320   25.6150    4.7660 N.am      1 HIA        -0.2625
    144 CA         -6.1050   26.4510    4.5600 C.3       1 HIA         0.1366
    145 CB         -5.5050   27.8460    4.5520 C.3       1 HIA         0.0145
    146 CG         -5.1230   28.3120    5.9450 C.2       1 HIA        -0.0027
    147 ND1        -4.2740   29.3440    6.2170 N.2       1 HIA        -0.3252
    148 CD2        -5.5680   27.8520    7.1810 C.2       1 HIA         0.0291
    149 CE1        -4.1610   29.5160    7.5550 C.2       1 HIA         0.0907
    150 NE2        -4.9670   28.6060    8.1330 N.pl3     1 HIA        -0.2752
    151 C          -6.8170   26.0780    3.2710 C.2       1 HIA         0.2006
    152 O          -6.2600   25.4870    2.3390 O.2       1 HIA        -0.3946
    153 NXT        -8.0080   26.3880    3.1640 N.am      1 HIA        -0.2989
    154 H1          0.7851   33.9199   12.8410 H         1 CYS         0.2015
    155 H2         -0.6407   34.3092   12.1165 H         1 CYS         0.2015
    156 H3          0.6564   35.3125   11.9730 H         1 CYS         0.2015
    157 H4          1.8873   33.7012   10.7051 H         1 CYS         0.1107
    158 H5         -0.6321   32.0598   11.1320 H         1 CYS         0.0466
    159 H6          1.0164   31.7240   11.7616 H         1 CYS         0.0466
    160 H7          2.0157   34.8244    9.0158 H         1 ASN         0.1886
    161 H8         -0.3539   35.7450    7.4982 H         1 ASN         0.0826
    162 H9          2.5661   36.6202    7.4844 H         1 ASN         0.0551
    163 H10         1.1919   37.4773    8.2613 H         1 ASN         0.0551
    164 H11         1.8003   39.1748    5.0410 H         1 ASN         0.1814
    165 H12         2.6265   38.9411    6.5452 H         1 ASN         0.1814
    166 H13        -0.8981   34.2677    5.9574 H         1 CYS         0.1884
    167 H14         1.0832   32.4072    4.9751 H         1 CYS         0.0808
    168 H15        -0.7248   31.7071    3.3751 H         1 CYS         0.0432
    169 H16        -1.7368   33.0386    4.0307 H         1 CYS         0.0432
    170 H17         0.3646   35.6500    3.9355 H         1 LYS         0.1883
    171 H18         1.5303   35.2828    1.3026 H         1 LYS         0.0800
    172 H19         1.8329   37.8149    1.4113 H         1 LYS         0.0312
    173 H20         1.0044   37.7360    3.0031 H         1 LYS         0.0312
    174 H21        -0.9993   36.9422    2.0468 H         1 LYS         0.0269
    175 H22        -0.1909   36.5058    0.5031 H         1 LYS         0.0269
    176 H23         0.2564   38.9018    0.0717 H         1 LYS         0.0317
    177 H24        -0.5810   39.3264    1.6031 H         1 LYS         0.0317
    178 H25        -2.6824   38.4248    0.7583 H         1 LYS         0.0813
    179 H26        -1.8701   37.8347   -0.7311 H         1 LYS         0.0813
    180 H27        -3.0323   39.8929   -1.0973 H         1 LYS         0.1994
    181 H28        -1.4142   40.1191   -1.2970 H         1 LYS         0.1994
    182 H29        -2.1586   40.6599    0.0679 H         1 LYS         0.1994
    183 H30         2.8743   35.4549    4.4770 H         1 ALA         0.1883
    184 H31         5.5668   35.2489    3.3587 H         1 ALA         0.0797
    185 H32         6.4776   37.2199    4.6348 H         1 ALA         0.0277
    186 H33         4.8102   37.6609    5.1368 H         1 ALA         0.0277
    187 H34         5.2763   37.7376    3.4037 H         1 ALA         0.0277
    188 H35         4.8911   33.0996    7.3992 H         1 PRO         0.0802
    189 H36         4.6741   30.7998    6.9076 H         1 PRO         0.0313
    190 H37         6.0042   30.8484    5.7013 H         1 PRO         0.0313
    191 H38         3.0748   31.6810    5.3567 H         1 PRO         0.0287
    192 H39         4.0863   30.6564    4.2826 H         1 PRO         0.0287
    193 H40         5.3565   32.4944    3.5228 H         1 PRO         0.0524
    194 H41         3.7381   33.2480    3.7216 H         1 PRO         0.0524
    195 H42         6.7030   33.0318    8.6597 H         1 GLU         0.1883
    196 H43         9.3556   33.1901    7.2898 H         1 GLU         0.0801
    197 H44         8.5258   34.0668   10.1024 H         1 GLU         0.0330
    198 H45         8.7489   35.1611    8.6955 H         1 GLU         0.0330
    199 H46        10.8321   33.5120   10.1349 H         1 GLU         0.0433
    200 H47        10.6895   35.3004   10.0445 H         1 GLU         0.0433
    201 H48         7.2183   31.4450    9.4586 H         1 THR         0.1884
    202 H49         9.5608   29.7743   10.3242 H         1 THR         0.0826
    203 H50         8.2107   29.0342   12.2531 H         1 THR         0.0639
    204 H51         6.1086   29.3218   11.2818 H         1 THR         0.2101
    205 H52         8.1140   31.1811   13.4433 H         1 THR         0.0257
    206 H53         8.2308   32.0527   11.8771 H         1 THR         0.0257
    207 H54         9.6027   31.0434   12.4478 H         1 THR         0.0257
    208 H55         9.3781   27.5121   10.4720 H         1 PHE         0.1885
    209 H56         8.1445   26.2586    8.2736 H         1 PHE         0.0823
    210 H57         9.1121   25.1532   10.9592 H         1 PHE         0.0474
    211 H58         9.8892   25.0158    9.3455 H         1 PHE         0.0474
    212 H59         8.6614   23.7400    7.5541 H         1 PHE         0.0557
    213 H60         7.6334   23.5180   11.7098 H         1 PHE         0.0557
    214 H61         7.4023   21.6213    7.1464 H         1 PHE         0.0599
    215 H62         6.4396   21.3999   11.3651 H         1 PHE         0.0599
    216 H63         6.2409   20.4714    9.0762 H         1 PHE         0.0559
    217 H64         6.8947   26.5657   11.7264 H         1 LEU         0.1883
    218 H65         4.6677   24.8021   11.0245 H         1 LEU         0.0800
    219 H66         3.5896   25.6709   13.2136 H         1 LEU         0.0315
    220 H67         5.1742   26.4707   13.4901 H         1 LEU         0.0315
    221 H68         6.2939   24.2178   13.2601 H         1 LEU         0.0298
    222 H69         5.5777   23.3992   15.4542 H         1 LEU         0.0232
    223 H70         4.1288   24.4568   15.3620 H         1 LEU         0.0232
    224 H71         5.7702   25.1846   15.4144 H         1 LEU         0.0232
    225 H72         4.5640   23.0519   11.9505 H         1 LEU         0.0232
    226 H73         3.4580   23.1145   13.3645 H         1 LEU         0.0232
    227 H74         4.9815   22.1673   13.4571 H         1 LEU         0.0232
    228 H75         5.1307   28.2871   10.7760 H         1 CYS         0.1884
    229 H76         2.3124   28.7878   10.3071 H         1 CYS         0.0808
    230 H77         4.7709   30.3870    9.5257 H         1 CYS         0.0432
    231 H78         3.7320   30.6160   10.9731 H         1 CYS         0.0432
    232 H79         5.1468   28.2434    8.0607 H         1 TYR         0.1885
    233 H80         3.6247   28.1038    5.7019 H         1 TYR         0.0821
    234 H81         5.2067   26.1993    5.0007 H         1 TYR         0.0453
    235 H82         6.0119   26.4622    6.5848 H         1 TYR         0.0453
    236 H83         7.7084   28.1247    6.7638 H         1 TYR         0.0530
    237 H84         4.9809   28.2471    3.4561 H         1 TYR         0.0530
    238 H85         9.0354   29.9213    5.7119 H         1 TYR         0.0525
    239 H86         6.2871   30.0555    2.4315 H         1 TYR         0.0525
    240 H87         9.1936   31.3540    3.9334 H         1 TYR         0.2458
    241 H88         3.9427   25.6276    8.2658 H         1 TRP         0.1884
    242 H89         2.6523   23.5859    6.7014 H         1 TRP         0.0815
    243 H90         2.9443   23.7230    9.7562 H         1 TRP         0.0397
    244 H91         4.2873   23.2557    8.6586 H         1 TRP         0.0397
    245 H92         1.2897   21.8571   10.4447 H         1 TRP         0.0795
    246 H93         0.9022   19.3756    9.7374 H         1 TRP         0.2216
    247 H94         4.6310   21.6861    6.5712 H         1 TRP         0.0540
    248 H95         1.9132   17.6211    7.7775 H         1 TRP         0.0541
    249 H96         4.8556   19.5503    5.2773 H         1 TRP         0.0510
    250 H97         3.6345   17.5000    6.0162 H         1 TRP         0.0530
    251 H98         1.5511   26.0144    9.0867 H         1 ARG         0.1883
    252 H99        -1.1692   25.0777    9.2606 H         1 ARG         0.0800
    253 H100       -0.0481   27.9077    9.5208 H         1 ARG         0.0313
    254 H101       -0.1655   26.6953   10.8410 H         1 ARG         0.0313
    255 H102       -2.6991   26.7795   10.4696 H         1 ARG         0.0301
    256 H103       -2.3852   28.2498    9.4865 H         1 ARG         0.0301
    257 H104       -0.8956   28.9727   11.6149 H         1 ARG         0.0689
    258 H105       -1.9302   27.7884   12.4830 H         1 ARG         0.0689
    259 H106       -3.7751   29.4007   11.2274 H         1 ARG         0.2642
    260 H107       -1.6481   31.5080   13.9998 H         1 ARG         0.2615
    261 H108       -0.9608   30.0065   13.3246 H         1 ARG         0.2615
    262 H109       -4.6325   31.3237   12.0851 H         1 ARG         0.2615
    263 H110       -3.7149   32.2420   13.3088 H         1 ARG         0.2615
    264 H111        0.4880   27.3984    7.1342 H         1 CYS         0.1884
    265 H112       -1.8289   28.2834    5.7575 H         1 CYS         0.0808
    266 H113       -0.1711   29.0254    4.0003 H         1 CYS         0.0432
    267 H114        1.1128   28.2394    4.9803 H         1 CYS         0.0432
    268 H115        0.3090   25.5326    5.2321 H         1 LEU         0.1883
    269 H116       -0.5612   24.6170    2.6885 H         1 LEU         0.0800
    270 H117        0.4225   23.3406    5.2851 H         1 LEU         0.0315
    271 H118        1.2902   23.5322    3.7240 H         1 LEU         0.0315
    272 H119       -1.0197   21.6073    4.1531 H         1 LEU         0.0298
    273 H120       -0.1340   20.5068    2.1176 H         1 LEU         0.0232
    274 H121        1.1160   21.7883    1.9701 H         1 LEU         0.0232
    275 H122       -0.6228   22.2056    1.7988 H         1 LEU         0.0232
    276 H123        0.8547   21.1233    5.6874 H         1 LEU         0.0232
    277 H124        1.9807   21.0849    4.2884 H         1 LEU         0.0232
    278 H125        0.6727   19.8610    4.4226 H         1 LEU         0.0232
    279 H126       -2.1554   24.5158    5.8255 H         1 GLN         0.1883
    280 H127       -4.0843   22.4692    4.9323 H         1 GLN         0.0801
    281 H128       -4.8021   22.6903    7.3634 H         1 GLN         0.0337
    282 H129       -3.4962   23.9075    7.5619 H         1 GLN         0.0337
    283 H130       -1.8444   22.2206    6.8236 H         1 GLN         0.0504
    284 H131       -3.1636   21.0073    6.7033 H         1 GLN         0.0504
    285 H132       -1.3552   21.7117   10.2122 H         1 GLN         0.1814
    286 H133       -0.7647   22.2622    8.6798 H         1 GLN         0.1814
    287 H134       -4.0199   25.9300    4.5035 H         1 HIA         0.1885
    288 H135       -6.8137   26.3458    5.3947 H         1 HIA         0.0817
    289 H136       -6.2424   28.5468    4.1336 H         1 HIA         0.0420
    290 H137       -4.6044   27.8410    3.9205 H         1 HIA         0.0420
    291 H138       -6.2696   27.0367    7.3514 H         1 HIA         0.0729
    292 H139       -3.5381   30.2492    8.0653 H         1 HIA         0.1199
    293 H140       -5.1062   28.4988    9.1479 H         1 HIA         0.2361
    294 H141       -8.5112   26.1597    2.3305 H         1 HIA         0.1815
    295 H142       -8.4690   26.8673    3.9109 H         1 HIA         0.1815
@<TRIPOS>BOND
     1    1    2 1  
     2    2    3 1  
     3    2    5 1  
     4    3    4 2  
     5    3    7 am 
     6    5    6 1  
     7    6   82 1  
     8    7    8 1  
     9    8    9 1  
    10    8   11 1  
    11    9   10 2  
    12    9   15 am 
    13   11   12 1  
    14   12   13 2  
    15   12   14 am 
    16   15   16 1  
    17   16   17 1  
    18   16   19 1  
    19   17   18 2  
    20   17   21 am 
    21   19   20 1  
    22   20  125 1  
    23   21   22 1  
    24   22   23 1  
    25   22   25 1  
    26   23   24 2  
    27   23   30 am 
    28   25   26 1  
    29   26   27 1  
    30   27   28 1  
    31   28   29 1  
    32   30   31 1  
    33   31   32 1  
    34   31   34 1  
    35   32   33 2  
    36   32   35 am 
    37   35   36 1  
    38   35   41 1  
    39   36   37 1  
    40   36   39 1  
    41   37   38 2  
    42   37   42 am 
    43   39   40 1  
    44   40   41 1  
    45   42   43 1  
    46   43   44 1  
    47   43   46 1  
    48   44   45 2  
    49   44   51 am 
    50   46   47 1  
    51   47   48 1  
    52   48   49 ar 
    53   48   50 ar 
    54   51   52 1  
    55   52   53 1  
    56   52   55 1  
    57   53   54 2  
    58   53   58 am 
    59   55   56 1  
    60   55   57 1  
    61   58   59 1  
    62   59   60 1  
    63   59   62 1  
    64   60   61 2  
    65   60   69 am 
    66   62   63 1  
    67   63   64 ar 
    68   63   65 ar 
    69   64   66 ar 
    70   65   67 ar 
    71   66   68 ar 
    72   67   68 ar 
    73   69   70 1  
    74   70   71 1  
    75   70   73 1  
    76   71   72 2  
    77   71   77 am 
    78   73   74 1  
    79   74   75 1  
    80   74   76 1  
    81   77   78 1  
    82   78   79 1  
    83   78   81 1  
    84   79   80 2  
    85   79   83 am 
    86   81   82 1  
    87   83   84 1  
    88   84   85 1  
    89   84   87 1  
    90   85   86 2  
    91   85   95 am 
    92   87   88 1  
    93   88   89 ar 
    94   88   90 ar 
    95   89   91 ar 
    96   90   92 ar 
    97   91   93 ar 
    98   92   93 ar 
    99   93   94 1  
   100   95   96 1  
   101   96   97 1  
   102   96   99 1  
   103   97   98 2  
   104   97  109 am 
   105   99  100 1  
   106  100  101 2  
   107  100  102 1  
   108  101  103 1  
   109  102  104 ar 
   110  102  105 ar 
   111  103  104 1  
   112  104  106 ar 
   113  105  107 ar 
   114  106  108 ar 
   115  107  108 ar 
   116  109  110 1  
   117  110  111 1  
   118  110  113 1  
   119  111  112 2  
   120  111  120 am 
   121  113  114 1  
   122  114  115 1  
   123  115  116 1  
   124  116  117 ar 
   125  117  118 ar 
   126  117  119 ar 
   127  120  121 1  
   128  121  122 1  
   129  121  124 1  
   130  122  123 2  
   131  122  126 am 
   132  124  125 1  
   133  126  127 1  
   134  127  128 1  
   135  127  130 1  
   136  128  129 2  
   137  128  134 am 
   138  130  131 1  
   139  131  132 1  
   140  131  133 1  
   141  134  135 1  
   142  135  136 1  
   143  135  138 1  
   144  136  137 2  
   145  136  143 am 
   146  138  139 1  
   147  139  140 1  
   148  140  141 2  
   149  140  142 am 
   150  143  144 1  
   151  144  145 1  
   152  144  151 1  
   153  145  146 1  
   154  146  147 1  
   155  146  148 2  
   156  147  149 2  
   157  148  150 1  
   158  149  150 1  
   159  151  152 2  
   160  151  153 am 
   161    1  154 1  
   162    1  155 1  
   163    1  156 1  
   164    2  157 1  
   165    5  158 1  
   166    5  159 1  
   167    7  160 1  
   168    8  161 1  
   169   11  162 1  
   170   11  163 1  
   171   14  164 1  
   172   14  165 1  
   173   15  166 1  
   174   16  167 1  
   175   19  168 1  
   176   19  169 1  
   177   21  170 1  
   178   22  171 1  
   179   25  172 1  
   180   25  173 1  
   181   26  174 1  
   182   26  175 1  
   183   27  176 1  
   184   27  177 1  
   185   28  178 1  
   186   28  179 1  
   187   29  180 1  
   188   29  181 1  
   189   29  182 1  
   190   30  183 1  
   191   31  184 1  
   192   34  185 1  
   193   34  186 1  
   194   34  187 1  
   195   36  188 1  
   196   39  189 1  
   197   39  190 1  
   198   40  191 1  
   199   40  192 1  
   200   41  193 1  
   201   41  194 1  
   202   42  195 1  
   203   43  196 1  
   204   46  197 1  
   205   46  198 1  
   206   47  199 1  
   207   47  200 1  
   208   51  201 1  
   209   52  202 1  
   210   55  203 1  
   211   56  204 1  
   212   57  205 1  
   213   57  206 1  
   214   57  207 1  
   215   58  208 1  
   216   59  209 1  
   217   62  210 1  
   218   62  211 1  
   219   64  212 1  
   220   65  213 1  
   221   66  214 1  
   222   67  215 1  
   223   68  216 1  
   224   69  217 1  
   225   70  218 1  
   226   73  219 1  
   227   73  220 1  
   228   74  221 1  
   229   75  222 1  
   230   75  223 1  
   231   75  224 1  
   232   76  225 1  
   233   76  226 1  
   234   76  227 1  
   235   77  228 1  
   236   78  229 1  
   237   81  230 1  
   238   81  231 1  
   239   83  232 1  
   240   84  233 1  
   241   87  234 1  
   242   87  235 1  
   243   89  236 1  
   244   90  237 1  
   245   91  238 1  
   246   92  239 1  
   247   94  240 1  
   248   95  241 1  
   249   96  242 1  
   250   99  243 1  
   251   99  244 1  
   252  101  245 1  
   253  103  246 1  
   254  105  247 1  
   255  106  248 1  
   256  107  249 1  
   257  108  250 1  
   258  109  251 1  
   259  110  252 1  
   260  113  253 1  
   261  113  254 1  
   262  114  255 1  
   263  114  256 1  
   264  115  257 1  
   265  115  258 1  
   266  116  259 1  
   267  118  260 1  
   268  118  261 1  
   269  119  262 1  
   270  119  263 1  
   271  120  264 1  
   272  121  265 1  
   273  124  266 1  
   274  124  267 1  
   275  126  268 1  
   276  127  269 1  
   277  130  270 1  
   278  130  271 1  
   279  131  272 1  
   280  132  273 1  
   281  132  274 1  
   282  132  275 1  
   283  133  276 1  
   284  133  277 1  
   285  133  278 1  
   286  134  279 1  
   287  135  280 1  
   288  138  281 1  
   289  138  282 1  
   290  139  283 1  
   291  139  284 1  
   292  142  285 1  
   293  142  286 1  
   294  143  287 1  
   295  144  288 1  
   296  145  289 1  
   297  145  290 1  
   298  148  291 1  
   299  149  292 1  
   300  150  293 1  
   301  153  294 1  
   302  153  295 1  
@<TRIPOS>SUBSTRUCTURE
     1 CYS         1

