6h4u_ligand
  -I-interpret- 

 42 45  0  0  0  0  0  0  0  0999 V2000
  -24.9600  -22.3480  -16.3970 C   0  0  0  0  0
  -26.0820  -26.9150  -16.7170 N   0  0  0  0  0
  -23.9610  -23.6320  -18.0110 C   0  0  0  0  0
  -24.4320  -26.0350  -18.1540 N   0  0  0  0  0
  -24.6780  -24.7980  -17.6130 C   0  0  0  0  0
  -23.2440  -23.5630  -19.2300 N   0  0  0  0  0
  -25.6180  -24.6080  -16.5920 C   0  0  0  0  0
  -22.6040  -22.4080  -19.5670 N   0  0  0  0  0
  -26.4000  -25.7550  -16.1430 C   0  0  0  0  0
  -25.1330  -27.0270  -17.6680 C   0  0  0  0  0
  -22.1260  -22.6440  -20.7740 C   0  0  0  0  0
  -22.4310  -23.9290  -21.2440 C   0  0  0  0  0
  -23.1470  -24.4930  -20.2010 C   0  0  0  0  0
  -22.0700  -24.4570  -22.6080 C   0  0  0  0  0
  -21.9930  -25.9830  -22.6730 C   0  0  0  0  0
  -27.3370  -25.6660  -15.3630 O   0  0  0  0  0
  -25.7740  -23.3730  -15.9770 C   0  0  0  0  0
  -24.0700  -22.4580  -17.3860 N   0  0  0  0  0
  -23.0120  -23.9460  -23.6990 C   0  0  0  0  0
  -22.5630  -24.4720  -25.0540 C   0  0  0  0  0
  -22.5640  -25.9350  -25.0720 N   0  3  0  0  0
  -22.2260  -26.4340  -26.4080 C   0  0  0  0  0
  -21.6020  -26.4210  -24.0810 C   0  0  0  0  0
  -25.0465  -21.3862  -15.8914 H   0  0  0  0  0
  -26.5790  -27.7560  -16.4236 H   0  0  0  0  0
  -24.9340  -28.0231  -18.0634 H   0  0  0  0  0
  -21.5529  -21.9148  -21.3467 H   0  0  0  0  0
  -23.5565  -25.5027  -20.1709 H   0  0  0  0  0
  -21.0690  -24.0677  -22.7938 H   0  0  0  0  0
  -22.9665  -26.4041  -22.4218 H   0  0  0  0  0
  -21.2440  -26.3366  -21.9645 H   0  0  0  0  0
  -26.5139  -23.2220  -15.1910 H   0  0  0  0  0
  -22.9929  -22.8562  -23.7107 H   0  0  0  0  0
  -24.0242  -24.2947  -23.4940 H   0  0  0  0  0
  -21.5501  -24.1196  -25.2489 H   0  0  0  0  0
  -23.2534  -24.1114  -25.8165 H   0  0  0  0  0
  -23.4957  -26.2785  -24.8388 H   0  0  0  0  0
  -22.9605  -26.0706  -27.1267 H   0  0  0  0  0
  -21.2347  -26.0772  -26.6877 H   0  0  0  0  0
  -22.2323  -27.5240  -26.3997 H   0  0  0  0  0
  -21.5870  -27.5104  -24.1153 H   0  0  0  0  0
  -20.6215  -26.0064  -24.3150 H   0  0  0  0  0
  1 17  4  0  0  0
 18  1  4  0  0  0
  2  9  1  0  0  0
 10  2  1  0  0  0
  5  3  4  0  0  0
  3  6  1  0  0  0
  3 18  4  0  0  0
  4  5  1  0  0  0
  4 10  2  0  0  0
  5  7  4  0  0  0
  6  8  4  0  0  0
  6 13  4  0  0  0
  7  9  1  0  0  0
  7 17  4  0  0  0
  8 11  4  0  0  0
  9 16  2  0  0  0
 11 12  4  0  0  0
 12 13  4  0  0  0
 12 14  1  0  0  0
 14 15  1  0  0  0
 14 19  1  0  0  0
 15 23  1  0  0  0
 19 20  1  0  0  0
 20 21  1  0  0  0
 21 22  1  0  0  0
 21 23  1  0  0  0
  1 24  1  0  0  0
  2 25  1  0  0  0
 10 26  1  0  0  0
 11 27  1  0  0  0
 13 28  1  0  0  0
 14 29  1  0  0  0
 15 30  1  0  0  0
 15 31  1  0  0  0
 17 32  1  0  0  0
 19 33  1  0  0  0
 19 34  1  0  0  0
 20 35  1  0  0  0
 20 36  1  0  0  0
 21 37  1  0  0  0
 22 38  1  0  0  0
 22 39  1  0  0  0
 22 40  1  0  0  0
 23 41  1  0  0  0
 23 42  1  0  0  0
M  END
$$$$
