4np2_ligand
  -I-interpret- 

 34 36  0  0  0  0  0  0  0  0999 V2000
   12.3730   -5.8190    1.4220 C   0  0  0  0  0
   12.8320   -4.5920    0.5830 C   0  0  0  0  0
   11.8450   -4.2460   -0.3980 C   0  0  0  0  0
   12.2150   -3.3350   -1.4080 C   0  0  0  0  0
   11.2930   -2.9410   -2.3880 C   0  0  0  0  0
    9.9990   -3.4580   -2.3780 C   0  0  0  0  0
    9.6130   -4.3740   -1.3840 C   0  0  0  0  0
   10.5200   -4.7670   -0.3810 C   0  0  0  0  0
   10.0730   -5.7040    0.6070 C   0  0  0  0  0
   10.9430   -5.6920    1.8130 N   0  3  0  0  0
   10.5690   -6.7690    2.7600 C   0  0  0  0  0
   11.3850   -6.6720    4.0700 C   0  0  0  0  0
   11.3500   -5.6580    4.9290 N   0  0  0  0  0
   12.2090   -5.9440    5.9220 C   0  0  0  0  0
   12.7720   -7.1410    5.6760 N   0  0  0  0  0
   12.2590   -7.5730    4.5260 C   0  0  0  0  0
   12.6230   -8.8970    3.8520 C   0  0  0  0  0
   12.9796   -5.8714    2.3261 H   0  0  0  0  0
   12.4923   -6.7194    0.8193 H   0  0  0  0  0
   13.7612   -4.8441    0.0721 H   0  0  0  0  0
   12.9746   -3.7432    1.2518 H   0  0  0  0  0
   13.2279   -2.9329   -1.4273 H   0  0  0  0  0
   11.5888   -2.2293   -3.1588 H   0  0  0  0  0
    9.2848   -3.1516   -3.1423 H   0  0  0  0  0
    8.6029   -4.7836   -1.3896 H   0  0  0  0  0
   10.1050   -6.7027    0.1714 H   0  0  0  0  0
    9.0634   -5.4268    0.9101 H   0  0  0  0  0
   10.8083   -4.7987    2.2866 H   0  0  0  0  0
   10.7768   -7.7311    2.2917 H   0  0  0  0  0
    9.5109   -6.6674    3.0014 H   0  0  0  0  0
   12.4156   -5.3106    6.7847 H   0  0  0  0  0
   11.7287   -9.5130    3.7574 H   0  0  0  0  0
   13.0353   -8.6983    2.8627 H   0  0  0  0  0
   13.3635   -9.4199    4.4573 H   0  0  0  0  0
  1  2  1  0  0  0
  1 10  1  0  0  0
  2  3  1  0  0  0
  3  4  4  0  0  0
  3  8  4  0  0  0
  4  5  4  0  0  0
  5  6  4  0  0  0
  6  7  4  0  0  0
  7  8  4  0  0  0
  8  9  1  0  0  0
  9 10  1  0  0  0
 10 11  1  0  0  0
 11 12  1  0  0  0
 12 13  4  0  0  0
 12 16  4  0  0  0
 13 14  4  0  0  0
 14 15  4  0  0  0
 15 16  4  0  0  0
 16 17  1  0  0  0
  1 18  1  0  0  0
  1 19  1  0  0  0
  2 20  1  0  0  0
  2 21  1  0  0  0
  4 22  1  0  0  0
  5 23  1  0  0  0
  6 24  1  0  0  0
  7 25  1  0  0  0
  9 26  1  0  0  0
  9 27  1  0  0  0
 10 28  1  0  0  0
 11 29  1  0  0  0
 11 30  1  0  0  0
 14 31  1  0  0  0
 17 32  1  0  0  0
 17 33  1  0  0  0
 17 34  1  0  0  0
M  END
$$$$
