3vws_ligand
  -I-interpret- 

 36 38  0  0  0  0  0  0  0  0999 V2000
   36.7950   61.6280   14.1380 Cl  0  0  0  0  0
   35.3500   62.4450   13.5400 C   0  0  0  0  0
   35.5820   63.7580   13.1470 C   0  0  0  0  0
   34.5240   64.5220   12.6650 C   0  0  0  0  0
   34.0630   61.8430   13.4470 C   0  0  0  0  0
   32.9920   62.6320   12.9460 C   0  0  0  0  0
   33.2330   64.0060   12.5480 C   0  0  0  0  0
   32.1290   65.0580   12.0050 S   0  0  0  0  0
   32.1950   65.5620   10.6460 O   0  0  0  0  0
   31.0920   64.1400   11.5530 O   0  0  0  0  0
   31.1860   65.6660   13.1420 N   0  0  0  0  0
   30.8340   65.2000   14.3800 C   0  0  0  0  0
   30.1130   63.9830   14.5600 C   0  0  0  0  0
   29.7240   63.5680   15.8640 C   0  0  0  0  0
   31.1710   66.0150   15.5170 C   0  0  0  0  0
   30.7740   65.6000   16.8230 C   0  0  0  0  0
   30.8980   66.0980   18.1610 C   0  0  0  0  0
   31.6110   67.3900   18.5440 C   0  0  0  0  0
   32.1090   68.1640   17.6910 O   0  0  0  0  0
   31.7330   67.6640   19.7640 O   0  0  0  0  0
   30.0620   64.3920   16.9780 C   0  0  0  0  0
   29.7760   64.1600   18.2480 O   0  0  0  0  0
   30.2570   65.1930   19.0260 C   0  0  0  0  0
   30.0100   65.0910   20.5270 C   0  0  0  0  0
   36.5827   64.1846   13.2158 H   0  0  0  0  0
   34.7092   65.5548   12.3699 H   0  0  0  0  0
   33.9038   60.8084   13.7508 H   0  0  0  0  0
   31.9924   62.2058   12.8611 H   0  0  0  0  0
   30.7702   66.5658   12.9016 H   0  0  0  0  0
   29.8592   63.3689   13.6960 H   0  0  0  0  0
   29.1771   62.6364   16.0092 H   0  0  0  0  0
   31.7259   66.9433   15.3814 H   0  0  0  0  0
   31.3035   66.9839   20.2881 H   0  0  0  0  0
   30.9659   65.0597   21.0499 H   0  0  0  0  0
   29.4404   65.9586   20.8600 H   0  0  0  0  0
   29.4477   64.1819   20.7404 H   0  0  0  0  0
  1  2  1  0  0  0
  2  3  4  0  0  0
  2  5  4  0  0  0
  3  4  4  0  0  0
  4  7  4  0  0  0
  5  6  4  0  0  0
  6  7  4  0  0  0
  7  8  1  0  0  0
  8  9  2  0  0  0
  8 10  2  0  0  0
  8 11  1  0  0  0
 11 12  1  0  0  0
 12 13  4  0  0  0
 12 15  4  0  0  0
 13 14  4  0  0  0
 14 21  4  0  0  0
 15 16  4  0  0  0
 16 17  4  0  0  0
 16 21  4  0  0  0
 17 18  1  0  0  0
 17 23  4  0  0  0
 18 19  2  0  0  0
 18 20  1  0  0  0
 21 22  4  0  0  0
 22 23  4  0  0  0
 23 24  1  0  0  0
  3 25  1  0  0  0
  4 26  1  0  0  0
  5 27  1  0  0  0
  6 28  1  0  0  0
 11 29  1  0  0  0
 13 30  1  0  0  0
 14 31  1  0  0  0
 15 32  1  0  0  0
 20 33  1  0  0  0
 24 34  1  0  0  0
 24 35  1  0  0  0
 24 36  1  0  0  0
M  END
$$$$
