5i1q_ligand
  -I-interpret- 

 47 49  0  0  0  0  0  0  0  0999 V2000
   -4.3910   13.7150    8.1870 C   0  0  0  0  0
  -10.2890   18.8520    5.4670 N   0  0  0  0  0
  -12.0460   20.3520    5.5330 O   0  0  0  0  0
   -4.9240   16.0600    8.1470 C   0  0  0  0  0
  -10.1660   22.4990    6.4160 N   0  0  0  0  0
   -5.1300   17.3960    7.4530 C   0  0  0  0  0
   -6.4300   17.8110    7.1250 C   0  0  0  0  0
   -6.6470   19.0870    6.5190 C   0  0  0  0  0
   -5.5410   19.9040    6.3430 C   0  0  0  0  0
   -4.2700   19.5040    6.7340 C   0  0  0  0  0
   -4.0230   18.2250    7.2580 C   0  0  0  0  0
   -8.0430   19.4800    6.2490 C   0  0  0  0  0
   -8.9980   18.5500    5.7170 C   0  0  0  0  0
  -10.8700   20.1600    5.6400 C   0  0  0  0  0
  -11.1580   17.7640    4.9140 C   0  0  0  0  0
  -11.4550   16.8080    6.1400 C   0  0  0  0  0
  -12.3250   15.6930    5.6350 C   0  0  0  0  0
  -11.9350   14.4240    5.6270 C   0  0  0  0  0
   -9.8830   21.1410    6.1220 C   0  0  0  0  0
   -8.9850   22.9280    6.8270 C   0  0  0  0  0
   -7.8670   22.0820    6.9070 C   0  0  0  0  0
   -8.5370   20.8750    6.4060 C   0  0  0  0  0
   -5.4590   15.9750    9.3150 O   0  0  0  0  0
   -4.4210   15.0590    7.5500 N   0  0  0  0  0
   -3.9970   15.0750    6.1290 C   0  0  0  0  0
   -5.0599   13.0439    7.6481 H   0  0  0  0  0
   -3.3751   13.3213    8.1539 H   0  0  0  0  0
   -4.7161   13.7985    9.2240 H   0  0  0  0  0
   -7.2773   17.1577    7.3332 H   0  0  0  0  0
   -5.6723   20.8849    5.8863 H   0  0  0  0  0
   -3.4401   20.2031    6.6312 H   0  0  0  0  0
   -3.0134   17.8942    7.5015 H   0  0  0  0  0
   -7.4836   19.2277    7.1498 H   0  0  0  0  0
   -8.6032   18.3438    4.7222 H   0  0  0  0  0
   -9.0752   17.8059    6.5098 H   0  0  0  0  0
  -10.6674   17.2323    4.0987 H   0  0  0  0  0
  -12.0763   18.1625    4.4827 H   0  0  0  0  0
  -11.9568   17.3539    6.9390 H   0  0  0  0  0
  -10.5263   16.4131    6.5519 H   0  0  0  0  0
  -13.3189   15.9359    5.2591 H   0  0  0  0  0
  -10.9457   14.1555    5.9977 H   0  0  0  0  0
  -12.6041   13.6506    5.2498 H   0  0  0  0  0
   -8.8753   23.9739    7.1135 H   0  0  0  0  0
   -6.8424   22.2615    7.2327 H   0  0  0  0  0
   -4.8547   15.3075    5.4978 H   0  0  0  0  0
   -3.2258   15.8326    5.9898 H   0  0  0  0  0
   -3.5999   14.0966    5.8586 H   0  0  0  0  0
 24  1  1  0  0  0
  2 13  1  0  0  0
 14  2  1  0  0  0
  2 15  1  0  0  0
 14  3  2  0  0  0
  6  4  1  0  0  0
  4 23  2  0  0  0
  4 24  1  0  0  0
 19  5  4  0  0  0
  5 20  4  0  0  0
  7  6  4  0  0  0
  6 11  4  0  0  0
  8  7  4  0  0  0
  8  9  4  0  0  0
 12  8  1  0  0  0
  9 10  4  0  0  0
 10 11  4  0  0  0
 13 12  1  0  0  0
 12 22  1  0  0  0
 14 19  1  0  0  0
 15 16  1  0  0  0
 16 17  1  0  0  0
 17 18  2  0  0  0
 19 22  4  0  0  0
 20 21  4  0  0  0
 21 22  4  0  0  0
 24 25  1  0  0  0
  1 26  1  0  0  0
  1 27  1  0  0  0
  1 28  1  0  0  0
  7 29  1  0  0  0
  9 30  1  0  0  0
 10 31  1  0  0  0
 11 32  1  0  0  0
 12 33  1  0  0  0
 13 34  1  0  0  0
 13 35  1  0  0  0
 15 36  1  0  0  0
 15 37  1  0  0  0
 16 38  1  0  0  0
 16 39  1  0  0  0
 17 40  1  0  0  0
 18 41  1  0  0  0
 18 42  1  0  0  0
 20 43  1  0  0  0
 21 44  1  0  0  0
 25 45  1  0  0  0
 25 46  1  0  0  0
 25 47  1  0  0  0
M  END
$$$$
