3zps_ligand
  -I-interpret- 

101102  0  0  0  0  0  0  0  0999 V2000
   16.4790   16.5930   10.7750 Br  0  0  0  0  0
   11.9700   24.2580    4.6700 C   0  0  0  0  0
   10.2080   25.5340    5.7170 N   0  0  0  0  0
   12.3760   25.5980    4.3570 O   0  0  0  0  0
   10.8910   24.3180    5.5740 C   0  0  0  0  0
   15.2780   22.2820    7.1520 N   0  3  0  0  0
   10.4240   23.3070    6.1050 O   0  0  0  0  0
    8.8600   25.6370    6.3320 C   0  0  0  0  0
   15.8020   21.6890    6.1980 N   0  0  0  0  0
   14.0020   20.3110    5.9530 O   0  0  0  0  0
    8.9580   26.1350    7.7840 C   0  0  0  0  0
   16.7030   18.7560    5.5760 N   0  0  0  0  0
   18.7310   19.5330    5.0510 O   0  0  0  0  0
    9.7350   27.4530    7.8430 C   0  0  0  0  0
    6.7890   26.0010    5.1140 N   0  0  0  0  0
   18.6310   17.7800    6.4690 O   0  0  0  0  0
    7.5450   26.3670    8.3190 C   0  0  0  0  0
    8.3380   27.6260    5.2560 O   0  0  0  0  0
   13.1780   23.5000    5.2470 C   0  0  0  0  0
   13.6780   24.1270    6.5550 C   0  0  0  0  0
   15.1360   23.7120    6.8200 C   0  0  0  0  0
   16.1580   22.1640    8.3330 C   0  0  0  0  0
   16.2300   20.8560    8.8200 C   0  0  0  0  0
   15.1340   20.6690    5.6160 C   0  0  0  0  0
   16.0270   19.7640    4.7480 C   0  0  0  0  0
   15.2760   19.0820    3.6020 C   0  0  0  0  0
   16.2990   18.5090    2.6190 C   0  0  0  0  0
   14.4100   17.9390    4.1410 C   0  0  0  0  0
   14.3870   20.0940    2.8780 C   0  0  0  0  0
   18.0370   18.7810    5.7500 C   0  0  0  0  0
   19.9140   18.2040    6.9410 C   0  0  0  0  0
   15.0860   20.2350    9.3060 C   0  0  0  0  0
   15.1590   18.9460    9.8240 C   0  0  0  0  0
   16.3880   18.3110    9.9570 C   0  0  0  0  0
   17.5480   18.9750    9.5730 C   0  0  0  0  0
   17.4670   20.2430    8.9970 C   0  0  0  0  0
   11.5510   23.5480    3.3680 C   0  0  0  0  0
   10.2630   23.9100    2.9830 C   0  0  0  0  0
   10.0470   25.1020    2.3010 C   0  0  0  0  0
    8.7570   25.4620    1.9240 C   0  0  0  0  0
    7.6870   24.6230    2.2160 C   0  0  0  0  0
    7.9090   23.4200    2.8770 C   0  0  0  0  0
    9.2030   23.0410    3.2140 C   0  0  0  0  0
    5.8030   25.3490    2.3790 C   0  0  0  0  0
    8.0180   26.4780    5.5760 C   0  0  0  0  0
    9.6630   25.0910    8.6510 C   0  0  0  0  0
    5.1880   26.0930    3.3810 C   0  0  0  0  0
    5.9410   26.8690    4.2600 C   0  0  0  0  0
   10.6573   26.3868    5.3835 H   0  0  0  0  0
   11.6293   26.0812    3.9957 H   0  0  0  0  0
   14.3634   21.8741    7.3459 H   0  0  0  0  0
    8.4213   24.6392    6.3394 H   0  0  0  0  0
   16.7227   21.9666    5.8578 H   0  0  0  0  0
   16.1520   18.0252    6.0263 H   0  0  0  0  0
   10.7402   27.2986    7.4507 H   0  0  0  0  0
    9.2207   28.2036    7.2429 H   0  0  0  0  0
    9.7953   27.7918    8.8773 H   0  0  0  0  0
    6.4766   25.0622    5.3621 H   0  0  0  0  0
    7.0431   27.1139    7.7039 H   0  0  0  0  0
    6.9867   25.4314    8.2847 H   0  0  0  0  0
    7.6012   26.7206    9.3485 H   0  0  0  0  0
   13.9870   23.5419    4.5177 H   0  0  0  0  0
   12.8697   22.4756    5.4559 H   0  0  0  0  0
   13.0532   23.7807    7.3783 H   0  0  0  0  0
   13.6253   25.2127    6.4732 H   0  0  0  0  0
   15.7049   23.8991    5.9092 H   0  0  0  0  0
   15.4949   24.2878    7.6731 H   0  0  0  0  0
   15.7472   22.7939    9.1220 H   0  0  0  0  0
   17.1618   22.4672    8.0354 H   0  0  0  0  0
   16.7657   20.4218    4.2900 H   0  0  0  0  0
   16.9178   19.3169    2.2285 H   0  0  0  0  0
   16.9288   17.7835    3.1338 H   0  0  0  0  0
   15.7766   18.0199    1.7969 H   0  0  0  0  0
   15.0460   17.2058    4.6371 H   0  0  0  0  0
   13.6879   18.3370    4.8539 H   0  0  0  0  0
   13.8822   17.4638    3.3142 H   0  0  0  0  0
   13.6653   20.5101    3.5810 H   0  0  0  0  0
   15.0056   20.8951    2.4735 H   0  0  0  0  0
   13.8587   19.5956    2.0653 H   0  0  0  0  0
   20.5471   18.4570    6.0906 H   0  0  0  0  0
   19.7938   19.0793    7.5793 H   0  0  0  0  0
   20.3747   17.3974    7.5113 H   0  0  0  0  0
   14.1302   20.7584    9.2814 H   0  0  0  0  0
   14.2473   18.4312   10.1272 H   0  0  0  0  0
   18.5201   18.5049    9.7220 H   0  0  0  0  0
   18.3765   20.7559    8.6842 H   0  0  0  0  0
   11.5712   22.4717    3.5391 H   0  0  0  0  0
   12.2428   23.8387    2.5775 H   0  0  0  0  0
   10.8873   25.7538    2.0619 H   0  0  0  0  0
    8.5850   26.4020    1.3996 H   0  0  0  0  0
    6.6754   24.9081    1.9270 H   0  0  0  0  0
    7.0683   22.7743    3.1308 H   0  0  0  0  0
    9.3865   22.0631    3.6591 H   0  0  0  0  0
    6.8877   25.3682    2.2738 H   0  0  0  0  0
    5.2001   24.7469    1.6992 H   0  0  0  0  0
    9.0967   24.1599    8.6289 H   0  0  0  0  0
   10.6667   24.9166    8.2634 H   0  0  0  0  0
    9.7263   25.4550    9.6765 H   0  0  0  0  0
    4.1028   26.0686    3.4798 H   0  0  0  0  0
    6.5812   27.5385    3.6855 H   0  0  0  0  0
    5.2669   27.4441    4.8947 H   0  0  0  0  0
 34  1  1  0  0  0
  2  4  1  0  0  0
  5  2  1  0  0  0
  2 19  1  0  0  0
  2 37  1  0  0  0
  3  5  1  0  0  0
  8  3  1  0  0  0
  5  7  2  0  0  0
  6  9  1  0  0  0
 21  6  1  0  0  0
  6 22  1  0  0  0
  8 11  1  0  0  0
 45  8  1  0  0  0
  9 24  1  0  0  0
 24 10  2  0  0  0
 11 14  1  0  0  0
 11 17  1  0  0  0
 11 46  1  0  0  0
 25 12  1  0  0  0
 12 30  1  0  0  0
 30 13  2  0  0  0
 15 45  1  0  0  0
 48 15  1  0  0  0
 30 16  1  0  0  0
 16 31  1  0  0  0
 45 18  2  0  0  0
 19 20  1  0  0  0
 20 21  1  0  0  0
 22 23  1  0  0  0
 23 32  4  0  0  0
 23 36  4  0  0  0
 24 25  1  0  0  0
 25 26  1  0  0  0
 26 27  1  0  0  0
 26 28  1  0  0  0
 26 29  1  0  0  0
 32 33  4  0  0  0
 33 34  4  0  0  0
 35 34  4  0  0  0
 36 35  4  0  0  0
 37 38  1  0  0  0
 38 39  4  0  0  0
 38 43  4  0  0  0
 39 40  4  0  0  0
 40 41  4  0  0  0
 42 41  4  0  0  0
 43 42  4  0  0  0
 47 44  2  0  0  0
 47 48  1  0  0  0
  3 49  1  0  0  0
  4 50  1  0  0  0
  6 51  1  0  0  0
  8 52  1  0  0  0
  9 53  1  0  0  0
 12 54  1  0  0  0
 14 55  1  0  0  0
 14 56  1  0  0  0
 14 57  1  0  0  0
 15 58  1  0  0  0
 17 59  1  0  0  0
 17 60  1  0  0  0
 17 61  1  0  0  0
 19 62  1  0  0  0
 19 63  1  0  0  0
 20 64  1  0  0  0
 20 65  1  0  0  0
 21 66  1  0  0  0
 21 67  1  0  0  0
 22 68  1  0  0  0
 22 69  1  0  0  0
 25 70  1  0  0  0
 27 71  1  0  0  0
 27 72  1  0  0  0
 27 73  1  0  0  0
 28 74  1  0  0  0
 28 75  1  0  0  0
 28 76  1  0  0  0
 29 77  1  0  0  0
 29 78  1  0  0  0
 29 79  1  0  0  0
 31 80  1  0  0  0
 31 81  1  0  0  0
 31 82  1  0  0  0
 32 83  1  0  0  0
 33 84  1  0  0  0
 35 85  1  0  0  0
 36 86  1  0  0  0
 37 87  1  0  0  0
 37 88  1  0  0  0
 39 89  1  0  0  0
 40 90  1  0  0  0
 41 91  1  0  0  0
 42 92  1  0  0  0
 43 93  1  0  0  0
 44 94  1  0  0  0
 44 95  1  0  0  0
 46 96  1  0  0  0
 46 97  1  0  0  0
 46 98  1  0  0  0
 47 99  1  0  0  0
 48100  1  0  0  0
 48101  1  0  0  0
M  END
$$$$
