2v13_ligand
  -I-interpret- 

 77 77  0  0  0  0  0  0  0  0999 V2000
   86.2930   25.6350  -37.1600 C   0  0  0  0  0
   85.7010   25.6730  -35.8710 O   0  0  0  0  0
   84.7080   24.6970  -36.0060 C   0  0  0  0  0
   85.0570   23.5580  -35.0820 C   0  0  0  0  0
   83.6860   22.9810  -34.8030 C   0  0  0  0  0
   83.7070   21.7090  -34.1790 O   0  0  0  0  0
   82.7110   21.3470  -33.2880 C   0  0  0  0  0
   82.6060   22.1810  -32.1870 C   0  0  0  0  0
   81.5840   22.0740  -31.2900 C   0  0  0  0  0
   80.6400   21.1290  -31.4950 C   0  0  0  0  0
   80.7150   20.2900  -32.5850 C   0  0  0  0  0
   81.7410   20.3720  -33.4870 C   0  0  0  0  0
   81.8070   19.4940  -34.5830 C   0  0  0  0  0
   81.8310   18.2950  -34.3790 O   0  0  0  0  0
   82.9160   18.9620  -36.6150 C   0  0  0  0  0
   82.2470   19.8980  -35.7450 N   0  0  0  0  0
   80.9610   19.8110  -38.0050 C   0  0  0  0  0
   82.4140   19.2530  -37.9850 C   0  0  0  0  0
   82.4300   17.9810  -38.7790 C   0  0  0  0  0
   84.7680   18.2490  -39.2870 N   0  3  0  0  0
   83.7330   17.3190  -38.9240 C   0  0  0  0  0
   83.5650   16.3020  -40.0360 C   0  0  0  0  0
   83.9430   17.1050  -41.1570 O   0  0  0  0  0
   84.4860   15.0650  -39.9620 C   0  0  0  0  0
   84.5070   14.2200  -41.2130 C   0  0  0  0  0
   85.6480   13.2880  -41.2340 C   0  0  0  0  0
   83.3200   13.3510  -41.4160 C   0  0  0  0  0
   82.6970   12.9220  -40.4510 O   0  0  0  0  0
   81.7740   12.3730  -42.9820 C   0  0  0  0  0
   83.0160   13.0480  -42.6590 N   0  0  0  0  0
   80.5630   13.2390  -42.6730 C   0  0  0  0  0
   79.2890   12.7330  -43.3300 C   0  0  0  0  0
   78.8740   11.3490  -42.7430 C   0  0  0  0  0
   86.6863   24.6360  -37.3485 H   0  0  0  0  0
   85.5414   25.8786  -37.9109 H   0  0  0  0  0
   87.1045   26.3612  -37.2073 H   0  0  0  0  0
   84.6573   24.3473  -37.0371 H   0  0  0  0  0
   83.7327   25.1097  -35.7481 H   0  0  0  0  0
   85.5960   23.8665  -34.1862 H   0  0  0  0  0
   85.7578   22.8416  -35.5107 H   0  0  0  0  0
   83.1866   22.8594  -35.7642 H   0  0  0  0  0
   83.1818   23.6655  -34.1209 H   0  0  0  0  0
   83.3650   22.9479  -32.0324 H   0  0  0  0  0
   81.5299   22.7366  -30.4262 H   0  0  0  0  0
   79.8127   21.0299  -30.7923 H   0  0  0  0  0
   79.9368   19.5412  -32.7329 H   0  0  0  0  0
   82.7063   17.9321  -36.3260 H   0  0  0  0  0
   83.9990   19.0714  -36.5577 H   0  0  0  0  0
   82.1184   20.8675  -36.0346 H   0  0  0  0  0
   80.2867   19.0813  -37.5566 H   0  0  0  0  0
   80.9223   20.7405  -37.4370 H   0  0  0  0  0
   80.6601   20.0005  -39.0354 H   0  0  0  0  0
   83.0667   20.0172  -38.4070 H   0  0  0  0  0
   82.1124   18.2489  -39.7867 H   0  0  0  0  0
   81.7922   17.2799  -38.2408 H   0  0  0  0  0
   85.6539   17.7516  -39.3775 H   0  0  0  0  0
   84.5314   18.6891  -40.1762 H   0  0  0  0  0
   84.8503   18.9636  -38.5638 H   0  0  0  0  0
   84.0295   16.8643  -37.9788 H   0  0  0  0  0
   82.5687   15.8599  -40.0332 H   0  0  0  0  0
   83.8845   16.5807  -41.9590 H   0  0  0  0  0
   84.1063   14.4338  -39.1585 H   0  0  0  0  0
   85.5007   15.4330  -39.8100 H   0  0  0  0  0
   84.5518   14.9787  -41.9943 H   0  0  0  0  0
   86.5786   13.8539  -41.1905 H   0  0  0  0  0
   85.5864   12.6208  -40.3742 H   0  0  0  0  0
   85.6201   12.7022  -42.1528 H   0  0  0  0  0
   81.7099   11.4671  -42.3792 H   0  0  0  0  0
   81.7726   12.1507  -44.0491 H   0  0  0  0  0
   83.6642   13.2917  -43.4079 H   0  0  0  0  0
   80.7619   14.2386  -43.0594 H   0  0  0  0  0
   80.4095   13.2230  -41.5940 H   0  0  0  0  0
   79.4659   12.6219  -44.3998 H   0  0  0  0  0
   78.4887   13.4486  -43.1416 H   0  0  0  0  0
   79.6713   10.6271  -42.9195 H   0  0  0  0  0
   78.7018   11.4472  -41.6712 H   0  0  0  0  0
   77.9598   11.0088  -43.2295 H   0  0  0  0  0
  1  2  1  0  0  0
  2  3  1  0  0  0
  3  4  1  0  0  0
  4  5  1  0  0  0
  5  6  1  0  0  0
  6  7  1  0  0  0
  7  8  4  0  0  0
  7 12  4  0  0  0
  8  9  4  0  0  0
  9 10  4  0  0  0
 10 11  4  0  0  0
 11 12  4  0  0  0
 12 13  1  0  0  0
 13 14  2  0  0  0
 13 16  1  0  0  0
 16 15  1  0  0  0
 15 18  1  0  0  0
 18 17  1  0  0  0
 18 19  1  0  0  0
 19 21  1  0  0  0
 21 20  1  0  0  0
 21 22  1  0  0  0
 22 23  1  0  0  0
 22 24  1  0  0  0
 24 25  1  0  0  0
 25 26  1  0  0  0
 25 27  1  0  0  0
 27 28  2  0  0  0
 27 30  1  0  0  0
 30 29  1  0  0  0
 29 31  1  0  0  0
 31 32  1  0  0  0
 32 33  1  0  0  0
  1 34  1  0  0  0
  1 35  1  0  0  0
  1 36  1  0  0  0
  3 37  1  0  0  0
  3 38  1  0  0  0
  4 39  1  0  0  0
  4 40  1  0  0  0
  5 41  1  0  0  0
  5 42  1  0  0  0
  8 43  1  0  0  0
  9 44  1  0  0  0
 10 45  1  0  0  0
 11 46  1  0  0  0
 15 47  1  0  0  0
 15 48  1  0  0  0
 16 49  1  0  0  0
 17 50  1  0  0  0
 17 51  1  0  0  0
 17 52  1  0  0  0
 18 53  1  0  0  0
 19 54  1  0  0  0
 19 55  1  0  0  0
 20 56  1  0  0  0
 20 57  1  0  0  0
 20 58  1  0  0  0
 21 59  1  0  0  0
 22 60  1  0  0  0
 23 61  1  0  0  0
 24 62  1  0  0  0
 24 63  1  0  0  0
 25 64  1  0  0  0
 26 65  1  0  0  0
 26 66  1  0  0  0
 26 67  1  0  0  0
 29 68  1  0  0  0
 29 69  1  0  0  0
 30 70  1  0  0  0
 31 71  1  0  0  0
 31 72  1  0  0  0
 32 73  1  0  0  0
 32 74  1  0  0  0
 33 75  1  0  0  0
 33 76  1  0  0  0
 33 77  1  0  0  0
M  END
$$$$
