### 
### Created by X-TOOL on Mon Sep 10 21:12:59 2018
### 

@<TRIPOS>MOLECULE
3bxz_ligand
   39    41     1     0     0
SMALL
GAST_HUCK


@<TRIPOS>ATOM
      1 PB         49.7220   -4.7730    8.8960 P.3       1 ADP         0.2069
      2 O1B        48.9910   -3.8790    9.8220 O.co2     1 ADP        -0.5891
      3 O2B        51.0810   -5.3340    9.5880 O.co2     1 ADP        -0.5891
      4 O3B        48.8170   -5.8750    8.4810 O.co2     1 ADP        -0.5891
      5 PA         51.3230   -3.0300    7.3580 P.3       1 ADP         0.3276
      6 O1A        52.3160   -2.8950    8.4570 O.co2     1 ADP        -0.5556
      7 O2A        50.6610   -1.7820    7.0420 O.co2     1 ADP        -0.5556
      8 O3A        50.1440   -3.9680    7.6820 O.3       1 ADP        -0.1548
      9 O5'        51.8920   -3.5970    6.0380 O.3       1 ADP        -0.2436
     10 C5'        52.6770   -4.7450    5.8880 C.3       1 ADP         0.1132
     11 C4'        53.9000   -4.1950    5.0770 C.3       1 ADP         0.1189
     12 O4'        53.9580   -4.8360    3.7930 O.3       1 ADP        -0.3364
     13 C3'        53.8470   -2.6630    4.7640 C.3       1 ADP         0.1149
     14 O3'        54.9120   -1.9500    5.3530 O.3       1 ADP        -0.3864
     15 C2'        53.8700   -2.4740    3.2540 C.3       1 ADP         0.1385
     16 O2'        54.9880   -1.6400    2.8500 O.3       1 ADP        -0.3836
     17 C1'        53.9310   -3.8620    2.6940 C.3       1 ADP         0.2010
     18 N9         52.7400   -4.2360    1.8210 N.pl3     1 ADP        -0.1919
     19 C8         51.4020   -4.2630    2.2090 C.2       1 ADP         0.1123
     20 N7         50.6430   -4.6730    1.1550 N.2       1 ADP        -0.2958
     21 C5         51.4280   -4.9120    0.1120 C.ar      1 ADP         0.1045
     22 C6         51.2390   -5.3320   -1.1860 C.ar      1 ADP         0.1298
     23 N6         50.0160   -5.6350   -1.6250 N.pl3     1 ADP        -0.3152
     24 N1         52.3240   -5.4650   -2.0420 N.ar      1 ADP        -0.2698
     25 C2         53.6220   -5.1800   -1.6450 C.ar      1 ADP         0.0533
     26 N3         53.8240   -4.7690   -0.3590 N.ar      1 ADP        -0.2714
     27 C4         52.7780   -4.6090    0.5390 C.ar      1 ADP         0.1613
     28 H1         52.1423   -5.5250    5.3261 H         1 ADP         0.0648
     29 H2         52.9909   -5.1455    6.8632 H         1 ADP         0.0648
     30 H3         54.8144   -4.4121    5.6486 H         1 ADP         0.0651
     31 H4         52.9035   -2.2598    5.1606 H         1 ADP         0.0648
     32 H5         54.8344   -1.0288    5.1340 H         1 ADP         0.2100
     33 H6         52.9407   -1.9870    2.9235 H         1 ADP         0.0676
     34 H7         54.9113   -0.7878    3.2628 H         1 ADP         0.2101
     35 H8         54.8502   -3.9505    2.0964 H         1 ADP         0.0996
     36 H9         51.0242   -3.9989    3.1956 H         1 ADP         0.1349
     37 H10        49.8806   -5.9486   -2.5967 H         1 ADP         0.1820
     38 H11        49.2072   -5.5553   -0.9922 H         1 ADP         0.1820
     39 H12        54.4516   -5.2806   -2.3355 H         1 ADP         0.0996
@<TRIPOS>BOND
     1    1    2 ar 
     2    1    3 ar 
     3    1    4 ar 
     4    8    1 1  
     5    5    6 ar 
     6    5    7 ar 
     7    5    8 1  
     8    5    9 1  
     9    9   10 1  
    10   10   11 1  
    11   11   12 1  
    12   11   13 1  
    13   12   17 1  
    14   13   14 1  
    15   13   15 1  
    16   15   16 1  
    17   15   17 1  
    18   17   18 1  
    19   18   19 1  
    20   18   27 1  
    21   19   20 2  
    22   20   21 1  
    23   21   22 ar 
    24   21   27 ar 
    25   22   23 1  
    26   22   24 ar 
    27   24   25 ar 
    28   25   26 ar 
    29   26   27 ar 
    30   10   28 1  
    31   10   29 1  
    32   11   30 1  
    33   13   31 1  
    34   14   32 1  
    35   15   33 1  
    36   16   34 1  
    37   17   35 1  
    38   19   36 1  
    39   23   37 1  
    40   23   38 1  
    41   25   39 1  
@<TRIPOS>SUBSTRUCTURE
     1 ADP         1

