3bxz_ligand
  -I-interpret- 

 42 44  0  0  0  0  0  0  0  0999 V2000
   49.7220   -4.7730    8.8960 P   0  0  0  0  0
   48.9910   -3.8790    9.8220 O   0  0  0  0  0
   51.0810   -5.3340    9.5880 O   0  0  0  0  0
   48.8170   -5.8750    8.4810 O   0  0  0  0  0
   51.3230   -3.0300    7.3580 P   0  0  0  0  0
   52.3160   -2.8950    8.4570 O   0  0  0  0  0
   50.6610   -1.7820    7.0420 O   0  0  0  0  0
   50.1440   -3.9680    7.6820 O   0  0  0  0  0
   51.8920   -3.5970    6.0380 O   0  0  0  0  0
   52.6770   -4.7450    5.8880 C   0  0  0  0  0
   53.9000   -4.1950    5.0770 C   0  0  0  0  0
   53.9580   -4.8360    3.7930 O   0  0  0  0  0
   53.8470   -2.6630    4.7640 C   0  0  0  0  0
   54.9120   -1.9500    5.3530 O   0  0  0  0  0
   53.8700   -2.4740    3.2540 C   0  0  0  0  0
   54.9880   -1.6400    2.8500 O   0  0  0  0  0
   53.9310   -3.8620    2.6940 C   0  0  0  0  0
   52.7400   -4.2360    1.8210 N   0  0  0  0  0
   51.4020   -4.2630    2.2090 C   0  0  0  0  0
   50.6430   -4.6730    1.1550 N   0  0  0  0  0
   51.4280   -4.9120    0.1120 C   0  0  0  0  0
   51.2390   -5.3320   -1.1860 C   0  0  0  0  0
   50.0160   -5.6350   -1.6250 N   0  0  0  0  0
   52.3240   -5.4650   -2.0420 N   0  0  0  0  0
   53.6220   -5.1800   -1.6450 C   0  0  0  0  0
   53.8240   -4.7690   -0.3590 N   0  0  0  0  0
   52.7780   -4.6090    0.5390 C   0  0  0  0  0
   51.5384   -5.9103    8.9714 H   0  0  0  0  0
   49.2827   -6.4607    7.8796 H   0  0  0  0  0
   52.7235   -3.7478    8.6251 H   0  0  0  0  0
   52.1578   -5.5623    5.3875 H   0  0  0  0  0
   52.9573   -5.2048    6.8357 H   0  0  0  0  0
   54.7590   -4.3970    5.7169 H   0  0  0  0  0
   52.9277   -2.2634    5.1922 H   0  0  0  0  0
   54.8336   -1.0192    5.1317 H   0  0  0  0  0
   52.9921   -1.9482    2.8787 H   0  0  0  0  0
   54.9800   -1.5364    1.8956 H   0  0  0  0  0
   54.8311   -3.8821    2.0795 H   0  0  0  0  0
   51.0238   -3.9987    3.1965 H   0  0  0  0  0
   49.2151   -5.5561   -0.9983 H   0  0  0  0  0
   49.8820   -5.9455   -2.5873 H   0  0  0  0  0
   54.4561   -5.2812   -2.3393 H   0  0  0  0  0
  1  2  2  0  0  0
  1  3  1  0  0  0
  1  4  1  0  0  0
  8  1  1  0  0  0
  5  6  1  0  0  0
  5  7  2  0  0  0
  5  8  1  0  0  0
  5  9  1  0  0  0
  9 10  1  0  0  0
 10 11  1  0  0  0
 11 12  1  0  0  0
 11 13  1  0  0  0
 12 17  1  0  0  0
 13 14  1  0  0  0
 13 15  1  0  0  0
 15 16  1  0  0  0
 15 17  1  0  0  0
 17 18  1  0  0  0
 18 19  4  0  0  0
 18 27  4  0  0  0
 19 20  4  0  0  0
 20 21  4  0  0  0
 21 22  4  0  0  0
 21 27  4  0  0  0
 22 23  1  0  0  0
 22 24  4  0  0  0
 24 25  4  0  0  0
 25 26  4  0  0  0
 26 27  4  0  0  0
  3 28  1  0  0  0
  4 29  1  0  0  0
  6 30  1  0  0  0
 10 31  1  0  0  0
 10 32  1  0  0  0
 11 33  1  0  0  0
 13 34  1  0  0  0
 14 35  1  0  0  0
 15 36  1  0  0  0
 16 37  1  0  0  0
 17 38  1  0  0  0
 19 39  1  0  0  0
 23 40  1  0  0  0
 23 41  1  0  0  0
 25 42  1  0  0  0
M  END
$$$$
