6mlo_ligand
  -I-interpret- 

 27 26  0  0  0  0  0  0  0  0999 V2000
    0.0660   -1.0570  -12.3440 N   0  3  0  0  0
    0.1690   -1.8510  -11.1200 C   0  0  0  0  0
   -0.3190   -1.0420   -9.9260 C   0  0  0  0  0
   -0.6060    0.1520  -10.0750 O   0  0  0  0  0
    1.6070   -2.3140  -10.8880 C   0  0  0  0  0
    2.6190   -1.1930  -11.0210 C   0  0  0  0  0
    4.0330   -1.6170  -10.6390 C   0  0  0  0  0
    4.9800   -0.5160  -10.8220 N   0  0  0  0  0
    6.2810   -0.5670  -10.5380 C   0  0  0  0  0
    6.8280   -1.6790  -10.0680 N   0  0  0  0  0
    7.0410    0.5010  -10.7320 N   0  0  0  0  0
   -0.4070   -1.5600   -8.8020 O   0  0  0  0  0
   -0.9012   -0.7611  -12.4755 H   0  0  0  0  0
    0.6665   -0.2361  -12.2669 H   0  0  0  0  0
    0.3612   -1.6221  -13.1402 H   0  0  0  0  0
   -0.4604   -2.7337  -11.2334 H   0  0  0  0  0
    1.8406   -3.0636  -11.6441 H   0  0  0  0  0
    1.6714   -2.7005   -9.8709 H   0  0  0  0  0
    2.3185   -0.3929  -10.3445 H   0  0  0  0  0
    2.6363   -0.8841  -12.0662 H   0  0  0  0  0
    4.3338   -2.4462  -11.2793 H   0  0  0  0  0
    4.0378   -1.9107   -9.5893 H   0  0  0  0  0
    4.6152    0.3598  -11.1966 H   0  0  0  0  0
    7.8259   -1.7076   -9.8589 H   0  0  0  0  0
    6.2510   -2.5062   -9.9154 H   0  0  0  0  0
    6.6300    1.3598  -11.0980 H   0  0  0  0  0
   -0.1511   -2.4837   -8.8557 H   0  0  0  0  0
  1  2  1  0  0  0
  2  3  1  0  0  0
  2  5  1  0  0  0
  3  4  2  0  0  0
  3 12  1  0  0  0
  5  6  1  0  0  0
  6  7  1  0  0  0
  7  8  1  0  0  0
  8  9  1  0  0  0
  9 10  1  0  0  0
  9 11  2  0  0  0
  1 13  1  0  0  0
  1 14  1  0  0  0
  1 15  1  0  0  0
  2 16  1  0  0  0
  5 17  1  0  0  0
  5 18  1  0  0  0
  6 19  1  0  0  0
  6 20  1  0  0  0
  7 21  1  0  0  0
  7 22  1  0  0  0
  8 23  1  0  0  0
 10 24  1  0  0  0
 10 25  1  0  0  0
 11 26  1  0  0  0
 12 27  1  0  0  0
M  END
$$$$
