3ibc_ligand
  -I-interpret- 

 69 69  0  0  0  0  0  0  0  0999 V2000
   58.3130  -29.6500   -1.3870 C   0  0  0  0  0
   59.2820  -29.1560   -0.8530 O   0  0  0  0  0
   58.5140  -30.7860   -2.3560 C   0  0  0  0  0
   57.0460  -29.5540   -0.8340 N   0  0  0  0  0
   56.4850  -28.2810   -0.3460 C   0  0  0  0  0
   56.5200  -27.0970   -1.3130 C   0  0  0  0  0
   57.5780  -26.5600   -1.6330 O   0  0  0  0  0
   57.2550  -28.0170    0.9510 C   0  0  0  0  0
   56.9040  -28.9940    2.0510 C   0  0  0  0  0
   57.8730  -29.4500    2.9430 C   0  0  0  0  0
   55.5920  -29.4520    2.2110 C   0  0  0  0  0
   57.5480  -30.3390    3.9720 C   0  0  0  0  0
   55.2540  -30.3370    3.2340 C   0  0  0  0  0
   56.2350  -30.7770    4.1130 C   0  0  0  0  0
   55.8990  -31.6340    5.1410 O   0  0  0  0  0
   55.3350  -26.7030   -1.7660 N   0  0  0  0  0
   55.1660  -25.5960   -2.6970 C   0  0  0  0  0
   54.0210  -24.7380   -2.1580 C   0  0  0  0  0
   53.4160  -25.0850   -1.1490 O   0  0  0  0  0
   54.7920  -26.1240   -4.1040 C   0  0  0  0  0
   54.8320  -24.9980   -5.1220 C   0  0  0  0  0
   55.7310  -27.2490   -4.4990 C   0  0  0  0  0
   53.7280  -23.6220   -2.8220 N   0  0  0  0  0
   52.6420  -22.7400   -2.3930 C   0  0  0  0  0
   51.5800  -22.6350   -3.4940 C   0  0  0  0  0
   51.8940  -22.7570   -4.6800 O   0  0  0  0  0
   53.1940  -21.3560   -2.0460 C   0  0  0  0  0
   50.3240  -22.4230   -3.0980 N   0  0  0  0  0
   49.2140  -22.3090   -4.0540 C   0  0  0  0  0
   48.5600  -20.9310   -4.0420 C   0  0  0  0  0
   48.6870  -20.2960   -5.3290 O   0  0  0  0  0
   48.1180  -23.3380   -3.7480 C   0  0  0  0  0
   48.3740  -24.6780   -4.3980 C   0  0  0  0  0
   47.9020  -25.6950   -3.8470 O   0  0  0  0  0
   49.0440  -24.7140   -5.4540 O   0  0  0  0  0
   59.1414  -30.4507   -3.1819 H   0  0  0  0  0
   58.9988  -31.6172   -1.8439 H   0  0  0  0  0
   57.5467  -31.1091   -2.7408 H   0  0  0  0  0
   56.4785  -30.3984   -0.7617 H   0  0  0  0  0
   55.4083  -28.3799   -0.2077 H   0  0  0  0  0
   56.9930  -27.0171    1.2968 H   0  0  0  0  0
   58.3181  -28.1249    0.7357 H   0  0  0  0  0
   58.9023  -29.1075    2.8365 H   0  0  0  0  0
   54.8190  -29.1104    1.5226 H   0  0  0  0  0
   58.3188  -30.6869    4.6597 H   0  0  0  0  0
   54.2257  -30.6815    3.3432 H   0  0  0  0  0
   54.9617  -31.8360    5.0943 H   0  0  0  0  0
   54.5035  -27.1997   -1.4464 H   0  0  0  0  0
   56.0904  -25.0252   -2.7851 H   0  0  0  0  0
   53.7750  -26.5154   -4.0786 H   0  0  0  0  0
   54.1215  -24.2234   -4.8332 H   0  0  0  0  0
   55.8367  -24.5767   -5.1566 H   0  0  0  0  0
   54.5664  -25.3885   -6.1044 H   0  0  0  0  0
   56.7555  -26.8770   -4.5142 H   0  0  0  0  0
   55.6483  -28.0603   -3.7758 H   0  0  0  0  0
   55.4612  -27.6148   -5.4897 H   0  0  0  0  0
   54.2728  -23.3761   -3.6485 H   0  0  0  0  0
   52.1759  -23.1607   -1.5020 H   0  0  0  0  0
   53.9207  -21.4480   -1.2388 H   0  0  0  0  0
   53.6770  -20.9282   -2.9245 H   0  0  0  0  0
   52.3762  -20.7092   -1.7283 H   0  0  0  0  0
   50.1280  -22.3374   -2.1007 H   0  0  0  0  0
   49.6569  -22.4862   -5.0341 H   0  0  0  0  0
   49.0551  -20.3124   -3.2934 H   0  0  0  0  0
   47.5015  -21.0453   -3.8083 H   0  0  0  0  0
   48.2700  -19.4318   -5.3007 H   0  0  0  0  0
   47.1779  -22.9508   -4.1409 H   0  0  0  0  0
   48.0948  -23.4897   -2.6689 H   0  0  0  0  0
   49.3045  -23.8225   -5.6969 H   0  0  0  0  0
  1  2  2  0  0  0
  1  3  1  0  0  0
  1  4  1  0  0  0
  4  5  1  0  0  0
  5  6  1  0  0  0
  5  8  1  0  0  0
  6  7  2  0  0  0
  6 16  1  0  0  0
  8  9  1  0  0  0
  9 10  4  0  0  0
  9 11  4  0  0  0
 10 12  4  0  0  0
 11 13  4  0  0  0
 12 14  4  0  0  0
 13 14  4  0  0  0
 14 15  1  0  0  0
 16 17  1  0  0  0
 17 18  1  0  0  0
 17 20  1  0  0  0
 18 19  2  0  0  0
 18 23  1  0  0  0
 20 21  1  0  0  0
 20 22  1  0  0  0
 23 24  1  0  0  0
 24 25  1  0  0  0
 24 27  1  0  0  0
 25 26  2  0  0  0
 25 28  1  0  0  0
 28 29  1  0  0  0
 29 30  1  0  0  0
 29 32  1  0  0  0
 30 31  1  0  0  0
 32 33  1  0  0  0
 33 34  2  0  0  0
 33 35  1  0  0  0
  3 36  1  0  0  0
  3 37  1  0  0  0
  3 38  1  0  0  0
  4 39  1  0  0  0
  5 40  1  0  0  0
  8 41  1  0  0  0
  8 42  1  0  0  0
 10 43  1  0  0  0
 11 44  1  0  0  0
 12 45  1  0  0  0
 13 46  1  0  0  0
 15 47  1  0  0  0
 16 48  1  0  0  0
 17 49  1  0  0  0
 20 50  1  0  0  0
 21 51  1  0  0  0
 21 52  1  0  0  0
 21 53  1  0  0  0
 22 54  1  0  0  0
 22 55  1  0  0  0
 22 56  1  0  0  0
 23 57  1  0  0  0
 24 58  1  0  0  0
 27 59  1  0  0  0
 27 60  1  0  0  0
 27 61  1  0  0  0
 28 62  1  0  0  0
 29 63  1  0  0  0
 30 64  1  0  0  0
 30 65  1  0  0  0
 31 66  1  0  0  0
 32 67  1  0  0  0
 32 68  1  0  0  0
 35 69  1  0  0  0
M  END
$$$$
