### 
### Created by X-TOOL on Mon Aug  2 16:12:28 2021
### 

@<TRIPOS>MOLECULE
5zlf_ligand
   44    47     1     0     0
SMALL
GAST_HUCK


@<TRIPOS>ATOM
      1 CAY        64.8410   -4.4390   24.9730 C.ar      1 B29         0.0114
      2 CAP        66.0110   -5.1550   25.2740 C.ar      1 B29        -0.0644
      3 CAI        66.3380   -5.4320   26.5930 C.ar      1 B29        -0.0726
      4 CAH        65.5020   -5.0020   27.6160 C.ar      1 B29        -0.0701
      5 CAO        64.3460   -4.2940   27.3180 C.ar      1 B29        -0.0280
      6 CAX        64.0160   -4.0120   25.9820 C.ar      1 B29         0.1262
      7 OAT        62.9460   -3.3400   25.4020 O.3       1 B29        -0.2514
      8 CBA        63.1150   -3.3510   24.0230 C.ar      1 B29         0.1352
      9 CAZ        64.2830   -4.0280   23.7590 C.ar      1 B29         0.0129
     10 CAQ        64.7140   -4.1970   22.4370 C.ar      1 B29        -0.0637
     11 CAK        63.9700   -3.6890   21.3860 C.ar      1 B29        -0.0714
     12 CAN        62.7920   -3.0060   21.6510 C.ar      1 B29        -0.0614
     13 CAW        62.3490   -2.8380   22.9540 C.ar      1 B29         0.0156
     14 CAV        61.1710   -2.1180   23.1140 C.ar      1 B29        -0.0273
     15 CAR        60.9540   -1.0430   22.2650 C.ar      1 B29        -0.0551
     16 CAM        60.2290   -2.4270   24.0820 C.ar      1 B29        -0.0632
     17 CAJ        59.0790   -1.6560   24.1870 C.ar      1 B29        -0.0693
     18 CAL        58.8690   -0.5810   23.3330 C.ar      1 B29        -0.0614
     19 CAU        59.8070   -0.2730   22.3580 C.ar      1 B29        -0.0385
     20 CAS        59.6250    0.9080   21.3950 C.3       1 B29         0.0411
     21 CBB        58.2770    0.9720   20.6650 C.3       1 B29         0.2140
     22 PBC        58.3510    2.3500   19.4120 P.3       1 B29         0.1121
     23 OAD        59.2920    1.9680   18.2940 O.co2     1 B29        -0.5593
     24 OAE        58.8420    3.6190   20.0660 O.co2     1 B29        -0.5593
     25 OAA        56.9720    2.5830   18.8400 O.co2     1 B29        -0.5593
     26 PBD        57.8770   -0.5990   19.7440 P.3       1 B29         0.1121
     27 OAF        58.9730   -0.8990   18.7500 O.co2     1 B29        -0.5593
     28 OAG        57.7250   -1.7610   20.6960 O.co2     1 B29        -0.5593
     29 OAB        56.5760   -0.4040   19.0000 O.co2     1 B29        -0.5593
     30 OAC        57.2550    1.2590   21.5800 O.3       1 B29        -0.3579
     31 H1         66.6599   -5.4919   24.4737 H         1 B29         0.0584
     32 H2         67.2428   -5.9821   26.8250 H         1 B29         0.0532
     33 H3         65.7528   -5.2197   28.6479 H         1 B29         0.0578
     34 H4         63.6963   -3.9579   28.1180 H         1 B29         0.0561
     35 H5         65.6366   -4.7293   22.2355 H         1 B29         0.0589
     36 H6         64.3052   -3.8238   20.3640 H         1 B29         0.0536
     37 H7         62.2117   -2.5993   20.8307 H         1 B29         0.0586
     38 H8         61.6970   -0.8008   21.5138 H         1 B29         0.0546
     39 H9         60.3886   -3.2640   24.7520 H         1 B29         0.0553
     40 H10        58.3388   -1.8951   24.9419 H         1 B29         0.0597
     41 H11        57.9708    0.0184   23.4283 H         1 B29         0.0547
     42 H12        60.4180    0.8492   20.6350 H         1 B29         0.0483
     43 H13        59.7399    1.8364   21.9737 H         1 B29         0.0483
     44 H14        57.2054    0.5641   22.2258 H         1 B29         0.2134
@<TRIPOS>BOND
     1    1    2 ar 
     2    1    6 ar 
     3    1    9 1  
     4    2    3 ar 
     5    3    4 ar 
     6    4    5 ar 
     7    5    6 ar 
     8    6    7 1  
     9    7    8 1  
    10    8    9 ar 
    11    8   13 ar 
    12    9   10 ar 
    13   10   11 ar 
    14   11   12 ar 
    15   12   13 ar 
    16   13   14 1  
    17   14   15 ar 
    18   14   16 ar 
    19   15   19 ar 
    20   16   17 ar 
    21   17   18 ar 
    22   18   19 ar 
    23   19   20 1  
    24   20   21 1  
    25   21   22 1  
    26   21   26 1  
    27   21   30 1  
    28   22   23 ar 
    29   22   24 ar 
    30   22   25 ar 
    31   26   27 ar 
    32   26   28 ar 
    33   26   29 ar 
    34    2   31 1  
    35    3   32 1  
    36    4   33 1  
    37    5   34 1  
    38   10   35 1  
    39   11   36 1  
    40   12   37 1  
    41   15   38 1  
    42   16   39 1  
    43   17   40 1  
    44   18   41 1  
    45   20   42 1  
    46   20   43 1  
    47   30   44 1  
@<TRIPOS>SUBSTRUCTURE
     1 B29         1

