1hqf_ligand
  -I-interpret- 

 28 27  0  0  0  0  0  0  0  0999 V2000
   -4.2480   48.0810    7.9230 N   0  3  0  0  0
   -5.1970   48.0230    9.1120 C   0  0  0  0  0
   -4.6180   48.8270   10.4040 C   0  0  0  0  0
   -5.3280   48.8050   11.5130 O   0  0  0  0  0
   -5.4730   46.5470    9.5030 C   0  0  0  0  0
   -4.3290   45.9790   10.2730 C   0  0  0  0  0
   -3.9270   44.6480    9.7560 C   0  0  0  0  0
   -2.7760   44.1750   10.5100 N   0  0  0  0  0
   -2.1420   43.0370   10.2990 C   0  0  0  0  0
   -2.5270   42.1930    9.3310 N   0  0  0  0  0
   -1.0920   42.7350   11.0480 N   0  0  0  0  0
   -1.8020   41.0730    9.1570 O   0  0  0  0  0
   -3.4570   49.4330   10.2930 O   0  0  0  0  0
   -4.0742   49.0551    7.6754 H   0  0  0  0  0
   -3.3674   47.6294    8.1700 H   0  0  0  0  0
   -4.6688   47.5972    7.1297 H   0  0  0  0  0
   -6.1239   48.5082    8.8060 H   0  0  0  0  0
   -6.1357   48.3079   11.3647 H   0  0  0  0  0
   -5.6085   45.9623    8.5931 H   0  0  0  0  0
   -6.3675   46.5100   10.1248 H   0  0  0  0  0
   -4.6372   45.8651   11.3123 H   0  0  0  0  0
   -3.4801   46.6558   10.1764 H   0  0  0  0  0
   -3.6678   44.7267    8.7002 H   0  0  0  0  0
   -4.7531   43.9456    9.8671 H   0  0  0  0  0
   -2.4313   44.7712   11.2624 H   0  0  0  0  0
   -3.3397   42.3927    8.7479 H   0  0  0  0  0
   -0.7832   43.3786   11.7766 H   0  0  0  0  0
   -2.1781   40.5580    8.4394 H   0  0  0  0  0
  1  2  1  0  0  0
  2  3  1  0  0  0
  2  5  1  0  0  0
  3  4  1  0  0  0
  3 13  2  0  0  0
  5  6  1  0  0  0
  6  7  1  0  0  0
  7  8  1  0  0  0
  8  9  1  0  0  0
  9 10  1  0  0  0
  9 11  2  0  0  0
 10 12  1  0  0  0
  1 14  1  0  0  0
  1 15  1  0  0  0
  1 16  1  0  0  0
  2 17  1  0  0  0
  4 18  1  0  0  0
  5 19  1  0  0  0
  5 20  1  0  0  0
  6 21  1  0  0  0
  6 22  1  0  0  0
  7 23  1  0  0  0
  7 24  1  0  0  0
  8 25  1  0  0  0
 10 26  1  0  0  0
 11 27  1  0  0  0
 12 28  1  0  0  0
M  END
$$$$
