1m7d_ligand
  -I-interpret- 

 72 74  0  0  0  0  0  0  0  0999 V2000
   -9.9230   24.7930   33.5390 C   0  0  0  0  0
  -10.8210   25.9400   33.0460 C   0  0  0  0  0
  -11.9540   26.1010   33.8900 O   0  0  0  0  0
  -11.2650   25.6570   31.6060 C   0  0  0  0  0
  -12.1460   26.6790   31.1770 O   0  0  0  0  0
  -11.9580   24.2910   31.5120 C   0  0  0  0  0
  -12.3000   24.0050   30.1620 O   0  0  0  0  0
  -11.0370   23.1970   32.0610 C   0  0  0  0  0
  -10.6270   23.5280   33.4100 O   0  0  0  0  0
  -11.7620   21.8530   32.0480 C   0  0  0  0  0
   -6.3260   21.8850   32.4770 C   0  0  0  0  0
   -7.4990   22.8000   32.1440 C   0  0  0  0  0
   -7.6750   23.8680   33.2260 C   0  0  0  0  0
   -8.6780   24.8160   32.7980 O   0  0  0  0  0
   -6.3390   24.5970   33.4570 C   0  0  0  0  0
   -6.4660   25.5610   34.4830 O   0  0  0  0  0
   -5.2490   23.6000   33.8060 C   0  0  0  0  0
   -5.1290   22.6540   32.7300 O   0  0  0  0  0
   -3.9190   24.3040   34.0400 C   0  0  0  0  0
   -5.9780   17.3600   33.6890 C   0  0  0  0  0
   -6.7820   18.6400   33.4380 C   0  0  0  0  0
   -5.8830   19.8580   33.6740 C   0  0  0  0  0
   -5.1630   19.7990   35.0330 C   0  0  0  0  0
   -4.4700   18.4510   35.1980 C   0  0  0  0  0
   -3.7940   18.3190   36.5520 C   0  0  0  0  0
   -8.4920   19.1230   31.7650 C   0  0  0  0  0
   -8.8540   19.0840   30.2900 C   0  0  0  0  0
   -6.0730   14.9770   33.6260 C   0  0  0  0  0
   -7.2760   18.6610   32.0690 N   0  0  0  0  0
   -6.7820   16.2040   33.4690 O   0  0  0  0  0
   -6.6710   21.0510   33.5870 O   0  0  0  0  0
   -4.1950   20.8300   35.0950 O   0  0  0  0  0
   -5.4180   17.3910   35.0140 O   0  0  0  0  0
   -4.7510   18.4010   37.5930 O   0  0  0  0  0
   -9.2830   19.5510   32.6020 O   0  0  0  0  0
   -9.6832   24.9176   34.5950 H   0  0  0  0  0
  -10.2503   26.8682   33.0745 H   0  0  0  0  0
  -11.6609   26.2773   34.7870 H   0  0  0  0  0
  -10.3861   25.6388   30.9616 H   0  0  0  0  0
  -11.7034   27.5286   31.2396 H   0  0  0  0  0
  -12.8706   24.3193   32.1074 H   0  0  0  0  0
  -12.8768   24.6950   29.8261 H   0  0  0  0  0
  -10.1509   23.1270   31.4301 H   0  0  0  0  0
  -11.0929   21.0771   32.4198 H   0  0  0  0  0
  -12.6435   21.9110   32.6865 H   0  0  0  0  0
  -12.0653   21.6151   31.0284 H   0  0  0  0  0
   -6.1132   21.2436   31.6218 H   0  0  0  0  0
   -8.4083   22.2015   32.0880 H   0  0  0  0  0
   -7.3031   23.2921   31.1913 H   0  0  0  0  0
   -7.9901   23.3968   34.1570 H   0  0  0  0  0
   -6.0649   25.1101   32.5352 H   0  0  0  0  0
   -5.6236   26.0033   34.6110 H   0  0  0  0  0
   -5.5160   23.0842   34.7284 H   0  0  0  0  0
   -3.6280   24.8382   33.1355 H   0  0  0  0  0
   -4.0234   25.0108   34.8632 H   0  0  0  0  0
   -3.1570   23.5652   34.2882 H   0  0  0  0  0
   -5.1532   17.3060   32.9785 H   0  0  0  0  0
   -7.6302   18.6685   34.1220 H   0  0  0  0  0
   -5.1118   19.8585   32.9037 H   0  0  0  0  0
   -5.8947   19.9272   35.8307 H   0  0  0  0  0
   -3.6916   18.3837   34.4380 H   0  0  0  0  0
   -3.0729   19.1280   36.6687 H   0  0  0  0  0
   -3.2936   17.3522   36.6057 H   0  0  0  0  0
   -9.7345   18.4569   30.1497 H   0  0  0  0  0
   -9.0673   20.0949   29.9427 H   0  0  0  0  0
   -8.0191   18.6722   29.7231 H   0  0  0  0  0
   -5.2489   14.9413   32.9135 H   0  0  0  0  0
   -5.6806   14.9129   34.6409 H   0  0  0  0  0
   -6.7494   14.1420   33.4432 H   0  0  0  0  0
   -6.6767   18.3131   31.3205 H   0  0  0  0  0
   -3.7450   20.7944   35.9423 H   0  0  0  0  0
   -4.3083   18.3159   38.4406 H   0  0  0  0  0
  1  2  1  0  0  0
  1  9  1  0  0  0
  2  3  1  0  0  0
  2  4  1  0  0  0
  4  5  1  0  0  0
  4  6  1  0  0  0
  6  7  1  0  0  0
  8  6  1  0  0  0
  9  8  1  0  0  0
  8 10  1  0  0  0
 11 12  1  0  0  0
 11 18  1  0  0  0
 12 13  1  0  0  0
 13 14  1  0  0  0
 13 15  1  0  0  0
 14  1  1  0  0  0
 15 16  1  0  0  0
 17 15  1  0  0  0
 18 17  1  0  0  0
 17 19  1  0  0  0
 21 20  1  0  0  0
 20 30  1  0  0  0
 20 33  1  0  0  0
 22 21  1  0  0  0
 21 29  1  0  0  0
 22 23  1  0  0  0
 31 22  1  0  0  0
 23 24  1  0  0  0
 23 32  1  0  0  0
 24 25  1  0  0  0
 24 33  1  0  0  0
 25 34  1  0  0  0
 26 27  1  0  0  0
 29 26  1  0  0  0
 26 35  2  0  0  0
 31 11  1  0  0  0
 30 28  1  0  0  0
  1 36  1  0  0  0
  2 37  1  0  0  0
  3 38  1  0  0  0
  4 39  1  0  0  0
  5 40  1  0  0  0
  6 41  1  0  0  0
  7 42  1  0  0  0
  8 43  1  0  0  0
 10 44  1  0  0  0
 10 45  1  0  0  0
 10 46  1  0  0  0
 11 47  1  0  0  0
 12 48  1  0  0  0
 12 49  1  0  0  0
 13 50  1  0  0  0
 15 51  1  0  0  0
 16 52  1  0  0  0
 17 53  1  0  0  0
 19 54  1  0  0  0
 19 55  1  0  0  0
 19 56  1  0  0  0
 20 57  1  0  0  0
 21 58  1  0  0  0
 22 59  1  0  0  0
 23 60  1  0  0  0
 24 61  1  0  0  0
 25 62  1  0  0  0
 25 63  1  0  0  0
 27 64  1  0  0  0
 27 65  1  0  0  0
 27 66  1  0  0  0
 28 67  1  0  0  0
 28 68  1  0  0  0
 28 69  1  0  0  0
 29 70  1  0  0  0
 32 71  1  0  0  0
 34 72  1  0  0  0
M  END
$$$$
