3sap_ligand
  -I-interpret- 

 43 44  0  0  0  0  0  0  0  0999 V2000
   -0.5030    8.7320   14.8530 N   0  0  0  0  0
    0.1480    9.7390   15.3690 C   0  0  0  0  0
    0.1890   11.0140   14.8470 C   0  0  0  0  0
   -0.5150   11.2910   13.6640 C   0  0  0  0  0
   -1.1690   10.2110   13.1710 N   0  0  0  0  0
   -1.1330    8.9760   13.7890 C   0  0  0  0  0
    1.0150   11.9230   15.6620 C   0  0  0  0  0
    2.4780   11.5550   15.2910 C   0  0  0  0  0
    3.4690   11.8180   16.4250 C   0  0  0  0  0
    3.8980   10.5430   17.1850 C   0  0  0  0  0
   -1.9390    7.5770   13.1770 S   0  0  0  0  0
   -2.0780    5.8720   13.7480 C   0  0  0  0  0
   -3.5400    5.4540   13.5820 C   0  0  0  0  0
   -4.2870    6.0380   12.7900 O   0  0  0  0  0
   -4.1460    4.3250   14.3680 C   0  0  0  0  0
   -5.5220    4.2950   14.6170 C   0  0  0  0  0
   -6.0260    3.2000   15.3590 C   0  0  0  0  0
   -5.1990    2.2010   15.8480 C   0  0  0  0  0
   -3.8460    2.2420   15.5920 C   0  0  0  0  0
   -3.3150    3.3020   14.8470 C   0  0  0  0  0
   -5.8530    0.8040   16.7700 S   0  0  0  0  0
   -5.3050    0.9610   18.1290 O   0  0  0  0  0
   -7.3140    0.9010   16.6260 O   0  0  0  0  0
   -5.1390   -0.5220   15.9850 N   0  0  0  0  0
    0.7049    9.5566   16.2881 H   0  0  0  0  0
   -0.5336   12.2729   13.1911 H   0  0  0  0  0
    0.8217   11.8058   16.7283 H   0  0  0  0  0
    0.7927   12.9705   15.4587 H   0  0  0  0  0
    2.7711   12.1760   14.4445 H   0  0  0  0  0
    2.5048   10.4883   15.0686 H   0  0  0  0  0
    2.9760   12.4741   17.1424 H   0  0  0  0  0
    4.3659   12.2489   15.9800 H   0  0  0  0  0
    3.0195   10.0707   17.6246 H   0  0  0  0  0
    4.3751    9.8511   16.4909 H   0  0  0  0  0
    4.6010   10.8109   17.9737 H   0  0  0  0  0
   -1.7730    5.7917   14.7914 H   0  0  0  0  0
   -1.4252    5.2197   13.1680 H   0  0  0  0  0
   -6.1805    5.0840   14.2538 H   0  0  0  0  0
   -7.0972    3.1406   15.5517 H   0  0  0  0  0
   -3.1928    1.4541   15.9671 H   0  0  0  0  0
   -2.2458    3.3323   14.6374 H   0  0  0  0  0
   -4.4333   -1.0799   16.4658 H   0  0  0  0  0
   -5.4158   -0.7605   15.0327 H   0  0  0  0  0
  1  2  4  0  0  0
  1  6  4  0  0  0
  2  3  4  0  0  0
  3  4  4  0  0  0
  3  7  1  0  0  0
  4  5  4  0  0  0
  5  6  4  0  0  0
  6 11  1  0  0  0
  7  8  1  0  0  0
  8  9  1  0  0  0
  9 10  1  0  0  0
 11 12  1  0  0  0
 12 13  1  0  0  0
 13 14  2  0  0  0
 13 15  1  0  0  0
 15 16  4  0  0  0
 15 20  4  0  0  0
 16 17  4  0  0  0
 17 18  4  0  0  0
 18 19  4  0  0  0
 18 21  1  0  0  0
 19 20  4  0  0  0
 21 22  2  0  0  0
 21 23  2  0  0  0
 21 24  1  0  0  0
  2 25  1  0  0  0
  4 26  1  0  0  0
  7 27  1  0  0  0
  7 28  1  0  0  0
  8 29  1  0  0  0
  8 30  1  0  0  0
  9 31  1  0  0  0
  9 32  1  0  0  0
 10 33  1  0  0  0
 10 34  1  0  0  0
 10 35  1  0  0  0
 12 36  1  0  0  0
 12 37  1  0  0  0
 16 38  1  0  0  0
 17 39  1  0  0  0
 19 40  1  0  0  0
 20 41  1  0  0  0
 24 42  1  0  0  0
 24 43  1  0  0  0
M  END
$$$$
