3atp_ligand
  -I-interpret- 

 15 14  0  0  0  0  0  0  0  0999 V2000
   46.8240   12.0330    5.8670 N   0  3  0  0  0
   45.4000   12.3990    6.0920 C   0  0  0  0  0
   45.3420   13.6560    6.9690 C   0  0  0  0  0
   44.2940   14.3370    6.9890 O   0  0  0  0  0
   44.6790   11.2380    6.7830 C   0  0  0  0  0
   43.2730   11.3880    6.7200 O   0  0  0  0  0
   46.3640   13.9470    7.6260 O   0  0  0  0  0
   47.3040   12.8064    5.4068 H   0  0  0  0  0
   47.2700   11.8399    6.7638 H   0  0  0  0  0
   46.8712   11.2025    5.2767 H   0  0  0  0  0
   44.9097   12.6007    5.1396 H   0  0  0  0  0
   43.6400   13.9327    6.4141 H   0  0  0  0  0
   44.9774   11.2217    7.8312 H   0  0  0  0  0
   44.9502   10.3125    6.2751 H   0  0  0  0  0
   42.8531   10.6459    7.1610 H   0  0  0  0  0
  1  2  1  0  0  0
  2  3  1  0  0  0
  2  5  1  0  0  0
  3  4  1  0  0  0
  3  7  2  0  0  0
  5  6  1  0  0  0
  1  8  1  0  0  0
  1  9  1  0  0  0
  1 10  1  0  0  0
  2 11  1  0  0  0
  4 12  1  0  0  0
  5 13  1  0  0  0
  5 14  1  0  0  0
  6 15  1  0  0  0
M  END
$$$$
