1riw_ligand
  -I-interpret- 

 87 91  0  0  0  0  0  0  0  0999 V2000
   18.4050  -13.5480   21.8650 N   0  0  0  0  0
   19.4900  -14.3840   21.2580 C   0  0  0  0  0
   18.3810  -12.2470   21.1490 C   0  0  0  0  0
   17.5840  -13.9150   22.9060 C   0  0  0  0  0
   20.4930  -13.3190   20.7590 C   0  0  0  0  0
   18.9240  -15.3080   20.1270 C   0  0  0  0  0
   19.5200  -12.3060   20.1090 C   0  0  0  0  0
   17.0690  -12.0270   20.4460 C   0  0  0  0  0
   17.7360  -15.2770   23.5560 C   0  0  0  0  0
   16.7260  -13.1460   23.3220 O   0  0  0  0  0
   21.4710  -13.8360   19.6810 C   0  0  0  0  0
   20.0350  -15.9170   19.2430 C   0  0  0  0  0
   16.5950  -10.7680   20.2880 N   0  0  0  0  0
   16.4520  -12.9840   20.0210 O   0  0  0  0  0
   18.1880  -15.1470   25.0260 C   0  0  0  0  0
   16.4580  -15.9760   23.4660 N   0  0  0  0  0
   20.8400  -14.7580   18.5940 C   0  0  0  0  0
   20.9030  -16.7430   20.0270 O   0  0  0  0  0
   15.3240  -10.5270   19.5950 C   0  0  0  0  0
   19.6350  -14.6800   25.0880 C   0  0  0  0  0
   16.3590  -17.1460   22.7830 C   0  0  0  0  0
   14.4230   -9.6100   20.4410 C   0  0  0  0  0
   19.9470  -13.4180   25.6400 C   0  0  0  0  0
   20.6780  -15.5050   24.5880 C   0  0  0  0  0
   15.0270  -17.8340   22.6890 C   0  0  0  0  0
   17.3370  -17.6390   22.2380 O   0  0  0  0  0
   13.6670  -10.3860   21.5090 C   0  0  0  0  0
   21.2890  -12.9790   25.6940 C   0  0  0  0  0
   22.0160  -15.0640   24.6430 C   0  0  0  0  0
   14.9200  -18.9580   23.7300 C   0  0  0  0  0
   13.9840  -16.8740   22.8990 O   0  0  0  0  0
   13.1040   -9.7600   22.7550 C   0  0  0  0  0
   13.4000  -11.6670   21.4920 C   0  0  0  0  0
   22.3210  -13.8010   25.1950 C   0  0  0  0  0
   13.7510  -19.8490   23.3690 C   0  0  0  0  0
   12.2350  -10.7910   23.3500 N   0  0  0  0  0
   12.6320  -12.0660   22.7220 C   0  0  0  0  0
   13.9230  -20.9320   22.4740 C   0  0  0  0  0
   12.4830  -19.5950   23.9250 C   0  0  0  0  0
   11.2620  -10.6050   24.3040 C   0  0  0  0  0
   12.8230  -21.7550   22.1410 C   0  0  0  0  0
   11.3850  -20.4150   23.5930 C   0  0  0  0  0
   10.5890  -11.6870   24.8210 N   0  0  0  0  0
   10.9720   -9.4030   24.7190 N   0  0  0  0  0
   11.5540  -21.4920   22.7020 C   0  0  0  0  0
   19.9586  -15.0891   21.9445 H   0  0  0  0  0
   18.5071  -11.4253   21.8540 H   0  0  0  0  0
   21.1386  -12.9491   21.5555 H   0  0  0  0  0
   18.2831  -14.7006   19.4880 H   0  0  0  0  0
   18.3872  -16.1288   20.6027 H   0  0  0  0  0
   19.9749  -11.3357   19.9099 H   0  0  0  0  0
   19.1842  -12.6046   19.1159 H   0  0  0  0  0
   18.5066  -15.8447   23.0345 H   0  0  0  0  0
   22.2196  -14.4341   20.2006 H   0  0  0  0  0
   21.8538  -12.9580   19.1608 H   0  0  0  0  0
   19.5875  -16.5392   18.4680 H   0  0  0  0  0
   17.1272   -9.9789   20.6546 H   0  0  0  0  0
   18.1041  -16.1183   25.5136 H   0  0  0  0  0
   17.5547  -14.4184   25.5322 H   0  0  0  0  0
   15.6331  -15.5831   23.9193 H   0  0  0  0  0
   21.6411  -15.1848   17.9906 H   0  0  0  0  0
   20.1625  -14.1626   17.9819 H   0  0  0  0  0
   20.3945  -17.4548   20.4224 H   0  0  0  0  0
   14.8171  -11.4791   19.4380 H   0  0  0  0  0
   15.5251  -10.0454   18.6381 H   0  0  0  0  0
   13.6947   -9.1414   19.7791 H   0  0  0  0  0
   15.0548   -8.8731   20.9369 H   0  0  0  0  0
   19.1507  -12.7812   26.0253 H   0  0  0  0  0
   20.4435  -16.4802   24.1613 H   0  0  0  0  0
   14.9273  -18.2765   21.6979 H   0  0  0  0  0
   21.5268  -12.0049   26.1214 H   0  0  0  0  0
   22.8150  -15.6983   24.2593 H   0  0  0  0  0
   14.7656  -18.5301   24.7205 H   0  0  0  0  0
   15.8403  -19.5420   23.7383 H   0  0  0  0  0
   13.1314  -17.3112   22.8394 H   0  0  0  0  0
   13.2974   -8.7575   23.1367 H   0  0  0  0  0
   13.6939  -12.3509   20.6957 H   0  0  0  0  0
   23.3556  -13.4605   25.2357 H   0  0  0  0  0
   12.4161  -13.0752   23.0726 H   0  0  0  0  0
   14.9035  -21.1314   22.0416 H   0  0  0  0  0
   12.3494  -18.7615   24.6146 H   0  0  0  0  0
   12.9539  -22.5903   21.4531 H   0  0  0  0  0
   10.4050  -20.2150   24.0263 H   0  0  0  0  0
    9.8657  -11.5481   25.5266 H   0  0  0  0  0
   10.8131  -12.6285   24.4988 H   0  0  0  0  0
   11.4673   -8.5978   24.3359 H   0  0  0  0  0
   10.7039  -22.1239   22.4448 H   0  0  0  0  0
  1  2  1  0  0  0
  1  3  1  0  0  0
  1  4  1  0  0  0
  2  5  1  0  0  0
  2  6  1  0  0  0
  3  7  1  0  0  0
  3  8  1  0  0  0
  4  9  1  0  0  0
  4 10  2  0  0  0
  5  7  1  0  0  0
  5 11  1  0  0  0
  6 12  1  0  0  0
  8 13  1  0  0  0
  8 14  2  0  0  0
  9 15  1  0  0  0
  9 16  1  0  0  0
 11 17  1  0  0  0
 12 17  1  0  0  0
 12 18  1  0  0  0
 13 19  1  0  0  0
 15 20  1  0  0  0
 16 21  1  0  0  0
 19 22  1  0  0  0
 20 23  4  0  0  0
 20 24  4  0  0  0
 21 25  1  0  0  0
 21 26  2  0  0  0
 22 27  1  0  0  0
 23 28  4  0  0  0
 24 29  4  0  0  0
 25 30  1  0  0  0
 25 31  1  0  0  0
 27 32  4  0  0  0
 27 33  4  0  0  0
 28 34  4  0  0  0
 29 34  4  0  0  0
 30 35  1  0  0  0
 32 36  4  0  0  0
 33 37  4  0  0  0
 35 38  4  0  0  0
 35 39  4  0  0  0
 36 37  4  0  0  0
 36 40  1  0  0  0
 38 41  4  0  0  0
 39 42  4  0  0  0
 40 43  1  0  0  0
 40 44  2  0  0  0
 41 45  4  0  0  0
 42 45  4  0  0  0
  2 46  1  0  0  0
  3 47  1  0  0  0
  5 48  1  0  0  0
  6 49  1  0  0  0
  6 50  1  0  0  0
  7 51  1  0  0  0
  7 52  1  0  0  0
  9 53  1  0  0  0
 11 54  1  0  0  0
 11 55  1  0  0  0
 12 56  1  0  0  0
 13 57  1  0  0  0
 15 58  1  0  0  0
 15 59  1  0  0  0
 16 60  1  0  0  0
 17 61  1  0  0  0
 17 62  1  0  0  0
 18 63  1  0  0  0
 19 64  1  0  0  0
 19 65  1  0  0  0
 22 66  1  0  0  0
 22 67  1  0  0  0
 23 68  1  0  0  0
 24 69  1  0  0  0
 25 70  1  0  0  0
 28 71  1  0  0  0
 29 72  1  0  0  0
 30 73  1  0  0  0
 30 74  1  0  0  0
 31 75  1  0  0  0
 32 76  1  0  0  0
 33 77  1  0  0  0
 34 78  1  0  0  0
 37 79  1  0  0  0
 38 80  1  0  0  0
 39 81  1  0  0  0
 41 82  1  0  0  0
 42 83  1  0  0  0
 43 84  1  0  0  0
 43 85  1  0  0  0
 44 86  1  0  0  0
 45 87  1  0  0  0
M  END
$$$$
