5ixq_ligand
  -I-interpret- 

187191  0  0  0  0  0  0  0  0999 V2000
   -5.3920   57.7280   -4.0520 N   0  3  0  0  0
   -4.2760   58.2490   -4.8370 C   0  0  0  0  0
   -2.9920   57.3870   -4.7280 C   0  0  0  0  0
   -3.0730   56.1570   -4.6470 O   0  0  0  0  0
   -4.1030   59.6660   -4.2580 C   0  0  0  0  0
   -5.4920   60.0780   -3.8850 C   0  0  0  0  0
   -6.2660   58.8160   -3.5650 C   0  0  0  0  0
   -1.8300   58.0300   -4.7280 N   0  0  0  0  0
   -0.5230   57.3450   -4.7100 C   0  0  0  0  0
   -0.1340   57.0780   -3.2470 C   0  0  0  0  0
   -0.4470   57.9060   -2.3850 O   0  0  0  0  0
    0.5400   58.2500   -5.3780 C   0  0  0  0  0
    0.0550   58.7200   -6.7600 C   0  0  0  0  0
    1.8730   57.5450   -5.5160 C   0  0  0  0  0
    0.3830   60.1670   -7.0330 C   0  0  0  0  0
    0.5570   55.9410   -2.9520 N   0  0  0  0  0
    1.0520   55.7850   -1.5600 C   0  0  0  0  0
    2.0010   56.9550   -1.1690 C   0  0  0  0  0
    2.7730   57.4000   -2.0090 O   0  0  0  0  0
    1.7910   54.4270   -1.5830 C   0  0  0  0  0
    1.3220   53.7290   -2.8160 C   0  0  0  0  0
    0.9370   54.7950   -3.8040 C   0  0  0  0  0
    1.8940   57.4920    0.0730 N   0  0  0  0  0
    2.8230   58.5760    0.4400 C   0  0  0  0  0
    4.2410   58.0470    0.5990 C   0  0  0  0  0
    4.4460   56.8260    0.6880 O   0  0  0  0  0
    2.2860   59.0660    1.7880 C   0  0  0  0  0
    1.5460   57.9030    2.3430 C   0  0  0  0  0
    0.9210   57.2230    1.1490 C   0  0  0  0  0
    5.2080   58.9600    0.5980 N   0  0  0  0  0
    6.5520   58.6410    0.9970 C   0  0  0  0  0
    6.5700   58.5750    2.5300 C   0  0  0  0  0
    6.6610   59.5980    3.2200 O   0  0  0  0  0
    7.5520   59.6800    0.4850 C   0  0  0  0  0
    8.8500   59.3090    0.9380 O   0  0  0  0  0
    6.4530   57.3700    3.0760 N   0  0  0  0  0
    6.3200   57.2110    4.5390 C   0  0  0  0  0
    6.6050   55.7580    4.9280 C   0  0  0  0  0
    6.6620   54.8810    4.0370 O   0  0  0  0  0
    4.9090   57.6180    5.0010 C   0  0  0  0  0
    6.8290   55.5300    6.2180 N   0  0  0  0  0
    6.8110   54.1560    6.7830 C   0  0  0  0  0
    5.8240   53.1000    6.3540 C   0  0  0  0  0
    4.6460   53.4330    6.1920 O   0  0  0  0  0
    7.1700   54.2060    8.2830 C   0  0  0  0  0
    7.6730   55.6350    8.4310 C   0  0  0  0  0
    6.9630   56.4600    7.3540 C   0  0  0  0  0
    9.0790   55.6080    8.1380 O   0  0  0  0  0
    6.2570   51.8260    6.2220 N   0  0  0  0  0
    5.2840   50.7410    5.9800 C   0  0  0  0  0
    4.3010   50.6920    7.1450 C   0  0  0  0  0
    4.7000   50.7650    8.3140 O   0  0  0  0  0
    5.9340   49.3790    5.8220 C   0  0  0  0  0
    4.8900   48.4140    5.6290 O   0  0  0  0  0
    3.0170   50.5600    6.8260 N   0  0  0  0  0
    1.9780   50.4340    7.8640 C   0  0  0  0  0
    1.7290   48.9740    8.2950 C   0  0  0  0  0
    0.9020   48.7190    9.1460 O   0  0  0  0  0
    0.6710   51.0470    7.3500 C   0  0  0  0  0
    0.7550   52.5320    7.0020 C   0  0  0  0  0
   -0.6420   53.1110    6.7570 C   0  0  0  0  0
   -1.3790   52.3700    5.6380 C   0  0  0  0  0
   -2.5660   53.1070    5.1210 N   0  3  0  0  0
    2.4210   48.0160    7.6920 N   0  0  0  0  0
    2.1760   46.6160    8.0260 C   0  0  0  0  0
    2.4880   46.2800    9.4940 C   0  0  0  0  0
    3.3730   46.8640   10.1480 O   0  0  0  0  0
    2.8680   45.7020    6.9940 C   0  0  0  0  0
    2.1720   45.9020    5.6040 C   0  0  0  0  0
    2.7240   45.0700    4.4580 C   0  0  0  0  0
    2.2000   43.6900    4.4450 N   0  0  0  0  0
    2.7980   42.6280    3.8690 C   0  0  0  0  0
    3.9720   42.7380    3.2430 N   0  0  0  0  0
    2.2240   41.4200    3.9180 N   0  0  0  0  0
    1.6780   45.3820   10.0360 N   0  0  0  0  0
    1.7360   45.0290   11.4430 C   0  0  0  0  0
    0.8840   43.7770   11.6720 C   0  0  0  0  0
   -0.0010   43.4570   10.8750 O   0  0  0  0  0
    1.2430   46.2110   12.3650 C   0  0  0  0  0
   -0.2130   46.5170   12.2220 C   0  0  0  0  0
   -1.1900   45.8200   12.9080 N   0  0  0  0  0
   -0.8750   47.3990   11.4230 C   0  0  0  0  0
   -2.3860   46.2540   12.5430 C   0  0  0  0  0
   -2.2240   47.2120   11.6450 N   0  0  0  0  0
    1.1440   43.1300   12.8110 N   0  0  0  0  0
    0.3720   41.9830   13.2720 C   0  0  0  0  0
   -0.7250   42.4270   14.2530 C   0  0  0  0  0
   -1.4910   41.5640   14.6900 O   0  0  0  0  0
    1.3080   40.9630   13.9410 C   0  0  0  0  0
    2.4390   40.5840   13.0470 C   0  0  0  0  0
    3.5150   41.1950   13.0960 O   0  0  0  0  0
    2.1730   39.6590   12.1420 N   0  0  0  0  0
   -0.8670   43.6130   14.6210 O   0  0  0  0  0
   -5.0152   57.2305   -3.2452 H   0  0  0  0  0
   -5.9451   57.1108   -4.6466 H   0  0  0  0  0
   -4.4684   58.2412   -5.9099 H   0  0  0  0  0
   -3.6472   60.3511   -4.9729 H   0  0  0  0  0
   -3.4243   59.6833   -3.4052 H   0  0  0  0  0
   -5.9641   60.6190   -4.7051 H   0  0  0  0  0
   -5.4749   60.7454   -3.0234 H   0  0  0  0  0
   -6.4862   58.7246   -2.5014 H   0  0  0  0  0
   -7.2473   58.8015   -4.0392 H   0  0  0  0  0
   -1.8415   59.0499   -4.7411 H   0  0  0  0  0
   -0.5813   56.4036   -5.2563 H   0  0  0  0  0
    0.6815   59.1150   -4.7300 H   0  0  0  0  0
   -1.0293   58.6123   -6.7879 H   0  0  0  0  0
    0.5586   58.1153   -7.5142 H   0  0  0  0  0
    2.2364   57.2612   -4.5283 H   0  0  0  0  0
    1.7487   56.6524   -6.1292 H   0  0  0  0  0
    2.5900   58.2157   -5.9895 H   0  0  0  0  0
   -0.0943   60.7947   -6.2805 H   0  0  0  0  0
    1.4632   60.3072   -6.9929 H   0  0  0  0  0
    0.0163   60.4410   -8.0222 H   0  0  0  0  0
    0.2535   55.8078   -0.8184 H   0  0  0  0  0
    1.5732   53.8421   -0.6894 H   0  0  0  0  0
    2.8723   54.5643   -1.5923 H   0  0  0  0  0
    0.4724   53.0831   -2.5944 H   0  0  0  0  0
    2.1082   53.0923   -3.2218 H   0  0  0  0  0
    1.7478   55.0381   -4.4907 H   0  0  0  0  0
    0.1274   54.4794   -4.4620 H   0  0  0  0  0
    2.8734   59.3599   -0.3157 H   0  0  0  0  0
    1.6455   59.9410    1.6774 H   0  0  0  0  0
    3.0871   59.3928    2.4509 H   0  0  0  0  0
    0.7933   58.2145    3.0672 H   0  0  0  0  0
    2.2072   57.2294    2.8881 H   0  0  0  0  0
    0.7489   56.1586    1.3090 H   0  0  0  0  0
   -0.0771   57.5976    0.9218 H   0  0  0  0  0
    4.9902   59.9128    0.3061 H   0  0  0  0  0
    6.8521   57.6858    0.5662 H   0  0  0  0  0
    7.2916   60.6687    0.8628 H   0  0  0  0  0
    7.5311   59.7153   -0.6042 H   0  0  0  0  0
    9.4922   59.9507    0.6258 H   0  0  0  0  0
    6.4550   56.5438    2.4778 H   0  0  0  0  0
    7.0426   57.8622    5.0309 H   0  0  0  0  0
    4.7295   58.6610    4.7403 H   0  0  0  0  0
    4.1702   56.9865    4.5075 H   0  0  0  0  0
    4.8318   57.4936    6.0811 H   0  0  0  0  0
    7.5907   53.6675    6.1986 H   0  0  0  0  0
    7.9012   53.4544    8.5806 H   0  0  0  0  0
    6.3322   53.9696    8.9389 H   0  0  0  0  0
    7.4907   56.0485    9.4229 H   0  0  0  0  0
    5.9984   56.8373    7.6934 H   0  0  0  0  0
    7.5213   57.3575    7.0879 H   0  0  0  0  0
    9.4389   56.4942    8.2200 H   0  0  0  0  0
    7.2526   51.6146    6.2893 H   0  0  0  0  0
    4.7791   50.9639    5.0401 H   0  0  0  0  0
    6.5171   49.1330    6.7094 H   0  0  0  0  0
    6.6110   49.3798    4.9677 H   0  0  0  0  0
    5.2772   47.5416    5.5262 H   0  0  0  0  0
    2.7454   50.5456    5.8429 H   0  0  0  0  0
    2.3363   50.9678    8.7442 H   0  0  0  0  0
   -0.0613   50.9502    8.1516 H   0  0  0  0  0
    0.4136   50.5202    6.4311 H   0  0  0  0  0
    1.3485   52.6482    6.0951 H   0  0  0  0  0
    1.2155   53.0634    7.8349 H   0  0  0  0  0
   -0.5325   54.1545    6.4615 H   0  0  0  0  0
   -1.2208   53.0070    7.6747 H   0  0  0  0  0
   -1.7330   51.4242    6.0483 H   0  0  0  0  0
   -0.6812   52.2490    4.8094 H   0  0  0  0  0
   -3.0084   52.5608    4.3818 H   0  0  0  0  0
   -3.2306   53.2544    5.8806 H   0  0  0  0  0
   -2.2689   54.0086    4.7478 H   0  0  0  0  0
    3.1248   48.2578    6.9944 H   0  0  0  0  0
    1.1058   46.4228    7.9519 H   0  0  0  0  0
    2.7842   44.6607    7.3049 H   0  0  0  0  0
    3.9249   45.9584    6.9205 H   0  0  0  0  0
    2.3298   46.9450    5.3294 H   0  0  0  0  0
    1.1343   45.5948    5.7338 H   0  0  0  0  0
    3.8059   45.0140    4.5784 H   0  0  0  0  0
    2.4249   45.5483    3.5253 H   0  0  0  0  0
    1.3083   43.5258    4.9123 H   0  0  0  0  0
    4.4398   43.6430    3.1916 H   0  0  0  0  0
    2.6836   40.6190    3.4849 H   0  0  0  0  0
    1.3269   41.3003    4.3884 H   0  0  0  0  0
    0.9880   44.9216    9.4424 H   0  0  0  0  0
    2.7733   44.8295   11.7117 H   0  0  0  0  0
    1.7942   47.1046   12.0722 H   0  0  0  0  0
    1.4130   45.9107   13.3989 H   0  0  0  0  0
   -0.4244   48.1169   10.7377 H   0  0  0  0  0
   -3.3408   45.8853   12.9180 H   0  0  0  0  0
    1.9210   43.4545   13.3866 H   0  0  0  0  0
   -0.1098   41.5152   12.4134 H   0  0  0  0  0
    0.7327   40.0651   14.1666 H   0  0  0  0  0
    1.7199   41.4149   14.8434 H   0  0  0  0  0
    2.8712   39.4181   11.4385 H   0  0  0  0  0
    1.2695   39.1857   12.1468 H   0  0  0  0  0
   -0.2012   44.1601   14.1979 H   0  0  0  0  0
  1  2  1  0  0  0
  1  7  1  0  0  0
  2  3  1  0  0  0
  2  5  1  0  0  0
  3  4  2  0  0  0
  3  8  1  0  0  0
  5  6  1  0  0  0
  6  7  1  0  0  0
  8  9  1  0  0  0
  9 10  1  0  0  0
  9 12  1  0  0  0
 10 11  2  0  0  0
 10 16  1  0  0  0
 12 13  1  0  0  0
 12 14  1  0  0  0
 13 15  1  0  0  0
 16 17  1  0  0  0
 16 22  1  0  0  0
 17 18  1  0  0  0
 17 20  1  0  0  0
 18 19  2  0  0  0
 18 23  1  0  0  0
 20 21  1  0  0  0
 21 22  1  0  0  0
 23 24  1  0  0  0
 23 29  1  0  0  0
 24 25  1  0  0  0
 24 27  1  0  0  0
 25 26  2  0  0  0
 25 30  1  0  0  0
 27 28  1  0  0  0
 28 29  1  0  0  0
 30 31  1  0  0  0
 31 32  1  0  0  0
 31 34  1  0  0  0
 32 33  2  0  0  0
 32 36  1  0  0  0
 34 35  1  0  0  0
 36 37  1  0  0  0
 37 38  1  0  0  0
 37 40  1  0  0  0
 38 39  2  0  0  0
 38 41  1  0  0  0
 41 42  1  0  0  0
 41 47  1  0  0  0
 42 43  1  0  0  0
 42 45  1  0  0  0
 43 44  2  0  0  0
 43 49  1  0  0  0
 45 46  1  0  0  0
 46 47  1  0  0  0
 46 48  1  0  0  0
 49 50  1  0  0  0
 50 51  1  0  0  0
 50 53  1  0  0  0
 51 52  2  0  0  0
 51 55  1  0  0  0
 53 54  1  0  0  0
 55 56  1  0  0  0
 56 57  1  0  0  0
 56 59  1  0  0  0
 57 58  2  0  0  0
 57 64  1  0  0  0
 59 60  1  0  0  0
 60 61  1  0  0  0
 61 62  1  0  0  0
 62 63  1  0  0  0
 64 65  1  0  0  0
 65 66  1  0  0  0
 65 68  1  0  0  0
 66 67  2  0  0  0
 66 75  1  0  0  0
 68 69  1  0  0  0
 69 70  1  0  0  0
 70 71  1  0  0  0
 71 72  1  0  0  0
 72 73  2  0  0  0
 72 74  1  0  0  0
 75 76  1  0  0  0
 76 77  1  0  0  0
 76 79  1  0  0  0
 77 78  2  0  0  0
 77 85  1  0  0  0
 79 80  1  0  0  0
 80 81  4  0  0  0
 80 82  4  0  0  0
 81 83  4  0  0  0
 82 84  4  0  0  0
 83 84  4  0  0  0
 85 86  1  0  0  0
 86 87  1  0  0  0
 86 89  1  0  0  0
 87 88  2  0  0  0
 87 93  1  0  0  0
 89 90  1  0  0  0
 90 91  2  0  0  0
 90 92  1  0  0  0
  1 94  1  0  0  0
  1 95  1  0  0  0
  2 96  1  0  0  0
  5 97  1  0  0  0
  5 98  1  0  0  0
  6 99  1  0  0  0
  6100  1  0  0  0
  7101  1  0  0  0
  7102  1  0  0  0
  8103  1  0  0  0
  9104  1  0  0  0
 12105  1  0  0  0
 13106  1  0  0  0
 13107  1  0  0  0
 14108  1  0  0  0
 14109  1  0  0  0
 14110  1  0  0  0
 15111  1  0  0  0
 15112  1  0  0  0
 15113  1  0  0  0
 17114  1  0  0  0
 20115  1  0  0  0
 20116  1  0  0  0
 21117  1  0  0  0
 21118  1  0  0  0
 22119  1  0  0  0
 22120  1  0  0  0
 24121  1  0  0  0
 27122  1  0  0  0
 27123  1  0  0  0
 28124  1  0  0  0
 28125  1  0  0  0
 29126  1  0  0  0
 29127  1  0  0  0
 30128  1  0  0  0
 31129  1  0  0  0
 34130  1  0  0  0
 34131  1  0  0  0
 35132  1  0  0  0
 36133  1  0  0  0
 37134  1  0  0  0
 40135  1  0  0  0
 40136  1  0  0  0
 40137  1  0  0  0
 42138  1  0  0  0
 45139  1  0  0  0
 45140  1  0  0  0
 46141  1  0  0  0
 47142  1  0  0  0
 47143  1  0  0  0
 48144  1  0  0  0
 49145  1  0  0  0
 50146  1  0  0  0
 53147  1  0  0  0
 53148  1  0  0  0
 54149  1  0  0  0
 55150  1  0  0  0
 56151  1  0  0  0
 59152  1  0  0  0
 59153  1  0  0  0
 60154  1  0  0  0
 60155  1  0  0  0
 61156  1  0  0  0
 61157  1  0  0  0
 62158  1  0  0  0
 62159  1  0  0  0
 63160  1  0  0  0
 63161  1  0  0  0
 63162  1  0  0  0
 64163  1  0  0  0
 65164  1  0  0  0
 68165  1  0  0  0
 68166  1  0  0  0
 69167  1  0  0  0
 69168  1  0  0  0
 70169  1  0  0  0
 70170  1  0  0  0
 71171  1  0  0  0
 73172  1  0  0  0
 74173  1  0  0  0
 74174  1  0  0  0
 75175  1  0  0  0
 76176  1  0  0  0
 79177  1  0  0  0
 79178  1  0  0  0
 82179  1  0  0  0
 83180  1  0  0  0
 85181  1  0  0  0
 86182  1  0  0  0
 89183  1  0  0  0
 89184  1  0  0  0
 92185  1  0  0  0
 92186  1  0  0  0
 93187  1  0  0  0
M  END
$$$$
