### 
### Created by X-TOOL on Mon Sep 10 21:13:28 2018
### 

@<TRIPOS>MOLECULE
5ixq_ligand
  188   192     1     0     0
SMALL
GAST_HUCK


@<TRIPOS>ATOM
      1 N          -5.3920   57.7280   -4.0520 N.4       1 PRO         0.2461
      2 CA         -4.2760   58.2490   -4.8370 C.3       1 PRO         0.0670
      3 C          -2.9920   57.3870   -4.7280 C.2       1 PRO         0.2268
      4 O          -3.0730   56.1570   -4.6470 O.2       1 PRO        -0.3907
      5 CB         -4.1030   59.6660   -4.2580 C.3       1 PRO         0.0127
      6 CG         -5.4920   60.0780   -3.8850 C.3       1 PRO        -0.0053
      7 CD         -6.2660   58.8160   -3.5650 C.3       1 PRO        -0.0313
      8 N          -1.8300   58.0300   -4.7280 N.am      1 ILE        -0.2607
      9 CA         -0.5230   57.3450   -4.7100 C.3       1 ILE         0.1338
     10 C          -0.1340   57.0780   -3.2470 C.2       1 ILE         0.2067
     11 O          -0.4470   57.9060   -2.3850 O.2       1 ILE        -0.3942
     12 CB          0.5400   58.2500   -5.3780 C.3       1 ILE        -0.0037
     13 CG1         0.0550   58.7200   -6.7600 C.3       1 ILE        -0.0491
     14 CG2         1.8730   57.5450   -5.5160 C.3       1 ILE        -0.0582
     15 CD1         0.3830   60.1670   -7.0330 C.3       1 ILE        -0.0648
     16 N           0.5570   55.9410   -2.9520 N.am      1 PRO        -0.2498
     17 CA          1.0520   55.7850   -1.5600 C.3       1 PRO         0.1340
     18 C           2.0010   56.9550   -1.1690 C.2       1 PRO         0.2066
     19 O           2.7730   57.4000   -2.0090 O.2       1 PRO        -0.3942
     20 CB          1.7910   54.4270   -1.5830 C.3       1 PRO        -0.0104
     21 CG          1.3220   53.7290   -2.8160 C.3       1 PRO        -0.0281
     22 CD          0.9370   54.7950   -3.8040 C.3       1 PRO         0.0369
     23 N           1.8940   57.4920    0.0730 N.am      1 PRO        -0.2498
     24 CA          2.8230   58.5760    0.4400 C.3       1 PRO         0.1338
     25 C           4.2410   58.0470    0.5990 C.2       1 PRO         0.2042
     26 O           4.4460   56.8260    0.6880 O.2       1 PRO        -0.3944
     27 CB          2.2860   59.0660    1.7880 C.3       1 PRO        -0.0104
     28 CG          1.5460   57.9030    2.3430 C.3       1 PRO        -0.0281
     29 CD          0.9210   57.2230    1.1490 C.3       1 PRO         0.0369
     30 N           5.2080   58.9600    0.5980 N.am      1 SER        -0.2616
     31 CA          6.5520   58.6410    0.9970 C.3       1 SER         0.1539
     32 C           6.5700   58.5750    2.5300 C.2       1 SER         0.2062
     33 O           6.6610   59.5980    3.2200 O.2       1 SER        -0.3943
     34 CB          7.5520   59.6800    0.4850 C.3       1 SER         0.0843
     35 OG          8.8500   59.3090    0.9380 O.3       1 SER        -0.3903
     36 N           6.4530   57.3700    3.0760 N.am      1 ALA        -0.2639
     37 CA          6.3200   57.2110    4.5390 C.3       1 ALA         0.1284
     38 C           6.6050   55.7580    4.9280 C.2       1 ALA         0.2062
     39 O           6.6620   54.8810    4.0370 O.2       1 ALA        -0.3942
     40 CB          4.9090   57.6180    5.0010 C.3       1 ALA        -0.0244
     41 N           6.8290   55.5300    6.2180 N.am      1 HYP        -0.2473
     42 CA          6.8110   54.1560    6.7830 C.3       1 HYP         0.1362
     43 C           5.8240   53.1000    6.3540 C.2       1 HYP         0.2043
     44 O           4.6460   53.4330    6.1920 O.2       1 HYP        -0.3944
     45 CB          7.1700   54.2060    8.2830 C.3       1 HYP         0.0158
     46 CG          7.6730   55.6350    8.4310 C.3       1 HYP         0.0799
     47 CD          6.9630   56.4600    7.3540 C.3       1 HYP         0.0629
     48 OD1         9.0790   55.6080    8.1380 O.3       1 HYP        -0.3896
     49 N           6.2570   51.8260    6.2220 N.am      1 SER        -0.2616
     50 CA          5.2840   50.7410    5.9800 C.3       1 SER         0.1539
     51 C           4.3010   50.6920    7.1450 C.2       1 SER         0.2062
     52 O           4.7000   50.7650    8.3140 O.2       1 SER        -0.3943
     53 CB          5.9340   49.3790    5.8220 C.3       1 SER         0.0843
     54 OG          4.8900   48.4140    5.6290 O.3       1 SER        -0.3903
     55 N           3.0170   50.5600    6.8260 N.am      1 LYS        -0.2637
     56 CA          1.9780   50.4340    7.8640 C.3       1 LYS         0.1310
     57 C           1.7290   48.9740    8.2950 C.2       1 LYS         0.2039
     58 O           0.9020   48.7190    9.1460 O.2       1 LYS        -0.3944
     59 CB          0.6710   51.0470    7.3500 C.3       1 LYS        -0.0122
     60 CG          0.7550   52.5320    7.0020 C.3       1 LYS        -0.0440
     61 CD         -0.6420   53.1110    6.7570 C.3       1 LYS        -0.0124
     62 CE         -1.3790   52.3700    5.6380 C.3       1 LYS        -0.0354
     63 NZ         -2.5660   53.1070    5.1210 N.4       1 LYS         0.2185
     64 N           2.4210   48.0160    7.6920 N.am      1 ARG        -0.2637
     65 CA          2.1760   46.6160    8.0260 C.3       1 ARG         0.1311
     66 C           2.4880   46.2800    9.4940 C.2       1 ARG         0.2040
     67 O           3.3730   46.8640   10.1480 O.2       1 ARG        -0.3944
     68 CB          2.8680   45.7020    6.9940 C.3       1 ARG        -0.0092
     69 CG          2.1720   45.9020    5.6040 C.3       1 ARG        -0.0156
     70 CD          2.7240   45.0700    4.4580 C.3       1 ARG         0.0627
     71 NE          2.2000   43.6900    4.4450 N.pl3     1 ARG        -0.2723
     72 CZ          2.7980   42.6280    3.8690 C.cat     1 ARG         0.2882
     73 NH1         3.9720   42.7380    3.2430 N.pl3     1 ARG        -0.2849
     74 NH2         2.2240   41.4200    3.9180 N.pl3     1 ARG        -0.2849
     75 N           1.6780   45.3820   10.0360 N.am      1 HIS        -0.2625
     76 CA          1.7360   45.0290   11.4430 C.3       1 HIS         0.1369
     77 C           0.8840   43.7770   11.6720 C.2       1 HIS         0.2049
     78 O          -0.0010   43.4570   10.8750 O.2       1 HIS        -0.3943
     79 CB          1.2430   46.2110   12.3650 C.3       1 HIS         0.0145
     80 CG         -0.2130   46.5170   12.2220 C.2       1 HIS        -0.0027
     81 ND1        -1.1900   45.8200   12.9080 N.2       1 HIS        -0.3252
     82 CD2        -0.8750   47.3990   11.4230 C.2       1 HIS         0.0291
     83 CE1        -2.3860   46.2540   12.5430 C.2       1 HIS         0.0907
     84 NE2        -2.2240   47.2120   11.6450 N.pl3     1 HIS        -0.2752
     85 N           1.1440   43.1300   12.8110 N.am      1 ASN        -0.2672
     86 CA          0.3720   41.9830   13.2720 C.3       1 ASN         0.1110
     87 C          -0.7250   42.4270   14.2530 C.2       1 ASN         0.0624
     88 O          -1.4910   41.5640   14.6900 O.co2     1 ASN        -0.5665
     89 CB          1.3080   40.9630   13.9410 C.3       1 ASN         0.0718
     90 CG          2.4390   40.5840   13.0470 C.2       1 ASN         0.1774
     91 OD1         3.5150   41.1950   13.0960 O.2       1 ASN        -0.3971
     92 ND2         2.1730   39.6590   12.1420 N.am      1 ASN        -0.3007
     93 OXT        -0.8670   43.6130   14.6210 O.co2     1 ASN        -0.5665
     94 H1         -5.0275   57.2215   -3.2604 H         1 PRO         0.2035
     95 H2         -5.9353   57.1047   -4.6285 H         1 PRO         0.2035
     96 H3         -4.5564   58.3062   -5.8991 H         1 PRO         0.1099
     97 H4         -3.6825   60.3476   -5.0120 H         1 PRO         0.0347
     98 H5         -3.4495   59.6496   -3.3734 H         1 PRO         0.0347
     99 H6         -5.9659   60.6073   -4.7248 H         1 PRO         0.0320
    100 H7         -5.4655   60.7367   -3.0044 H         1 PRO         0.0320
    101 H8         -6.4364   58.7258   -2.4820 H         1 PRO         0.0814
    102 H9         -7.2324   58.8062   -4.0903 H         1 PRO         0.0814
    103 H10        -1.8413   59.0299   -4.7409 H         1 ILE         0.1885
    104 H11        -0.5926   56.3928   -5.2563 H         1 ILE         0.0803
    105 H12         0.6839   59.1345   -4.7401 H         1 ILE         0.0345
    106 H13        -1.0361   58.5910   -6.8123 H         1 ILE         0.0267
    107 H14         0.5350   58.0993   -7.5309 H         1 ILE         0.0267
    108 H15         2.2154   57.2110   -4.5254 H         1 ILE         0.0235
    109 H16         2.6117   58.2381   -5.9448 H         1 ILE         0.0235
    110 H17         1.7602   56.6737   -6.1779 H         1 ILE         0.0235
    111 H18         0.0134   60.4447   -8.0311 H         1 ILE         0.0230
    112 H19         1.4729   60.3098   -6.9928 H         1 ILE         0.0230
    113 H20        -0.0982   60.8015   -6.2742 H         1 ILE         0.0230
    114 H21         0.2114   55.7532   -0.8512 H         1 PRO         0.0802
    115 H22         1.5373   53.8378   -0.6895 H         1 PRO         0.0313
    116 H23         2.8791   54.5837   -1.6221 H         1 PRO         0.0313
    117 H24         0.4524   53.0964   -2.5846 H         1 PRO         0.0287
    118 H25         2.1295   53.1059   -3.2279 H         1 PRO         0.0287
    119 H26         1.7866   55.0534   -4.4532 H         1 PRO         0.0524
    120 H27         0.0886   54.4681   -4.4231 H         1 PRO         0.0524
    121 H28         2.8085   59.3802   -0.3103 H         1 PRO         0.0802
    122 H29         1.6121   59.9242    1.6486 H         1 PRO         0.0313
    123 H30         3.1129   59.3535    2.4539 H         1 PRO         0.0313
    124 H31         0.7691   58.2399    3.0451 H         1 PRO         0.0287
    125 H32         2.2350   57.2185    2.8594 H         1 PRO         0.0287
    126 H33         0.8100   56.1423    1.3217 H         1 PRO         0.0524
    127 H34        -0.0608   57.6595    0.9135 H         1 PRO         0.0524
    128 H35         4.9945   59.8941    0.3119 H         1 SER         0.1884
    129 H36         6.8280   57.6585    0.5865 H         1 SER         0.0823
    130 H37         7.2905   60.6737    0.8777 H         1 SER         0.0606
    131 H38         7.5341   59.7039   -0.6146 H         1 SER         0.0606
    132 H39         9.0689   58.4492    0.5984 H         1 SER         0.2097
    133 H40         6.4549   56.5600    2.4896 H         1 ALA         0.1883
    134 H41         7.0548   57.8626    5.0345 H         1 ALA         0.0797
    135 H42         4.8298   57.4929    6.0910 H         1 ALA         0.0277
    136 H43         4.1624   56.9814    4.5037 H         1 ALA         0.0277
    137 H44         4.7266   58.6705    4.7386 H         1 ALA         0.0277
    138 H45         7.7274   53.7385    6.3405 H         1 HYP         0.0803
    139 H46         7.9548   53.4766    8.5323 H         1 HYP         0.0338
    140 H47         6.2869   54.0243    8.9132 H         1 HYP         0.0338
    141 H48         7.4798   56.0354    9.4371 H         1 HYP         0.0616
    142 H49         5.9750   56.7925    7.7050 H         1 HYP         0.0550
    143 H50         7.5659   57.3359    7.0725 H         1 HYP         0.0550
    144 H51         9.5297   55.0981    8.8008 H         1 HYP         0.2099
    145 H52         7.2331   51.6187    6.2880 H         1 SER         0.1884
    146 H53         4.7349   50.9698    5.0547 H         1 SER         0.0823
    147 H54         6.5093   49.1318    6.7264 H         1 SER         0.0606
    148 H55         6.6050   49.3835    4.9504 H         1 SER         0.0606
    149 H56         5.2732   47.5507    5.5273 H         1 SER         0.2097
    150 H57         2.7507   50.5459    5.8622 H         1 LYS         0.1883
    151 H58         2.3093   50.9979    8.7484 H         1 LYS         0.0800
    152 H59        -0.0960   50.9205    8.1283 H         1 LYS         0.0312
    153 H60         0.3687   50.4998    6.4449 H         1 LYS         0.0312
    154 H61         1.3617   52.6560    6.0929 H         1 LYS         0.0269
    155 H62         1.2285   53.0719    7.8353 H         1 LYS         0.0269
    156 H63        -0.5439   54.1703    6.4774 H         1 LYS         0.0317
    157 H64        -1.2285   53.0292    7.6840 H         1 LYS         0.0317
    158 H65        -1.7148   51.3972    6.0265 H         1 LYS         0.0813
    159 H66        -0.6782   52.2102    4.8053 H         1 LYS         0.0813
    160 H67        -3.0040   52.5681    4.3904 H         1 LYS         0.1994
    161 H68        -2.2736   53.9982    4.7519 H         1 LYS         0.1994
    162 H69        -3.2235   53.2532    5.8709 H         1 LYS         0.1994
    163 H70         3.1110   48.2531    7.0081 H         1 ARG         0.1883
    164 H71         1.0950   46.4502    7.9078 H         1 ARG         0.0800
    165 H72         2.7748   44.6518    7.3075 H         1 ARG         0.0313
    166 H73         3.9324   45.9687    6.9174 H         1 ARG         0.0313
    167 H74         2.2696   46.9623    5.3279 H         1 ARG         0.0301
    168 H75         1.1077   45.6500    5.7209 H         1 ARG         0.0301
    169 H76         3.8193   45.0285    4.5503 H         1 ARG         0.0689
    170 H77         2.4541   45.5567    3.5092 H         1 ARG         0.0689
    171 H78         1.2996   43.5242    4.9169 H         1 ARG         0.2642
    172 H79         4.4054   41.9090    2.8119 H         1 ARG         0.2615
    173 H80         4.4444   43.6518    3.1911 H         1 ARG         0.2615
    174 H81         1.3181   41.2992    4.3930 H         1 ARG         0.2615
    175 H82         2.6881   40.6112    3.4807 H         1 ARG         0.2615
    176 H83         1.0015   44.9307    9.4540 H         1 HIS         0.1885
    177 H84         2.7798   44.8010   11.7045 H         1 HIS         0.0817
    178 H85         1.8148   47.1146   12.1069 H         1 HIS         0.0420
    179 H86         1.4395   45.9395   13.4127 H         1 HIS         0.0420
    180 H87        -0.4248   48.1163   10.7383 H         1 HIS         0.0729
    181 H88        -3.3399   45.8857   12.9177 H         1 HIS         0.1199
    182 H89        -2.9832   47.7346   11.1852 H         1 HIS         0.2361
    183 H90         1.9058   43.4482   13.3753 H         1 ASN         0.1877
    184 H91        -0.1064   41.5074   12.4032 H         1 ASN         0.0752
    185 H92         0.7317   40.0596   14.1894 H         1 ASN         0.0544
    186 H93         1.7147   41.4036   14.8632 H         1 ASN         0.0544
    187 H94         2.8870   39.3581   11.5098 H         1 ASN         0.1814
    188 H95         1.2577   39.2598   12.0892 H         1 ASN         0.1814
@<TRIPOS>BOND
     1    1    2 1  
     2    1    7 1  
     3    2    3 1  
     4    2    5 1  
     5    3    4 2  
     6    3    8 am 
     7    5    6 1  
     8    6    7 1  
     9    8    9 1  
    10    9   10 1  
    11    9   12 1  
    12   10   11 2  
    13   10   16 am 
    14   12   13 1  
    15   12   14 1  
    16   13   15 1  
    17   16   17 1  
    18   16   22 1  
    19   17   18 1  
    20   17   20 1  
    21   18   19 2  
    22   18   23 am 
    23   20   21 1  
    24   21   22 1  
    25   23   24 1  
    26   23   29 1  
    27   24   25 1  
    28   24   27 1  
    29   25   26 2  
    30   25   30 am 
    31   27   28 1  
    32   28   29 1  
    33   30   31 1  
    34   31   32 1  
    35   31   34 1  
    36   32   33 2  
    37   32   36 am 
    38   34   35 1  
    39   36   37 1  
    40   37   38 1  
    41   37   40 1  
    42   38   39 2  
    43   38   41 am 
    44   41   42 1  
    45   41   47 1  
    46   42   43 1  
    47   42   45 1  
    48   43   44 2  
    49   43   49 am 
    50   45   46 1  
    51   46   47 1  
    52   46   48 1  
    53   49   50 1  
    54   50   51 1  
    55   50   53 1  
    56   51   52 2  
    57   51   55 am 
    58   53   54 1  
    59   55   56 1  
    60   56   57 1  
    61   56   59 1  
    62   57   58 2  
    63   57   64 am 
    64   59   60 1  
    65   60   61 1  
    66   61   62 1  
    67   62   63 1  
    68   64   65 1  
    69   65   66 1  
    70   65   68 1  
    71   66   67 2  
    72   66   75 am 
    73   68   69 1  
    74   69   70 1  
    75   70   71 1  
    76   71   72 ar 
    77   72   73 ar 
    78   72   74 ar 
    79   75   76 1  
    80   76   77 1  
    81   76   79 1  
    82   77   78 2  
    83   77   85 am 
    84   79   80 1  
    85   80   81 1  
    86   80   82 2  
    87   81   83 2  
    88   82   84 1  
    89   83   84 1  
    90   85   86 1  
    91   86   87 1  
    92   86   89 1  
    93   87   88 ar 
    94   87   93 ar 
    95   89   90 1  
    96   90   91 2  
    97   90   92 am 
    98    1   94 1  
    99    1   95 1  
   100    2   96 1  
   101    5   97 1  
   102    5   98 1  
   103    6   99 1  
   104    6  100 1  
   105    7  101 1  
   106    7  102 1  
   107    8  103 1  
   108    9  104 1  
   109   12  105 1  
   110   13  106 1  
   111   13  107 1  
   112   14  108 1  
   113   14  109 1  
   114   14  110 1  
   115   15  111 1  
   116   15  112 1  
   117   15  113 1  
   118   17  114 1  
   119   20  115 1  
   120   20  116 1  
   121   21  117 1  
   122   21  118 1  
   123   22  119 1  
   124   22  120 1  
   125   24  121 1  
   126   27  122 1  
   127   27  123 1  
   128   28  124 1  
   129   28  125 1  
   130   29  126 1  
   131   29  127 1  
   132   30  128 1  
   133   31  129 1  
   134   34  130 1  
   135   34  131 1  
   136   35  132 1  
   137   36  133 1  
   138   37  134 1  
   139   40  135 1  
   140   40  136 1  
   141   40  137 1  
   142   42  138 1  
   143   45  139 1  
   144   45  140 1  
   145   46  141 1  
   146   47  142 1  
   147   47  143 1  
   148   48  144 1  
   149   49  145 1  
   150   50  146 1  
   151   53  147 1  
   152   53  148 1  
   153   54  149 1  
   154   55  150 1  
   155   56  151 1  
   156   59  152 1  
   157   59  153 1  
   158   60  154 1  
   159   60  155 1  
   160   61  156 1  
   161   61  157 1  
   162   62  158 1  
   163   62  159 1  
   164   63  160 1  
   165   63  161 1  
   166   63  162 1  
   167   64  163 1  
   168   65  164 1  
   169   68  165 1  
   170   68  166 1  
   171   69  167 1  
   172   69  168 1  
   173   70  169 1  
   174   70  170 1  
   175   71  171 1  
   176   73  172 1  
   177   73  173 1  
   178   74  174 1  
   179   74  175 1  
   180   75  176 1  
   181   76  177 1  
   182   79  178 1  
   183   79  179 1  
   184   82  180 1  
   185   83  181 1  
   186   84  182 1  
   187   85  183 1  
   188   86  184 1  
   189   89  185 1  
   190   89  186 1  
   191   92  187 1  
   192   92  188 1  
@<TRIPOS>SUBSTRUCTURE
     1 PRO         1

