3le9_ligand
  -I-interpret- 

 42 45  0  0  0  0  0  0  0  0999 V2000
    6.1580    8.3440   24.1590 N   0  0  0  0  0
    7.5380    8.2640   24.3530 N   0  0  0  0  0
    5.4240    8.3700   25.2980 C   0  0  0  0  0
    7.5980   11.1540   23.5600 N   0  0  0  0  0
    7.3160   10.2890   22.5310 C   0  0  0  0  0
    5.7770   10.0540   22.5240 C   0  0  0  0  0
    5.3600   10.9800   23.6120 N   0  0  0  0  0
    6.4090   11.6210   24.1810 C   0  0  0  0  0
    6.3080   12.5110   25.0160 O   0  0  0  0  0
    8.1310    9.6350   21.7940 O   0  0  0  0  0
    5.0890   10.5010   21.2210 C   0  0  0  0  0
    5.5930    8.5260   22.8370 C   0  0  0  0  0
    6.4110    8.3090   26.3580 C   0  0  0  0  0
    7.6490    8.2390   25.7250 C   0  0  0  0  0
    8.8580    8.1370   26.4230 C   0  0  0  0  0
    8.7560    8.1180   27.7710 C   0  0  0  0  0
    7.4740    8.2010   28.4100 C   0  0  0  0  0
    6.2870    8.2950   27.7060 C   0  0  0  0  0
    4.2020    8.4240   25.3870 O   0  0  0  0  0
    7.2970    8.1940   29.7260 O   0  0  0  0  0
    8.5250    8.0720   30.5330 C   0  0  0  0  0
    5.7070   11.4860   20.3480 C   0  0  0  0  0
    5.0480   11.8410   19.1320 C   0  0  0  0  0
    3.8040   11.2510   18.7890 C   0  0  0  0  0
    3.1940   10.3030   19.6290 C   0  0  0  0  0
    3.8250    9.9350   20.8420 C   0  0  0  0  0
    8.2792    8.2320   23.6530 H   0  0  0  0  0
    8.5398   11.4259   23.8418 H   0  0  0  0  0
    4.3905   11.1170   23.8979 H   0  0  0  0  0
    4.5447    8.2294   22.8011 H   0  0  0  0  0
    6.0886    7.8990   22.0958 H   0  0  0  0  0
    9.8194    8.0768   25.9128 H   0  0  0  0  0
    9.6573    8.0388   28.3789 H   0  0  0  0  0
    5.3184    8.3538   28.2025 H   0  0  0  0  0
    9.0294    7.1379   30.2858 H   0  0  0  0  0
    9.1856    8.9115   30.3162 H   0  0  0  0  0
    8.2646    8.0768   31.5914 H   0  0  0  0  0
    6.6578   11.9459   20.6174 H   0  0  0  0  0
    5.5038   12.5704   18.4625 H   0  0  0  0  0
    3.3132   11.5375   17.8589 H   0  0  0  0  0
    2.2412    9.8541   19.3483 H   0  0  0  0  0
    3.3435    9.2104   21.4986 H   0  0  0  0  0
  1  2  1  0  0  0
  1  3  1  0  0  0
 12  1  1  0  0  0
  2 14  1  0  0  0
  3 13  1  0  0  0
  3 19  2  0  0  0
  5  4  1  0  0  0
  4  8  1  0  0  0
  6  5  1  0  0  0
  5 10  2  0  0  0
  6  7  1  0  0  0
  6 11  1  0  0  0
  6 12  1  0  0  0
  7  8  1  0  0  0
  8  9  2  0  0  0
 11 22  4  0  0  0
 11 26  4  0  0  0
 13 14  4  0  0  0
 13 18  4  0  0  0
 14 15  4  0  0  0
 15 16  4  0  0  0
 16 17  4  0  0  0
 17 18  4  0  0  0
 17 20  1  0  0  0
 20 21  1  0  0  0
 22 23  4  0  0  0
 23 24  4  0  0  0
 24 25  4  0  0  0
 25 26  4  0  0  0
  2 27  1  0  0  0
  4 28  1  0  0  0
  7 29  1  0  0  0
 12 30  1  0  0  0
 12 31  1  0  0  0
 15 32  1  0  0  0
 16 33  1  0  0  0
 18 34  1  0  0  0
 21 35  1  0  0  0
 21 36  1  0  0  0
 21 37  1  0  0  0
 22 38  1  0  0  0
 23 39  1  0  0  0
 24 40  1  0  0  0
 25 41  1  0  0  0
 26 42  1  0  0  0
M  END
$$$$
