2kce_ligand
  -I-interpret- 

 54 56  0  0  0  0  0  0  0  0999 V2000
   13.0940   18.6020   30.5360 N   0  0  0  0  0
   12.8010   19.4640   31.5350 C   0  0  0  0  0
   11.8020   20.5190   31.3570 C   0  0  0  0  0
   13.4430   19.3860   32.7110 N   0  0  0  0  0
   14.4030   18.4720   32.9150 C   0  0  0  0  0
   15.1670   18.5590   34.0480 O   0  0  0  0  0
   14.6480   17.4740   31.9680 C   0  0  0  0  0
   15.4940   16.3710   32.2210 C   0  0  0  0  0
   15.6880   15.3920   31.2150 C   0  0  0  0  0
   15.0600   15.5570   29.9710 C   0  0  0  0  0
   14.2170   16.6450   29.7290 C   0  0  0  0  0
   13.9840   17.6030   30.7270 C   0  0  0  0  0
   16.4250   14.1130   31.4490 C   0  0  0  0  0
   16.9930   13.9020   32.8000 N   0  0  0  0  0
   14.4710   13.3140   35.5600 C   0  0  0  0  0
   14.5570   13.3290   33.8690 S   0  0  0  0  0
   16.2460   13.6120   33.8800 C   0  0  0  0  0
   16.7030   13.7110   35.1820 C   0  0  0  0  0
   15.7100   13.5420   36.1210 C   0  0  0  0  0
   13.3290   12.8470   36.3170 C   0  0  0  0  0
   12.2590   12.6450   35.7390 O   0  0  0  0  0
   13.4740   12.6490   37.6230 N   0  0  0  0  0
   12.4520   12.0280   38.4830 C   0  0  0  0  0
   12.7210   10.5670   38.8180 C   0  0  0  0  0
   13.0200    9.5350   37.7700 C   0  0  0  0  0
   13.5120    8.2750   38.4730 C   0  0  0  0  0
   12.6980    7.5150   38.9970 O   0  0  0  0  0
   14.7220    8.0690   38.5800 O   0  0  0  0  0
   12.5840   12.7660   39.8120 C   0  0  0  0  0
   13.7130   13.0680   40.2230 O   0  0  0  0  0
   11.5650   13.0290   40.4470 O   0  0  0  0  0
   18.4420   14.0000   32.9350 C   0  0  0  0  0
   12.1079   21.1733   30.5407 H   0  0  0  0  0
   10.8378   20.0686   31.1214 H   0  0  0  0  0
   11.7190   21.0979   32.2768 H   0  0  0  0  0
   13.1970   20.0318   33.4612 H   0  0  0  0  0
   15.9945   16.2737   33.1844 H   0  0  0  0  0
   15.2323   14.8255   29.1815 H   0  0  0  0  0
   13.7363   16.7502   28.7564 H   0  0  0  0  0
   17.2758   14.1309   30.7679 H   0  0  0  0  0
   15.6935   13.3176   31.3062 H   0  0  0  0  0
   17.7447   13.9035   35.4389 H   0  0  0  0  0
   15.8851   13.5841   37.1960 H   0  0  0  0  0
   14.3480   12.9457   38.0572 H   0  0  0  0  0
   11.4901   12.0824   37.9733 H   0  0  0  0  0
   11.7743   10.2287   39.2392 H   0  0  0  0  0
   13.6431   10.6091   39.3977 H   0  0  0  0  0
   13.7828    9.9052   37.0850 H   0  0  0  0  0
   12.1226    9.3163   37.1913 H   0  0  0  0  0
   15.2048    8.7550   38.1132 H   0  0  0  0  0
   14.3717   12.7782   39.5876 H   0  0  0  0  0
   18.9163   13.2530   32.2985 H   0  0  0  0  0
   18.7672   14.9956   32.6333 H   0  0  0  0  0
   18.7215   13.8243   33.9738 H   0  0  0  0  0
  1  2  2  0  0  0
 12  1  1  0  0  0
  2  3  1  0  0  0
  4  2  1  0  0  0
  5  4  1  0  0  0
  5  6  2  0  0  0
  7  5  1  0  0  0
  8  7  4  0  0  0
  7 12  4  0  0  0
  9  8  4  0  0  0
  9 10  4  0  0  0
 13  9  1  0  0  0
 10 11  4  0  0  0
 11 12  4  0  0  0
 14 13  1  0  0  0
 17 14  1  0  0  0
 14 32  1  0  0  0
 16 15  4  0  0  0
 15 19  4  0  0  0
 15 20  1  0  0  0
 16 17  4  0  0  0
 17 18  4  0  0  0
 18 19  4  0  0  0
 20 21  2  0  0  0
 20 22  1  0  0  0
 22 23  1  0  0  0
 23 24  1  0  0  0
 23 29  1  0  0  0
 24 25  1  0  0  0
 25 26  1  0  0  0
 26 27  2  0  0  0
 26 28  1  0  0  0
 29 30  1  0  0  0
 29 31  2  0  0  0
  3 33  1  0  0  0
  3 34  1  0  0  0
  3 35  1  0  0  0
  4 36  1  0  0  0
  8 37  1  0  0  0
 10 38  1  0  0  0
 11 39  1  0  0  0
 13 40  1  0  0  0
 13 41  1  0  0  0
 18 42  1  0  0  0
 19 43  1  0  0  0
 22 44  1  0  0  0
 23 45  1  0  0  0
 24 46  1  0  0  0
 24 47  1  0  0  0
 25 48  1  0  0  0
 25 49  1  0  0  0
 28 50  1  0  0  0
 30 51  1  0  0  0
 32 52  1  0  0  0
 32 53  1  0  0  0
 32 54  1  0  0  0
M  END
$$$$
