6mul_ligand
  -I-interpret- 

 60 65  0  0  0  0  0  0  0  0999 V2000
   -5.5840  -26.5660   28.0310 N   0  0  0  0  0
   -4.6980  -25.7080   27.3310 C   0  0  0  0  0
   -3.6550  -25.3580   28.0500 N   0  0  0  0  0
   -3.8360  -26.0100   29.2670 C   0  0  0  0  0
   -3.1070  -26.1450   30.4760 C   0  0  0  0  0
   -3.5140  -26.8670   31.5350 N   0  0  0  0  0
   -4.6870  -27.4830   31.3550 C   0  0  0  0  0
   -5.4980  -27.4700   30.2920 N   0  0  0  0  0
   -5.0170  -26.7340   29.2760 C   0  0  0  0  0
   -6.8550  -27.1250   27.5790 C   0  0  0  0  0
   -4.8990  -25.2330   25.9720 C   0  0  0  0  0
   -1.8680  -25.5180   30.6180 N   0  0  0  0  0
   -0.9660  -25.2630   29.4870 C   0  0  0  0  0
   -0.2900  -23.9070   29.6630 C   0  0  0  0  0
    0.4680  -23.8680   30.9800 C   0  0  0  0  0
   -0.4050  -24.2880   32.1570 C   0  0  0  0  0
   -1.1020  -25.6200   31.8680 C   0  0  0  0  0
    1.1080  -22.5750   31.2090 N   0  0  0  0  0
    2.5400  -22.3070   31.1980 C   0  0  0  0  0
    2.7700  -20.9910   31.4900 N   0  0  0  0  0
    1.5420  -20.3930   31.6700 C   0  0  0  0  0
    1.2740  -19.1000   31.9500 N   0  0  0  0  0
   -0.0210  -18.7560   32.0860 C   0  0  0  0  0
   -1.0740  -19.6450   31.9580 C   0  0  0  0  0
   -0.7970  -20.9730   31.6660 C   0  0  0  0  0
    0.5340  -21.3450   31.5290 C   0  0  0  0  0
    3.3680  -23.1700   30.9520 O   0  0  0  0  0
   -4.3450  -24.0980   25.4010 C   0  0  0  0  0
   -4.7740  -24.0560   24.1180 N   0  0  0  0  0
   -5.5840  -25.1190   23.8200 N   0  0  0  0  0
   -5.6450  -25.8220   24.9360 C   0  0  0  0  0
   -3.4850  -23.0440   26.0150 C   0  0  0  0  0
   -4.5280  -22.9610   23.1460 C   0  0  0  0  0
   -4.9860  -23.3350   21.7760 C   0  0  0  0  0
   -5.0322  -28.0829   32.1971 H   0  0  0  0  0
   -7.5438  -26.3138   27.3431 H   0  0  0  0  0
   -6.6876  -27.7316   26.6890 H   0  0  0  0  0
   -7.2789  -27.7453   28.3687 H   0  0  0  0  0
   -1.5400  -25.2626   28.5604 H   0  0  0  0  0
   -0.2057  -26.0431   29.4486 H   0  0  0  0  0
   -1.0503  -23.1259   29.6646 H   0  0  0  0  0
    0.4098  -23.7471   28.8427 H   0  0  0  0  0
    1.2672  -24.6050   30.9012 H   0  0  0  0  0
   -1.1634  -23.5229   32.3229 H   0  0  0  0  0
    0.2255  -24.4050   33.0384 H   0  0  0  0  0
   -0.3528  -26.4056   31.7693 H   0  0  0  0  0
   -1.7793  -25.8585   32.6881 H   0  0  0  0  0
    3.6806  -20.5370   31.5612 H   0  0  0  0  0
   -0.2537  -17.7150   32.3103 H   0  0  0  0  0
   -2.1028  -19.3079   32.0843 H   0  0  0  0  0
   -1.5991  -21.7015   31.5478 H   0  0  0  0  0
   -6.2074  -26.7497   25.0417 H   0  0  0  0  0
   -4.0242  -22.5688   26.8345 H   0  0  0  0  0
   -2.5706  -23.4991   26.3956 H   0  0  0  0  0
   -3.2344  -22.2970   25.2618 H   0  0  0  0  0
   -3.4565  -22.7640   23.1107 H   0  0  0  0  0
   -5.0843  -22.0809   23.4684 H   0  0  0  0  0
   -4.4459  -24.2213   21.4431 H   0  0  0  0  0
   -6.0552  -23.5459   21.7967 H   0  0  0  0  0
   -4.7903  -22.5100   21.0910 H   0  0  0  0  0
  1  2  4  0  0  0
  1  9  4  0  0  0
  1 10  1  0  0  0
  2  3  4  0  0  0
  2 11  1  0  0  0
  3  4  4  0  0  0
  4  5  4  0  0  0
  4  9  4  0  0  0
  5  6  4  0  0  0
  5 12  1  0  0  0
  6  7  4  0  0  0
  7  8  4  0  0  0
  8  9  4  0  0  0
 11 28  4  0  0  0
 11 31  4  0  0  0
 12 13  1  0  0  0
 12 17  1  0  0  0
 13 14  1  0  0  0
 14 15  1  0  0  0
 15 16  1  0  0  0
 15 18  1  0  0  0
 16 17  1  0  0  0
 18 19  1  0  0  0
 18 26  1  0  0  0
 19 20  1  0  0  0
 19 27  2  0  0  0
 20 21  1  0  0  0
 21 22  4  0  0  0
 21 26  4  0  0  0
 22 23  4  0  0  0
 23 24  4  0  0  0
 24 25  4  0  0  0
 25 26  4  0  0  0
 28 29  4  0  0  0
 28 32  1  0  0  0
 29 30  4  0  0  0
 29 33  1  0  0  0
 30 31  4  0  0  0
 33 34  1  0  0  0
  7 35  1  0  0  0
 10 36  1  0  0  0
 10 37  1  0  0  0
 10 38  1  0  0  0
 13 39  1  0  0  0
 13 40  1  0  0  0
 14 41  1  0  0  0
 14 42  1  0  0  0
 15 43  1  0  0  0
 16 44  1  0  0  0
 16 45  1  0  0  0
 17 46  1  0  0  0
 17 47  1  0  0  0
 20 48  1  0  0  0
 23 49  1  0  0  0
 24 50  1  0  0  0
 25 51  1  0  0  0
 31 52  1  0  0  0
 32 53  1  0  0  0
 32 54  1  0  0  0
 32 55  1  0  0  0
 33 56  1  0  0  0
 33 57  1  0  0  0
 34 58  1  0  0  0
 34 59  1  0  0  0
 34 60  1  0  0  0
M  END
$$$$
