7abp_ligand
  -I-interpret- 

 23 23  0  0  0  0  0  0  0  0999 V2000
   14.3010   57.1260   55.2250 C   0  0  0  0  0
   12.8400   57.2990   54.8580 C   0  0  0  0  0
   12.3730   56.4280   53.7660 C   0  0  0  0  0
   13.2290   56.6080   52.4870 C   0  0  0  0  0
   14.6900   56.3210   52.8850 C   0  0  0  0  0
   15.7070   56.7590   51.8240 C   0  0  0  0  0
   14.4840   55.9390   55.9190 O   0  0  0  0  0
   12.0450   57.0330   56.0670 O   0  0  0  0  0
   11.0180   56.7380   53.4310 O   0  0  0  0  0
   13.0450   57.9030   51.8870 O   0  0  0  0  0
   15.0850   57.0690   54.0160 O   0  0  0  0  0
   14.6103   57.9651   55.8481 H   0  0  0  0  0
   12.7182   58.3169   54.4877 H   0  0  0  0  0
   12.4599   55.4007   54.1197 H   0  0  0  0  0
   12.9168   55.9110   51.7093 H   0  0  0  0  0
   14.6955   55.2429   53.0457 H   0  0  0  0  0
   15.6274   57.8349   51.6686 H   0  0  0  0  0
   16.7131   56.5131   52.1636 H   0  0  0  0  0
   15.5007   56.2392   50.8884 H   0  0  0  0  0
   13.9681   55.9600   56.7283 H   0  0  0  0  0
   12.3486   57.6003   56.7795 H   0  0  0  0  0
   10.4653   56.6338   54.2090 H   0  0  0  0  0
   12.1192   58.0217   51.6624 H   0  0  0  0  0
  1  2  1  0  0  0
  1  7  1  0  0  0
  1 11  1  0  0  0
  2  3  1  0  0  0
  2  8  1  0  0  0
  3  4  1  0  0  0
  3  9  1  0  0  0
  4  5  1  0  0  0
  4 10  1  0  0  0
  5  6  1  0  0  0
  5 11  1  0  0  0
  1 12  1  0  0  0
  2 13  1  0  0  0
  3 14  1  0  0  0
  4 15  1  0  0  0
  5 16  1  0  0  0
  6 17  1  0  0  0
  6 18  1  0  0  0
  6 19  1  0  0  0
  7 20  1  0  0  0
  8 21  1  0  0  0
  9 22  1  0  0  0
 10 23  1  0  0  0
M  END
$$$$
