6bfe_ligand
  -I-interpret- 

 62 64  0  0  0  0  0  0  0  0999 V2000
   22.7700   58.0400   88.6700 O   0  0  0  0  0
   23.7400   57.4050   89.0820 C   0  0  0  0  0
   20.9380   53.7070   89.6310 O   0  0  0  0  0
   25.4530   55.7040   85.0350 C   0  0  0  0  0
   22.8700   56.0460   85.8220 C   0  0  0  0  0
   21.1230   54.5180   92.2680 N   0  3  0  0  0
   23.4280   56.8030   84.8210 C   0  0  0  0  0
   23.6510   55.0910   86.4610 C   0  0  0  0  0
   24.7080   56.6450   84.3800 C   0  0  0  0  0
   24.9720   54.9300   86.0680 C   0  0  0  0  0
   14.2940   54.3200   89.1560 C   0  0  0  0  0
   14.0120   55.6820   89.7630 C   0  0  0  0  0
   15.2830   53.5430   90.0070 C   0  0  0  0  0
   15.3050   56.4560   89.9880 C   0  0  0  0  0
   16.5630   54.3400   90.2250 C   0  0  0  0  0
   20.5940   56.3410   90.8850 C   0  0  0  0  0
   20.4290   55.4830   93.1270 C   0  0  0  0  0
   16.2790   55.6860   90.8710 C   0  0  0  0  0
   19.7160   56.3840   92.1340 C   0  0  0  0  0
   21.7170   55.3400   91.2060 C   0  0  0  0  0
   25.0280   58.0710   89.4470 C   0  0  0  0  0
   23.0750   54.3120   87.6220 C   0  0  0  0  0
   17.5430   56.4820   91.0860 C   0  0  0  0  0
   22.1090   54.4390   89.9950 C   0  0  0  0  0
   22.6220   55.2260   88.7740 C   0  0  0  0  0
   23.7320   56.0720   89.1860 N   0  0  0  0  0
   18.4590   55.7380   91.9040 O   0  0  0  0  0
   22.6620   57.7680   84.2410 F   0  0  0  0  0
   26.7300   55.5230   84.6430 F   0  0  0  0  0
   21.1375   53.1368   88.8849 H   0  0  0  0  0
   21.8292   56.1924   86.1110 H   0  0  0  0  0
   20.4901   53.8094   91.8968 H   0  0  0  0  0
   21.8260   53.9844   92.7794 H   0  0  0  0  0
   25.1128   57.2326   83.5560 H   0  0  0  0  0
   25.6161   54.2057   86.5666 H   0  0  0  0  0
   14.7200   54.4600   88.1625 H   0  0  0  0  0
   13.3607   53.7595   89.1027 H   0  0  0  0  0
   13.5162   55.5416   90.7235 H   0  0  0  0  0
   13.3803   56.2470   89.0775 H   0  0  0  0  0
   15.5329   52.6153   89.4922 H   0  0  0  0  0
   14.8272   53.3428   90.9767 H   0  0  0  0  0
   15.0603   57.3946   90.4852 H   0  0  0  0  0
   15.7778   56.6220   89.0200 H   0  0  0  0  0
   17.0301   54.5143   89.2557 H   0  0  0  0  0
   17.2154   53.7705   90.8870 H   0  0  0  0  0
   20.9939   57.3259   90.6439 H   0  0  0  0  0
   20.0249   56.0347   90.0072 H   0  0  0  0  0
   21.1099   56.0315   93.7778 H   0  0  0  0  0
   19.7440   55.0051   93.8273 H   0  0  0  0  0
   15.8397   55.5181   91.8543 H   0  0  0  0  0
   19.5558   57.4160   92.4462 H   0  0  0  0  0
   22.6409   55.8492   91.4801 H   0  0  0  0  0
   25.4282   58.5879   88.5748 H   0  0  0  0  0
   24.8500   58.7897   90.2469 H   0  0  0  0  0
   25.7415   57.3192   89.7844 H   0  0  0  0  0
   23.8524   53.6496   88.0026 H   0  0  0  0  0
   22.2033   53.7654   87.2622 H   0  0  0  0  0
   17.2961   57.4189   91.5853 H   0  0  0  0  0
   18.0075   56.6848   90.1210 H   0  0  0  0  0
   22.9345   53.7949   90.2979 H   0  0  0  0  0
   21.7924   55.8256   88.3994 H   0  0  0  0  0
   24.5569   55.6190   89.5794 H   0  0  0  0  0
  2  1  2  0  0  0
  2 21  1  0  0  0
 26  2  1  0  0  0
 24  3  1  0  0  0
  4  9  4  0  0  0
 10  4  4  0  0  0
  4 29  1  0  0  0
  5  7  4  0  0  0
  8  5  4  0  0  0
  6 17  1  0  0  0
 20  6  1  0  0  0
  7  9  4  0  0  0
  7 28  1  0  0  0
  8 10  4  0  0  0
 22  8  1  0  0  0
 12 11  1  0  0  0
 13 11  1  0  0  0
 14 12  1  0  0  0
 15 13  1  0  0  0
 18 14  1  0  0  0
 18 15  1  0  0  0
 16 19  1  0  0  0
 20 16  1  0  0  0
 19 17  1  0  0  0
 23 18  1  0  0  0
 19 27  1  0  0  0
 24 20  1  0  0  0
 25 22  1  0  0  0
 27 23  1  0  0  0
 25 24  1  0  0  0
 25 26  1  0  0  0
  3 30  1  0  0  0
  5 31  1  0  0  0
  6 32  1  0  0  0
  6 33  1  0  0  0
  9 34  1  0  0  0
 10 35  1  0  0  0
 11 36  1  0  0  0
 11 37  1  0  0  0
 12 38  1  0  0  0
 12 39  1  0  0  0
 13 40  1  0  0  0
 13 41  1  0  0  0
 14 42  1  0  0  0
 14 43  1  0  0  0
 15 44  1  0  0  0
 15 45  1  0  0  0
 16 46  1  0  0  0
 16 47  1  0  0  0
 17 48  1  0  0  0
 17 49  1  0  0  0
 18 50  1  0  0  0
 19 51  1  0  0  0
 20 52  1  0  0  0
 21 53  1  0  0  0
 21 54  1  0  0  0
 21 55  1  0  0  0
 22 56  1  0  0  0
 22 57  1  0  0  0
 23 58  1  0  0  0
 23 59  1  0  0  0
 24 60  1  0  0  0
 25 61  1  0  0  0
 26 62  1  0  0  0
M  END
$$$$
