4auj_ligand
  -I-interpret- 

 40 41  0  0  0  0  0  0  0  0999 V2000
   15.6340    2.4590    9.7320 O   0  0  0  0  0
   16.3790    2.3610   10.9110 C   0  0  0  0  0
   16.6540    1.0050   11.3680 C   0  0  0  0  0
   15.3690    0.3420   11.6440 O   0  0  0  0  0
   17.4940    0.1880   10.3690 C   0  0  0  0  0
   18.7830    0.8050   10.3150 O   0  0  0  0  0
   17.5900   -1.1680   10.7770 C   0  0  0  0  0
   18.2980   -1.9710    9.8050 O   0  0  0  0  0
   16.2680   -1.7860   11.0210 C   0  0  0  0  0
   15.5630   -1.8470    9.8560 O   0  0  0  0  0
   14.6860    2.2870   21.4870 O   0  0  0  0  0
   14.0190    2.6620   20.3300 C   0  0  0  0  0
   14.4400    1.9210   19.0580 C   0  0  0  0  0
   14.7250    1.3950   18.0030 C   0  0  0  0  0
   15.0890    0.7330   16.7540 C   0  0  0  0  0
   16.3310    0.1590   16.6350 C   0  0  0  0  0
   16.6570   -0.4660   15.4160 C   0  0  0  0  0
   15.7920   -0.4750   14.3980 C   0  0  0  0  0
   16.2180   -1.1150   13.2370 O   0  0  0  0  0
   15.4800   -0.9810   12.0770 C   0  0  0  0  0
   14.5460    0.1060   14.5230 C   0  0  0  0  0
   14.2160    0.7240   15.7300 C   0  0  0  0  0
   15.5048    3.3846    9.5125 H   0  0  0  0  0
   15.7877    2.8381   11.6925 H   0  0  0  0  0
   17.3455    2.8218   10.7068 H   0  0  0  0  0
   17.2574    1.0639   12.2739 H   0  0  0  0  0
   17.0293    0.1807    9.3830 H   0  0  0  0  0
   18.6877    1.7189   10.0370 H   0  0  0  0  0
   18.1461   -1.1472   11.7143 H   0  0  0  0  0
   19.1591   -1.5817    9.6362 H   0  0  0  0  0
   16.4195   -2.7966   11.4003 H   0  0  0  0  0
   14.7071   -2.2488   10.0219 H   0  0  0  0  0
   14.3563    2.8027   22.2265 H   0  0  0  0  0
   14.2484    3.7150   20.1665 H   0  0  0  0  0
   12.9658    2.4312   20.4899 H   0  0  0  0  0
   17.0432    0.1864   17.4597 H   0  0  0  0  0
   17.6276   -0.9487   15.3016 H   0  0  0  0  0
   14.4599   -1.3288   12.2400 H   0  0  0  0  0
   13.8353    0.0826   13.6969 H   0  0  0  0  0
   13.2436    1.2031   15.8441 H   0  0  0  0  0
  2  1  1  0  0  0
  3  2  1  0  0  0
  4  3  1  0  0  0
  3  5  1  0  0  0
 20  4  1  0  0  0
  5  6  1  0  0  0
  7  5  1  0  0  0
  7  8  1  0  0  0
  9  7  1  0  0  0
  9 10  1  0  0  0
 20  9  1  0  0  0
 12 11  1  0  0  0
 13 12  1  0  0  0
 14 13  3  0  0  0
 15 14  1  0  0  0
 16 15  4  0  0  0
 15 22  4  0  0  0
 17 16  4  0  0  0
 18 17  4  0  0  0
 19 18  1  0  0  0
 18 21  4  0  0  0
 19 20  1  0  0  0
 21 22  4  0  0  0
  1 23  1  0  0  0
  2 24  1  0  0  0
  2 25  1  0  0  0
  3 26  1  0  0  0
  5 27  1  0  0  0
  6 28  1  0  0  0
  7 29  1  0  0  0
  8 30  1  0  0  0
  9 31  1  0  0  0
 10 32  1  0  0  0
 11 33  1  0  0  0
 12 34  1  0  0  0
 12 35  1  0  0  0
 16 36  1  0  0  0
 17 37  1  0  0  0
 20 38  1  0  0  0
 21 39  1  0  0  0
 22 40  1  0  0  0
M  END
$$$$
