### 
### Created by X-TOOL on Mon Sep 10 21:13:32 2018
### 

@<TRIPOS>MOLECULE
5myx_ligand
  192   197     1     0     0
SMALL
GAST_HUCK


@<TRIPOS>ATOM
      1 N           3.4190   16.8310   26.2810 N.am      1 PCA        -0.2655
      2 CA          3.6720   17.5820   25.0650 C.3       1 PCA         0.1330
      3 CB          3.5310   19.0830   25.3180 C.3       1 PCA         0.0045
      4 CG          3.3880   19.2670   26.8180 C.3       1 PCA         0.0416
      5 CD          3.2930   17.8460   27.3100 C.2       1 PCA         0.1784
      6 OE          3.0790   17.5730   28.4880 O.2       1 PCA        -0.3969
      7 C           5.0800   17.2840   24.5440 C.2       1 PCA         0.2042
      8 O           5.4100   17.7140   23.4350 O.2       1 PCA        -0.3944
      9 N           5.8950   16.5520   25.3170 N.am      1 PHE        -0.2619
     10 CA          7.3070   16.3410   24.9710 C.3       1 PHE         0.1404
     11 C           7.6830   14.8800   24.7380 C.2       1 PHE         0.2060
     12 O           8.3010   14.5460   23.7100 O.2       1 PHE        -0.3942
     13 CB          8.2000   16.9180   26.0760 C.3       1 PHE         0.0214
     14 CG          7.8960   18.3450   26.4060 C.ar      1 PHE        -0.0386
     15 CD1         8.3990   19.3650   25.6310 C.ar      1 PHE        -0.0601
     16 CD2         7.1200   18.6690   27.5080 C.ar      1 PHE        -0.0601
     17 CE1         8.1250   20.6840   25.9460 C.ar      1 PHE        -0.0686
     18 CE2         6.8400   19.9810   27.8160 C.ar      1 PHE        -0.0686
     19 CZ          7.3410   20.9920   27.0270 C.ar      1 PHE        -0.0687
     20 N           7.3320   14.0130   25.6970 N.am      1 ARG        -0.2636
     21 CA          7.6610   12.5780   25.6860 C.3       1 ARG         0.1311
     22 C           6.4040   11.8420   26.1350 C.2       1 ARG         0.2040
     23 O           6.2260   11.6060   27.3350 O.2       1 ARG        -0.3944
     24 CB          8.7690   12.2670   26.6770 C.3       1 ARG        -0.0092
     25 CG         10.1420   12.5940   26.2870 C.3       1 ARG        -0.0156
     26 CD         11.1000   11.8460   27.2130 C.3       1 ARG         0.0627
     27 NE         12.4740   12.2720   27.0120 N.pl3     1 ARG        -0.2723
     28 CZ         13.5130   11.7640   27.6580 C.cat     1 ARG         0.2882
     29 NH1        13.3340   10.8050   28.5610 N.pl3     1 ARG        -0.2849
     30 NH2        14.7270   12.2220   27.4040 N.pl3     1 ARG        -0.2849
     31 N           5.5790   11.4260   25.1770 N.am      1 HIS        -0.2625
     32 CA          4.2310   10.9870   25.5240 C.3       1 HIS         0.1369
     33 C           4.2210    9.7240   26.3790 C.2       1 HIS         0.2054
     34 O           3.2990    9.5370   27.1790 O.2       1 HIS        -0.3942
     35 CB          3.3860   10.7990   24.2640 C.3       1 HIS         0.0145
     36 CG          3.8290    9.6550   23.4140 C.2       1 HIS        -0.0027
     37 ND1         4.9380    9.7180   22.6010 N.2       1 HIS        -0.3252
     38 CD2         3.3210    8.4100   23.2690 C.2       1 HIS         0.0291
     39 CE1         5.0880    8.5590   21.9810 C.2       1 HIS         0.0907
     40 NE2         4.1190    7.7490   22.3680 N.pl3     1 HIS        -0.2752
     41 N           5.2190    8.8520   26.2390 N.am      1 ASP        -0.2621
     42 CA          5.2130    7.5640   26.9290 C.3       1 ASP         0.1423
     43 C           6.2090    7.5090   28.0870 C.2       1 ASP         0.2057
     44 O           6.7720    6.4540   28.3760 O.2       1 ASP        -0.3943
     45 CB          5.4670    6.4310   25.9390 C.3       1 ASP         0.0406
     46 CG          6.8250    6.5200   25.3120 C.2       1 ASP         0.0393
     47 OD1         7.4500    7.6020   25.3690 O.co2     1 ASP        -0.5688
     48 OD2         7.2850    5.4920   24.7710 O.co2     1 ASP        -0.5688
     49 N           6.4210    8.6310   28.7710 N.am      1 SER        -0.2615
     50 CA          7.4340    8.7350   29.8130 C.3       1 SER         0.1539
     51 C           6.9010    8.4510   31.2160 C.2       1 SER         0.2060
     52 O           7.6920    8.4110   32.1670 O.2       1 SER        -0.3943
     53 CB          8.0660   10.1240   29.7750 C.3       1 SER         0.0843
     54 OG          7.0600   11.1180   29.8730 O.3       1 SER        -0.3903
     55 N           5.6020    8.2520   31.3670 N.am      1 GLY        -0.2663
     56 CA          4.9840    7.9980   32.6510 C.3       1 GLY         0.1201
     57 C           4.8070    6.5190   32.9130 C.2       1 GLY         0.2009
     58 O           5.5460    5.6800   32.3840 O.2       1 GLY        -0.3947
     59 N           3.8040    6.1930   33.7310 N.am      1 TYR        -0.2624
     60 CA          3.5820    4.8010   34.1070 C.3       1 TYR         0.1390
     61 C           3.2030    3.9510   32.9000 C.2       1 TYR         0.2057
     62 O           3.7160    2.8390   32.7300 O.2       1 TYR        -0.3942
     63 CB          2.5000    4.7180   35.1830 C.3       1 TYR         0.0163
     64 CG          2.2340    3.3210   35.6840 C.ar      1 TYR        -0.0493
     65 CD1         3.1760    2.6510   36.4520 C.ar      1 TYR        -0.0685
     66 CD2         1.0380    2.6790   35.4020 C.ar      1 TYR        -0.0685
     67 CE1         2.9380    1.3690   36.9230 C.ar      1 TYR        -0.0398
     68 CE2         0.7900    1.3900   35.8700 C.ar      1 TYR        -0.0398
     69 CZ          1.7450    0.7460   36.6300 C.ar      1 TYR         0.0805
     70 OH          1.5050   -0.5290   37.0960 O.3       1 TYR        -0.3376
     71 N           2.3150    4.4490   32.0500 N.am      1 GLU        -0.2635
     72 CA          1.7470    3.6350   30.9830 C.3       1 GLU         0.1325
     73 C           2.4930    3.8510   29.6690 C.2       1 GLU         0.2040
     74 O           2.6030    4.9820   29.1790 O.2       1 GLU        -0.3944
     75 CB          0.2430    3.8700   30.8340 C.3       1 GLU        -0.0008
     76 CG         -0.5870    3.2820   31.9810 C.3       1 GLU         0.0044
     77 CD         -0.4980    1.7620   32.0680 C.2       1 GLU         0.0350
     78 OE1        -0.1660    1.1180   31.0520 O.co2     1 GLU        -0.5690
     79 OE2        -0.7620    1.2090   33.1560 O.co2     1 GLU        -0.5690
     80 N           3.0220    2.7590   29.1220 N.am      1 VAL        -0.2635
     81 CA          3.5670    2.7000   27.7730 C.3       1 VAL         0.1333
     82 C           2.7840    1.6250   27.0360 C.2       1 VAL         0.2042
     83 O           2.6340    0.5070   27.5420 O.2       1 VAL        -0.3944
     84 CB          5.0650    2.3440   27.7860 C.3       1 VAL        -0.0063
     85 CG1         5.6360    2.3400   26.3690 C.3       1 VAL        -0.0584
     86 CG2         5.8370    3.2930   28.6850 C.3       1 VAL        -0.0584
     87 N           2.2810    1.9580   25.8530 N.am      1 HIS        -0.2625
     88 CA          1.4850    0.9940   25.1070 C.3       1 HIS         0.1369
     89 C           2.3540   -0.1730   24.6490 C.2       1 HIS         0.2049
     90 O           3.5180    0.0010   24.2740 O.2       1 HIS        -0.3943
     91 CB          0.7730    1.6820   23.9390 C.3       1 HIS         0.0145
     92 CG         -0.3340    2.5960   24.3730 C.2       1 HIS        -0.0027
     93 ND1        -0.9760    3.4580   23.5100 N.2       1 HIS        -0.3252
     94 CD2        -0.9150    2.7770   25.5840 C.2       1 HIS         0.0291
     95 CE1        -1.9030    4.1310   24.1700 C.2       1 HIS         0.0907
     96 NE2        -1.8860    3.7360   25.4300 N.pl3     1 HIS        -0.2752
     97 N           1.7930   -1.3760   24.7270 N.am      1 HIS        -0.2681
     98 CA          2.5420   -2.6000   24.4610 C.3       1 HIS         0.1004
     99 C           1.6020   -3.7280   24.0590 C.2       1 HIS         0.0615
    100 O           0.3960   -3.6480   24.2920 O.co2     1 HIS        -0.5665
    101 CB          3.3340   -3.0110   25.7030 C.3       1 HIS         0.0090
    102 CG          2.4960   -3.1320   26.9380 C.2       1 HIS        -0.0033
    103 ND1         2.1850   -2.0510   27.7360 N.2       1 HIS        -0.3253
    104 CD2         1.9050   -4.2060   27.5140 C.2       1 HIS         0.0291
    105 CE1         1.4400   -2.4550   28.7510 C.2       1 HIS         0.0907
    106 NE2         1.2540   -3.7580   28.6390 N.pl3     1 HIS        -0.2752
    107 OXT         2.0380   -4.7320   23.4970 O.co2     1 HIS        -0.5665
    108 H1          3.3477   15.8391   26.3858 H         1 PCA         0.1883
    109 H2          2.9378   17.2791   24.3040 H         1 PCA         0.0801
    110 H3          2.6400   19.4712   24.8029 H         1 PCA         0.0337
    111 H4          4.4241   19.6130   24.9556 H         1 PCA         0.0337
    112 H5          2.4789   19.8352   27.0645 H         1 PCA         0.0505
    113 H6          4.2655   19.7771   27.2419 H         1 PCA         0.0505
    114 H7          5.5318   16.1384   26.1519 H         1 PHE         0.1885
    115 H8          7.5054   16.8893   24.0383 H         1 PHE         0.0823
    116 H9          9.2475   16.8526   25.7466 H         1 PHE         0.0474
    117 H10         8.0631   16.3139   26.9850 H         1 PHE         0.0474
    118 H11         9.0136   19.1335   24.7686 H         1 PHE         0.0557
    119 H12         6.7279   17.8775   28.1364 H         1 PHE         0.0557
    120 H13         8.5334   21.4796   25.3333 H         1 PHE         0.0599
    121 H14         6.2265   20.2177   28.6778 H         1 PHE         0.0599
    122 H15         7.1164   22.0266   27.2597 H         1 PHE         0.0559
    123 H16         6.8104   14.3649   26.4742 H         1 ARG         0.1883
    124 H17         7.9606   12.2626   24.6757 H         1 ARG         0.0800
    125 H18         8.7338   11.1866   26.8809 H         1 ARG         0.0313
    126 H19         8.5489   12.8219   27.6009 H         1 ARG         0.0313
    127 H20        10.3062   13.6777   26.3802 H         1 ARG         0.0301
    128 H21        10.3156   12.2851   25.2456 H         1 ARG         0.0301
    129 H22        11.0263   10.7677   27.0084 H         1 ARG         0.0689
    130 H23        10.8140   12.0415   28.2570 H         1 ARG         0.0689
    131 H24        12.6519   13.0168   26.3231 H         1 ARG         0.2642
    132 H25        14.1435   10.4117   29.0619 H         1 ARG         0.2615
    133 H26        12.3858   10.4553   28.7598 H         1 ARG         0.2615
    134 H27        14.8610   12.9651   26.7035 H         1 ARG         0.2615
    135 H28        15.5388   11.8357   27.9066 H         1 ARG         0.2615
    136 H29         5.8813   11.4143   24.2239 H         1 HIS         0.1885
    137 H30         3.7691   11.7880   26.1199 H         1 HIS         0.0817
    138 H31         3.4440   11.7201   23.6655 H         1 HIS         0.0420
    139 H32         2.3433   10.6238   24.5672 H         1 HIS         0.0420
    140 H33         2.4434    8.0072   23.7725 H         1 HIS         0.0729
    141 H34         5.8770    8.3141   21.2715 H         1 HIS         0.1199
    142 H35         3.9840    6.7798   22.0464 H         1 HIS         0.2361
    143 H36         5.9908    9.0848   25.6473 H         1 ASP         0.1884
    144 H37         4.2082    7.4216   27.3534 H         1 ASP         0.0819
    145 H38         4.7068    6.4772   25.1453 H         1 ASP         0.0478
    146 H39         5.3845    5.4714   26.4703 H         1 ASP         0.0478
    147 H40         5.8631    9.4340   28.5615 H         1 SER         0.1884
    148 H41         8.2145    7.9910   29.5956 H         1 SER         0.0823
    149 H42         8.6114   10.2501   28.8281 H         1 SER         0.0606
    150 H43         8.7651   10.2292   30.6177 H         1 SER         0.0606
    151 H44         6.4564   11.0289   29.1449 H         1 SER         0.2097
    152 H45         5.0189    8.2783   30.5550 H         1 GLY         0.1881
    153 H46         3.9968    8.4828   32.6719 H         1 GLY         0.0763
    154 H47         5.6190    8.4249   33.4412 H         1 GLY         0.0763
    155 H48         3.2014    6.9068   34.0881 H         1 TYR         0.1885
    156 H49         4.5187    4.4035   34.5247 H         1 TYR         0.0821
    157 H50         1.5650    5.1182   34.7640 H         1 TYR         0.0453
    158 H51         2.8138    5.3368   36.0365 H         1 TYR         0.0453
    159 H52         4.1148    3.1389   36.6879 H         1 TYR         0.0530
    160 H53         0.2855    3.1866   34.8094 H         1 TYR         0.0530
    161 H54         3.6868    0.8596   37.5187 H         1 TYR         0.0525
    162 H55        -0.1470    0.8964   35.6386 H         1 TYR         0.0525
    163 H56         2.2543   -0.8278   37.5979 H         1 TYR         0.2458
    164 H57         2.0293    5.4028   32.1432 H         1 GLU         0.1883
    165 H58         1.8841    2.5811   31.2666 H         1 GLU         0.0801
    166 H59        -0.0894    3.4087   29.8923 H         1 GLU         0.0330
    167 H60         0.0627    4.9544   30.7948 H         1 GLU         0.0330
    168 H61        -1.6399    3.5626   31.8305 H         1 GLU         0.0433
    169 H62        -0.2257    3.7083   32.9285 H         1 GLU         0.0433
    170 H63         3.0468    1.9250   29.6732 H         1 VAL         0.1883
    171 H64         3.4331    3.6718   27.2754 H         1 VAL         0.0802
    172 H65         5.1695    1.3286   28.1960 H         1 VAL         0.0343
    173 H66         6.7050    2.0834   26.4052 H         1 VAL         0.0234
    174 H67         5.5133    3.3373   25.9214 H         1 VAL         0.0234
    175 H68         5.1009    1.5964   25.7601 H         1 VAL         0.0234
    176 H69         5.4038    3.2743   29.6959 H         1 VAL         0.0234
    177 H70         5.7764    4.3135   28.2790 H         1 VAL         0.0234
    178 H71         6.8901    2.9788   28.7316 H         1 VAL         0.0234
    179 H72         2.4486    2.8687   25.4755 H         1 HIS         0.1885
    180 H73         0.7134    0.5930   25.7807 H         1 HIS         0.0817
    181 H74         0.3488    0.9070   23.2836 H         1 HIS         0.0420
    182 H75         1.5128    2.2719   23.3781 H         1 HIS         0.0420
    183 H76        -0.6595    2.2587   26.5070 H         1 HIS         0.0729
    184 H77        -2.5674    4.8829   23.7467 H         1 HIS         0.1199
    185 H78        -2.5013    4.0898   26.1764 H         1 HIS         0.2361
    186 H79         0.8269   -1.4442   24.9759 H         1 HIS         0.1877
    187 H80         3.2444   -2.4120   23.6356 H         1 HIS         0.0743
    188 H81         4.1126   -2.2554   25.8843 H         1 HIS         0.0413
    189 H82         3.8065   -3.9848   25.5071 H         1 HIS         0.0413
    190 H83         1.9391   -5.2329   27.1532 H         1 HIS         0.0729
    191 H84         1.0466   -1.8212   29.5444 H         1 HIS         0.1199
    192 H85         0.7098   -4.3432   29.2888 H         1 HIS         0.2361
@<TRIPOS>BOND
     1    1    2 1  
     2    1    5 am 
     3    2    3 1  
     4    2    7 1  
     5    3    4 1  
     6    4    5 1  
     7    5    6 2  
     8    7    8 2  
     9    7    9 am 
    10    9   10 1  
    11   10   11 1  
    12   10   13 1  
    13   11   12 2  
    14   11   20 am 
    15   13   14 1  
    16   14   15 ar 
    17   14   16 ar 
    18   15   17 ar 
    19   16   18 ar 
    20   17   19 ar 
    21   18   19 ar 
    22   20   21 1  
    23   21   22 1  
    24   21   24 1  
    25   22   23 2  
    26   22   31 am 
    27   24   25 1  
    28   25   26 1  
    29   26   27 1  
    30   27   28 ar 
    31   28   29 ar 
    32   28   30 ar 
    33   31   32 1  
    34   32   33 1  
    35   32   35 1  
    36   33   34 2  
    37   33   41 am 
    38   35   36 1  
    39   36   37 1  
    40   36   38 2  
    41   37   39 2  
    42   38   40 1  
    43   39   40 1  
    44   41   42 1  
    45   42   43 1  
    46   42   45 1  
    47   43   44 2  
    48   43   49 am 
    49   45   46 1  
    50   46   47 ar 
    51   46   48 ar 
    52   49   50 1  
    53   50   51 1  
    54   50   53 1  
    55   51   52 2  
    56   51   55 am 
    57   53   54 1  
    58   55   56 1  
    59   56   57 1  
    60   57   58 2  
    61   57   59 am 
    62   59   60 1  
    63   60   61 1  
    64   60   63 1  
    65   61   62 2  
    66   61   71 am 
    67   63   64 1  
    68   64   65 ar 
    69   64   66 ar 
    70   65   67 ar 
    71   66   68 ar 
    72   67   69 ar 
    73   68   69 ar 
    74   69   70 1  
    75   71   72 1  
    76   72   73 1  
    77   72   75 1  
    78   73   74 2  
    79   73   80 am 
    80   75   76 1  
    81   76   77 1  
    82   77   78 ar 
    83   77   79 ar 
    84   80   81 1  
    85   81   82 1  
    86   81   84 1  
    87   82   83 2  
    88   82   87 am 
    89   84   85 1  
    90   84   86 1  
    91   87   88 1  
    92   88   89 1  
    93   88   91 1  
    94   89   90 2  
    95   89   97 am 
    96   91   92 1  
    97   92   93 1  
    98   92   94 2  
    99   93   95 2  
   100   94   96 1  
   101   95   96 1  
   102   97   98 1  
   103   98   99 1  
   104   98  101 1  
   105   99  100 ar 
   106   99  107 ar 
   107  101  102 1  
   108  102  103 1  
   109  102  104 2  
   110  103  105 2  
   111  104  106 1  
   112  105  106 1  
   113    1  108 1  
   114    2  109 1  
   115    3  110 1  
   116    3  111 1  
   117    4  112 1  
   118    4  113 1  
   119    9  114 1  
   120   10  115 1  
   121   13  116 1  
   122   13  117 1  
   123   15  118 1  
   124   16  119 1  
   125   17  120 1  
   126   18  121 1  
   127   19  122 1  
   128   20  123 1  
   129   21  124 1  
   130   24  125 1  
   131   24  126 1  
   132   25  127 1  
   133   25  128 1  
   134   26  129 1  
   135   26  130 1  
   136   27  131 1  
   137   29  132 1  
   138   29  133 1  
   139   30  134 1  
   140   30  135 1  
   141   31  136 1  
   142   32  137 1  
   143   35  138 1  
   144   35  139 1  
   145   38  140 1  
   146   39  141 1  
   147   40  142 1  
   148   41  143 1  
   149   42  144 1  
   150   45  145 1  
   151   45  146 1  
   152   49  147 1  
   153   50  148 1  
   154   53  149 1  
   155   53  150 1  
   156   54  151 1  
   157   55  152 1  
   158   56  153 1  
   159   56  154 1  
   160   59  155 1  
   161   60  156 1  
   162   63  157 1  
   163   63  158 1  
   164   65  159 1  
   165   66  160 1  
   166   67  161 1  
   167   68  162 1  
   168   70  163 1  
   169   71  164 1  
   170   72  165 1  
   171   75  166 1  
   172   75  167 1  
   173   76  168 1  
   174   76  169 1  
   175   80  170 1  
   176   81  171 1  
   177   84  172 1  
   178   85  173 1  
   179   85  174 1  
   180   85  175 1  
   181   86  176 1  
   182   86  177 1  
   183   86  178 1  
   184   87  179 1  
   185   88  180 1  
   186   91  181 1  
   187   91  182 1  
   188   94  183 1  
   189   95  184 1  
   190   96  185 1  
   191   97  186 1  
   192   98  187 1  
   193  101  188 1  
   194  101  189 1  
   195  104  190 1  
   196  105  191 1  
   197  106  192 1  
@<TRIPOS>SUBSTRUCTURE
     1 PCA         1

