5myx_ligand
  -I-interpret- 

191196  0  0  0  0  0  0  0  0999 V2000
    3.4190   16.8310   26.2810 N   0  0  0  0  0
    3.6720   17.5820   25.0650 C   0  0  0  0  0
    3.5310   19.0830   25.3180 C   0  0  0  0  0
    3.3880   19.2670   26.8180 C   0  0  0  0  0
    3.2930   17.8460   27.3100 C   0  0  0  0  0
    3.0790   17.5730   28.4880 O   0  0  0  0  0
    5.0800   17.2840   24.5440 C   0  0  0  0  0
    5.4100   17.7140   23.4350 O   0  0  0  0  0
    5.8950   16.5520   25.3170 N   0  0  0  0  0
    7.3070   16.3410   24.9710 C   0  0  0  0  0
    7.6830   14.8800   24.7380 C   0  0  0  0  0
    8.3010   14.5460   23.7100 O   0  0  0  0  0
    8.2000   16.9180   26.0760 C   0  0  0  0  0
    7.8960   18.3450   26.4060 C   0  0  0  0  0
    8.3990   19.3650   25.6310 C   0  0  0  0  0
    7.1200   18.6690   27.5080 C   0  0  0  0  0
    8.1250   20.6840   25.9460 C   0  0  0  0  0
    6.8400   19.9810   27.8160 C   0  0  0  0  0
    7.3410   20.9920   27.0270 C   0  0  0  0  0
    7.3320   14.0130   25.6970 N   0  0  0  0  0
    7.6610   12.5780   25.6860 C   0  0  0  0  0
    6.4040   11.8420   26.1350 C   0  0  0  0  0
    6.2260   11.6060   27.3350 O   0  0  0  0  0
    8.7690   12.2670   26.6770 C   0  0  0  0  0
   10.1420   12.5940   26.2870 C   0  0  0  0  0
   11.1000   11.8460   27.2130 C   0  0  0  0  0
   12.4740   12.2720   27.0120 N   0  0  0  0  0
   13.5130   11.7640   27.6580 C   0  0  0  0  0
   13.3340   10.8050   28.5610 N   0  0  0  0  0
   14.7270   12.2220   27.4040 N   0  0  0  0  0
    5.5790   11.4260   25.1770 N   0  0  0  0  0
    4.2310   10.9870   25.5240 C   0  0  0  0  0
    4.2210    9.7240   26.3790 C   0  0  0  0  0
    3.2990    9.5370   27.1790 O   0  0  0  0  0
    3.3860   10.7990   24.2640 C   0  0  0  0  0
    3.8290    9.6550   23.4140 C   0  0  0  0  0
    4.9380    9.7180   22.6010 N   0  0  0  0  0
    3.3210    8.4100   23.2690 C   0  0  0  0  0
    5.0880    8.5590   21.9810 C   0  0  0  0  0
    4.1190    7.7490   22.3680 N   0  0  0  0  0
    5.2190    8.8520   26.2390 N   0  0  0  0  0
    5.2130    7.5640   26.9290 C   0  0  0  0  0
    6.2090    7.5090   28.0870 C   0  0  0  0  0
    6.7720    6.4540   28.3760 O   0  0  0  0  0
    5.4670    6.4310   25.9390 C   0  0  0  0  0
    6.8250    6.5200   25.3120 C   0  0  0  0  0
    7.4500    7.6020   25.3690 O   0  0  0  0  0
    7.2850    5.4920   24.7710 O   0  0  0  0  0
    6.4210    8.6310   28.7710 N   0  0  0  0  0
    7.4340    8.7350   29.8130 C   0  0  0  0  0
    6.9010    8.4510   31.2160 C   0  0  0  0  0
    7.6920    8.4110   32.1670 O   0  0  0  0  0
    8.0660   10.1240   29.7750 C   0  0  0  0  0
    7.0600   11.1180   29.8730 O   0  0  0  0  0
    5.6020    8.2520   31.3670 N   0  0  0  0  0
    4.9840    7.9980   32.6510 C   0  0  0  0  0
    4.8070    6.5190   32.9130 C   0  0  0  0  0
    5.5460    5.6800   32.3840 O   0  0  0  0  0
    3.8040    6.1930   33.7310 N   0  0  0  0  0
    3.5820    4.8010   34.1070 C   0  0  0  0  0
    3.2030    3.9510   32.9000 C   0  0  0  0  0
    3.7160    2.8390   32.7300 O   0  0  0  0  0
    2.5000    4.7180   35.1830 C   0  0  0  0  0
    2.2340    3.3210   35.6840 C   0  0  0  0  0
    3.1760    2.6510   36.4520 C   0  0  0  0  0
    1.0380    2.6790   35.4020 C   0  0  0  0  0
    2.9380    1.3690   36.9230 C   0  0  0  0  0
    0.7900    1.3900   35.8700 C   0  0  0  0  0
    1.7450    0.7460   36.6300 C   0  0  0  0  0
    1.5050   -0.5290   37.0960 O   0  0  0  0  0
    2.3150    4.4490   32.0500 N   0  0  0  0  0
    1.7470    3.6350   30.9830 C   0  0  0  0  0
    2.4930    3.8510   29.6690 C   0  0  0  0  0
    2.6030    4.9820   29.1790 O   0  0  0  0  0
    0.2430    3.8700   30.8340 C   0  0  0  0  0
   -0.5870    3.2820   31.9810 C   0  0  0  0  0
   -0.4980    1.7620   32.0680 C   0  0  0  0  0
   -0.1660    1.1180   31.0520 O   0  0  0  0  0
   -0.7620    1.2090   33.1560 O   0  0  0  0  0
    3.0220    2.7590   29.1220 N   0  0  0  0  0
    3.5670    2.7000   27.7730 C   0  0  0  0  0
    2.7840    1.6250   27.0360 C   0  0  0  0  0
    2.6340    0.5070   27.5420 O   0  0  0  0  0
    5.0650    2.3440   27.7860 C   0  0  0  0  0
    5.6360    2.3400   26.3690 C   0  0  0  0  0
    5.8370    3.2930   28.6850 C   0  0  0  0  0
    2.2810    1.9580   25.8530 N   0  0  0  0  0
    1.4850    0.9940   25.1070 C   0  0  0  0  0
    2.3540   -0.1730   24.6490 C   0  0  0  0  0
    3.5180    0.0010   24.2740 O   0  0  0  0  0
    0.7730    1.6820   23.9390 C   0  0  0  0  0
   -0.3340    2.5960   24.3730 C   0  0  0  0  0
   -0.9760    3.4580   23.5100 N   0  0  0  0  0
   -0.9150    2.7770   25.5840 C   0  0  0  0  0
   -1.9030    4.1310   24.1700 C   0  0  0  0  0
   -1.8860    3.7360   25.4300 N   0  0  0  0  0
    1.7930   -1.3760   24.7270 N   0  0  0  0  0
    2.5420   -2.6000   24.4610 C   0  0  0  0  0
    1.6020   -3.7280   24.0590 C   0  0  0  0  0
    0.3960   -3.6480   24.2920 O   0  0  0  0  0
    3.3340   -3.0110   25.7030 C   0  0  0  0  0
    2.4960   -3.1320   26.9380 C   0  0  0  0  0
    2.1850   -2.0510   27.7360 N   0  0  0  0  0
    1.9050   -4.2060   27.5140 C   0  0  0  0  0
    1.4400   -2.4550   28.7510 C   0  0  0  0  0
    1.2540   -3.7580   28.6390 N   0  0  0  0  0
    2.0380   -4.7320   23.4970 O   0  0  0  0  0
    3.3463   15.8192   26.3879 H   0  0  0  0  0
    2.9371   17.2786   24.3194 H   0  0  0  0  0
    2.6622   19.4829   24.7952 H   0  0  0  0  0
    4.4020   19.6212   24.9441 H   0  0  0  0  0
    2.5263   19.8745   27.0947 H   0  0  0  0  0
    4.2157   19.8196   27.2625 H   0  0  0  0  0
    5.5245   16.1301   26.1686 H   0  0  0  0  0
    7.4633   16.8566   24.0234 H   0  0  0  0  0
    9.2293   16.8766   25.7199 H   0  0  0  0  0
    8.0269   16.3297   26.9771 H   0  0  0  0  0
    9.0170   19.1323   24.7638 H   0  0  0  0  0
    6.7258   17.8731   28.1399 H   0  0  0  0  0
    8.5357   21.4840   25.3299 H   0  0  0  0  0
    6.2231   20.2190   28.6825 H   0  0  0  0  0
    7.1151   22.0323   27.2610 H   0  0  0  0  0
    6.7999   14.3719   26.4898 H   0  0  0  0  0
    7.9928   12.2790   24.6917 H   0  0  0  0  0
    8.7516   11.1846   26.8039 H   0  0  0  0  0
    8.5596   12.8828   27.5516 H   0  0  0  0  0
   10.3067   13.6683   26.3703 H   0  0  0  0  0
   10.3159   12.2967   25.2528 H   0  0  0  0  0
   11.0326   10.7806   26.9926 H   0  0  0  0  0
   10.8197   12.0581   28.2448 H   0  0  0  0  0
   12.6502   13.0095   26.3298 H   0  0  0  0  0
   14.1350   10.4195   29.0611 H   0  0  0  0  0
   12.3956   10.4547   28.7537 H   0  0  0  0  0
   14.8590   12.9619   26.7144 H   0  0  0  0  0
    5.8874   11.4140   24.2048 H   0  0  0  0  0
    3.7890   11.7760   26.1324 H   0  0  0  0  0
    3.4817   11.7062   23.6674 H   0  0  0  0  0
    2.3642   10.5932   24.5829 H   0  0  0  0  0
    2.4426    8.0068   23.7730 H   0  0  0  0  0
    5.8777    8.3139   21.2708 H   0  0  0  0  0
    6.0062    9.0895   25.6355 H   0  0  0  0  0
    4.2225    7.4400   27.3667 H   0  0  0  0  0
    4.7224    6.5006   25.1460 H   0  0  0  0  0
    5.4052    5.4873   26.4809 H   0  0  0  0  0
    6.9149    8.2557   25.8251 H   0  0  0  0  0
    5.8520    9.4501   28.5573 H   0  0  0  0  0
    8.1769    7.9656   29.6026 H   0  0  0  0  0
    8.6020   10.2482   28.8341 H   0  0  0  0  0
    8.7548   10.2274   30.6135 H   0  0  0  0  0
    7.4670   11.9871   29.8482 H   0  0  0  0  0
    5.0072    8.2788   30.5388 H   0  0  0  0  0
    3.9988    8.4644   32.6529 H   0  0  0  0  0
    5.6313    8.4062   33.4272 H   0  0  0  0  0
    3.1894    6.9210   34.0952 H   0  0  0  0  0
    4.5148    4.4043   34.5077 H   0  0  0  0  0
    1.5742    5.0820   34.7374 H   0  0  0  0  0
    2.8463    5.3047   36.0338 H   0  0  0  0  0
    4.1200    3.1416   36.6892 H   0  0  0  0  0
    0.2814    3.1894   34.8061 H   0  0  0  0  0
    3.6910    0.8568   37.5220 H   0  0  0  0  0
   -0.1521    0.8937   35.6373 H   0  0  0  0  0
    0.6359   -0.8160   36.8064 H   0  0  0  0  0
    2.0236    5.4219   32.1451 H   0  0  0  0  0
    1.8754    2.5887   31.2601 H   0  0  0  0  0
   -0.0751    3.3779   29.9149 H   0  0  0  0  0
    0.0794    4.9476   30.8314 H   0  0  0  0  0
   -1.6301    3.5424   31.8016 H   0  0  0  0  0
   -0.1976    3.6899   32.9138 H   0  0  0  0  0
   -0.9931    1.8771   33.8055 H   0  0  0  0  0
    3.0473    1.9083   29.6842 H   0  0  0  0  0
    3.4765    3.6710   27.2861 H   0  0  0  0  0
    5.1718    1.3378   28.1912 H   0  0  0  0  0
    5.1050    1.6028   25.7668 H   0  0  0  0  0
    5.5137    3.3286   25.9266 H   0  0  0  0  0
    6.6953    2.0857   26.4062 H   0  0  0  0  0
    5.7209    4.3132   28.3192 H   0  0  0  0  0
    5.4500    3.2239   29.7016 H   0  0  0  0  0
    6.8924    3.0208   28.6774 H   0  0  0  0  0
    2.4519    2.8869   25.4679 H   0  0  0  0  0
    0.7137    0.5838   25.7589 H   0  0  0  0  0
    0.3317    0.9027   23.3177 H   0  0  0  0  0
    1.5120    2.2868   23.4134 H   0  0  0  0  0
   -0.6593    2.2582   26.5079 H   0  0  0  0  0
   -2.5680    4.8836   23.7464 H   0  0  0  0  0
    0.8076   -1.4456   24.9809 H   0  0  0  0  0
    3.2316   -2.4075   23.6391 H   0  0  0  0  0
    0.2105   -2.8143   24.7303 H   0  0  0  0  0
    4.0767   -2.2349   25.8877 H   0  0  0  0  0
    3.7658   -3.9920   25.5045 H   0  0  0  0  0
    1.9392   -5.2339   27.1529 H   0  0  0  0  0
    1.0463   -1.8207   29.5452 H   0  0  0  0  0
  1  2  1  0  0  0
  1  5  1  0  0  0
  2  3  1  0  0  0
  2  7  1  0  0  0
  3  4  1  0  0  0
  4  5  1  0  0  0
  5  6  2  0  0  0
  7  8  2  0  0  0
  7  9  1  0  0  0
  9 10  1  0  0  0
 10 11  1  0  0  0
 10 13  1  0  0  0
 11 12  2  0  0  0
 11 20  1  0  0  0
 13 14  1  0  0  0
 14 15  4  0  0  0
 14 16  4  0  0  0
 15 17  4  0  0  0
 16 18  4  0  0  0
 17 19  4  0  0  0
 18 19  4  0  0  0
 20 21  1  0  0  0
 21 22  1  0  0  0
 21 24  1  0  0  0
 22 23  2  0  0  0
 22 31  1  0  0  0
 24 25  1  0  0  0
 25 26  1  0  0  0
 26 27  1  0  0  0
 27 28  1  0  0  0
 28 29  1  0  0  0
 28 30  2  0  0  0
 31 32  1  0  0  0
 32 33  1  0  0  0
 32 35  1  0  0  0
 33 34  2  0  0  0
 33 41  1  0  0  0
 35 36  1  0  0  0
 36 37  4  0  0  0
 36 38  4  0  0  0
 37 39  4  0  0  0
 38 40  4  0  0  0
 39 40  4  0  0  0
 41 42  1  0  0  0
 42 43  1  0  0  0
 42 45  1  0  0  0
 43 44  2  0  0  0
 43 49  1  0  0  0
 45 46  1  0  0  0
 46 47  1  0  0  0
 46 48  2  0  0  0
 49 50  1  0  0  0
 50 51  1  0  0  0
 50 53  1  0  0  0
 51 52  2  0  0  0
 51 55  1  0  0  0
 53 54  1  0  0  0
 55 56  1  0  0  0
 56 57  1  0  0  0
 57 58  2  0  0  0
 57 59  1  0  0  0
 59 60  1  0  0  0
 60 61  1  0  0  0
 60 63  1  0  0  0
 61 62  2  0  0  0
 61 71  1  0  0  0
 63 64  1  0  0  0
 64 65  4  0  0  0
 64 66  4  0  0  0
 65 67  4  0  0  0
 66 68  4  0  0  0
 67 69  4  0  0  0
 68 69  4  0  0  0
 69 70  1  0  0  0
 71 72  1  0  0  0
 72 73  1  0  0  0
 72 75  1  0  0  0
 73 74  2  0  0  0
 73 80  1  0  0  0
 75 76  1  0  0  0
 76 77  1  0  0  0
 77 78  2  0  0  0
 77 79  1  0  0  0
 80 81  1  0  0  0
 81 82  1  0  0  0
 81 84  1  0  0  0
 82 83  2  0  0  0
 82 87  1  0  0  0
 84 85  1  0  0  0
 84 86  1  0  0  0
 87 88  1  0  0  0
 88 89  1  0  0  0
 88 91  1  0  0  0
 89 90  2  0  0  0
 89 97  1  0  0  0
 91 92  1  0  0  0
 92 93  4  0  0  0
 92 94  4  0  0  0
 93 95  4  0  0  0
 94 96  4  0  0  0
 95 96  4  0  0  0
 97 98  1  0  0  0
 98 99  1  0  0  0
 98101  1  0  0  0
 99100  1  0  0  0
 99107  2  0  0  0
101102  1  0  0  0
102103  4  0  0  0
102104  4  0  0  0
103105  4  0  0  0
104106  4  0  0  0
105106  4  0  0  0
  1108  1  0  0  0
  2109  1  0  0  0
  3110  1  0  0  0
  3111  1  0  0  0
  4112  1  0  0  0
  4113  1  0  0  0
  9114  1  0  0  0
 10115  1  0  0  0
 13116  1  0  0  0
 13117  1  0  0  0
 15118  1  0  0  0
 16119  1  0  0  0
 17120  1  0  0  0
 18121  1  0  0  0
 19122  1  0  0  0
 20123  1  0  0  0
 21124  1  0  0  0
 24125  1  0  0  0
 24126  1  0  0  0
 25127  1  0  0  0
 25128  1  0  0  0
 26129  1  0  0  0
 26130  1  0  0  0
 27131  1  0  0  0
 29132  1  0  0  0
 29133  1  0  0  0
 30134  1  0  0  0
 31135  1  0  0  0
 32136  1  0  0  0
 35137  1  0  0  0
 35138  1  0  0  0
 38139  1  0  0  0
 39140  1  0  0  0
 41141  1  0  0  0
 42142  1  0  0  0
 45143  1  0  0  0
 45144  1  0  0  0
 47145  1  0  0  0
 49146  1  0  0  0
 50147  1  0  0  0
 53148  1  0  0  0
 53149  1  0  0  0
 54150  1  0  0  0
 55151  1  0  0  0
 56152  1  0  0  0
 56153  1  0  0  0
 59154  1  0  0  0
 60155  1  0  0  0
 63156  1  0  0  0
 63157  1  0  0  0
 65158  1  0  0  0
 66159  1  0  0  0
 67160  1  0  0  0
 68161  1  0  0  0
 70162  1  0  0  0
 71163  1  0  0  0
 72164  1  0  0  0
 75165  1  0  0  0
 75166  1  0  0  0
 76167  1  0  0  0
 76168  1  0  0  0
 79169  1  0  0  0
 80170  1  0  0  0
 81171  1  0  0  0
 84172  1  0  0  0
 85173  1  0  0  0
 85174  1  0  0  0
 85175  1  0  0  0
 86176  1  0  0  0
 86177  1  0  0  0
 86178  1  0  0  0
 87179  1  0  0  0
 88180  1  0  0  0
 91181  1  0  0  0
 91182  1  0  0  0
 94183  1  0  0  0
 95184  1  0  0  0
 97185  1  0  0  0
 98186  1  0  0  0
100187  1  0  0  0
101188  1  0  0  0
101189  1  0  0  0
104190  1  0  0  0
105191  1  0  0  0
M  END
$$$$
