1fpc_ligand
  -I-interpret- 

 73 75  0  0  0  0  0  0  0  0999 V2000
   17.5650  -17.0930   22.3550 C   0  0  0  0  0
   18.3640  -17.0780   21.1800 C   0  0  0  0  0
   19.6660  -16.6580   21.2390 C   0  0  0  0  0
   20.2110  -16.2220   22.4590 C   0  0  0  0  0
   19.4500  -16.2300   23.6240 C   0  0  0  0  0
   19.9740  -15.8220   24.8170 C   0  0  0  0  0
   19.2000  -15.7920   25.9650 C   0  0  0  0  0
   17.8740  -16.2710   25.8910 C   0  0  0  0  0
   17.3140  -16.6790   24.6970 C   0  0  0  0  0
   18.0840  -16.6810   23.5630 C   0  0  0  0  0
   21.2910  -15.3480   24.8670 N   0  0  0  0  0
   21.6710  -13.9230   24.9480 C   0  0  0  0  0
   22.2730  -16.2210   25.8110 C   0  0  0  0  0
   15.7800  -17.6380   22.1970 S   0  0  0  0  0
   15.6560  -18.0790   20.7840 O   0  0  0  0  0
   15.0610  -18.5890   23.1260 O   0  0  0  0  0
   14.6980  -16.2450   22.3190 N   0  0  0  0  0
   14.7870  -15.1650   21.3470 C   0  0  0  0  0
   15.8750  -14.1850   21.7940 C   0  0  0  0  0
   16.1180  -13.9270   22.9870 O   0  0  0  0  0
   13.4540  -14.4560   21.2730 C   0  0  0  0  0
   11.9190  -14.5210   21.3030 C   0  0  0  0  0
   11.4410  -13.1890   21.2000 C   0  0  0  0  0
   10.9800  -12.7740   22.5580 N   0  0  0  0  0
   11.1730  -11.7290   23.3130 C   0  0  0  0  0
   11.8990  -10.7000   22.7900 N   0  0  0  0  0
   10.6820  -11.7010   24.4910 N   0  0  0  0  0
   16.8870  -13.8810   20.8120 N   0  0  0  0  0
   17.8720  -12.8090   21.3660 C   0  0  0  0  0
   19.1770  -12.8640   20.5860 C   0  0  0  0  0
   18.8650  -12.9240   19.0080 C   0  0  0  0  0
   17.7980  -14.0640   18.5390 C   0  0  0  0  0
   16.4600  -13.9480   19.3070 C   0  0  0  0  0
   20.1770  -13.1700   18.4840 C   0  0  0  0  0
   20.3190  -13.0360   16.9390 C   0  0  0  0  0
   17.9395  -17.4015   20.2296 H   0  0  0  0  0
   20.2805  -16.6618   20.3387 H   0  0  0  0  0
   21.2431  -15.8731   22.4930 H   0  0  0  0  0
   19.6042  -15.4084   26.9018 H   0  0  0  0  0
   17.2763  -16.3200   26.8012 H   0  0  0  0  0
   16.2718  -16.9958   24.6565 H   0  0  0  0  0
   21.5822  -13.5827   25.9797 H   0  0  0  0  0
   22.7010  -13.8033   24.6119 H   0  0  0  0  0
   21.0093  -13.3351   24.3119 H   0  0  0  0  0
   23.3023  -16.0986   25.4740 H   0  0  0  0  0
   22.1836  -15.8780   26.8417 H   0  0  0  0  0
   21.9923  -17.2725   25.7510 H   0  0  0  0  0
   14.0107  -16.1981   23.0712 H   0  0  0  0  0
   15.0379  -15.5617   20.3632 H   0  0  0  0  0
   13.5032  -14.3136   20.1935 H   0  0  0  0  0
   13.5324  -14.0411   22.2779 H   0  0  0  0  0
   11.5722  -14.9831   22.2273 H   0  0  0  0  0
   11.5442  -15.1283   20.4791 H   0  0  0  0  0
   10.6211  -13.1316   20.4841 H   0  0  0  0  0
   12.2303  -12.5262   20.8453 H   0  0  0  0  0
   10.3744  -13.4682   22.9960 H   0  0  0  0  0
   12.0696   -9.8620   23.3459 H   0  0  0  0  0
   12.2714  -10.7683   21.8429 H   0  0  0  0  0
   10.1417  -12.4938   24.8373 H   0  0  0  0  0
   18.0705  -13.0091   22.4189 H   0  0  0  0  0
   17.4277  -11.8193   21.2596 H   0  0  0  0  0
   19.7347  -13.7539   20.8778 H   0  0  0  0  0
   19.7656  -11.9728   20.8039 H   0  0  0  0  0
   18.3719  -12.0192   18.6527 H   0  0  0  0  0
   18.2290  -15.0434   18.7469 H   0  0  0  0  0
   17.5963  -13.9285   17.4764 H   0  0  0  0  0
   15.8851  -13.0733   19.0028 H   0  0  0  0  0
   15.7950  -14.7876   19.1047 H   0  0  0  0  0
   20.4199  -14.2039   18.7291 H   0  0  0  0  0
   20.8320  -12.4168   18.9220 H   0  0  0  0  0
   19.6542  -13.7488   16.4511 H   0  0  0  0  0
   20.0521  -12.0231   16.6374 H   0  0  0  0  0
   21.3497  -13.2426   16.6509 H   0  0  0  0  0
 14  1  1  0  0  0
  1 10  4  0  0  0
  1  2  4  0  0  0
  2  3  4  0  0  0
  3  4  4  0  0  0
  5  4  4  0  0  0
 10  5  4  0  0  0
  5  6  4  0  0  0
  6 11  1  0  0  0
  6  7  4  0  0  0
  8  7  4  0  0  0
  9  8  4  0  0  0
 10  9  4  0  0  0
 11 13  1  0  0  0
 11 12  1  0  0  0
 14 16  2  0  0  0
 14 15  2  0  0  0
 19 18  1  0  0  0
 18 21  1  0  0  0
 18 17  1  0  0  0
 21 22  1  0  0  0
 22 23  1  0  0  0
 23 24  1  0  0  0
 24 25  1  0  0  0
 25 26  1  0  0  0
 25 27  2  0  0  0
 19 20  2  0  0  0
 28 33  1  0  0  0
 28 29  1  0  0  0
 29 30  1  0  0  0
 30 31  1  0  0  0
 31 34  1  0  0  0
 32 31  1  0  0  0
 33 32  1  0  0  0
 34 35  1  0  0  0
 17 14  1  0  0  0
 19 28  1  0  0  0
  2 36  1  0  0  0
  3 37  1  0  0  0
  4 38  1  0  0  0
  7 39  1  0  0  0
  8 40  1  0  0  0
  9 41  1  0  0  0
 12 42  1  0  0  0
 12 43  1  0  0  0
 12 44  1  0  0  0
 13 45  1  0  0  0
 13 46  1  0  0  0
 13 47  1  0  0  0
 17 48  1  0  0  0
 18 49  1  0  0  0
 21 50  1  0  0  0
 21 51  1  0  0  0
 22 52  1  0  0  0
 22 53  1  0  0  0
 23 54  1  0  0  0
 23 55  1  0  0  0
 24 56  1  0  0  0
 26 57  1  0  0  0
 26 58  1  0  0  0
 27 59  1  0  0  0
 29 60  1  0  0  0
 29 61  1  0  0  0
 30 62  1  0  0  0
 30 63  1  0  0  0
 31 64  1  0  0  0
 32 65  1  0  0  0
 32 66  1  0  0  0
 33 67  1  0  0  0
 33 68  1  0  0  0
 34 69  1  0  0  0
 34 70  1  0  0  0
 35 71  1  0  0  0
 35 72  1  0  0  0
 35 73  1  0  0  0
M  END
$$$$
