6fe5_ligand
  -I-interpret- 

 41 40  0  0  0  0  0  0  0  0999 V2000
   13.1030   46.9940   39.8140 O   0  0  0  0  0
   13.8640   47.5640   40.6240 C   0  0  0  0  0
   13.8560   48.7940   40.8410 O   0  0  0  0  0
   15.0650   46.7920   41.1590 C   0  0  0  0  0
   14.8010   45.2630   41.3540 C   0  0  0  0  0
   16.1530   44.5590   41.6920 C   0  0  0  0  0
   17.1090   44.6850   40.4570 C   0  0  0  0  0
   16.9800   43.8240   39.5470 O   0  0  0  0  0
   17.9920   45.5850   40.4310 O   0  0  0  0  0
   16.8350   45.2030   42.8170 N   0  0  0  0  0
   18.0990   44.8640   43.1620 C   0  0  0  0  0
   18.5930   43.8100   42.7300 O   0  0  0  0  0
   18.6780   45.6370   44.0590 N   0  0  0  0  0
   20.0620   45.4250   44.5220 C   0  0  0  0  0
   20.2220   46.0070   45.9090 C   0  0  0  0  0
   19.7790   47.1630   46.1180 O   0  0  0  0  0
   20.7420   45.2280   46.7370 O   0  0  0  0  0
   20.9430   46.1700   43.4770 C   0  0  0  0  0
   22.4100   46.2990   43.9050 C   0  0  0  0  0
   23.1790   47.1410   42.8670 C   0  0  0  0  0
   23.0390   44.8840   43.9490 C   0  0  0  0  0
   13.2868   46.0518   39.8126 H   0  0  0  0  0
   15.3064   47.2064   42.1378 H   0  0  0  0  0
   15.8662   46.8915   40.4267 H   0  0  0  0  0
   14.3825   44.8406   40.4404 H   0  0  0  0  0
   14.0916   45.1111   42.1675 H   0  0  0  0  0
   15.9290   43.5226   41.9446 H   0  0  0  0  0
   17.9140   46.1310   41.2168 H   0  0  0  0  0
   16.3472   45.9219   43.3515 H   0  0  0  0  0
   18.1462   46.4149   44.4495 H   0  0  0  0  0
   20.3405   44.3736   44.5933 H   0  0  0  0  0
   19.4372   47.5266   45.2979 H   0  0  0  0  0
   20.5419   47.1773   43.3653 H   0  0  0  0  0
   20.9183   45.5926   42.5528 H   0  0  0  0  0
   22.4649   46.7770   44.8831 H   0  0  0  0  0
   23.1263   46.6526   41.8940 H   0  0  0  0  0
   22.7313   48.1327   42.8019 H   0  0  0  0  0
   24.2210   47.2308   43.1740 H   0  0  0  0  0
   22.4957   44.2684   44.6659 H   0  0  0  0  0
   22.9792   44.4303   42.9597 H   0  0  0  0  0
   24.0831   44.9612   44.2522 H   0  0  0  0  0
  1  2  1  0  0  0
  2  3  2  0  0  0
  2  4  1  0  0  0
  4  5  1  0  0  0
  5  6  1  0  0  0
  6  7  1  0  0  0
  6 10  1  0  0  0
  7  8  2  0  0  0
  7  9  1  0  0  0
 10 11  1  0  0  0
 11 12  2  0  0  0
 11 13  1  0  0  0
 13 14  1  0  0  0
 14 15  1  0  0  0
 14 18  1  0  0  0
 15 16  1  0  0  0
 15 17  2  0  0  0
 18 19  1  0  0  0
 19 20  1  0  0  0
 19 21  1  0  0  0
  1 22  1  0  0  0
  4 23  1  0  0  0
  4 24  1  0  0  0
  5 25  1  0  0  0
  5 26  1  0  0  0
  6 27  1  0  0  0
  9 28  1  0  0  0
 10 29  1  0  0  0
 13 30  1  0  0  0
 14 31  1  0  0  0
 16 32  1  0  0  0
 18 33  1  0  0  0
 18 34  1  0  0  0
 19 35  1  0  0  0
 20 36  1  0  0  0
 20 37  1  0  0  0
 20 38  1  0  0  0
 21 39  1  0  0  0
 21 40  1  0  0  0
 21 41  1  0  0  0
M  END
$$$$
