2r43_ligand
  -I-interpret- 

 75 79  0  0  0  0  0  0  0  0999 V2000
  -14.7450   23.7500   -1.7310 C   0  0  0  0  0
  -13.6670   24.2220   -2.5000 C   0  0  0  0  0
  -13.7640   24.1920   -3.9170 C   0  0  0  0  0
  -14.9510   23.6710   -4.5060 C   0  0  0  0  0
  -16.0300   23.1860   -3.7250 C   0  0  0  0  0
  -15.9300   23.2320   -2.3150 C   0  0  0  0  0
  -17.4600   22.5520   -4.5940 S   0  0  0  0  0
  -18.6040   22.9310   -3.7680 O   0  0  0  0  0
  -17.2910   22.9710   -5.9610 O   0  0  0  0  0
  -17.1540   20.8760   -4.3050 N   0  0  0  0  0
  -17.7290   20.2290   -3.0980 C   0  0  0  0  0
  -19.0190   19.4400   -3.1260 C   0  0  0  0  0
  -19.1290   18.2920   -2.2790 C   0  0  0  0  0
  -20.3230   17.5290   -2.2340 C   0  0  0  0  0
  -21.3980   17.8800   -3.0880 C   0  0  0  0  0
  -21.2870   19.0090   -3.9460 C   0  0  0  0  0
  -20.1010   19.7880   -3.9640 C   0  0  0  0  0
  -16.2480   20.1720   -5.2950 C   0  0  0  0  0
  -14.8920   19.7440   -4.6940 C   0  0  0  0  0
  -14.8090   18.2760   -4.7020 N   0  3  0  0  0
  -16.1220   17.7040   -5.1150 C   0  0  0  0  0
  -16.9180   18.8290   -5.8220 C   0  0  0  0  0
  -16.7490   18.7960   -7.3160 N   0  0  0  0  0
  -15.4620   18.5460   -8.0060 C   0  0  0  0  0
  -14.5810   19.7990   -8.1370 C   0  0  0  0  0
  -13.2100   19.7570   -7.7470 C   0  0  0  0  0
  -12.3640   20.8990   -7.8520 C   0  0  0  0  0
  -12.9090   22.1110   -8.3690 C   0  0  0  0  0
  -14.2780   22.1660   -8.7600 C   0  0  0  0  0
  -15.1140   21.0200   -8.6480 C   0  0  0  0  0
  -18.1070   19.1180   -8.2690 S   0  0  0  0  0
  -19.2780   17.7950   -8.2320 C   0  0  0  0  0
  -19.0610   16.5280   -8.8520 C   0  0  0  0  0
  -20.0550   15.5170   -8.7770 C   0  0  0  0  0
  -21.2950   15.7600   -8.0740 C   0  0  0  0  0
  -21.5230   17.0260   -7.4520 C   0  0  0  0  0
  -20.4990   18.0220   -7.5380 C   0  0  0  0  0
  -17.6280   19.1870   -9.6680 O   0  0  0  0  0
  -18.8090   20.2830   -7.6770 O   0  0  0  0  0
  -22.2450   14.8010   -7.9900 N   0  0  0  0  0
  -12.5570   24.7170   -1.9050 N   0  0  0  0  0
  -14.6676   23.7832   -0.6443 H   0  0  0  0  0
  -12.9481   24.5596   -4.5393 H   0  0  0  0  0
  -15.0326   23.6442   -5.5926 H   0  0  0  0  0
  -16.7480   22.8762   -1.6886 H   0  0  0  0  0
  -17.9673   21.0738   -2.4518 H   0  0  0  0  0
  -16.9829   19.4780   -2.8382 H   0  0  0  0  0
  -18.2817   17.9996   -1.6588 H   0  0  0  0  0
  -20.4129   16.6837   -1.5517 H   0  0  0  0  0
  -22.3108   17.2842   -3.0874 H   0  0  0  0  0
  -22.1201   19.2782   -4.5953 H   0  0  0  0  0
  -20.0254   20.6529   -4.6231 H   0  0  0  0  0
  -16.0913   20.9039   -6.0874 H   0  0  0  0  0
  -14.8099   20.1119   -3.6713 H   0  0  0  0  0
  -14.0782   20.1621   -5.2864 H   0  0  0  0  0
  -14.5738   17.9445   -3.7665 H   0  0  0  0  0
  -14.0882   17.9806   -5.3604 H   0  0  0  0  0
  -16.6689   17.3383   -4.2459 H   0  0  0  0  0
  -15.9751   16.8597   -5.7886 H   0  0  0  0  0
  -17.9833   18.7313   -5.6128 H   0  0  0  0  0
  -15.6929   18.2017   -9.0141 H   0  0  0  0  0
  -14.9089   17.8179   -7.4127 H   0  0  0  0  0
  -12.7978   18.8259   -7.3579 H   0  0  0  0  0
  -11.3200   20.8470   -7.5429 H   0  0  0  0  0
  -12.2786   22.9950   -8.4650 H   0  0  0  0  0
  -14.6898   23.0970   -9.1495 H   0  0  0  0  0
  -16.1593   21.0747   -8.9519 H   0  0  0  0  0
  -18.1296   16.3360   -9.3846 H   0  0  0  0  0
  -19.8823   14.5515   -9.2524 H   0  0  0  0  0
  -22.4551   17.2284   -6.9244 H   0  0  0  0  0
  -20.6598   18.9863   -7.0559 H   0  0  0  0  0
  -22.0917   13.8917   -8.4259 H   0  0  0  0  0
  -23.1148   14.9871   -7.4907 H   0  0  0  0  0
  -12.4958   24.7507   -0.8874 H   0  0  0  0  0
  -11.7816   25.0564   -2.4741 H   0  0  0  0  0
  1  2  4  0  0  0
  1  6  4  0  0  0
  2  3  4  0  0  0
  2 41  1  0  0  0
  3  4  4  0  0  0
  4  5  4  0  0  0
  5  6  4  0  0  0
  5  7  1  0  0  0
  7  8  2  0  0  0
  7  9  2  0  0  0
  7 10  1  0  0  0
 10 11  1  0  0  0
 10 18  1  0  0  0
 11 12  1  0  0  0
 12 13  4  0  0  0
 12 17  4  0  0  0
 13 14  4  0  0  0
 14 15  4  0  0  0
 15 16  4  0  0  0
 16 17  4  0  0  0
 18 19  1  0  0  0
 18 22  1  0  0  0
 19 20  1  0  0  0
 20 21  1  0  0  0
 21 22  1  0  0  0
 22 23  1  0  0  0
 23 24  1  0  0  0
 23 31  1  0  0  0
 24 25  1  0  0  0
 25 26  4  0  0  0
 25 30  4  0  0  0
 26 27  4  0  0  0
 27 28  4  0  0  0
 28 29  4  0  0  0
 29 30  4  0  0  0
 31 32  1  0  0  0
 31 38  2  0  0  0
 31 39  2  0  0  0
 32 33  4  0  0  0
 32 37  4  0  0  0
 33 34  4  0  0  0
 34 35  4  0  0  0
 35 36  4  0  0  0
 35 40  1  0  0  0
 36 37  4  0  0  0
  1 42  1  0  0  0
  3 43  1  0  0  0
  4 44  1  0  0  0
  6 45  1  0  0  0
 11 46  1  0  0  0
 11 47  1  0  0  0
 13 48  1  0  0  0
 14 49  1  0  0  0
 15 50  1  0  0  0
 16 51  1  0  0  0
 17 52  1  0  0  0
 18 53  1  0  0  0
 19 54  1  0  0  0
 19 55  1  0  0  0
 20 56  1  0  0  0
 20 57  1  0  0  0
 21 58  1  0  0  0
 21 59  1  0  0  0
 22 60  1  0  0  0
 24 61  1  0  0  0
 24 62  1  0  0  0
 26 63  1  0  0  0
 27 64  1  0  0  0
 28 65  1  0  0  0
 29 66  1  0  0  0
 30 67  1  0  0  0
 33 68  1  0  0  0
 34 69  1  0  0  0
 36 70  1  0  0  0
 37 71  1  0  0  0
 40 72  1  0  0  0
 40 73  1  0  0  0
 41 74  1  0  0  0
 41 75  1  0  0  0
M  END
$$$$
