4gm3_ligand
  -I-interpret- 

 97 99  0  0  0  0  0  0  0  0999 V2000
    4.9690   17.5930  -47.3510 C   0  0  0  0  0
    5.2500   17.9520  -48.8260 C   0  0  0  0  0
    5.4670   19.4340  -48.8840 C   0  0  0  0  0
    6.4470   17.1070  -49.3250 C   0  0  0  0  0
    6.7210   16.1780  -48.5880 O   0  0  0  0  0
    8.3630   16.5460  -51.0250 C   0  0  0  0  0
    8.5030   15.2360  -50.0220 C   0  0  0  0  0
    8.2160   16.0190  -52.5050 C   0  0  0  0  0
    7.1660   17.3570  -50.5140 N   0  0  0  0  0
    7.7900   14.2680  -50.2350 O   0  0  0  0  0
    9.6560   17.3280  -50.7880 C   0  0  0  0  0
   10.3790   17.7940  -52.0150 C   0  0  0  0  0
    8.8760   14.7020  -52.9410 C   0  0  0  0  0
    9.3510   15.1950  -48.9050 N   0  0  0  0  0
    9.5500   14.0660  -47.9050 C   0  0  0  0  0
    8.2630   13.1120  -47.6960 C   0  0  0  0  0
    8.4960   11.9340  -47.4330 O   0  0  0  0  0
    9.8500   14.6640  -46.4650 C   0  0  0  0  0
   10.1760   13.6510  -45.3400 C   0  0  0  0  0
   10.5130   14.2870  -43.9340 C   0  0  0  0  0
   11.7790   15.0210  -43.9090 N   0  0  0  0  0
   12.9530   14.3520  -44.3400 C   0  0  0  0  0
   14.1880   14.7970  -44.4200 N   0  0  0  0  0
   12.7400   13.0090  -44.7330 N   0  0  0  0  0
    6.9380   13.5980  -47.8020 N   0  0  0  0  0
    4.2300   11.3880  -48.9850 O   0  0  0  0  0
    5.6240   12.8660  -47.6460 C   0  0  0  0  0
    5.1740   12.1790  -48.9890 C   0  0  0  0  0
    5.6310   11.9790  -46.4190 C   0  0  0  0  0
    4.5180   13.9140  -47.3040 C   0  0  0  0  0
    5.5120   12.9840  -45.2760 C   0  0  0  0  0
    4.5460   14.0730  -45.7890 C   0  0  0  0  0
    5.8420   12.4650  -50.1690 N   0  0  0  0  0
    5.5010   11.8780  -51.4370 C   0  0  0  0  0
    4.7740   12.7780  -52.4190 C   0  0  0  0  0
    6.1840   10.6140  -52.0160 C   0  0  0  0  0
    5.4680    9.4530  -52.3360 C   0  0  0  0  0
    6.1070    8.3180  -52.8350 C   0  0  0  0  0
    7.4910    8.3030  -53.0190 C   0  0  0  0  0
    8.2350    9.4470  -52.6970 C   0  0  0  0  0
    7.5920   10.5840  -52.2020 C   0  0  0  0  0
    4.0560   12.1890  -53.4610 C   0  0  0  0  0
    3.3700   12.9720  -54.3760 C   0  0  0  0  0
    3.3800   14.3540  -54.2570 C   0  0  0  0  0
    4.0810   14.9520  -53.2240 C   0  0  0  0  0
    4.7640   14.1700  -52.3040 C   0  0  0  0  0
    4.7302   16.5321  -47.2757 H   0  0  0  0  0
    5.8522   17.8114  -46.7506 H   0  0  0  0  0
    4.1270   18.1829  -46.9889 H   0  0  0  0  0
    4.4221   17.7155  -49.4944 H   0  0  0  0  0
    6.3231   19.6991  -48.2635 H   0  0  0  0  0
    5.6577   19.7319  -49.9150 H   0  0  0  0  0
    4.5774   19.9449  -48.5155 H   0  0  0  0  0
    8.7141   16.7782  -53.1081 H   0  0  0  0  0
    7.1481   15.8302  -52.6150 H   0  0  0  0  0
    6.8625   18.1469  -51.0835 H   0  0  0  0  0
   10.3346   16.6472  -50.2740 H   0  0  0  0  0
    9.3730   18.2271  -50.2406 H   0  0  0  0  0
   10.6542   16.9318  -52.6225 H   0  0  0  0  0
    9.7284   18.4527  -52.5903 H   0  0  0  0  0
   11.2785   18.3353  -51.7216 H   0  0  0  0  0
    9.9546   14.7738  -52.8009 H   0  0  0  0  0
    8.4837   13.8833  -52.3377 H   0  0  0  0  0
    8.6564   14.5178  -53.9926 H   0  0  0  0  0
    9.9081   16.0337  -48.7417 H   0  0  0  0  0
   10.3681   13.4807  -48.3248 H   0  0  0  0  0
    8.9355   15.1699  -46.1554 H   0  0  0  0  0
   10.7410   15.2816  -46.5779 H   0  0  0  0  0
   11.0661   13.1081  -45.6578 H   0  0  0  0  0
    9.2828   13.0420  -45.2005 H   0  0  0  0  0
   10.5958   13.4695  -43.2178 H   0  0  0  0  0
    9.7199   14.9967  -43.6986 H   0  0  0  0  0
   11.8160   15.9890  -43.5897 H   0  0  0  0  0
   14.4032   15.7561  -44.1474 H   0  0  0  0  0
   13.5236   12.4419  -45.0567 H   0  0  0  0  0
   11.8029   12.6083  -44.6926 H   0  0  0  0  0
    6.8572   14.5920  -48.0159 H   0  0  0  0  0
    6.5248   11.3591  -46.3482 H   0  0  0  0  0
    4.8272   11.2428  -46.4226 H   0  0  0  0  0
    3.5387   13.5818  -47.6485 H   0  0  0  0  0
    4.7053   14.8639  -47.8046 H   0  0  0  0  0
    6.4820   13.4026  -45.0077 H   0  0  0  0  0
    5.1393   12.5139  -44.3660 H   0  0  0  0  0
    3.5515   13.9591  -45.3577 H   0  0  0  0  0
    4.8784   15.0697  -45.4987 H   0  0  0  0  0
    6.6171   13.1273  -50.1366 H   0  0  0  0  0
    4.7910   11.2171  -50.9399 H   0  0  0  0  0
    4.3877    9.4364  -52.1918 H   0  0  0  0  0
    5.5200    7.4339  -53.0838 H   0  0  0  0  0
    7.9866    7.4135  -53.4079 H   0  0  0  0  0
    9.3165    9.4491  -52.8331 H   0  0  0  0  0
    8.1825   11.4659  -51.9535 H   0  0  0  0  0
    4.0346   11.1034  -53.5560 H   0  0  0  0  0
    2.8212   12.5006  -55.1913 H   0  0  0  0  0
    2.8369   14.9679  -54.9755 H   0  0  0  0  0
    4.0963   16.0381  -53.1334 H   0  0  0  0  0
    5.2986   14.6470  -51.4825 H   0  0  0  0  0
  2  1  1  0  0  0
  2  3  1  0  0  0
  4  2  1  0  0  0
  4  5  2  0  0  0
  9  4  1  0  0  0
  7  6  1  0  0  0
  6  8  1  0  0  0
  6  9  1  0  0  0
  6 11  1  0  0  0
  7 10  2  0  0  0
 14  7  1  0  0  0
  8 13  1  0  0  0
 11 12  1  0  0  0
 15 14  1  0  0  0
 16 15  1  0  0  0
 15 18  1  0  0  0
 16 17  2  0  0  0
 25 16  1  0  0  0
 18 19  1  0  0  0
 19 20  1  0  0  0
 20 21  1  0  0  0
 21 22  1  0  0  0
 22 23  2  0  0  0
 22 24  1  0  0  0
 27 25  1  0  0  0
 28 26  2  0  0  0
 27 28  1  0  0  0
 27 29  1  0  0  0
 27 30  1  0  0  0
 28 33  1  0  0  0
 29 31  1  0  0  0
 30 32  1  0  0  0
 31 32  1  0  0  0
 33 34  1  0  0  0
 34 35  1  0  0  0
 34 36  1  0  0  0
 35 42  4  0  0  0
 35 46  4  0  0  0
 36 37  4  0  0  0
 36 41  4  0  0  0
 37 38  4  0  0  0
 38 39  4  0  0  0
 39 40  4  0  0  0
 40 41  4  0  0  0
 42 43  4  0  0  0
 43 44  4  0  0  0
 44 45  4  0  0  0
 45 46  4  0  0  0
  1 47  1  0  0  0
  1 48  1  0  0  0
  1 49  1  0  0  0
  2 50  1  0  0  0
  3 51  1  0  0  0
  3 52  1  0  0  0
  3 53  1  0  0  0
  8 54  1  0  0  0
  8 55  1  0  0  0
  9 56  1  0  0  0
 11 57  1  0  0  0
 11 58  1  0  0  0
 12 59  1  0  0  0
 12 60  1  0  0  0
 12 61  1  0  0  0
 13 62  1  0  0  0
 13 63  1  0  0  0
 13 64  1  0  0  0
 14 65  1  0  0  0
 15 66  1  0  0  0
 18 67  1  0  0  0
 18 68  1  0  0  0
 19 69  1  0  0  0
 19 70  1  0  0  0
 20 71  1  0  0  0
 20 72  1  0  0  0
 21 73  1  0  0  0
 23 74  1  0  0  0
 24 75  1  0  0  0
 24 76  1  0  0  0
 25 77  1  0  0  0
 29 78  1  0  0  0
 29 79  1  0  0  0
 30 80  1  0  0  0
 30 81  1  0  0  0
 31 82  1  0  0  0
 31 83  1  0  0  0
 32 84  1  0  0  0
 32 85  1  0  0  0
 33 86  1  0  0  0
 34 87  1  0  0  0
 37 88  1  0  0  0
 38 89  1  0  0  0
 39 90  1  0  0  0
 40 91  1  0  0  0
 41 92  1  0  0  0
 42 93  1  0  0  0
 43 94  1  0  0  0
 44 95  1  0  0  0
 45 96  1  0  0  0
 46 97  1  0  0  0
M  END
$$$$
