4wt2_ligand
  -I-interpret- 

 91 95  0  0  0  0  0  0  0  0999 V2000
   12.4270  -31.9440   -0.6230 C   0  0  0  0  0
   11.3490  -32.8580   -0.7620 O   0  0  0  0  0
   10.1880  -32.3630   -1.2940 C   0  0  0  0  0
   10.0680  -31.0340   -1.7280 C   0  0  0  0  0
    9.0950  -33.2240   -1.4020 C   0  0  0  0  0
    9.2020  -34.6750   -0.9360 C   0  0  0  0  0
    8.5690  -35.0030    0.0880 O   0  0  0  0  0
    9.9160  -35.4470   -1.6090 O   0  0  0  0  0
    7.8970  -32.7670   -1.9380 C   0  0  0  0  0
    7.7850  -31.4460   -2.3680 C   0  0  0  0  0
    8.8600  -30.5650   -2.2670 C   0  0  0  0  0
    8.6530  -29.3060   -2.7210 N   0  0  0  0  0
    9.4230  -28.2300   -2.4980 C   0  0  0  0  0
   10.4280  -28.1890   -1.7950 O   0  0  0  0  0
    8.9480  -26.9570   -3.2220 C   0  0  0  0  0
    8.3350  -25.8930   -2.3270 C   0  0  0  0  0
    9.4030  -25.1920   -1.4770 C   0  0  0  0  0
    7.2890  -26.5130   -1.3860 C   0  0  0  0  0
    7.5810  -24.8800   -3.2020 C   0  0  0  0  0
    6.5100  -25.2260   -3.6960 O   0  0  0  0  0
    8.0970  -23.6090   -3.4900 N   0  0  0  0  0
    7.2690  -22.6160   -4.2050 C   0  0  0  0  0
    6.9440  -23.0100   -5.6430 C   0  0  0  0  0
    6.4650  -21.8360   -6.5030 C   0  0  0  0  0
    7.8560  -22.4270   -6.7210 C   0  0  0  0  0
    5.9820  -22.3930   -3.3840 C   0  0  0  0  0
    6.2510  -21.7730   -1.6870 S   0  0  0  0  0
    6.9830  -20.4830   -1.7700 O   0  0  0  0  0
    6.9780  -22.7870   -0.8570 O   0  0  0  0  0
    4.6290  -21.5230   -0.8970 C   0  0  0  0  0
    3.8290  -20.5440   -1.7560 C   0  0  0  0  0
    3.9470  -22.8950   -0.8180 C   0  0  0  0  0
    4.8650  -20.9380    0.5020 C   0  0  0  0  0
    9.3590  -23.1120   -2.9160 C   0  0  0  0  0
   10.2070  -22.3230   -3.9460 C   0  0  0  0  0
   10.7220  -22.9400   -5.0830 C   0  0  0  0  0
   11.4900  -22.1910   -5.9590 C   0  0  0  0  0
   11.9520  -22.8150   -7.0520 F   0  0  0  0  0
   11.7610  -20.8490   -5.7070 C   0  0  0  0  0
   12.7630  -19.9210   -6.7790 Cl  0  0  0  0  0
   11.2600  -20.2320   -4.5760 C   0  0  0  0  0
   10.4810  -20.9840   -3.6970 C   0  0  0  0  0
   10.2480  -24.2490   -2.3350 C   0  0  0  0  0
   11.4110  -23.5820   -1.5460 C   0  0  0  0  0
   12.7020  -23.5550   -2.0880 C   0  0  0  0  0
   13.7380  -22.9480   -1.3990 C   0  0  0  0  0
   15.3220  -22.9300   -2.0980 Cl  0  0  0  0  0
   13.5150  -22.3480   -0.1710 C   0  0  0  0  0
   12.2410  -22.3730    0.3780 C   0  0  0  0  0
   11.1880  -22.9840   -0.3060 C   0  0  0  0  0
   12.6945  -31.5480   -1.6026 H   0  0  0  0  0
   12.1259  -31.1258    0.0312 H   0  0  0  0  0
   13.2851  -32.4592   -0.1912 H   0  0  0  0  0
   10.9206  -30.3599   -1.6458 H   0  0  0  0  0
   10.2982  -34.9661   -2.3467 H   0  0  0  0  0
    7.0450  -33.4416   -2.0221 H   0  0  0  0  0
    6.8425  -31.0967   -2.7896 H   0  0  0  0  0
    7.8221  -29.1599   -3.2943 H   0  0  0  0  0
    8.1689  -27.2660   -3.9189 H   0  0  0  0  0
    9.8305  -26.5100   -3.6797 H   0  0  0  0  0
   10.0551  -25.9477   -1.0390 H   0  0  0  0  0
    8.9073  -24.6104   -0.6997 H   0  0  0  0  0
    6.4988  -26.9754   -1.9775 H   0  0  0  0  0
    7.7663  -27.2681   -0.7614 H   0  0  0  0  0
    6.8630  -25.7335   -0.7544 H   0  0  0  0  0
    7.8412  -21.6923   -4.2917 H   0  0  0  0  0
    6.5889  -24.0141   -5.4112 H   0  0  0  0  0
    6.0036  -20.8577   -6.3681 H   0  0  0  0  0
    5.5927  -21.5572   -7.0941 H   0  0  0  0  0
    8.4714  -22.7812   -7.5480 H   0  0  0  0  0
    8.8842  -22.0787   -6.8188 H   0  0  0  0  0
    5.4940  -23.3633   -3.2920 H   0  0  0  0  0
    5.4002  -21.6351   -3.9086 H   0  0  0  0  0
    4.3657  -19.5975   -1.8214 H   0  0  0  0  0
    3.7008  -20.9602   -2.7552 H   0  0  0  0  0
    2.8520  -20.3786   -1.3018 H   0  0  0  0  0
    3.8265  -23.2978   -1.8236 H   0  0  0  0  0
    4.5626  -23.5718   -0.2255 H   0  0  0  0  0
    2.9691  -22.7867   -0.3490 H   0  0  0  0  0
    5.4658  -21.6331    1.0885 H   0  0  0  0  0
    5.3905  -19.9872    0.4129 H   0  0  0  0  0
    3.9057  -20.7797    0.9948 H   0  0  0  0  0
    9.0487  -22.4488   -2.1086 H   0  0  0  0  0
   10.5243  -23.9936   -5.2801 H   0  0  0  0  0
   11.4691  -19.1812   -4.3757 H   0  0  0  0  0
   10.0803  -20.5131   -2.7993 H   0  0  0  0  0
   10.6758  -24.8664   -3.1249 H   0  0  0  0  0
   12.8922  -24.0145   -3.0579 H   0  0  0  0  0
   14.3329  -21.8605    0.3595 H   0  0  0  0  0
   12.0609  -21.9127    1.3495 H   0  0  0  0  0
   10.1892  -22.9936    0.1304 H   0  0  0  0  0
  1  2  1  0  0  0
  2  3  1  0  0  0
  3  4  4  0  0  0
  3  5  4  0  0  0
  4 11  4  0  0  0
  5  6  1  0  0  0
  5  9  4  0  0  0
  6  7  2  0  0  0
  6  8  1  0  0  0
  9 10  4  0  0  0
 10 11  4  0  0  0
 11 12  1  0  0  0
 12 13  1  0  0  0
 13 14  2  0  0  0
 13 15  1  0  0  0
 15 16  1  0  0  0
 16 17  1  0  0  0
 16 18  1  0  0  0
 16 19  1  0  0  0
 17 43  1  0  0  0
 19 20  2  0  0  0
 19 21  1  0  0  0
 21 22  1  0  0  0
 21 34  1  0  0  0
 22 23  1  0  0  0
 22 26  1  0  0  0
 23 24  1  0  0  0
 23 25  1  0  0  0
 24 25  1  0  0  0
 26 27  1  0  0  0
 27 28  2  0  0  0
 27 29  2  0  0  0
 27 30  1  0  0  0
 30 31  1  0  0  0
 30 32  1  0  0  0
 30 33  1  0  0  0
 34 35  1  0  0  0
 34 43  1  0  0  0
 35 36  4  0  0  0
 35 42  4  0  0  0
 36 37  4  0  0  0
 37 38  1  0  0  0
 37 39  4  0  0  0
 39 40  1  0  0  0
 39 41  4  0  0  0
 41 42  4  0  0  0
 43 44  1  0  0  0
 44 45  4  0  0  0
 44 50  4  0  0  0
 45 46  4  0  0  0
 46 47  1  0  0  0
 46 48  4  0  0  0
 48 49  4  0  0  0
 49 50  4  0  0  0
  1 51  1  0  0  0
  1 52  1  0  0  0
  1 53  1  0  0  0
  4 54  1  0  0  0
  8 55  1  0  0  0
  9 56  1  0  0  0
 10 57  1  0  0  0
 12 58  1  0  0  0
 15 59  1  0  0  0
 15 60  1  0  0  0
 17 61  1  0  0  0
 17 62  1  0  0  0
 18 63  1  0  0  0
 18 64  1  0  0  0
 18 65  1  0  0  0
 22 66  1  0  0  0
 23 67  1  0  0  0
 24 68  1  0  0  0
 24 69  1  0  0  0
 25 70  1  0  0  0
 25 71  1  0  0  0
 26 72  1  0  0  0
 26 73  1  0  0  0
 31 74  1  0  0  0
 31 75  1  0  0  0
 31 76  1  0  0  0
 32 77  1  0  0  0
 32 78  1  0  0  0
 32 79  1  0  0  0
 33 80  1  0  0  0
 33 81  1  0  0  0
 33 82  1  0  0  0
 34 83  1  0  0  0
 36 84  1  0  0  0
 41 85  1  0  0  0
 42 86  1  0  0  0
 43 87  1  0  0  0
 45 88  1  0  0  0
 48 89  1  0  0  0
 49 90  1  0  0  0
 50 91  1  0  0  0
M  END
$$$$
