2yne_ligand
  -I-interpret- 

 56 60  0  0  0  0  0  0  0  0999 V2000
   27.1580   47.9330   63.6190 C   0  0  0  0  0
   25.6610   47.8600   63.4670 C   0  0  0  0  0
   24.7650   48.6700   63.9760 N   0  0  0  0  0
   25.0110   49.7850   64.9320 C   0  0  0  0  0
   23.4750   48.3330   63.6180 N   0  0  0  0  0
   24.9080   46.8860   62.6570 C   0  0  0  0  0
   23.4940   47.2720   62.7890 C   0  0  0  0  0
   22.2260   46.6440   62.2240 C   0  0  0  0  0
   25.4780   45.8010   61.8130 C   0  0  0  0  0
   25.4560   44.5380   62.5990 C   0  0  0  0  0
   24.2790   43.8740   62.8610 O   0  0  0  0  0
   24.7410   42.8500   63.5100 C   0  0  0  0  0
   26.0350   42.7690   63.7410 N   0  0  0  0  0
   26.5450   43.9280   63.0700 N   0  0  0  0  0
   23.7150   41.9380   63.9690 C   0  0  0  0  0
   22.1280   41.9130   63.3580 S   0  0  0  0  0
   21.5340   40.6840   64.3190 C   0  0  0  0  0
   20.2250   40.1670   64.3750 C   0  0  0  0  0
   19.9520   39.0970   65.3060 C   0  0  0  0  0
   20.9950   38.5890   66.1200 C   0  0  0  0  0
   22.3420   39.0780   66.1200 C   0  0  0  0  0
   22.6030   40.1630   65.2130 C   0  0  0  0  0
   23.8660   40.8890   65.0170 C   0  0  0  0  0
   25.0110   40.6610   65.6870 O   0  0  0  0  0
   24.8100   40.6560   67.1520 C   0  0  0  0  0
   25.7510   39.6040   67.7810 C   0  0  0  0  0
   27.2530   39.8850   67.4480 C   0  0  0  0  0
   27.5420   41.2410   68.0050 N   0  3  0  0  0
   26.6410   42.3150   67.4930 C   0  0  0  0  0
   25.1190   42.0700   67.6590 C   0  0  0  0  0
   27.5166   48.8819   63.2201 H   0  0  0  0  0
   27.4187   47.8595   64.6748 H   0  0  0  0  0
   27.6180   47.1102   63.0717 H   0  0  0  0  0
   25.4554   49.3880   65.8447 H   0  0  0  0  0
   25.6910   50.5066   64.4793 H   0  0  0  0  0
   24.0660   50.2736   65.1692 H   0  0  0  0  0
   21.5999   46.2920   63.0439 H   0  0  0  0  0
   21.6813   47.3881   61.6429 H   0  0  0  0  0
   22.4928   45.8042   61.5824 H   0  0  0  0  0
   26.5011   46.0468   61.5285 H   0  0  0  0  0
   24.8885   45.6858   60.9034 H   0  0  0  0  0
   19.4388   40.5639   63.7327 H   0  0  0  0  0
   18.9471   38.6816   65.3823 H   0  0  0  0  0
   20.7553   37.7671   66.7947 H   0  0  0  0  0
   23.1150   38.6568   66.7628 H   0  0  0  0  0
   23.7884   40.3919   67.4252 H   0  0  0  0  0
   25.4894   38.6272   67.3743 H   0  0  0  0  0
   25.6295   39.6429   68.8635 H   0  0  0  0  0
   27.4364   39.8483   66.3742 H   0  0  0  0  0
   27.9057   39.1283   67.8834 H   0  0  0  0  0
   28.4920   41.4857   67.7258 H   0  0  0  0  0
   27.4050   41.1880   69.0144 H   0  0  0  0  0
   26.8234   42.3791   66.4203 H   0  0  0  0  0
   26.8705   43.2075   68.0751 H   0  0  0  0  0
   24.8337   42.1657   68.7066 H   0  0  0  0  0
   24.5540   42.8071   67.0884 H   0  0  0  0  0
  1  2  1  0  0  0
  2  3  4  0  0  0
  2  6  4  0  0  0
  3  4  1  0  0  0
  3  5  4  0  0  0
  5  7  4  0  0  0
  6  7  4  0  0  0
  6  9  1  0  0  0
  7  8  1  0  0  0
  9 10  1  0  0  0
 10 11  4  0  0  0
 10 14  4  0  0  0
 11 12  4  0  0  0
 12 13  4  0  0  0
 12 15  1  0  0  0
 13 14  4  0  0  0
 15 16  4  0  0  0
 15 23  4  0  0  0
 16 17  4  0  0  0
 17 18  4  0  0  0
 17 22  4  0  0  0
 18 19  4  0  0  0
 19 20  4  0  0  0
 20 21  4  0  0  0
 21 22  4  0  0  0
 22 23  4  0  0  0
 23 24  1  0  0  0
 24 25  1  0  0  0
 25 26  1  0  0  0
 25 30  1  0  0  0
 26 27  1  0  0  0
 27 28  1  0  0  0
 28 29  1  0  0  0
 29 30  1  0  0  0
  1 31  1  0  0  0
  1 32  1  0  0  0
  1 33  1  0  0  0
  4 34  1  0  0  0
  4 35  1  0  0  0
  4 36  1  0  0  0
  8 37  1  0  0  0
  8 38  1  0  0  0
  8 39  1  0  0  0
  9 40  1  0  0  0
  9 41  1  0  0  0
 18 42  1  0  0  0
 19 43  1  0  0  0
 20 44  1  0  0  0
 21 45  1  0  0  0
 25 46  1  0  0  0
 26 47  1  0  0  0
 26 48  1  0  0  0
 27 49  1  0  0  0
 27 50  1  0  0  0
 28 51  1  0  0  0
 28 52  1  0  0  0
 29 53  1  0  0  0
 29 54  1  0  0  0
 30 55  1  0  0  0
 30 56  1  0  0  0
M  END
$$$$
