2psj_ligand
  -I-interpret- 

 52 55  0  0  0  0  0  0  0  0999 V2000
  -17.6830    1.3380   39.5290 O   0  0  0  0  0
  -17.8210    1.3980   38.3150 C   0  0  0  0  0
  -18.6620    2.4950   37.7130 C   0  0  0  0  0
  -17.8320    3.6980   37.3250 C   0  0  0  0  0
  -16.9980    4.3290   38.2490 C   0  0  0  0  0
  -16.2550    5.4440   37.8710 C   0  0  0  0  0
  -16.3440    5.9350   36.5700 C   0  0  0  0  0
  -15.6220    7.0250   36.1870 O   0  0  0  0  0
  -17.1750    5.3060   35.6500 C   0  0  0  0  0
  -17.9190    4.1910   36.0260 C   0  0  0  0  0
  -17.2710    0.5330   37.4590 N   0  0  0  0  0
  -16.4930   -0.5170   37.9540 C   0  0  0  0  0
  -15.1050   -0.4460   37.9800 C   0  0  0  0  0
  -14.3580    0.7660   37.4700 C   0  0  0  0  0
  -14.2760    0.7090   35.9660 C   0  0  0  0  0
  -14.8060    1.7480   35.2000 C   0  0  0  0  0
  -14.7290    1.6890   33.8090 C   0  0  0  0  0
  -14.1290    0.5930   33.1880 C   0  0  0  0  0
  -13.5990   -0.4450   33.9530 C   0  0  0  0  0
  -13.6730   -0.3870   35.3430 C   0  0  0  0  0
  -14.3910   -1.4850   38.4630 N   0  0  0  0  0
  -15.0210   -2.5870   38.9290 C   0  0  0  0  0
  -16.4150   -2.6490   38.9090 C   0  0  0  0  0
  -17.1270   -1.6210   38.4230 N   0  0  0  0  0
  -14.2150   -3.7160   39.4750 C   0  0  0  0  0
  -13.0790   -3.4350   40.2320 C   0  0  0  0  0
  -12.3210   -4.4790   40.7580 C   0  0  0  0  0
  -12.7010   -5.8010   40.5310 C   0  0  0  0  0
  -11.9570   -6.8140   41.0460 O   0  0  0  0  0
  -13.8390   -6.0870   39.7800 C   0  0  0  0  0
  -14.5940   -5.0430   39.2500 C   0  0  0  0  0
  -19.3928    2.8112   38.4573 H   0  0  0  0  0
  -19.1375    2.1047   36.8131 H   0  0  0  0  0
  -16.9282    3.9484   39.2680 H   0  0  0  0  0
  -15.6026    5.9337   38.5939 H   0  0  0  0  0
  -15.8052    7.2210   35.2653 H   0  0  0  0  0
  -17.2443    5.6870   34.6311 H   0  0  0  0  0
  -18.5711    3.7029   35.3017 H   0  0  0  0  0
  -17.4172    0.6376   36.4550 H   0  0  0  0  0
  -13.3517    0.7756   37.8888 H   0  0  0  0  0
  -14.8852    1.6712   37.7712 H   0  0  0  0  0
  -15.2779    2.6016   35.6866 H   0  0  0  0  0
  -15.1379    2.4999   33.2062 H   0  0  0  0  0
  -14.0744    0.5482   32.1003 H   0  0  0  0  0
  -13.1285   -1.2988   33.4654 H   0  0  0  0  0
  -13.2604   -1.1968   35.9448 H   0  0  0  0  0
  -16.9260   -3.5338   39.2887 H   0  0  0  0  0
  -12.7843   -2.4011   40.4121 H   0  0  0  0  0
  -11.4302   -4.2620   41.3475 H   0  0  0  0  0
  -12.3500   -7.6549   40.8009 H   0  0  0  0  0
  -14.1369   -7.1213   39.6081 H   0  0  0  0  0
  -15.4829   -5.2613   38.6581 H   0  0  0  0  0
  1  2  2  0  0  0
  2  3  1  0  0  0
  2 11  1  0  0  0
  3  4  1  0  0  0
  4  5  4  0  0  0
  4 10  4  0  0  0
  5  6  4  0  0  0
  6  7  4  0  0  0
  7  8  1  0  0  0
  7  9  4  0  0  0
  9 10  4  0  0  0
 11 12  1  0  0  0
 12 13  4  0  0  0
 12 24  4  0  0  0
 13 14  1  0  0  0
 13 21  4  0  0  0
 14 15  1  0  0  0
 15 16  4  0  0  0
 15 20  4  0  0  0
 16 17  4  0  0  0
 17 18  4  0  0  0
 18 19  4  0  0  0
 19 20  4  0  0  0
 21 22  4  0  0  0
 22 23  4  0  0  0
 22 25  1  0  0  0
 23 24  4  0  0  0
 25 26  4  0  0  0
 25 31  4  0  0  0
 26 27  4  0  0  0
 27 28  4  0  0  0
 28 29  1  0  0  0
 28 30  4  0  0  0
 30 31  4  0  0  0
  3 32  1  0  0  0
  3 33  1  0  0  0
  5 34  1  0  0  0
  6 35  1  0  0  0
  8 36  1  0  0  0
  9 37  1  0  0  0
 10 38  1  0  0  0
 11 39  1  0  0  0
 14 40  1  0  0  0
 14 41  1  0  0  0
 16 42  1  0  0  0
 17 43  1  0  0  0
 18 44  1  0  0  0
 19 45  1  0  0  0
 20 46  1  0  0  0
 23 47  1  0  0  0
 26 48  1  0  0  0
 27 49  1  0  0  0
 29 50  1  0  0  0
 30 51  1  0  0  0
 31 52  1  0  0  0
M  END
$$$$
