6ps9_ligand
  -I-interpret- 

 44 47  0  0  0  0  0  0  0  0999 V2000
   13.1700    3.0760   -1.7200 C   0  0  0  0  0
   14.5240    4.6170   -0.1300 C   0  0  0  0  0
   14.2530    5.8980    0.6460 C   0  0  0  0  0
   12.7510    5.9300    0.7150 C   0  0  0  0  0
   12.2220    7.4040    0.7770 C   0  0  0  0  0
   12.4080    8.1210    2.1070 C   0  0  0  0  0
   10.9570    6.5680    3.5730 C   0  0  0  0  0
    9.7340    6.5120    2.8430 C   0  0  0  0  0
    8.7070    5.7260    3.3420 C   0  0  0  0  0
    8.8610    4.9980    4.5400 C   0  0  0  0  0
   10.0570    5.0650    5.2580 C   0  0  0  0  0
   11.1350    5.8610    4.7750 C   0  0  0  0  0
   12.5020    6.1460    5.2160 C   0  0  0  0  0
   13.0700    7.0000    4.2970 C   0  0  0  0  0
   14.4680    7.5060    4.4260 C   0  0  0  0  0
   14.9250    7.5160    5.8790 C   0  0  0  0  0
   13.2470    5.6980    6.3720 C   0  0  0  0  0
   12.3470    5.1630   -0.6000 C   0  0  0  0  0
   13.4120    4.2380   -0.8240 N   0  0  0  0  0
   12.1610    7.2610    3.2930 N   0  0  0  0  0
   14.4720    6.3270    6.6560 N   0  0  0  0  0
   12.8920    4.7590    7.0920 O   0  0  0  0  0
   15.5650    3.9710   -0.1520 O   0  0  0  0  0
   12.3572    2.4715   -1.3174 H   0  0  0  0  0
   12.9002    3.4347   -2.7133 H   0  0  0  0  0
   14.0758    2.4731   -1.7837 H   0  0  0  0  0
   14.6760    6.7821    0.1690 H   0  0  0  0  0
   14.7245    5.9081    1.6287 H   0  0  0  0  0
   12.3222    5.4720    1.6063 H   0  0  0  0  0
   11.1471    7.3522    0.6036 H   0  0  0  0  0
   12.7958    7.9675    0.0413 H   0  0  0  0  0
   11.6846    8.9356    2.1405 H   0  0  0  0  0
   13.4458    8.4507    2.1556 H   0  0  0  0  0
    9.6096    7.0726    1.9165 H   0  0  0  0  0
    7.7637    5.6696    2.7988 H   0  0  0  0  0
    8.0421    4.3796    4.9076 H   0  0  0  0  0
   10.1656    4.5079    6.1885 H   0  0  0  0  0
   14.5026    8.5269    4.0457 H   0  0  0  0  0
   15.1275    6.8475    3.8607 H   0  0  0  0  0
   14.4932    8.3985    6.3511 H   0  0  0  0  0
   16.0150    7.5100    5.8786 H   0  0  0  0  0
   12.2155    5.8424   -1.4421 H   0  0  0  0  0
   11.3862    4.6587   -0.4970 H   0  0  0  0  0
   15.0604    5.9639    7.4059 H   0  0  0  0  0
 19  1  1  0  0  0
  3  2  1  0  0  0
  2 19  1  0  0  0
  2 23  2  0  0  0
  4  3  1  0  0  0
  5  4  1  0  0  0
  4 18  1  0  0  0
  6  5  1  0  0  0
 20  6  1  0  0  0
  7  8  4  0  0  0
  7 12  4  0  0  0
  7 20  4  0  0  0
  8  9  4  0  0  0
  9 10  4  0  0  0
 10 11  4  0  0  0
 11 12  4  0  0  0
 12 13  4  0  0  0
 13 14  4  0  0  0
 13 17  1  0  0  0
 14 15  1  0  0  0
 14 20  4  0  0  0
 15 16  1  0  0  0
 16 21  1  0  0  0
 17 21  1  0  0  0
 17 22  2  0  0  0
 18 19  1  0  0  0
  1 24  1  0  0  0
  1 25  1  0  0  0
  1 26  1  0  0  0
  3 27  1  0  0  0
  3 28  1  0  0  0
  4 29  1  0  0  0
  5 30  1  0  0  0
  5 31  1  0  0  0
  6 32  1  0  0  0
  6 33  1  0  0  0
  8 34  1  0  0  0
  9 35  1  0  0  0
 10 36  1  0  0  0
 11 37  1  0  0  0
 15 38  1  0  0  0
 15 39  1  0  0  0
 16 40  1  0  0  0
 16 41  1  0  0  0
 18 42  1  0  0  0
 18 43  1  0  0  0
 21 44  1  0  0  0
M  END
$$$$
