3gjs_ligand
  -I-interpret- 

 69 69  0  0  0  0  0  0  0  0999 V2000
   22.7360    8.1220   45.7220 C   0  0  0  0  0
   22.1420    7.0470   45.5990 O   0  0  0  0  0
   23.2370    8.5730   47.0760 C   0  0  0  0  0
   22.9660    8.9460   44.7010 N   0  0  0  0  0
   22.5430    8.6230   43.3370 C   0  0  0  0  0
   23.7220    8.0990   42.5240 C   0  0  0  0  0
   24.7960    8.6990   42.5090 O   0  0  0  0  0
   21.9470    9.8530   42.6420 C   0  0  0  0  0
   20.6320   10.3280   43.2280 C   0  0  0  0  0
   20.6010   11.2140   44.3070 C   0  0  0  0  0
   19.4190    9.8850   42.7080 C   0  0  0  0  0
   19.3940   11.6480   44.8470 C   0  0  0  0  0
   18.2050   10.3130   43.2410 C   0  0  0  0  0
   18.1980   11.1950   44.3080 C   0  0  0  0  0
   16.9950   11.6340   44.8210 O   0  0  0  0  0
   23.5150    6.9780   41.8440 N   0  0  0  0  0
   24.5650    6.3750   41.0380 C   0  0  0  0  0
   24.0210    6.0250   39.6620 C   0  0  0  0  0
   22.8620    5.6340   39.5280 O   0  0  0  0  0
   25.1030    5.0880   41.7060 C   0  0  0  0  0
   26.3170    4.5720   40.9480 C   0  0  0  0  0
   25.4520    5.3630   43.1650 C   0  0  0  0  0
   24.8600    6.1710   38.6400 N   0  0  0  0  0
   24.4640    5.8520   37.2720 C   0  0  0  0  0
   24.8850    4.4170   36.9590 C   0  0  0  0  0
   25.9490    3.9690   37.3870 O   0  0  0  0  0
   25.1150    6.8210   36.3000 C   0  0  0  0  0
   24.0510    3.7030   36.2080 N   0  0  0  0  0
   24.3220    2.3120   35.8570 C   0  0  0  0  0
   24.8900    2.1280   34.4500 C   0  0  0  0  0
   25.0130    0.7400   34.1270 O   0  0  0  0  0
   23.0380    1.4850   35.9800 C   0  0  0  0  0
   22.9530    0.7320   37.2940 C   0  0  0  0  0
   24.0090    0.4990   37.9220 O   0  0  0  0  0
   21.8290    0.3680   37.6970 O   0  0  0  0  0
   22.3948    8.6628   47.7621 H   0  0  0  0  0
   23.9455    7.8403   47.4623 H   0  0  0  0  0
   23.7304    9.5397   46.9759 H   0  0  0  0  0
   23.4504    9.8267   44.8743 H   0  0  0  0  0
   21.7768    7.8502   43.3993 H   0  0  0  0  0
   21.7530    9.5726   41.6067 H   0  0  0  0  0
   22.6628   10.6662   42.7619 H   0  0  0  0  0
   21.5381   11.5717   44.7335 H   0  0  0  0  0
   19.4190    9.1903   41.8681 H   0  0  0  0  0
   19.3880   12.3402   45.6890 H   0  0  0  0  0
   17.2654    9.9552   42.8200 H   0  0  0  0  0
   16.2738   11.2257   44.3366 H   0  0  0  0  0
   22.5998    6.5297   41.8876 H   0  0  0  0  0
   25.3784    7.0950   40.9479 H   0  0  0  0  0
   24.3293    4.3208   41.6758 H   0  0  0  0  0
   26.0338    4.3496   39.9192 H   0  0  0  0  0
   27.0982    5.3321   40.9550 H   0  0  0  0  0
   26.6857    3.6659   41.4287 H   0  0  0  0  0
   26.2157    6.1392   43.2145 H   0  0  0  0  0
   24.5591    5.6957   43.6943 H   0  0  0  0  0
   25.8297    4.4500   43.6252 H   0  0  0  0  0
   25.8039    6.5146   38.8170 H   0  0  0  0  0
   23.3827    5.9437   37.1693 H   0  0  0  0  0
   24.7998    7.8373   36.5363 H   0  0  0  0  0
   26.1991    6.7462   36.3857 H   0  0  0  0  0
   24.8116    6.5723   35.2830 H   0  0  0  0  0
   23.1954    4.1410   35.8667 H   0  0  0  0  0
   25.0837    1.9701   36.5578 H   0  0  0  0  0
   25.8779    2.5867   34.4079 H   0  0  0  0  0
   24.2134    2.5958   33.7348 H   0  0  0  0  0
   25.3709    0.6493   33.2408 H   0  0  0  0  0
   23.0320    0.7527   35.1727 H   0  0  0  0  0
   22.1917    2.1701   35.9306 H   0  0  0  0  0
   24.7543    0.8636   37.4390 H   0  0  0  0  0
  1  2  2  0  0  0
  1  3  1  0  0  0
  1  4  1  0  0  0
  4  5  1  0  0  0
  5  6  1  0  0  0
  5  8  1  0  0  0
  6  7  2  0  0  0
  6 16  1  0  0  0
  8  9  1  0  0  0
  9 10  4  0  0  0
  9 11  4  0  0  0
 10 12  4  0  0  0
 11 13  4  0  0  0
 12 14  4  0  0  0
 13 14  4  0  0  0
 14 15  1  0  0  0
 16 17  1  0  0  0
 17 18  1  0  0  0
 17 20  1  0  0  0
 18 19  2  0  0  0
 18 23  1  0  0  0
 20 21  1  0  0  0
 20 22  1  0  0  0
 23 24  1  0  0  0
 24 25  1  0  0  0
 24 27  1  0  0  0
 25 26  2  0  0  0
 25 28  1  0  0  0
 28 29  1  0  0  0
 29 30  1  0  0  0
 29 32  1  0  0  0
 30 31  1  0  0  0
 32 33  1  0  0  0
 33 34  1  0  0  0
 33 35  2  0  0  0
  3 36  1  0  0  0
  3 37  1  0  0  0
  3 38  1  0  0  0
  4 39  1  0  0  0
  5 40  1  0  0  0
  8 41  1  0  0  0
  8 42  1  0  0  0
 10 43  1  0  0  0
 11 44  1  0  0  0
 12 45  1  0  0  0
 13 46  1  0  0  0
 15 47  1  0  0  0
 16 48  1  0  0  0
 17 49  1  0  0  0
 20 50  1  0  0  0
 21 51  1  0  0  0
 21 52  1  0  0  0
 21 53  1  0  0  0
 22 54  1  0  0  0
 22 55  1  0  0  0
 22 56  1  0  0  0
 23 57  1  0  0  0
 24 58  1  0  0  0
 27 59  1  0  0  0
 27 60  1  0  0  0
 27 61  1  0  0  0
 28 62  1  0  0  0
 29 63  1  0  0  0
 30 64  1  0  0  0
 30 65  1  0  0  0
 31 66  1  0  0  0
 32 67  1  0  0  0
 32 68  1  0  0  0
 34 69  1  0  0  0
M  END
$$$$
