5o2d_ligand
  -I-interpret- 

 39 42  0  0  0  0  0  0  0  0999 V2000
   24.2510  -19.9860  -21.7470 O   0  0  0  0  0
   23.8640  -18.6670  -21.3580 S   0  0  0  0  0
   24.5820  -18.0240  -20.3070 O   0  0  0  0  0
   23.9440  -17.6550  -22.7740 C   0  0  0  0  0
   22.3030  -18.7000  -20.9340 N   0  0  0  0  0
   21.7010  -19.8850  -20.4340 C   0  0  0  0  0
   21.1180  -20.8070  -21.3170 C   0  0  0  0  0
   20.6500  -22.0250  -20.8040 C   0  0  0  0  0
   20.7590  -22.2980  -19.4510 C   0  0  0  0  0
   21.3190  -21.3740  -18.5940 C   0  0  0  0  0
   21.8010  -20.1760  -19.0740 C   0  0  0  0  0
   21.0360  -20.5720  -22.7870 C   0  0  0  0  0
   20.3600  -19.4550  -23.2840 C   0  0  0  0  0
   20.2310  -19.2700  -24.6530 C   0  0  0  0  0
   20.7660  -20.1870  -25.5510 C   0  0  0  0  0
   21.4570  -21.3050  -25.0850 C   0  0  0  0  0
   21.5890  -21.4850  -23.7000 C   0  0  0  0  0
   22.1300  -22.4270  -25.7050 C   0  0  0  0  0
   22.6460  -23.2110  -24.6560 C   0  0  0  0  0
   22.2980  -22.6420  -23.4520 N   0  0  0  0  0
   22.3940  -22.8050  -27.0210 C   0  0  0  0  0
   23.1780  -23.9200  -27.2640 C   0  0  0  0  0
   23.6980  -24.6750  -26.2160 C   0  0  0  0  0
   23.4250  -24.3410  -24.9030 C   0  0  0  0  0
   24.9629  -17.6539  -23.1611 H   0  0  0  0  0
   23.2655  -18.0419  -23.5343 H   0  0  0  0  0
   23.6534  -16.6383  -22.5093 H   0  0  0  0  0
   21.7409  -17.8540  -21.0276 H   0  0  0  0  0
   20.1992  -22.7589  -21.4720 H   0  0  0  0  0
   20.3996  -23.2500  -19.0604 H   0  0  0  0  0
   21.3808  -21.5933  -17.5281 H   0  0  0  0  0
   22.2588  -19.4583  -18.3932 H   0  0  0  0  0
   19.9328  -18.7269  -22.5945 H   0  0  0  0  0
   19.7031  -18.3939  -25.0297 H   0  0  0  0  0
   20.6448  -20.0314  -26.6230 H   0  0  0  0  0
   21.9867  -22.2278  -27.8511 H   0  0  0  0  0
   23.3916  -24.2115  -28.2924 H   0  0  0  0  0
   24.3269  -25.5384  -26.4334 H   0  0  0  0  0
   23.8089  -24.9455  -24.0813 H   0  0  0  0  0
  1  2  2  0  0  0
  2  3  2  0  0  0
  2  4  1  0  0  0
  2  5  1  0  0  0
  5  6  1  0  0  0
  6  7  4  0  0  0
  6 11  4  0  0  0
  7  8  4  0  0  0
  7 12  1  0  0  0
  8  9  4  0  0  0
  9 10  4  0  0  0
 10 11  4  0  0  0
 12 13  4  0  0  0
 12 17  4  0  0  0
 13 14  4  0  0  0
 14 15  4  0  0  0
 15 16  4  0  0  0
 16 17  4  0  0  0
 16 18  4  0  0  0
 17 20  4  0  0  0
 18 19  4  0  0  0
 18 21  4  0  0  0
 19 20  4  0  0  0
 19 24  4  0  0  0
 21 22  4  0  0  0
 22 23  4  0  0  0
 23 24  4  0  0  0
  4 25  1  0  0  0
  4 26  1  0  0  0
  4 27  1  0  0  0
  5 28  1  0  0  0
  8 29  1  0  0  0
  9 30  1  0  0  0
 10 31  1  0  0  0
 11 32  1  0  0  0
 13 33  1  0  0  0
 14 34  1  0  0  0
 15 35  1  0  0  0
 21 36  1  0  0  0
 22 37  1  0  0  0
 23 38  1  0  0  0
 24 39  1  0  0  0
M  END
$$$$
