6e7t_ligand
  -I-interpret- 

 59 60  0  0  0  0  0  0  0  0999 V2000
   48.4280  -66.3340   32.7660 C   0  0  0  0  0
   47.8550  -67.5890   32.9670 C   0  0  0  0  0
   48.6670  -68.6780   33.3300 C   0  0  0  0  0
   50.0590  -68.4980   33.4970 C   0  0  0  0  0
   50.6360  -67.2520   33.2840 C   0  0  0  0  0
   49.8210  -66.1570   32.9210 C   0  0  0  0  0
   50.4420  -64.7750   32.6970 C   0  0  0  0  0
   49.8750  -64.0840   31.4730 C   0  0  0  0  0
   50.0340  -62.6010   31.5870 N   0  3  0  0  0
   49.0460  -61.9660   30.8070 C   0  0  0  0  0
   49.1650  -60.3600   30.9300 C   0  0  0  0  0
   48.0250  -59.6430   30.2360 C   0  0  0  0  0
   51.3650  -62.2190   31.1050 C   0  0  0  0  0
   52.4310  -62.5930   32.1340 C   0  0  0  0  0
   53.7860  -61.9760   31.7220 C   0  0  0  0  0
   54.6830  -62.1210   32.8290 O   0  0  0  0  0
   55.8010  -61.2160   32.8010 C   0  0  0  0  0
   56.7180  -61.2030   33.8590 C   0  0  0  0  0
   57.8430  -60.2990   33.8260 C   0  0  0  0  0
   57.9980  -59.4670   32.7880 C   0  0  0  0  0
   57.0720  -59.4820   31.7190 C   0  0  0  0  0
   55.9620  -60.3750   31.7510 C   0  0  0  0  0
   59.1510  -58.5620   32.7420 N   0  0  0  0  0
   60.4660  -58.9240   31.7590 S   0  0  0  0  0
   59.9090  -59.2260   30.0680 C   0  0  0  0  0
   61.4560  -57.8750   31.8060 O   0  0  0  0  0
   61.1990  -60.0370   32.2630 O   0  0  0  0  0
   52.0720  -62.1050   33.3840 O   0  0  0  0  0
   51.0680  -69.9020   33.9610 Cl  0  0  0  0  0
   47.9670  -70.3010   33.5530 Cl  0  0  0  0  0
   47.7998  -65.4875   32.4886 H   0  0  0  0  0
   46.7807  -67.7256   32.8431 H   0  0  0  0  0
   51.7121  -67.1203   33.3965 H   0  0  0  0  0
   51.5138  -64.9051   32.5470 H   0  0  0  0  0
   50.2200  -64.1583   33.5679 H   0  0  0  0  0
   48.8141  -64.3210   31.3924 H   0  0  0  0  0
   50.4122  -64.4307   30.5902 H   0  0  0  0  0
   49.9316  -62.3159   32.5610 H   0  0  0  0  0
   48.0635  -62.2746   31.1641 H   0  0  0  0  0
   49.1844  -62.2504   29.7639 H   0  0  0  0  0
   50.0965  -60.0529   30.4545 H   0  0  0  0  0
   49.1340  -60.0991   31.9878 H   0  0  0  0  0
   48.0258  -59.9016   29.1771 H   0  0  0  0  0
   47.0794  -59.9470   30.6849 H   0  0  0  0  0
   48.1525  -58.5663   30.3484 H   0  0  0  0  0
   51.3889  -61.1412   30.9444 H   0  0  0  0  0
   51.5702  -62.7461   30.1732 H   0  0  0  0  0
   52.5171  -63.6787   32.1779 H   0  0  0  0  0
   53.6626  -60.9231   31.4683 H   0  0  0  0  0
   54.1827  -62.4832   30.8425 H   0  0  0  0  0
   56.5826  -61.8747   34.7067 H   0  0  0  0  0
   58.5641  -60.2936   34.6434 H   0  0  0  0  0
   57.2074  -58.8107   30.8710 H   0  0  0  0  0
   55.2432  -60.3815   30.9316 H   0  0  0  0  0
   59.1552  -57.7125   33.3066 H   0  0  0  0  0
   59.4686  -58.3146   29.6637 H   0  0  0  0  0
   60.7594  -59.5234   29.4544 H   0  0  0  0  0
   59.1640  -60.0217   30.0689 H   0  0  0  0  0
   52.7457  -62.3435   34.0250 H   0  0  0  0  0
  1  2  4  0  0  0
  1  6  4  0  0  0
  2  3  4  0  0  0
  3  4  4  0  0  0
  3 30  1  0  0  0
  4  5  4  0  0  0
  4 29  1  0  0  0
  5  6  4  0  0  0
  6  7  1  0  0  0
  7  8  1  0  0  0
  8  9  1  0  0  0
  9 10  1  0  0  0
  9 13  1  0  0  0
 10 11  1  0  0  0
 11 12  1  0  0  0
 13 14  1  0  0  0
 14 15  1  0  0  0
 14 28  1  0  0  0
 15 16  1  0  0  0
 16 17  1  0  0  0
 17 18  4  0  0  0
 17 22  4  0  0  0
 18 19  4  0  0  0
 19 20  4  0  0  0
 20 21  4  0  0  0
 20 23  1  0  0  0
 21 22  4  0  0  0
 23 24  1  0  0  0
 24 25  1  0  0  0
 24 26  2  0  0  0
 24 27  2  0  0  0
  1 31  1  0  0  0
  2 32  1  0  0  0
  5 33  1  0  0  0
  7 34  1  0  0  0
  7 35  1  0  0  0
  8 36  1  0  0  0
  8 37  1  0  0  0
  9 38  1  0  0  0
 10 39  1  0  0  0
 10 40  1  0  0  0
 11 41  1  0  0  0
 11 42  1  0  0  0
 12 43  1  0  0  0
 12 44  1  0  0  0
 12 45  1  0  0  0
 13 46  1  0  0  0
 13 47  1  0  0  0
 14 48  1  0  0  0
 15 49  1  0  0  0
 15 50  1  0  0  0
 18 51  1  0  0  0
 19 52  1  0  0  0
 21 53  1  0  0  0
 22 54  1  0  0  0
 23 55  1  0  0  0
 25 56  1  0  0  0
 25 57  1  0  0  0
 25 58  1  0  0  0
 28 59  1  0  0  0
M  END
$$$$
