6jaq_ligand
  -I-interpret- 

 24 24  0  0  0  0  0  0  0  0999 V2000
   -6.5250  -32.2090  -14.0660 C   0  0  0  0  0
   -7.7860  -31.9190  -13.2750 C   0  0  0  0  0
   -8.6230  -30.8860  -14.0070 C   0  0  0  0  0
   -7.7890  -29.6290  -14.1910 C   0  0  0  0  0
   -6.4980  -29.9690  -14.9340 C   0  0  0  0  0
   -5.6010  -28.7430  -15.0220 C   0  0  0  0  0
   -6.8680  -32.8100  -15.2890 O   0  0  0  0  0
   -8.5220  -33.1440  -13.1360 O   0  0  0  0  0
   -9.7890  -30.6020  -13.2120 O   0  0  0  0  0
   -8.5470  -28.6900  -14.9470 O   0  0  0  0  0
   -5.8050  -30.9780  -14.2430 O   0  0  0  0  0
   -4.4340  -28.9560  -15.8440 O   0  0  0  0  0
   -5.8782  -32.9072  -13.5347 H   0  0  0  0  0
   -7.5336  -31.5243  -12.2908 H   0  0  0  0  0
   -8.9337  -31.2540  -14.9848 H   0  0  0  0  0
   -7.5330  -29.2059  -13.2196 H   0  0  0  0  0
   -6.7570  -30.3075  -15.9372 H   0  0  0  0  0
   -5.2589  -28.5088  -14.0139 H   0  0  0  0  0
   -6.1819  -27.9381  -15.4723 H   0  0  0  0  0
   -7.3454  -33.6257  -15.1206 H   0  0  0  0  0
   -7.9831  -33.7889  -12.6721 H   0  0  0  0  0
  -10.3050  -31.4044  -13.1047 H   0  0  0  0  0
   -9.3565  -28.4803  -14.4755 H   0  0  0  0  0
   -3.9070  -28.1538  -15.8636 H   0  0  0  0  0
  1  2  1  0  0  0
  1  7  1  0  0  0
 11  1  1  0  0  0
  3  2  1  0  0  0
  2  8  1  0  0  0
  4  3  1  0  0  0
  3  9  1  0  0  0
  5  4  1  0  0  0
  4 10  1  0  0  0
  6  5  1  0  0  0
  5 11  1  0  0  0
 12  6  1  0  0  0
  1 13  1  0  0  0
  2 14  1  0  0  0
  3 15  1  0  0  0
  4 16  1  0  0  0
  5 17  1  0  0  0
  6 18  1  0  0  0
  6 19  1  0  0  0
  7 20  1  0  0  0
  8 21  1  0  0  0
  9 22  1  0  0  0
 10 23  1  0  0  0
 12 24  1  0  0  0
M  END
$$$$
