3hkw_ligand
  -I-interpret- 

 73 77  0  0  0  0  0  0  0  0999 V2000
   39.3060    3.7770  -19.0200 C   0  0  0  0  0
   38.9410    3.7620  -17.6850 C   0  0  0  0  0
   37.9060    2.9560  -17.2530 C   0  0  0  0  0
   37.2210    2.1300  -18.1640 C   0  0  0  0  0
   37.5700    2.2010  -19.5170 C   0  0  0  0  0
   38.6280    2.9950  -19.9380 C   0  0  0  0  0
   34.8280    1.5540  -18.4160 C   0  0  0  0  0
   35.6700   -0.0290  -21.9410 C   0  0  0  0  0
   34.4350    3.6330  -19.9240 C   0  0  0  0  0
   34.5810    3.0560  -18.6660 C   0  0  0  0  0
   34.2130    4.9910  -20.0530 C   0  0  0  0  0
   34.1600    5.8140  -18.9290 C   0  0  0  0  0
   34.5210    3.8840  -17.5450 C   0  0  0  0  0
   33.5260    0.8560  -22.8690 C   0  0  0  0  0
   31.3510    7.3290  -20.0280 C   0  0  0  0  0
   38.9600    3.0020  -21.2640 O   0  0  0  0  0
   36.3170    0.5210  -16.6490 C   0  0  0  0  0
   37.6000   -0.0210  -16.1800 C   0  0  0  0  0
   38.5520   -0.6740  -16.9170 C   0  0  0  0  0
   39.2130   -0.5960  -15.0300 C   0  0  0  0  0
   40.1120   -0.7990  -13.8460 C   0  0  0  0  0
   38.4980   -0.9830  -18.3950 C   0  0  0  0  0
   34.6780    3.3490  -16.3470 F   0  0  0  0  0
   34.3150    5.2420  -17.6690 C   0  0  0  0  0
   33.9500    7.1650  -19.0120 O   0  0  0  0  0
   33.7550    7.8600  -20.2400 C   0  0  0  0  0
   32.3960    7.5590  -20.8410 C   0  0  0  0  0
   32.2010    7.5490  -22.3440 C   0  0  0  0  0
   36.1060    1.3470  -17.7280 N   0  0  0  0  0
   38.0360    0.0360  -14.9290 N   0  0  0  0  0
   39.4670   -0.9950  -16.1710 O   0  0  0  0  0
   35.3030    0.1960  -16.0500 O   0  0  0  0  0
   34.8080    0.7460  -19.6880 C   0  0  0  0  0
   33.4080   -0.2290  -19.8180 S   0  0  0  0  0
   32.2750    0.6440  -19.7740 O   0  0  0  0  0
   33.3780   -1.1930  -18.7420 O   0  0  0  0  0
   33.5100   -1.1430  -21.3650 C   0  0  0  0  0
   34.2840   -0.4060  -22.4590 C   0  0  0  0  0
   34.4020   -1.3620  -23.6510 C   0  0  0  0  0
   35.7790    0.7400  -20.6270 C   0  0  0  0  0
   36.9760    1.4230  -20.5280 N   0  0  0  0  0
   40.1315    4.4079  -19.3496 H   0  0  0  0  0
   39.4734    4.3899  -16.9705 H   0  0  0  0  0
   37.6182    2.9595  -16.2017 H   0  0  0  0  0
   34.0090    1.2064  -17.7864 H   0  0  0  0  0
   36.0812    0.6413  -22.6958 H   0  0  0  0  0
   36.1703   -0.9793  -21.7548 H   0  0  0  0  0
   34.4963    3.0085  -20.8153 H   0  0  0  0  0
   34.0779    5.4233  -21.0444 H   0  0  0  0  0
   33.4231    1.5131  -22.0055 H   0  0  0  0  0
   34.0783    1.3708  -23.6551 H   0  0  0  0  0
   32.5378    0.5811  -23.2378 H   0  0  0  0  0
   31.4846    7.3598  -18.9467 H   0  0  0  0  0
   30.3697    7.1117  -20.4499 H   0  0  0  0  0
   38.3828    2.4008  -21.7404 H   0  0  0  0  0
   40.3907    0.1703  -13.4326 H   0  0  0  0  0
   39.5872   -1.3811  -13.0885 H   0  0  0  0  0
   41.0089   -1.3331  -14.1598 H   0  0  0  0  0
   37.6288   -1.6071  -18.6029 H   0  0  0  0  0
   38.4213   -0.0522  -18.9569 H   0  0  0  0  0
   39.4050   -1.5119  -18.6877 H   0  0  0  0  0
   34.2734    5.8691  -16.7784 H   0  0  0  0  0
   34.5222    7.5378  -20.9440 H   0  0  0  0  0
   33.8156    8.9304  -20.0436 H   0  0  0  0  0
   31.8336    6.5710  -22.6549 H   0  0  0  0  0
   31.4767    8.3153  -22.6202 H   0  0  0  0  0
   33.1529    7.7535  -22.8340 H   0  0  0  0  0
   32.4922   -1.2903  -21.7263 H   0  0  0  0  0
   34.0379   -2.0745  -21.1610 H   0  0  0  0  0
   34.9609   -0.8762  -24.4508 H   0  0  0  0  0
   34.9237   -2.2668  -23.3392 H   0  0  0  0  0
   33.4050   -1.6206  -24.0078 H   0  0  0  0  0
   37.5519    1.3471  -21.3665 H   0  0  0  0  0
  2  1  4  0  0  0
  6  1  4  0  0  0
  3  2  4  0  0  0
  4  3  4  0  0  0
  4  5  4  0  0  0
 29  4  1  0  0  0
  5  6  4  0  0  0
  5 41  1  0  0  0
  6 16  1  0  0  0
  7 10  1  0  0  0
  7 29  1  0  0  0
 33  7  1  0  0  0
  8 38  1  0  0  0
 40  8  1  0  0  0
 10  9  4  0  0  0
  9 11  4  0  0  0
 10 13  4  0  0  0
 11 12  4  0  0  0
 24 12  4  0  0  0
 12 25  1  0  0  0
 13 23  1  0  0  0
 13 24  4  0  0  0
 38 14  1  0  0  0
 27 15  2  0  0  0
 17 18  1  0  0  0
 29 17  1  0  0  0
 17 32  2  0  0  0
 18 19  4  0  0  0
 18 30  4  0  0  0
 19 22  1  0  0  0
 19 31  4  0  0  0
 20 21  1  0  0  0
 30 20  4  0  0  0
 20 31  4  0  0  0
 25 26  1  0  0  0
 26 27  1  0  0  0
 27 28  1  0  0  0
 33 34  1  0  0  0
 33 40  2  0  0  0
 34 35  2  0  0  0
 34 36  2  0  0  0
 34 37  1  0  0  0
 37 38  1  0  0  0
 38 39  1  0  0  0
 40 41  1  0  0  0
  1 42  1  0  0  0
  2 43  1  0  0  0
  3 44  1  0  0  0
  7 45  1  0  0  0
  8 46  1  0  0  0
  8 47  1  0  0  0
  9 48  1  0  0  0
 11 49  1  0  0  0
 14 50  1  0  0  0
 14 51  1  0  0  0
 14 52  1  0  0  0
 15 53  1  0  0  0
 15 54  1  0  0  0
 16 55  1  0  0  0
 21 56  1  0  0  0
 21 57  1  0  0  0
 21 58  1  0  0  0
 22 59  1  0  0  0
 22 60  1  0  0  0
 22 61  1  0  0  0
 24 62  1  0  0  0
 26 63  1  0  0  0
 26 64  1  0  0  0
 28 65  1  0  0  0
 28 66  1  0  0  0
 28 67  1  0  0  0
 37 68  1  0  0  0
 37 69  1  0  0  0
 39 70  1  0  0  0
 39 71  1  0  0  0
 39 72  1  0  0  0
 41 73  1  0  0  0
M  END
$$$$
