3img_ligand
  -I-interpret- 

 19 20  0  0  0  0  0  0  0  0999 V2000
   11.0130    9.2480   -4.8860 C   0  0  0  0  0
   15.1540   10.6640   -0.3500 C   0  0  0  0  0
   14.6520    9.7400   -4.7730 C   0  0  0  0  0
   13.8920   10.5310   -0.7930 C   0  0  0  0  0
   15.6410    9.9650   -3.8110 C   0  0  0  0  0
   12.9360   10.0220   -3.0710 C   0  0  0  0  0
   15.9890   10.4900   -1.3840 N   0  0  0  0  0
   12.3530    9.5300   -5.3910 O   0  0  0  0  0
   13.2960    9.7580   -4.4110 C   0  0  0  0  0
   13.9300   10.2620   -2.1070 C   0  0  0  0  0
   15.2770   10.2350   -2.4830 C   0  0  0  0  0
   11.0424    8.3567   -4.2593 H   0  0  0  0  0
   10.6619   10.0958   -4.2978 H   0  0  0  0  0
   10.3374    9.0816   -5.7251 H   0  0  0  0  0
   15.4489   10.8775    0.6774 H   0  0  0  0  0
   14.9350    9.5498   -5.8083 H   0  0  0  0  0
   12.9906   10.6256   -0.1875 H   0  0  0  0  0
   16.6936    9.9307   -4.0921 H   0  0  0  0  0
   11.8846   10.0396   -2.7839 H   0  0  0  0  0
  8  1  1  0  0  0
  4  2  4  0  0  0
  2  7  4  0  0  0
  3  5  4  0  0  0
  9  3  4  0  0  0
 10  4  4  0  0  0
  5 11  4  0  0  0
  9  6  4  0  0  0
  6 10  4  0  0  0
 11  7  4  0  0  0
  8  9  1  0  0  0
 10 11  4  0  0  0
  1 12  1  0  0  0
  1 13  1  0  0  0
  1 14  1  0  0  0
  2 15  1  0  0  0
  3 16  1  0  0  0
  4 17  1  0  0  0
  5 18  1  0  0  0
  6 19  1  0  0  0
M  END
$$$$
