1zom_ligand
  -I-interpret- 

 91 92  0  0  0  0  0  0  0  0999 V2000
   11.5170   51.1600   25.0990 C   0  0  0  0  0
   11.8800   51.2140   23.5830 C   0  0  0  0  0
   11.7280   52.5610   25.7520 C   0  0  0  0  0
   10.1370   50.8070   25.1710 O   0  0  0  0  0
   13.3390   51.5570   23.4590 N   0  0  0  0  0
   11.6680   49.8610   22.8880 C   0  0  0  0  0
   12.0110   49.9140   21.4000 C   0  0  0  0  0
   11.8040   48.5690   20.7430 C   0  0  0  0  0
   11.7580   48.8070   19.3050 N   0  0  0  0  0
   11.3390   47.9800   18.3420 C   0  0  0  0  0
   11.1520   46.6630   18.5590 N   0  0  0  0  0
   11.1120   48.5070   17.1430 N   0  0  0  0  0
   12.7470   52.8440   26.5100 N   0  0  0  0  0
   12.6530   54.1780   26.9320 C   0  0  0  0  0
   11.5190   54.8170   26.4310 C   0  0  0  0  0
   10.5850   53.8000   25.4600 S   0  0  0  0  0
   15.8550   53.3840   21.6960 N   0  0  0  0  0
   15.4690   52.7540   23.0100 C   0  0  0  0  0
   13.9110   52.6980   23.0460 C   0  0  0  0  0
   13.2450   53.6740   22.6950 O   0  0  0  0  0
   15.9860   53.5980   24.2340 C   0  0  0  0  0
   17.1790   52.8670   24.8420 C   0  0  0  0  0
   16.4900   55.0230   23.8560 C   0  0  0  0  0
   16.2200   55.1140   19.5340 N   0  0  0  0  0
   16.0380   53.7000   19.2060 C   0  0  0  0  0
   15.5770   52.9060   20.4400 C   0  0  0  0  0
   14.9590   51.8580   20.2420 O   0  0  0  0  0
   17.3440   53.1370   18.6530 C   0  0  0  0  0
   17.5950   53.6240   17.2320 C   0  0  0  0  0
   18.8820   53.0620   16.6920 C   0  0  0  0  0
   18.8260   53.1310   15.2320 N   0  0  0  0  0
   19.8270   52.9960   14.3460 C   0  0  0  0  0
   19.6000   52.7290   13.0620 N   0  0  0  0  0
   21.0610   53.1420   14.7670 O   0  0  0  0  0
   15.2370   56.0200   19.4570 C   0  0  0  0  0
   14.0760   55.6820   19.0860 O   0  0  0  0  0
   15.5480   57.3060   19.8100 N   0  0  0  0  0
   14.6030   58.4800   19.8400 C   0  0  0  0  0
   13.4530   58.2140   20.8840 C   0  0  0  0  0
   12.2380   59.0160   20.8330 C   0  0  0  0  0
   11.1630   58.7810   21.7790 C   0  0  0  0  0
   11.2830   57.7390   22.7980 C   0  0  0  0  0
   12.4720   56.9430   22.8640 C   0  0  0  0  0
   13.5410   57.1620   21.9390 C   0  0  0  0  0
    9.9050   57.4070   24.0350 Br  0  0  0  0  0
   15.3680   59.7540   20.2320 C   0  0  0  0  0
   12.1453   50.4420   25.6260 H   0  0  0  0  0
   11.2340   51.9550   23.1121 H   0  0  0  0  0
   10.0070   49.9449   24.7692 H   0  0  0  0  0
   13.9864   50.8159   23.7274 H   0  0  0  0  0
   10.6158   49.5928   22.9833 H   0  0  0  0  0
   12.3250   49.1311   23.3609 H   0  0  0  0  0
   13.0588   50.1951   21.2944 H   0  0  0  0  0
   11.3572   50.6409   20.9180 H   0  0  0  0  0
   10.8802   48.1058   21.0895 H   0  0  0  0  0
   12.6129   47.8841   20.9974 H   0  0  0  0  0
   12.0875   49.7210   18.9944 H   0  0  0  0  0
   10.8335   46.0612   17.7995 H   0  0  0  0  0
   11.3290   46.2681   19.4827 H   0  0  0  0  0
   11.2587   49.5045   16.9883 H   0  0  0  0  0
   13.3846   54.6616   27.5793 H   0  0  0  0  0
   11.2646   55.8556   26.6425 H   0  0  0  0  0
   16.3782   54.2582   21.7457 H   0  0  0  0  0
   15.9165   51.7630   23.0866 H   0  0  0  0  0
   15.1392   53.7078   24.9115 H   0  0  0  0  0
   16.8665   51.8765   25.1727 H   0  0  0  0  0
   17.9646   52.7702   24.0926 H   0  0  0  0  0
   17.5553   53.4338   25.6936 H   0  0  0  0  0
   17.3169   54.9393   23.1508 H   0  0  0  0  0
   15.6761   55.5854   23.3984 H   0  0  0  0  0
   16.8284   55.5377   24.7553 H   0  0  0  0  0
   17.1428   55.4257   19.8368 H   0  0  0  0  0
   15.2607   53.6071   18.4475 H   0  0  0  0  0
   17.2769   52.0491   18.6414 H   0  0  0  0  0
   18.1644   53.4742   19.2866 H   0  0  0  0  0
   17.6637   54.7118   17.2410 H   0  0  0  0  0
   16.7735   53.2919   16.5972 H   0  0  0  0  0
   19.0080   52.0290   17.0163 H   0  0  0  0  0
   19.7301   53.6364   17.0645 H   0  0  0  0  0
   17.9035   53.3049   14.8331 H   0  0  0  0  0
   20.3823   52.6394   12.4137 H   0  0  0  0  0
   18.6437   52.6140   12.7263 H   0  0  0  0  0
   16.5149   57.4875   20.0793 H   0  0  0  0  0
   14.1673   58.6109   18.8495 H   0  0  0  0  0
   12.1357   59.7972   20.0798 H   0  0  0  0  0
   10.2580   59.3865   21.7296 H   0  0  0  0  0
   12.5628   56.1662   23.6232 H   0  0  0  0  0
   14.4388   56.5476   22.0061 H   0  0  0  0  0
   15.8104   59.6213   21.2193 H   0  0  0  0  0
   16.1552   59.9427   19.5020 H   0  0  0  0  0
   14.6790   60.5984   20.2517 H   0  0  0  0  0
  2  1  1  0  0  0
  1  3  1  0  0  0
  1  4  1  0  0  0
  5  2  1  0  0  0
  2  6  1  0  0  0
  3 13  4  0  0  0
  3 16  4  0  0  0
 19  5  1  0  0  0
  6  7  1  0  0  0
  7  8  1  0  0  0
  8  9  1  0  0  0
  9 10  1  0  0  0
 10 11  1  0  0  0
 10 12  2  0  0  0
 13 14  4  0  0  0
 15 14  4  0  0  0
 16 15  4  0  0  0
 17 18  1  0  0  0
 26 17  1  0  0  0
 18 19  1  0  0  0
 18 21  1  0  0  0
 19 20  2  0  0  0
 21 22  1  0  0  0
 21 23  1  0  0  0
 25 24  1  0  0  0
 24 35  1  0  0  0
 25 26  1  0  0  0
 25 28  1  0  0  0
 26 27  2  0  0  0
 28 29  1  0  0  0
 29 30  1  0  0  0
 30 31  1  0  0  0
 31 32  1  0  0  0
 32 33  1  0  0  0
 32 34  2  0  0  0
 35 36  2  0  0  0
 35 37  1  0  0  0
 37 38  1  0  0  0
 38 39  1  0  0  0
 38 46  1  0  0  0
 39 40  4  0  0  0
 39 44  4  0  0  0
 40 41  4  0  0  0
 41 42  4  0  0  0
 42 43  4  0  0  0
 42 45  1  0  0  0
 43 44  4  0  0  0
  1 47  1  0  0  0
  2 48  1  0  0  0
  4 49  1  0  0  0
  5 50  1  0  0  0
  6 51  1  0  0  0
  6 52  1  0  0  0
  7 53  1  0  0  0
  7 54  1  0  0  0
  8 55  1  0  0  0
  8 56  1  0  0  0
  9 57  1  0  0  0
 11 58  1  0  0  0
 11 59  1  0  0  0
 12 60  1  0  0  0
 14 61  1  0  0  0
 15 62  1  0  0  0
 17 63  1  0  0  0
 18 64  1  0  0  0
 21 65  1  0  0  0
 22 66  1  0  0  0
 22 67  1  0  0  0
 22 68  1  0  0  0
 23 69  1  0  0  0
 23 70  1  0  0  0
 23 71  1  0  0  0
 24 72  1  0  0  0
 25 73  1  0  0  0
 28 74  1  0  0  0
 28 75  1  0  0  0
 29 76  1  0  0  0
 29 77  1  0  0  0
 30 78  1  0  0  0
 30 79  1  0  0  0
 31 80  1  0  0  0
 33 81  1  0  0  0
 33 82  1  0  0  0
 37 83  1  0  0  0
 38 84  1  0  0  0
 40 85  1  0  0  0
 41 86  1  0  0  0
 43 87  1  0  0  0
 44 88  1  0  0  0
 46 89  1  0  0  0
 46 90  1  0  0  0
 46 91  1  0  0  0
M  END
$$$$
