3iph_ligand
  -I-interpret- 

 47 50  0  0  0  0  0  0  0  0999 V2000
   40.7390   31.2240   32.5620 C   0  0  0  0  0
   41.9720   32.0370   32.5130 C   0  0  0  0  0
   40.6020   30.3750   33.6560 C   0  0  0  0  0
   39.7390   31.2890   31.6010 C   0  0  0  0  0
   42.0800   33.1910   33.2620 C   0  0  0  0  0
   43.0270   31.6210   31.7650 N   0  0  0  0  0
   39.5000   29.5370   33.8490 C   0  0  0  0  0
   38.6310   30.4630   31.7760 C   0  0  0  0  0
   39.8330   32.2060   30.3860 C   0  0  0  0  0
   44.1480   32.3570   31.7360 C   0  0  0  0  0
   43.2380   33.9530   33.2410 C   0  0  0  0  0
   39.5090   28.6770   35.0810 C   0  0  0  0  0
   38.5070   29.5980   32.8750 C   0  0  0  0  0
   44.3150   33.5330   32.4730 C   0  0  0  0  0
   38.6130   27.6400   35.1970 N   0  0  0  0  0
   40.3210   28.9230   35.9890 O   0  0  0  0  0
   45.5420   34.3580   32.4330 C   0  0  0  0  0
   38.6000   26.7110   36.2870 C   0  0  0  0  0
   46.4540   33.9380   31.5100 N   0  0  0  0  0
   45.6990   35.3800   33.0970 O   0  0  0  0  0
   38.2780   27.4790   37.5200 C   0  0  0  0  0
   37.2120   26.6860   36.8160 C   0  0  0  0  0
   47.7350   34.5760   31.2270 C   0  0  0  0  0
   48.8060   33.6970   31.8430 C   0  0  0  0  0
   49.0220   33.9820   33.2770 C   0  0  0  0  0
   50.0520   34.3630   32.2750 C   0  0  0  0  0
   41.3964   30.3628   34.4022 H   0  0  0  0  0
   41.2407   33.5088   33.8806 H   0  0  0  0  0
   37.8328   30.4891   31.0342 H   0  0  0  0  0
   39.9143   33.2408   30.7188 H   0  0  0  0  0
   40.7130   31.9413   29.7998 H   0  0  0  0  0
   38.9386   32.0890   29.7741 H   0  0  0  0  0
   44.9710   32.0208   31.1053 H   0  0  0  0  0
   43.3020   34.8730   33.8220 H   0  0  0  0  0
   37.6230   28.9669   32.9667 H   0  0  0  0  0
   37.9152   27.5256   34.4619 H   0  0  0  0  0
   39.3436   25.9633   36.0110 H   0  0  0  0  0
   46.2199   33.1048   30.9703 H   0  0  0  0  0
   38.4238   28.4803   37.9254 H   0  0  0  0  0
   38.6691   27.6152   38.5283 H   0  0  0  0  0
   36.4394   25.9559   37.0570 H   0  0  0  0  0
   36.1935   26.8229   36.4528 H   0  0  0  0  0
   47.7691   35.5813   31.6470 H   0  0  0  0  0
   47.8882   34.6793   30.1528 H   0  0  0  0  0
   48.6029   32.8197   31.2288 H   0  0  0  0  0
   48.6783   33.9421   34.3106 H   0  0  0  0  0
   51.0179   34.8076   32.0351 H   0  0  0  0  0
  1  2  1  0  0  0
  1  3  4  0  0  0
  1  4  4  0  0  0
  2  5  4  0  0  0
  2  6  4  0  0  0
  3  7  4  0  0  0
  4  8  4  0  0  0
  4  9  1  0  0  0
  5 11  4  0  0  0
  6 10  4  0  0  0
  7 12  1  0  0  0
  7 13  4  0  0  0
  8 13  4  0  0  0
 10 14  4  0  0  0
 11 14  4  0  0  0
 12 15  1  0  0  0
 12 16  2  0  0  0
 14 17  1  0  0  0
 15 18  1  0  0  0
 17 19  1  0  0  0
 17 20  2  0  0  0
 18 21  1  0  0  0
 18 22  1  0  0  0
 19 23  1  0  0  0
 21 22  1  0  0  0
 23 24  1  0  0  0
 24 25  1  0  0  0
 24 26  1  0  0  0
 25 26  2  0  0  0
  3 27  1  0  0  0
  5 28  1  0  0  0
  8 29  1  0  0  0
  9 30  1  0  0  0
  9 31  1  0  0  0
  9 32  1  0  0  0
 10 33  1  0  0  0
 11 34  1  0  0  0
 13 35  1  0  0  0
 15 36  1  0  0  0
 18 37  1  0  0  0
 19 38  1  0  0  0
 21 39  1  0  0  0
 21 40  1  0  0  0
 22 41  1  0  0  0
 22 42  1  0  0  0
 23 43  1  0  0  0
 23 44  1  0  0  0
 24 45  1  0  0  0
 25 46  1  0  0  0
 26 47  1  0  0  0
M  END
$$$$
