4yps_ligand
  -I-interpret- 

 48 52  0  0  0  0  0  0  0  0999 V2000
  -20.4270  -45.9490  -14.8480 C   0  0  0  0  0
  -20.0520  -46.8820  -15.8130 C   0  0  0  0  0
  -18.9890  -47.7390  -15.5730 C   0  0  0  0  0
  -18.1650  -44.3580  -11.0930 C   0  0  0  0  0
  -17.4940  -41.6530  -11.3270 C   0  0  0  0  0
  -18.0530  -42.1390  -10.1440 C   0  0  0  0  0
  -18.3990  -43.4780  -10.0330 C   0  0  0  0  0
  -16.5940  -40.5180  -12.9810 C   0  0  0  0  0
  -16.7330  -41.8340  -13.3530 C   0  0  0  0  0
  -16.3880  -42.4920  -14.6610 C   0  0  0  0  0
  -16.2890  -41.6770  -15.7830 C   0  0  0  0  0
  -15.9710  -42.2060  -17.0360 C   0  0  0  0  0
  -15.7220  -43.5630  -17.1680 C   0  0  0  0  0
  -15.8100  -44.3920  -16.0590 C   0  0  0  0  0
  -16.1390  -43.8660  -14.8080 C   0  0  0  0  0
  -15.4450  -44.0600  -18.3190 C   0  0  0  0  0
  -15.2000  -44.4760  -19.3690 N   0  0  0  0  0
  -17.2960  -42.4980  -12.3290 N   0  0  0  0  0
  -17.6290  -43.8500  -12.2220 N   0  0  0  0  0
  -17.0710  -40.4260  -11.7220 N   0  0  0  0  0
  -18.5190  -45.7310  -11.0880 N   0  0  0  0  0
  -19.5790  -46.2390  -10.2110 C   0  0  0  0  0
  -19.4690  -47.7400  -10.0000 C   0  0  0  0  0
  -18.1190  -48.1180  -10.1320 O   0  0  0  0  0
  -17.7610  -48.0620  -11.4960 C   0  0  0  0  0
  -17.9080  -46.6540  -12.0730 C   0  0  0  0  0
  -18.6790  -46.7180  -13.3590 C   0  0  0  0  0
  -19.7480  -45.8620  -13.6280 C   0  0  0  0  0
  -21.4600  -45.1180  -15.1010 F   0  0  0  0  0
  -18.3130  -47.6450  -14.3510 C   0  0  0  0  0
  -20.5946  -46.9379  -16.7567 H   0  0  0  0  0
  -18.6857  -48.4715  -16.3211 H   0  0  0  0  0
  -18.2183  -41.4641   -9.3042 H   0  0  0  0  0
  -18.8558  -43.8455   -9.1141 H   0  0  0  0  0
  -16.1805  -39.7092  -13.5835 H   0  0  0  0  0
  -16.4627  -40.6056  -15.6830 H   0  0  0  0  0
  -15.9188  -41.5534  -17.9075 H   0  0  0  0  0
  -15.6212  -45.4603  -16.1649 H   0  0  0  0  0
  -16.2028  -44.5248  -13.9420 H   0  0  0  0  0
  -20.5404  -46.0293  -10.6799 H   0  0  0  0  0
  -19.4844  -45.7497   -9.2416 H   0  0  0  0  0
  -20.0736  -48.2629  -10.7411 H   0  0  0  0  0
  -19.8305  -48.0011   -9.0054 H   0  0  0  0  0
  -18.4249  -48.7266  -12.0489 H   0  0  0  0  0
  -16.7158  -48.3581  -11.5852 H   0  0  0  0  0
  -16.9205  -46.2486  -12.2935 H   0  0  0  0  0
  -20.0544  -45.1244  -12.8862 H   0  0  0  0  0
  -17.4734  -48.3138  -14.1617 H   0  0  0  0  0
  1  2  4  0  0  0
 28  1  4  0  0  0
  1 29  1  0  0  0
  2  3  4  0  0  0
  3 30  4  0  0  0
  4  7  4  0  0  0
  4 19  4  0  0  0
 21  4  1  0  0  0
  6  5  4  0  0  0
 18  5  4  0  0  0
  5 20  4  0  0  0
  7  6  4  0  0  0
  9  8  4  0  0  0
  8 20  4  0  0  0
  9 10  1  0  0  0
 18  9  4  0  0  0
 10 11  4  0  0  0
 10 15  4  0  0  0
 11 12  4  0  0  0
 12 13  4  0  0  0
 14 13  4  0  0  0
 13 16  1  0  0  0
 15 14  4  0  0  0
 16 17  3  0  0  0
 19 18  4  0  0  0
 21 22  1  0  0  0
 26 21  1  0  0  0
 22 23  1  0  0  0
 24 23  1  0  0  0
 25 24  1  0  0  0
 26 25  1  0  0  0
 27 26  1  0  0  0
 27 28  4  0  0  0
 27 30  4  0  0  0
  2 31  1  0  0  0
  3 32  1  0  0  0
  6 33  1  0  0  0
  7 34  1  0  0  0
  8 35  1  0  0  0
 11 36  1  0  0  0
 12 37  1  0  0  0
 14 38  1  0  0  0
 15 39  1  0  0  0
 22 40  1  0  0  0
 22 41  1  0  0  0
 23 42  1  0  0  0
 23 43  1  0  0  0
 25 44  1  0  0  0
 25 45  1  0  0  0
 26 46  1  0  0  0
 28 47  1  0  0  0
 30 48  1  0  0  0
M  END
$$$$
