6ocz_ligand
  -I-interpret- 

 72 75  0  0  0  0  0  0  0  0999 V2000
   76.6190  -26.6590  199.9000 C   0  0  0  0  0
   77.0870  -25.3540  199.9470 C   0  0  0  0  0
   78.5370  -24.9020  199.8020 C   0  0  0  0  0
   76.0190  -24.5620  200.1450 O   0  0  0  0  0
   74.9040  -25.3430  200.2220 N   0  0  0  0  0
   75.2430  -26.6120  200.0800 C   0  0  0  0  0
   74.2850  -27.8040  200.1010 C   0  0  0  0  0
   74.6850  -28.8910  200.3480 O   0  0  0  0  0
   67.9360  -24.6470  200.1750 C   0  0  0  0  0
   67.6320  -26.5710  198.9190 C   0  0  0  0  0
   66.0840  -28.3800  198.6890 C   0  0  0  0  0
   67.4110  -26.2130  197.5980 C   0  0  0  0  0
   72.1880  -29.5470  198.5480 C   0  0  0  0  0
   71.9760  -28.7340  199.8220 C   0  0  0  0  0
   70.5310  -28.2440  199.8300 C   0  0  0  0  0
   69.9470  -27.7050  201.1330 C   0  0  0  0  0
   68.4640  -25.9940  202.1380 C   0  0  0  0  0
   67.3470  -25.0590  201.5430 C   0  0  0  0  0
   68.5870  -25.7550  199.7590 C   0  0  0  0  0
   66.9650  -27.6490  199.4680 C   0  0  0  0  0
   65.8680  -28.0270  197.3660 C   0  0  0  0  0
   66.5310  -26.9410  196.8190 C   0  0  0  0  0
   69.0450  -26.5640  201.0920 N   0  0  0  0  0
   72.8750  -27.6010  199.8090 N   0  0  0  0  0
   72.4390  -29.0110  197.5180 O   0  0  0  0  0
   70.2160  -28.2110  202.1680 O   0  0  0  0  0
   72.0730  -30.9970  198.6150 N   0  0  0  0  0
   72.2490  -31.8150  197.4260 C   0  0  0  0  0
   70.8630  -32.3030  196.9890 C   0  0  0  0  0
   70.0740  -32.6720  197.7950 O   0  0  0  0  0
   73.1380  -32.9990  197.7870 C   0  0  0  0  0
   69.1530  -32.7880  195.2210 C   0  0  0  0  0
   68.5620  -31.8840  194.1360 C   0  0  0  0  0
   68.6780  -32.2410  192.8040 C   0  0  0  0  0
   68.1380  -31.4230  191.8200 C   0  0  0  0  0
   67.4930  -30.2490  192.1710 C   0  0  0  0  0
   67.3780  -29.8900  193.5030 C   0  0  0  0  0
   67.9130  -30.7100  194.4830 C   0  0  0  0  0
   66.9710  -29.4440  191.2070 F   0  0  0  0  0
   67.7960  -30.3580  195.7920 F   0  0  0  0  0
   70.4830  -32.3180  195.5880 N   0  0  0  0  0
   77.2203  -27.5556  199.7496 H   0  0  0  0  0
   79.1381  -25.3553  200.5903 H   0  0  0  0  0
   78.9175  -25.2127  198.8290 H   0  0  0  0  0
   78.5877  -23.8162  199.8835 H   0  0  0  0  0
   68.5945  -23.7816  200.2498 H   0  0  0  0  0
   67.1676  -24.3276  199.4710 H   0  0  0  0  0
   65.5595  -29.2344  199.1168 H   0  0  0  0  0
   67.9323  -25.3555  197.1726 H   0  0  0  0  0
   72.1731  -29.3379  200.7078 H   0  0  0  0  0
   69.9323  -29.1237  199.5938 H   0  0  0  0  0
   70.5145  -27.3992  199.1414 H   0  0  0  0  0
   68.0429  -26.7376  202.8146 H   0  0  0  0  0
   69.1811  -25.4293  202.7338 H   0  0  0  0  0
   66.3807  -25.5558  201.4560 H   0  0  0  0  0
   67.1241  -24.2051  202.1828 H   0  0  0  0  0
   69.4650  -25.5255  199.1551 H   0  0  0  0  0
   67.1315  -27.9229  200.5098 H   0  0  0  0  0
   65.1750  -28.6053  196.7550 H   0  0  0  0  0
   66.3598  -26.6617  195.7794 H   0  0  0  0  0
   72.5229  -26.6675  199.5968 H   0  0  0  0  0
   71.8662  -31.4447  199.5078 H   0  0  0  0  0
   72.7143  -31.2541  196.6155 H   0  0  0  0  0
   74.1037  -32.6335  198.1362 H   0  0  0  0  0
   72.6620  -33.5820  198.5754 H   0  0  0  0  0
   73.2819  -33.6254  196.9066 H   0  0  0  0  0
   69.2240  -33.8070  194.8406 H   0  0  0  0  0
   68.5081  -32.7641  196.0995 H   0  0  0  0  0
   69.1918  -33.1618  192.5278 H   0  0  0  0  0
   68.2220  -31.7054  190.7706 H   0  0  0  0  0
   66.8690  -28.9666  193.7794 H   0  0  0  0  0
   71.1371  -32.0042  194.8710 H   0  0  0  0  0
  1  2  4  0  0  0
  6  1  4  0  0  0
  2  3  1  0  0  0
  4  2  4  0  0  0
  5  4  4  0  0  0
  6  5  4  0  0  0
  7  6  1  0  0  0
  7  8  2  0  0  0
 24  7  1  0  0  0
  9 18  1  0  0  0
 19  9  1  0  0  0
 10 12  4  0  0  0
 19 10  1  0  0  0
 10 20  4  0  0  0
 20 11  4  0  0  0
 11 21  4  0  0  0
 12 22  4  0  0  0
 13 14  1  0  0  0
 13 25  2  0  0  0
 27 13  1  0  0  0
 14 15  1  0  0  0
 14 24  1  0  0  0
 15 16  1  0  0  0
 16 23  1  0  0  0
 16 26  2  0  0  0
 17 18  1  0  0  0
 23 17  1  0  0  0
 23 19  1  0  0  0
 22 21  4  0  0  0
 28 27  1  0  0  0
 29 28  1  0  0  0
 28 31  1  0  0  0
 29 30  2  0  0  0
 41 29  1  0  0  0
 32 33  1  0  0  0
 32 41  1  0  0  0
 33 34  4  0  0  0
 33 38  4  0  0  0
 34 35  4  0  0  0
 35 36  4  0  0  0
 36 37  4  0  0  0
 36 39  1  0  0  0
 37 38  4  0  0  0
 38 40  1  0  0  0
  1 42  1  0  0  0
  3 43  1  0  0  0
  3 44  1  0  0  0
  3 45  1  0  0  0
  9 46  1  0  0  0
  9 47  1  0  0  0
 11 48  1  0  0  0
 12 49  1  0  0  0
 14 50  1  0  0  0
 15 51  1  0  0  0
 15 52  1  0  0  0
 17 53  1  0  0  0
 17 54  1  0  0  0
 18 55  1  0  0  0
 18 56  1  0  0  0
 19 57  1  0  0  0
 20 58  1  0  0  0
 21 59  1  0  0  0
 22 60  1  0  0  0
 24 61  1  0  0  0
 27 62  1  0  0  0
 28 63  1  0  0  0
 31 64  1  0  0  0
 31 65  1  0  0  0
 31 66  1  0  0  0
 32 67  1  0  0  0
 32 68  1  0  0  0
 34 69  1  0  0  0
 35 70  1  0  0  0
 37 71  1  0  0  0
 41 72  1  0  0  0
M  END
$$$$
