3oki_ligand
  -I-interpret- 

 64 68  0  0  0  0  0  0  0  0999 V2000
   13.6490   24.9950    2.8130 C   0  0  0  0  0
   12.8180   24.3330    3.7600 N   0  0  0  0  0
   12.9820   25.9140    2.0870 N   0  0  0  0  0
   12.5150   21.9900    4.3880 C   0  0  0  0  0
   13.2440   23.3330    4.6950 C   0  0  0  0  0
   11.5370   24.8890    3.6120 C   0  0  0  0  0
   11.6570   25.8850    2.5620 C   0  0  0  0  0
   12.5400   21.6090    3.0750 N   0  0  0  0  0
   15.0680   24.6570    2.6540 C   0  0  0  0  0
   11.9680   21.3130    5.2750 O   0  0  0  0  0
   13.0930   23.7080    6.1910 C   0  0  0  0  0
   15.4310   23.5830    1.8340 C   0  0  0  0  0
   16.0590   25.3850    3.3270 C   0  0  0  0  0
   17.7510   23.9630    2.3380 C   0  0  0  0  0
   11.8750   20.4420    2.5460 C   0  0  0  0  0
   16.7660   23.2320    1.6690 C   0  0  0  0  0
   17.4020   25.0390    3.1650 C   0  0  0  0  0
   19.3820   23.5320    2.1340 Cl  0  0  0  0  0
   10.3130   24.6580    4.2580 C   0  0  0  0  0
   10.5280   26.6290    2.1830 C   0  0  0  0  0
   13.2280   25.2090    6.4020 C   0  0  0  0  0
   14.1360   22.9560    7.0090 C   0  0  0  0  0
   12.7620   19.7120    1.5200 C   0  0  0  0  0
   10.5540   20.8400    1.8700 C   0  0  0  0  0
    9.2230   25.4140    3.8550 C   0  0  0  0  0
    9.3310   26.3790    2.8360 C   0  0  0  0  0
   14.0580   23.3370    8.4720 C   0  0  0  0  0
   13.2550   25.5990    7.8690 C   0  0  0  0  0
    9.8540   19.6150    1.3280 C   0  0  0  0  0
   12.0570   18.5060    0.9420 C   0  0  0  0  0
   14.2880   24.8190    8.6530 C   0  0  0  0  0
   10.7420   18.9180    0.3180 C   0  0  0  0  0
   14.3199   23.2359    4.5499 H   0  0  0  0  0
   13.0660   22.1908    2.4229 H   0  0  0  0  0
   12.0955   23.4205    6.5233 H   0  0  0  0  0
   14.6573   23.0144    1.3181 H   0  0  0  0  0
   15.7824   26.2175    3.9739 H   0  0  0  0  0
   11.6753   19.7714    3.3818 H   0  0  0  0  0
   17.0410   22.3964    1.0254 H   0  0  0  0  0
   18.1776   25.6049    3.6810 H   0  0  0  0  0
   10.2225   23.9118    5.0474 H   0  0  0  0  0
   10.5910   27.3820    1.3974 H   0  0  0  0  0
   12.3620   25.6887    5.9458 H   0  0  0  0  0
   14.1713   25.5245    5.9561 H   0  0  0  0  0
   15.1264   23.2134    6.6334 H   0  0  0  0  0
   13.9478   21.8864    6.9162 H   0  0  0  0  0
   13.6685   19.3754    2.0230 H   0  0  0  0  0
   12.9915   20.4015    0.7076 H   0  0  0  0  0
   10.7662   21.5226    1.0471 H   0  0  0  0  0
    9.9094   21.3233    2.6042 H   0  0  0  0  0
    8.2590   25.2573    4.3390 H   0  0  0  0  0
    8.4456   26.9476    2.5514 H   0  0  0  0  0
   14.8278   22.7924    9.0187 H   0  0  0  0  0
   13.0661   23.0866    8.8481 H   0  0  0  0  0
   12.2747   25.3831    8.2939 H   0  0  0  0  0
   13.5106   26.6567    7.9326 H   0  0  0  0  0
    8.9258   19.9167    0.8427 H   0  0  0  0  0
    9.6384   18.9314    2.1492 H   0  0  0  0  0
   11.8638   17.7894    1.7403 H   0  0  0  0  0
   12.6894   18.0562    0.1766 H   0  0  0  0  0
   15.2836   25.0755    8.2911 H   0  0  0  0  0
   14.2024   25.0700    9.7102 H   0  0  0  0  0
   10.9455   19.6070   -0.5017 H   0  0  0  0  0
   10.2299   18.0243   -0.0387 H   0  0  0  0  0
  1  2  4  0  0  0
  1  3  4  0  0  0
  1  9  1  0  0  0
  2  5  1  0  0  0
  2  6  4  0  0  0
  3  7  4  0  0  0
  5  4  1  0  0  0
  4  8  1  0  0  0
  4 10  2  0  0  0
  5 11  1  0  0  0
  6  7  4  0  0  0
  6 19  4  0  0  0
  7 20  4  0  0  0
  8 15  1  0  0  0
  9 12  4  0  0  0
  9 13  4  0  0  0
 11 21  1  0  0  0
 11 22  1  0  0  0
 12 16  4  0  0  0
 13 17  4  0  0  0
 16 14  4  0  0  0
 14 17  4  0  0  0
 14 18  1  0  0  0
 15 23  1  0  0  0
 15 24  1  0  0  0
 19 25  4  0  0  0
 20 26  4  0  0  0
 21 28  1  0  0  0
 22 27  1  0  0  0
 23 30  1  0  0  0
 24 29  1  0  0  0
 25 26  4  0  0  0
 27 31  1  0  0  0
 28 31  1  0  0  0
 29 32  1  0  0  0
 30 32  1  0  0  0
  5 33  1  0  0  0
  8 34  1  0  0  0
 11 35  1  0  0  0
 12 36  1  0  0  0
 13 37  1  0  0  0
 15 38  1  0  0  0
 16 39  1  0  0  0
 17 40  1  0  0  0
 19 41  1  0  0  0
 20 42  1  0  0  0
 21 43  1  0  0  0
 21 44  1  0  0  0
 22 45  1  0  0  0
 22 46  1  0  0  0
 23 47  1  0  0  0
 23 48  1  0  0  0
 24 49  1  0  0  0
 24 50  1  0  0  0
 25 51  1  0  0  0
 26 52  1  0  0  0
 27 53  1  0  0  0
 27 54  1  0  0  0
 28 55  1  0  0  0
 28 56  1  0  0  0
 29 57  1  0  0  0
 29 58  1  0  0  0
 30 59  1  0  0  0
 30 60  1  0  0  0
 31 61  1  0  0  0
 31 62  1  0  0  0
 32 63  1  0  0  0
 32 64  1  0  0  0
M  END
$$$$
