6hti_ligand
  -I-interpret- 

 34 36  0  0  0  0  0  0  0  0999 V2000
   45.6140   33.5960   85.4800 C   0  0  0  0  0
   45.1880   33.9120   84.1910 C   0  0  0  0  0
   44.3340   34.9810   83.9810 C   0  0  0  0  0
   43.9070   35.7410   85.0570 C   0  0  0  0  0
   44.3260   35.4520   86.3620 C   0  0  0  0  0
   43.9640   37.6640   87.6460 C   0  0  0  0  0
   43.6030   38.0510   89.0470 C   0  0  0  0  0
   44.1660   36.3440   87.4520 N   0  0  0  0  0
   42.4140   37.5670   89.5880 C   0  0  0  0  0
   46.6790   31.4620   85.1050 N   0  0  0  0  0
   46.5950   32.5400   85.8730 C   0  0  0  0  0
   47.2610   32.6630   86.8990 O   0  0  0  0  0
   42.8060   38.8050   91.6130 C   0  0  0  0  0
   44.0160   39.3090   91.1190 C   0  0  0  0  0
   44.9960   40.1690   91.7110 C   0  0  0  0  0
   46.0570   40.3760   90.9050 C   0  0  0  0  0
   44.3980   38.9020   89.8300 C   0  0  0  0  0
   45.1590   34.3550   86.5540 C   0  0  0  0  0
   42.0260   37.9410   90.8620 C   0  0  0  0  0
   47.4210   30.3710   85.5490 O   0  0  0  0  0
   44.1240   38.5140   86.7770 O   0  0  0  0  0
   45.9420   39.5620   89.3930 S   0  0  0  0  0
   42.7470   37.0000   84.7760 Cl  0  0  0  0  0
   45.5287   33.3150   83.3450 H   0  0  0  0  0
   43.9989   35.2236   82.9726 H   0  0  0  0  0
   44.2184   35.8475   88.3415 H   0  0  0  0  0
   41.7874   36.8915   89.0056 H   0  0  0  0  0
   46.2065   31.4327   84.2015 H   0  0  0  0  0
   42.4716   39.0985   92.6081 H   0  0  0  0  0
   44.8954   40.6079   92.7037 H   0  0  0  0  0
   46.9064   40.9993   91.1844 H   0  0  0  0  0
   45.4614   34.0844   87.5656 H   0  0  0  0  0
   41.0972   37.5519   91.2791 H   0  0  0  0  0
   47.3881   29.6736   84.8901 H   0  0  0  0  0
  1  2  4  0  0  0
  1 11  1  0  0  0
 18  1  4  0  0  0
  3  2  4  0  0  0
  4  3  4  0  0  0
  5  4  4  0  0  0
  4 23  1  0  0  0
  8  5  1  0  0  0
  5 18  4  0  0  0
  7  6  1  0  0  0
  6  8  1  0  0  0
  6 21  2  0  0  0
  9  7  4  0  0  0
  7 17  4  0  0  0
 19  9  4  0  0  0
 11 10  1  0  0  0
 10 20  1  0  0  0
 11 12  2  0  0  0
 13 14  4  0  0  0
 13 19  4  0  0  0
 14 15  4  0  0  0
 14 17  4  0  0  0
 15 16  4  0  0  0
 16 22  4  0  0  0
 17 22  4  0  0  0
  2 24  1  0  0  0
  3 25  1  0  0  0
  8 26  1  0  0  0
  9 27  1  0  0  0
 10 28  1  0  0  0
 13 29  1  0  0  0
 15 30  1  0  0  0
 16 31  1  0  0  0
 18 32  1  0  0  0
 19 33  1  0  0  0
 20 34  1  0  0  0
M  END
$$$$
