2xpc_ligand
  -I-interpret- 

 60 63  0  0  0  0  0  0  0  0999 V2000
   21.6620   34.4520   46.6590 N   0  0  0  0  0
   20.5700   34.4340   47.0450 C   0  0  0  0  0
   19.3770   34.3900   47.5450 C   0  0  0  0  0
   18.2940   34.8570   46.8040 C   0  0  0  0  0
   17.0190   34.8210   47.3460 C   0  0  0  0  0
   15.9530   35.2620   46.6420 F   0  0  0  0  0
   19.1840   33.8970   48.8300 C   0  0  0  0  0
   17.9060   33.8680   49.3770 C   0  0  0  0  0
   16.8380   34.3380   48.6270 C   0  0  0  0  0
   15.4910   34.3480   49.2360 C   0  0  0  0  0
   15.2960   33.7410   50.5430 O   0  0  0  0  0
   14.5590   32.6010   50.2460 C   0  0  0  0  0
   13.9960   32.4540   48.9670 C   0  0  0  0  0
   13.1540   31.3640   48.6680 C   0  0  0  0  0
   12.6000   31.2170   47.3910 C   0  0  0  0  0
   11.7450   30.1400   47.1110 C   0  0  0  0  0
   14.3120   31.6300   51.2170 C   0  0  0  0  0
   13.4820   30.5350   50.9100 C   0  0  0  0  0
   12.8920   30.3910   49.6640 C   0  0  0  0  0
   12.0870   29.2850   49.3450 C   0  0  0  0  0
   11.4910   29.1560   48.0770 C   0  0  0  0  0
   10.4330   27.9730   47.6600 S   0  0  0  0  0
   10.5270   27.5510   46.2550 O   0  0  0  0  0
   10.4780   26.8760   48.6560 O   0  0  0  0  0
    9.0530   28.6860   47.7600 N   0  0  0  0  0
    8.3880   28.9830   49.0400 C   0  0  0  0  0
    8.6760   30.3440   49.6830 C   0  0  0  0  0
    7.8240   31.3700   48.9230 C   0  0  0  0  0
    6.3610   30.9510   49.1420 C   0  0  0  0  0
    5.4350   31.9900   48.5960 C   0  0  0  0  0
    5.2820   33.0190   49.3070 O   0  0  0  0  0
    4.8720   31.7690   47.4960 O   0  0  0  0  0
    6.0340   29.5550   48.5770 C   0  0  0  0  0
    6.9940   28.5430   49.2020 C   0  0  0  0  0
    6.7950   27.2520   48.8220 C   0  0  0  0  0
    7.0870   26.3140   49.6110 O   0  0  0  0  0
    6.3510   27.0520   47.6880 O   0  0  0  0  0
   18.4490   35.2502   45.7993 H   0  0  0  0  0
   20.0334   33.5335   49.4083 H   0  0  0  0  0
   17.7453   33.4806   50.3831 H   0  0  0  0  0
   14.8754   33.7553   48.5594 H   0  0  0  0  0
   15.2596   35.4031   49.3820 H   0  0  0  0  0
   14.2134   33.1929   48.1957 H   0  0  0  0  0
   12.8336   31.9418   46.6111 H   0  0  0  0  0
   11.2729   30.0676   46.1312 H   0  0  0  0  0
   14.7589   31.7186   52.2072 H   0  0  0  0  0
   13.2982   29.7792   51.6736 H   0  0  0  0  0
   11.9207   28.5114   50.0946 H   0  0  0  0  0
    8.5860   28.9612   46.8960 H   0  0  0  0  0
    8.9480   28.2798   49.6565 H   0  0  0  0  0
    9.7357   30.5909   49.6191 H   0  0  0  0  0
    8.4261   30.3366   50.7439 H   0  0  0  0  0
    8.0761   31.3846   47.8626 H   0  0  0  0  0
    8.0041   32.3810   49.2884 H   0  0  0  0  0
    6.2132   30.8750   50.2193 H   0  0  0  0  0
    5.8225   32.9441   50.0968 H   0  0  0  0  0
    6.1477   29.5559   47.4929 H   0  0  0  0  0
    5.0044   29.2884   48.8157 H   0  0  0  0  0
    6.7626   28.5266   50.2670 H   0  0  0  0  0
    7.4134   26.6811   50.4358 H   0  0  0  0  0
  1  2  3  0  0  0
  2  3  1  0  0  0
  3  4  4  0  0  0
  3  7  4  0  0  0
  4  5  4  0  0  0
  5  6  1  0  0  0
  5  9  4  0  0  0
  7  8  4  0  0  0
  8  9  4  0  0  0
  9 10  1  0  0  0
 10 11  1  0  0  0
 11 12  1  0  0  0
 12 13  4  0  0  0
 12 17  4  0  0  0
 13 14  4  0  0  0
 14 15  4  0  0  0
 14 19  4  0  0  0
 15 16  4  0  0  0
 16 21  4  0  0  0
 17 18  4  0  0  0
 18 19  4  0  0  0
 19 20  4  0  0  0
 20 21  4  0  0  0
 21 22  1  0  0  0
 22 23  2  0  0  0
 22 24  2  0  0  0
 22 25  1  0  0  0
 25 26  1  0  0  0
 26 27  1  0  0  0
 26 34  1  0  0  0
 27 28  1  0  0  0
 28 29  1  0  0  0
 29 30  1  0  0  0
 29 33  1  0  0  0
 30 31  1  0  0  0
 30 32  2  0  0  0
 33 34  1  0  0  0
 34 35  1  0  0  0
 35 36  1  0  0  0
 35 37  2  0  0  0
  4 38  1  0  0  0
  7 39  1  0  0  0
  8 40  1  0  0  0
 10 41  1  0  0  0
 10 42  1  0  0  0
 13 43  1  0  0  0
 15 44  1  0  0  0
 16 45  1  0  0  0
 17 46  1  0  0  0
 18 47  1  0  0  0
 20 48  1  0  0  0
 25 49  1  0  0  0
 26 50  1  0  0  0
 27 51  1  0  0  0
 27 52  1  0  0  0
 28 53  1  0  0  0
 28 54  1  0  0  0
 29 55  1  0  0  0
 31 56  1  0  0  0
 33 57  1  0  0  0
 33 58  1  0  0  0
 34 59  1  0  0  0
 36 60  1  0  0  0
M  END
$$$$
