3s75_ligand
  -I-interpret- 

 14 14  0  0  0  0  0  0  0  0999 V2000
   17.0670    2.5030   16.0570 O   0  0  0  0  0
   15.0520    0.9700   16.9280 S   0  0  0  0  0
   13.5960    1.0410   16.7320 O   0  0  0  0  0
   15.7100    2.3280   16.1050 C   0  0  0  0  0
   15.5330    1.0750   18.2480 O   0  0  0  0  0
   15.0260    3.4050   15.4380 C   0  0  0  0  0
   16.0610    4.2190   14.9220 C   0  0  0  0  0
   17.2940    3.6920   15.2910 C   0  0  0  0  0
   15.6060   -0.3130   16.2160 N   0  0  0  0  0
   13.9505    3.5587   15.3503 H   0  0  0  0  0
   15.9149    5.1204   14.3269 H   0  0  0  0  0
   18.2678    4.1124   15.0399 H   0  0  0  0  0
   14.9689   -0.9365   15.7203 H   0  0  0  0  0
   16.6034   -0.5239   16.2487 H   0  0  0  0  0
  4  1  4  0  0  0
  1  8  4  0  0  0
  2  3  2  0  0  0
  2  4  1  0  0  0
  2  5  2  0  0  0
  2  9  1  0  0  0
  4  6  4  0  0  0
  6  7  4  0  0  0
  7  8  4  0  0  0
  6 10  1  0  0  0
  7 11  1  0  0  0
  8 12  1  0  0  0
  9 13  1  0  0  0
  9 14  1  0  0  0
M  END
$$$$
