6fym_ligand
  -I-interpret- 

 35 37  0  0  0  0  0  0  0  0999 V2000
  -11.3950 -100.0470  -18.2180 C   0  0  0  0  0
  -11.6970  -98.5740  -18.3060 C   0  0  0  0  0
  -11.0950  -97.6610  -17.4300 C   0  0  0  0  0
  -10.1260  -98.1360  -16.3740 C   0  0  0  0  0
  -11.4030  -96.2970  -17.5450 C   0  0  0  0  0
  -12.3030  -95.8470  -18.5250 C   0  0  0  0  0
  -12.8930  -96.7660  -19.3880 C   0  0  0  0  0
  -12.5860  -98.1080  -19.2700 C   0  0  0  0  0
  -12.6080  -94.4120  -18.6240 C   0  0  0  0  0
  -11.0690  -94.1620  -16.7620 C   0  0  0  0  0
  -10.4140  -93.1980  -15.8150 C   0  0  0  0  0
  -10.6050  -90.7230  -14.6490 C   0  0  0  0  0
  -10.5740  -88.8350  -13.4260 C   0  0  0  0  0
   -9.8460  -89.4590  -12.4410 C   0  0  0  0  0
   -9.5360  -90.7770  -12.6710 C   0  0  0  0  0
  -13.3810  -93.9330  -19.4490 O   0  0  0  0  0
  -11.9590  -93.6110  -17.7130 N   0  0  0  0  0
  -11.1060  -91.5580  -16.1060 S   0  0  0  0  0
  -10.7790  -95.4500  -16.6560 N   0  0  0  0  0
   -9.9040  -91.4410  -13.7740 N   0  0  0  0  0
  -10.9710  -89.4460  -14.5490 N   0  0  0  0  0
  -10.3286 -100.2080  -18.3760 H   0  0  0  0  0
  -11.6774 -100.4162  -17.2321 H   0  0  0  0  0
  -11.9612 -100.5790  -18.9825 H   0  0  0  0  0
  -10.6298  -98.8383  -15.7099 H   0  0  0  0  0
   -9.2811  -98.6300  -16.8538 H   0  0  0  0  0
   -9.7700  -97.2814  -15.7986 H   0  0  0  0  0
  -13.5931  -96.4290  -20.1524 H   0  0  0  0  0
  -13.0525  -98.8207  -19.9501 H   0  0  0  0  0
   -9.3369  -93.1840  -15.9819 H   0  0  0  0  0
  -10.5974  -93.5034  -14.7849 H   0  0  0  0  0
  -10.8420  -87.7879  -13.2853 H   0  0  0  0  0
   -9.5344  -88.9403  -11.5344 H   0  0  0  0  0
   -8.9597  -91.3110  -11.9154 H   0  0  0  0  0
  -12.1222  -92.6042  -17.7236 H   0  0  0  0  0
  2  1  1  0  0  0
  3  2  4  0  0  0
  2  8  4  0  0  0
  3  4  1  0  0  0
  5  3  4  0  0  0
  5  6  4  0  0  0
 19  5  1  0  0  0
  6  7  4  0  0  0
  9  6  1  0  0  0
  7  8  4  0  0  0
  9 16  2  0  0  0
 17  9  1  0  0  0
 11 10  1  0  0  0
 10 17  1  0  0  0
 10 19  2  0  0  0
 18 11  1  0  0  0
 12 18  1  0  0  0
 12 20  4  0  0  0
 21 12  4  0  0  0
 13 14  4  0  0  0
 13 21  4  0  0  0
 14 15  4  0  0  0
 15 20  4  0  0  0
  1 22  1  0  0  0
  1 23  1  0  0  0
  1 24  1  0  0  0
  4 25  1  0  0  0
  4 26  1  0  0  0
  4 27  1  0  0  0
  7 28  1  0  0  0
  8 29  1  0  0  0
 11 30  1  0  0  0
 11 31  1  0  0  0
 13 32  1  0  0  0
 14 33  1  0  0  0
 15 34  1  0  0  0
 17 35  1  0  0  0
M  END
$$$$
