### 
### Created by X-TOOL on Mon Aug  2 16:14:41 2021
### 

@<TRIPOS>MOLECULE
6kmj_ligand
  275   276     1     0     0
SMALL
GAST_HUCK


@<TRIPOS>ATOM
      1 N           0.9380   -1.3740  -15.6600 N.4       1 THR         0.2398
      2 CA          1.7660   -0.9680  -14.5190 C.3       1 THR         0.0910
      3 C           2.9790   -1.8530  -14.4590 C.2       1 THR         0.2293
      4 O           2.9290   -3.0380  -14.8600 O.2       1 THR        -0.3906
      5 CB          1.0030   -1.0820  -13.2060 C.3       1 THR         0.1120
      6 OG1         1.1100   -2.4100  -12.7150 O.3       1 THR        -0.3840
      7 CG2        -0.4610   -0.7600  -13.4090 C.3       1 THR        -0.0314
      8 N           4.0660   -1.2990  -13.9330 N.am      1 THR        -0.2612
      9 CA          5.3370   -2.0140  -13.9080 C.3       1 THR         0.1283
     10 C           5.2320   -3.3350  -13.1680 C.2       1 THR         0.2036
     11 O           4.5990   -3.4360  -12.1260 O.2       1 THR        -0.3944
     12 CB          6.4030   -1.1470  -13.2320 C.3       1 THR        -0.0244
     13 N           5.9360   -4.3300  -13.6850 N.am      1 THR        -0.2637
     14 CA          5.9990   -5.6410  -13.0400 C.3       1 THR         0.1311
     15 C           6.6320   -5.5080  -11.6590 C.2       1 THR         0.2039
     16 O           7.6120   -4.7730  -11.4750 O.2       1 THR        -0.3944
     17 CB          6.8440   -6.5630  -13.9200 C.3       1 THR        -0.0092
     18 CG          6.9560   -7.9670  -13.4020 C.3       1 THR        -0.0156
     19 CD          7.5390   -8.9750  -14.4040 C.3       1 THR         0.0627
     20 NE          8.6690   -8.3630  -15.0850 N.pl3     1 THR        -0.2723
     21 CZ          9.0390   -8.6070  -16.3370 C.cat     1 THR         0.2882
     22 NH1         8.4110   -9.5080  -17.0930 N.pl3     1 THR        -0.2849
     23 NH2        10.0410   -7.9180  -16.8370 N.pl3     1 THR        -0.2849
     24 N           6.1240   -6.2960  -10.7140 N.am      1 THR        -0.2637
     25 CA          6.7870   -6.4920   -9.4240 C.3       1 THR         0.1310
     26 C           8.2510   -6.8710   -9.6350 C.2       1 THR         0.2040
     27 O           8.5720   -7.6600  -10.5240 O.2       1 THR        -0.3944
     28 CB          6.0890   -7.6240   -8.6640 C.3       1 THR        -0.0122
     29 CG          6.6430   -7.8140   -7.2510 C.3       1 THR        -0.0440
     30 CD          5.7200   -8.6600   -6.3310 C.3       1 THR        -0.0124
     31 CE          6.2660   -8.6500   -4.8790 C.3       1 THR        -0.0354
     32 NZ          5.2360   -8.9630   -3.8390 N.4       1 THR         0.2185
     33 N           9.1450   -6.3140   -8.8240 N.am      1 THR        -0.2616
     34 CA         10.5760   -6.4410   -9.1400 C.3       1 THR         0.1539
     35 C          11.0680   -7.8950   -9.2020 C.2       1 THR         0.2063
     36 O          11.9330   -8.2240  -10.0300 O.2       1 THR        -0.3943
     37 CB         11.4310   -5.6460   -8.1600 C.3       1 THR         0.0843
     38 OG         11.3000   -6.1650   -6.8640 O.3       1 THR        -0.3903
     39 N          10.5550   -8.7740   -8.3360 N.am      1 THR        -0.2613
     40 CA         10.9410  -10.1850   -8.3580 C.3       1 THR         0.1565
     41 C          10.1580  -10.9940   -9.3670 C.2       1 THR         0.2063
     42 O          10.4020  -12.2010   -9.5090 O.2       1 THR        -0.3943
     43 CB         10.6890  -10.8060   -6.9880 C.3       1 THR         0.0924
     44 OG1         9.3010  -10.6370   -6.6940 O.3       1 THR        -0.3874
     45 CG2        11.5910  -10.1260   -5.8890 C.3       1 THR        -0.0346
     46 N           9.1910  -10.3900  -10.0440 N.am      1 THR        -0.2663
     47 CA          8.3380  -11.1170  -10.9600 C.3       1 THR         0.1201
     48 C           7.2060  -11.8950  -10.3120 C.2       1 THR         0.2005
     49 O           6.4970  -12.6330  -11.0260 O.2       1 THR        -0.3947
     50 N           7.0270  -11.8170   -9.0030 N.am      1 THR        -0.2666
     51 CA          5.9580  -12.5510   -8.3470 C.3       1 THR         0.1201
     52 C           4.5480  -12.1190   -8.6840 C.2       1 THR         0.2007
     53 O           4.3220  -10.9900   -9.1700 O.2       1 THR        -0.3947
     54 OH         -2.5720  -15.2200  -11.2690 O.2       1 THR        -0.3974
     55 CH         -1.5540  -15.5610  -11.8940 C.2       1 THR         0.1729
     56 CH3        -1.4770  -15.4490  -13.3670 C.3       1 THR         0.0256
     57 NZ         -0.4770  -15.9860  -11.2320 N.am      1 THR        -0.2872
     58 CE         -0.4770  -16.1090   -9.8150 C.3       1 THR         0.0309
     59 CD          0.9230  -16.3080   -9.2320 C.3       1 THR        -0.0325
     60 CG          1.8040  -15.0850   -9.3660 C.3       1 THR        -0.0470
     61 CB          1.3890  -14.0680   -8.2920 C.3       1 THR        -0.0123
     62 CA          2.1990  -12.7470   -8.4280 C.3       1 THR         0.1310
     63 N           3.6330  -13.0340   -8.3920 N.am      1 THR        -0.2640
     64 C           1.8260  -11.7100   -7.3760 C.2       1 THR         0.2039
     65 O           2.6340  -11.3120   -6.5320 O.2       1 THR        -0.3944
     66 N           0.5820  -11.2790   -7.3950 N.am      1 THR        -0.2640
     67 CA          0.1020  -10.3140   -6.4120 C.3       1 THR         0.1284
     68 C          -1.1860  -10.7850   -5.7430 C.2       1 THR         0.2061
     69 O          -2.2320  -10.1160   -5.8110 O.2       1 THR        -0.3942
     70 CB         -0.0470   -8.9040   -7.0510 C.3       1 THR        -0.0244
     71 N          -1.1140  -11.9350   -5.0570 N.am      1 THR        -0.2498
     72 CA         -2.3350  -12.4790   -4.4490 C.3       1 THR         0.1338
     73 C          -2.9940  -11.4800   -3.5020 C.2       1 THR         0.2041
     74 O          -2.3230  -10.7630   -2.7320 O.2       1 THR        -0.3944
     75 CB         -1.8680  -13.7340   -3.6910 C.3       1 THR        -0.0104
     76 CG         -0.3930  -13.5730   -3.5600 C.3       1 THR        -0.0281
     77 CD          0.0800  -12.7260   -4.7100 C.3       1 THR         0.0369
     78 N          -4.3390  -11.4960   -3.5190 N.am      1 THR        -0.2637
     79 CA         -5.0520  -10.8380   -2.4360 C.3       1 THR         0.1311
     80 C          -4.5890  -11.4540   -1.1220 C.2       1 THR         0.2039
     81 O          -4.3280  -12.6560   -1.0450 O.2       1 THR        -0.3944
     82 CB         -6.5400  -11.0370   -2.6510 C.3       1 THR        -0.0092
     83 CG         -7.0670  -10.1760   -3.7860 C.3       1 THR        -0.0156
     84 CD         -8.5760  -10.0750   -3.8160 C.3       1 THR         0.0627
     85 NE         -9.1460  -11.3420   -4.2750 N.pl3     1 THR        -0.2723
     86 CZ        -10.1570  -12.0060   -3.6940 C.cat     1 THR         0.2882
     87 NH1       -10.6460  -11.6050   -2.5050 N.pl3     1 THR        -0.2849
     88 NH2       -10.6110  -13.1280   -4.2780 N.pl3     1 THR        -0.2849
     89 N          -4.4880  -10.6030   -0.0900 N.am      1 THR        -0.2637
     90 CA         -3.9080  -11.0560    1.1710 C.3       1 THR         0.1310
     91 C          -4.5910  -12.3030    1.7250 C.2       1 THR         0.2039
     92 O          -3.9260  -13.2040    2.2630 O.2       1 THR        -0.3944
     93 CB         -3.9310   -9.9380    2.1840 C.3       1 THR        -0.0122
     94 CG         -3.2620  -10.3920    3.4680 C.3       1 THR        -0.0440
     95 CD         -1.8810  -10.9780    3.1890 C.3       1 THR        -0.0124
     96 CE         -1.1640  -11.3020    4.4720 C.3       1 THR        -0.0354
     97 NZ         -1.2850  -10.2390    5.5100 N.4       1 THR         0.2185
     98 N          -5.9120  -12.3800    1.6690 N.am      1 THR        -0.2636
     99 CA         -6.5440  -13.5520    2.2290 C.3       1 THR         0.1330
    100 C          -6.1460  -14.8160    1.4980 C.2       1 THR         0.2040
    101 O          -6.1340  -15.9130    2.0930 O.2       1 THR        -0.3944
    102 CB         -8.0530  -13.3900    2.2470 C.3       1 THR         0.0045
    103 CG         -8.6770  -13.4110    0.8670 C.3       1 THR         0.0412
    104 CD        -10.1980  -13.2590    0.9630 C.2       1 THR         0.1737
    105 OE1       -10.7480  -12.2120    0.6190 O.2       1 THR        -0.3973
    106 NE2       -10.8510  -14.2680    1.4660 N.am      1 THR        -0.3009
    107 N          -5.7330  -14.6910    0.2200 N.am      1 THR        -0.2637
    108 CA         -5.3560  -15.8760   -0.5410 C.3       1 THR         0.1312
    109 C          -3.9070  -16.2690   -0.3180 C.2       1 THR         0.2039
    110 O          -3.4640  -17.2630   -0.9110 O.2       1 THR        -0.3944
    111 CB         -5.6590  -15.6630   -2.0420 C.3       1 THR        -0.0101
    112 CG         -7.1190  -15.3080   -2.3600 C.3       1 THR        -0.0425
    113 CD1        -7.2490  -15.1130   -3.8720 C.3       1 THR        -0.0625
    114 CD2        -8.0840  -16.4030   -1.9140 C.3       1 THR        -0.0625
    115 N          -3.1510  -15.4900    0.4620 N.am      1 THR        -0.2640
    116 CA         -1.7810  -15.8140    0.8290 C.3       1 THR         0.1282
    117 C          -1.7310  -16.6970    2.0600 C.2       1 THR         0.2032
    118 O          -0.6540  -17.1530    2.4450 O.2       1 THR        -0.3944
    119 CB         -1.0240  -14.5200    1.1040 C.3       1 THR        -0.0244
    120 N          -2.8660  -16.9790    2.6630 N.am      1 THR        -0.2679
    121 CA         -2.9220  -17.9340    3.7460 C.3       1 THR         0.1025
    122 C          -2.9910  -19.3710    3.2470 C.2       1 THR         0.0619
    123 O          -3.0090  -20.3120    4.0610 O.co2     1 THR        -0.5665
    124 CB         -4.1160  -17.6800    4.6450 C.3       1 THR         0.0108
    125 CG         -3.9790  -16.5380    5.5810 C.ar      1 THR        -0.0499
    126 CD1        -4.3400  -15.2660    5.1720 C.ar      1 THR        -0.0686
    127 CD2        -3.5110  -16.7200    6.8710 C.ar      1 THR        -0.0686
    128 CE1        -4.2470  -14.1910    6.0400 C.ar      1 THR        -0.0398
    129 CE2        -3.4520  -15.6590    7.7480 C.ar      1 THR        -0.0398
    130 CZ         -3.8000  -14.4000    7.3130 C.ar      1 THR         0.0805
    131 OH         -3.6620  -13.3780    8.2670 O.3       1 THR        -0.3376
    132 OXT        -3.0290  -19.6040    2.0250 O.co2     1 THR        -0.5665
    133 H1          1.4719   -1.2867  -16.5105 H         1 THR         0.2016
    134 H2          0.1240   -0.7818  -15.7121 H         1 THR         0.2016
    135 H3          0.6492   -2.3324  -15.5415 H         1 THR         0.2016
    136 H4          2.0808    0.0766  -14.6594 H         1 THR         0.1125
    137 H5          1.4328   -0.3814  -12.4750 H         1 THR         0.0674
    138 H6          2.0252   -2.6204  -12.5710 H         1 THR         0.2102
    139 H7         -0.9922   -0.8483  -12.4498 H         1 THR         0.0258
    140 H8         -0.8943   -1.4644  -14.1343 H         1 THR         0.0258
    141 H9         -0.5611    0.2669  -13.7904 H         1 THR         0.0258
    142 H10         4.0119   -0.3775  -13.5483 H         1 THR         0.1884
    143 H11         5.6433   -2.2163  -14.9449 H         1 THR         0.0797
    144 H12         7.3599   -1.6893  -13.2149 H         1 THR         0.0277
    145 H13         6.0918   -0.9200  -12.2017 H         1 THR         0.0277
    146 H14         6.5231   -0.2090  -13.7938 H         1 THR         0.0277
    147 H15         6.4370   -4.1814  -14.5376 H         1 THR         0.1883
    148 H16         4.9846   -6.0540  -12.9375 H         1 THR         0.0800
    149 H17         7.8565   -6.1394  -13.9927 H         1 THR         0.0313
    150 H18         6.3888   -6.5989  -14.9207 H         1 THR         0.0313
    151 H19         5.9499   -8.3089  -13.1178 H         1 THR         0.0301
    152 H20         7.6035   -7.9538  -12.5129 H         1 THR         0.0301
    153 H21         6.7696   -9.2508  -15.1402 H         1 THR         0.0689
    154 H22         7.8742   -9.8757  -13.8689 H         1 THR         0.0689
    155 H23         9.2295   -7.6832  -14.5515 H         1 THR         0.2642
    156 H24         8.7218   -9.6747  -18.0608 H         1 THR         0.2615
    157 H25         7.6151  -10.0373  -16.7093 H         1 THR         0.2615
    158 H26        10.5280   -7.2213  -16.2553 H         1 THR         0.2615
    159 H27        10.3390   -8.0749  -17.8104 H         1 THR         0.2615
    160 H28         5.2612   -6.7695  -10.8913 H         1 THR         0.1883
    161 H29         6.7293   -5.5624   -8.8388 H         1 THR         0.0800
    162 H30         6.2251   -8.5607   -9.2244 H         1 THR         0.0312
    163 H31         5.0162   -7.3915   -8.5933 H         1 THR         0.0312
    164 H32         6.7764   -6.8227   -6.7933 H         1 THR         0.0269
    165 H33         7.6179   -8.3182   -7.3243 H         1 THR         0.0269
    166 H34         5.6871   -9.6955   -6.7007 H         1 THR         0.0317
    167 H35         4.7057   -8.2344   -6.3418 H         1 THR         0.0317
    168 H36         6.6756   -7.6507   -4.6703 H         1 THR         0.0813
    169 H37         7.0692   -9.3980   -4.8063 H         1 THR         0.0813
    170 H38         5.6622   -8.9381   -2.9259 H         1 THR         0.1994
    171 H39         4.8565   -9.8815   -4.0076 H         1 THR         0.1994
    172 H40         4.4958   -8.2803   -3.8830 H         1 THR         0.1994
    173 H41         8.8485   -5.8151   -8.0096 H         1 THR         0.1884
    174 H42        10.7225   -6.0058  -10.1396 H         1 THR         0.0823
    175 H43        11.1051   -4.5954   -8.1642 H         1 THR         0.0606
    176 H44        12.4852   -5.7042   -8.4688 H         1 THR         0.0606
    177 H45        11.5830   -7.0718   -6.8571 H         1 THR         0.2097
    178 H46         9.8916   -8.4599   -7.6569 H         1 THR         0.1884
    179 H47        12.0117  -10.2499   -8.6016 H         1 THR         0.0826
    180 H48        10.9264  -11.8795   -7.0234 H         1 THR         0.0639
    181 H49         9.1103  -11.0148   -5.8435 H         1 THR         0.2101
    182 H50        11.3912  -10.5903   -4.9120 H         1 THR         0.0257
    183 H51        11.3602   -9.0517   -5.8385 H         1 THR         0.0257
    184 H52        12.6511  -10.2615   -6.1494 H         1 THR         0.0257
    185 H53         9.0475   -9.4083   -9.9187 H         1 THR         0.1881
    186 H54         8.9652  -11.8291  -11.5163 H         1 THR         0.0763
    187 H55         7.8958  -10.3930  -11.6602 H         1 THR         0.0763
    188 H56         7.6373  -11.2436   -8.4564 H         1 THR         0.1881
    189 H57         6.0924  -12.4408   -7.2608 H         1 THR         0.0763
    190 H58         6.0596  -13.6108   -8.6234 H         1 THR         0.0763
    191 H59        -0.4940  -15.8034  -13.7108 H         1 THR         0.0467
    192 H60        -1.6117  -14.3980  -13.6624 H         1 THR         0.0467
    193 H61        -2.2679  -16.0624  -13.8232 H         1 THR         0.0467
    194 H62         0.3489  -16.2235  -11.7433 H         1 THR         0.1850
    195 H63        -1.0980  -16.9737   -9.5383 H         1 THR         0.0520
    196 H64        -0.9093  -15.1941   -9.3838 H         1 THR         0.0520
    197 H65         1.4050  -17.1453   -9.7579 H         1 THR         0.0285
    198 H66         0.8254  -16.5532   -8.1641 H         1 THR         0.0285
    199 H67         1.6764  -14.6429  -10.3651 H         1 THR         0.0268
    200 H68         2.8571  -15.3682   -9.2221 H         1 THR         0.0268
    201 H69         1.5723  -14.5009   -7.2975 H         1 THR         0.0312
    202 H70         0.3175  -13.8453   -8.4032 H         1 THR         0.0312
    203 H71         1.9647  -12.3147   -9.4120 H         1 THR         0.0800
    204 H72         3.9344  -13.9531   -8.1381 H         1 THR         0.1883
    205 H73        -0.0449  -11.6193   -8.0958 H         1 THR         0.1883
    206 H74         0.8666  -10.2373   -5.6249 H         1 THR         0.0797
    207 H75        -0.4094   -8.1943   -6.2927 H         1 THR         0.0277
    208 H76        -0.7664   -8.9520   -7.8817 H         1 THR         0.0277
    209 H77         0.9294   -8.5683   -7.4304 H         1 THR         0.0277
    210 H78        -3.0564  -12.7541   -5.2325 H         1 THR         0.0802
    211 H79        -2.1093  -14.6432   -4.2612 H         1 THR         0.0313
    212 H80        -2.3415  -13.7864   -2.6995 H         1 THR         0.0313
    213 H81         0.0957  -14.5579   -3.5946 H         1 THR         0.0287
    214 H82        -0.1535  -13.0781   -2.6073 H         1 THR         0.0287
    215 H83         0.9107  -12.0732   -4.4038 H         1 THR         0.0524
    216 H84         0.3984  -13.3521   -5.5565 H         1 THR         0.0524
    217 H85        -4.8364  -11.9494   -4.2586 H         1 THR         0.1883
    218 H86        -4.8251   -9.7617   -2.4348 H         1 THR         0.0800
    219 H87        -7.0720  -10.7708   -1.7258 H         1 THR         0.0313
    220 H88        -6.7268  -12.0943   -2.8901 H         1 THR         0.0313
    221 H89        -6.7281  -10.6097   -4.7384 H         1 THR         0.0301
    222 H90        -6.6524   -9.1631   -3.6762 H         1 THR         0.0301
    223 H91        -8.8750   -9.2695   -4.5028 H         1 THR         0.0689
    224 H92        -8.9477   -9.8518   -2.8051 H         1 THR         0.0689
    225 H93        -8.7340  -11.7621   -5.1204 H         1 THR         0.2642
    226 H94       -11.4222  -12.1211   -2.0669 H         1 THR         0.2615
    227 H95       -10.2438  -10.7822   -2.0338 H         1 THR         0.2615
    228 H96       -10.2301  -13.4256   -5.1875 H         1 THR         0.2615
    229 H97       -11.3399  -13.6904   -3.8161 H         1 THR         0.2615
    230 H98        -4.8092   -9.6607   -0.1841 H         1 THR         0.1883
    231 H99        -2.8568  -11.3158    0.9773 H         1 THR         0.0800
    232 H100       -4.9737   -9.6582    2.3950 H         1 THR         0.0312
    233 H101       -3.3925   -9.0682    1.7798 H         1 THR         0.0312
    234 H102       -3.8877  -11.1591    3.9476 H         1 THR         0.0269
    235 H103       -3.1569   -9.5298    4.1429 H         1 THR         0.0269
    236 H104       -1.2880  -10.2467    2.6202 H         1 THR         0.0317
    237 H105       -1.9935  -11.8985    2.5974 H         1 THR         0.0317
    238 H106       -0.0972  -11.4477    4.2467 H         1 THR         0.0813
    239 H107       -1.5835  -12.2340    4.8787 H         1 THR         0.0813
    240 H108       -0.7841  -10.5198    6.3385 H         1 THR         0.1994
    241 H109       -2.2573  -10.0995    5.7363 H         1 THR         0.1994
    242 H110       -0.8953   -9.3789    5.1572 H         1 THR         0.1994
    243 H111       -6.4544  -11.6504    1.2525 H         1 THR         0.1883
    244 H112       -6.2028  -13.6489    3.2702 H         1 THR         0.0801
    245 H113       -8.2948  -12.4289    2.7243 H         1 THR         0.0337
    246 H114       -8.4848  -14.2116    2.8374 H         1 THR         0.0337
    247 H115       -8.4391  -14.3665    0.3767 H         1 THR         0.0504
    248 H116       -8.2673  -12.5815    0.2719 H         1 THR         0.0504
    249 H117      -11.8463  -14.2259    1.5535 H         1 THR         0.1814
    250 H118      -10.3569  -15.0845    1.7646 H         1 THR         0.1814
    251 H119       -5.6855  -13.7870   -0.2048 H         1 THR         0.1883
    252 H120       -5.9798  -16.7102   -0.1877 H         1 THR         0.0800
    253 H121       -5.4082  -16.5909   -2.5768 H         1 THR         0.0315
    254 H122       -5.0206  -14.8451   -2.4073 H         1 THR         0.0315
    255 H123       -7.3803  -14.3724   -1.8439 H         1 THR         0.0298
    256 H124       -8.2896  -14.8576   -4.1206 H         1 THR         0.0232
    257 H125       -6.9666  -16.0429   -4.3873 H         1 THR         0.0232
    258 H126       -6.5843  -14.2983   -4.1952 H         1 THR         0.0232
    259 H127       -7.9961  -16.5489   -0.8273 H         1 THR         0.0232
    260 H128       -7.8374  -17.3420   -2.4311 H         1 THR         0.0232
    261 H129       -9.1141  -16.1074   -2.1621 H         1 THR         0.0232
    262 H130       -3.5475  -14.6409    0.8112 H         1 THR         0.1883
    263 H131       -1.3035  -16.3444   -0.0080 H         1 THR         0.0797
    264 H132        0.0140  -14.7546    1.3826 H         1 THR         0.0277
    265 H133       -1.5112  -13.9782    1.9280 H         1 THR         0.0277
    266 H134       -1.0283  -13.8934    0.1999 H         1 THR         0.0277
    267 H135       -3.7055  -16.5239    2.3662 H         1 THR         0.1877
    268 H136       -2.0050  -17.8188    4.3425 H         1 THR         0.0747
    269 H137       -4.2905  -18.5877    5.2413 H         1 THR         0.0446
    270 H138       -4.9889  -17.4893    4.0033 H         1 THR         0.0446
    271 H139       -4.6994  -15.1096    4.1613 H         1 THR         0.0530
    272 H140       -3.1889  -17.7036    7.1932 H         1 THR         0.0530
    273 H141       -4.5257  -13.1958    5.7128 H         1 THR         0.0525
    274 H142       -3.1340  -15.8143    8.7726 H         1 THR         0.0525
    275 H143       -4.2148  -13.5685    9.0157 H         1 THR         0.2458
@<TRIPOS>BOND
     1    2    1 1  
     2    3    2 1  
     3    2    5 1  
     4    3    4 2  
     5    8    3 am 
     6    5    6 1  
     7    5    7 1  
     8    9    8 1  
     9   10    9 1  
    10    9   12 1  
    11   10   11 2  
    12   13   10 am 
    13   14   13 1  
    14   15   14 1  
    15   14   17 1  
    16   15   16 2  
    17   24   15 am 
    18   17   18 1  
    19   18   19 1  
    20   19   20 1  
    21   20   21 ar 
    22   21   22 ar 
    23   21   23 ar 
    24   25   24 1  
    25   26   25 1  
    26   25   28 1  
    27   26   27 2  
    28   33   26 am 
    29   28   29 1  
    30   29   30 1  
    31   30   31 1  
    32   31   32 1  
    33   34   33 1  
    34   35   34 1  
    35   34   37 1  
    36   35   36 2  
    37   39   35 am 
    38   37   38 1  
    39   40   39 1  
    40   41   40 1  
    41   40   43 1  
    42   41   42 2  
    43   46   41 am 
    44   43   44 1  
    45   43   45 1  
    46   47   46 1  
    47   48   47 1  
    48   48   49 2  
    49   50   48 am 
    50   51   50 1  
    51   52   51 1  
    52   52   53 2  
    53   63   52 am 
    54   55   54 2  
    55   55   56 1  
    56   57   55 am 
    57   58   57 1  
    58   59   58 1  
    59   60   59 1  
    60   61   60 1  
    61   62   61 1  
    62   62   63 1  
    63   62   64 1  
    64   64   65 2  
    65   64   66 am 
    66   66   67 1  
    67   67   68 1  
    68   67   70 1  
    69   68   69 2  
    70   68   71 am 
    71   71   72 1  
    72   71   77 1  
    73   72   73 1  
    74   72   75 1  
    75   73   74 2  
    76   73   78 am 
    77   75   76 1  
    78   76   77 1  
    79   78   79 1  
    80   79   80 1  
    81   79   82 1  
    82   80   81 2  
    83   80   89 am 
    84   82   83 1  
    85   83   84 1  
    86   84   85 1  
    87   85   86 ar 
    88   86   87 ar 
    89   86   88 ar 
    90   89   90 1  
    91   90   91 1  
    92   90   93 1  
    93   91   92 2  
    94   91   98 am 
    95   93   94 1  
    96   94   95 1  
    97   95   96 1  
    98   96   97 1  
    99   98   99 1  
   100   99  100 1  
   101   99  102 1  
   102  100  101 2  
   103  100  107 am 
   104  102  103 1  
   105  103  104 1  
   106  104  105 2  
   107  104  106 am 
   108  107  108 1  
   109  108  109 1  
   110  108  111 1  
   111  109  110 2  
   112  109  115 am 
   113  111  112 1  
   114  112  113 1  
   115  112  114 1  
   116  115  116 1  
   117  116  117 1  
   118  116  119 1  
   119  117  118 2  
   120  117  120 am 
   121  120  121 1  
   122  121  122 1  
   123  121  124 1  
   124  122  123 ar 
   125  122  132 ar 
   126  124  125 1  
   127  125  126 ar 
   128  125  127 ar 
   129  126  128 ar 
   130  127  129 ar 
   131  128  130 ar 
   132  129  130 ar 
   133  130  131 1  
   134    1  133 1  
   135    1  134 1  
   136    1  135 1  
   137    2  136 1  
   138    5  137 1  
   139    6  138 1  
   140    7  139 1  
   141    7  140 1  
   142    7  141 1  
   143    8  142 1  
   144    9  143 1  
   145   12  144 1  
   146   12  145 1  
   147   12  146 1  
   148   13  147 1  
   149   14  148 1  
   150   17  149 1  
   151   17  150 1  
   152   18  151 1  
   153   18  152 1  
   154   19  153 1  
   155   19  154 1  
   156   20  155 1  
   157   22  156 1  
   158   22  157 1  
   159   23  158 1  
   160   23  159 1  
   161   24  160 1  
   162   25  161 1  
   163   28  162 1  
   164   28  163 1  
   165   29  164 1  
   166   29  165 1  
   167   30  166 1  
   168   30  167 1  
   169   31  168 1  
   170   31  169 1  
   171   32  170 1  
   172   32  171 1  
   173   32  172 1  
   174   33  173 1  
   175   34  174 1  
   176   37  175 1  
   177   37  176 1  
   178   38  177 1  
   179   39  178 1  
   180   40  179 1  
   181   43  180 1  
   182   44  181 1  
   183   45  182 1  
   184   45  183 1  
   185   45  184 1  
   186   46  185 1  
   187   47  186 1  
   188   47  187 1  
   189   50  188 1  
   190   51  189 1  
   191   51  190 1  
   192   56  191 1  
   193   56  192 1  
   194   56  193 1  
   195   57  194 1  
   196   58  195 1  
   197   58  196 1  
   198   59  197 1  
   199   59  198 1  
   200   60  199 1  
   201   60  200 1  
   202   61  201 1  
   203   61  202 1  
   204   62  203 1  
   205   63  204 1  
   206   66  205 1  
   207   67  206 1  
   208   70  207 1  
   209   70  208 1  
   210   70  209 1  
   211   72  210 1  
   212   75  211 1  
   213   75  212 1  
   214   76  213 1  
   215   76  214 1  
   216   77  215 1  
   217   77  216 1  
   218   78  217 1  
   219   79  218 1  
   220   82  219 1  
   221   82  220 1  
   222   83  221 1  
   223   83  222 1  
   224   84  223 1  
   225   84  224 1  
   226   85  225 1  
   227   87  226 1  
   228   87  227 1  
   229   88  228 1  
   230   88  229 1  
   231   89  230 1  
   232   90  231 1  
   233   93  232 1  
   234   93  233 1  
   235   94  234 1  
   236   94  235 1  
   237   95  236 1  
   238   95  237 1  
   239   96  238 1  
   240   96  239 1  
   241   97  240 1  
   242   97  241 1  
   243   97  242 1  
   244   98  243 1  
   245   99  244 1  
   246  102  245 1  
   247  102  246 1  
   248  103  247 1  
   249  103  248 1  
   250  106  249 1  
   251  106  250 1  
   252  107  251 1  
   253  108  252 1  
   254  111  253 1  
   255  111  254 1  
   256  112  255 1  
   257  113  256 1  
   258  113  257 1  
   259  113  258 1  
   260  114  259 1  
   261  114  260 1  
   262  114  261 1  
   263  115  262 1  
   264  116  263 1  
   265  119  264 1  
   266  119  265 1  
   267  119  266 1  
   268  120  267 1  
   269  121  268 1  
   270  124  269 1  
   271  124  270 1  
   272  126  271 1  
   273  127  272 1  
   274  128  273 1  
   275  129  274 1  
   276  131  275 1  
@<TRIPOS>SUBSTRUCTURE
     1 THR         1

