6kmj_ligand
  -I-interpret- 

274275  0  0  0  0  0  0  0  0999 V2000
    0.9380   -1.3740  -15.6600 N   0  3  0  0  0
    1.7660   -0.9680  -14.5190 C   0  0  0  0  0
    2.9790   -1.8530  -14.4590 C   0  0  0  0  0
    2.9290   -3.0380  -14.8600 O   0  0  0  0  0
    1.0030   -1.0820  -13.2060 C   0  0  0  0  0
    1.1100   -2.4100  -12.7150 O   0  0  0  0  0
   -0.4610   -0.7600  -13.4090 C   0  0  0  0  0
    4.0660   -1.2990  -13.9330 N   0  0  0  0  0
    5.3370   -2.0140  -13.9080 C   0  0  0  0  0
    5.2320   -3.3350  -13.1680 C   0  0  0  0  0
    4.5990   -3.4360  -12.1260 O   0  0  0  0  0
    6.4030   -1.1470  -13.2320 C   0  0  0  0  0
    5.9360   -4.3300  -13.6850 N   0  0  0  0  0
    5.9990   -5.6410  -13.0400 C   0  0  0  0  0
    6.6320   -5.5080  -11.6590 C   0  0  0  0  0
    7.6120   -4.7730  -11.4750 O   0  0  0  0  0
    6.8440   -6.5630  -13.9200 C   0  0  0  0  0
    6.9560   -7.9670  -13.4020 C   0  0  0  0  0
    7.5390   -8.9750  -14.4040 C   0  0  0  0  0
    8.6690   -8.3630  -15.0850 N   0  0  0  0  0
    9.0390   -8.6070  -16.3370 C   0  0  0  0  0
    8.4110   -9.5080  -17.0930 N   0  0  0  0  0
   10.0410   -7.9180  -16.8370 N   0  0  0  0  0
    6.1240   -6.2960  -10.7140 N   0  0  0  0  0
    6.7870   -6.4920   -9.4240 C   0  0  0  0  0
    8.2510   -6.8710   -9.6350 C   0  0  0  0  0
    8.5720   -7.6600  -10.5240 O   0  0  0  0  0
    6.0890   -7.6240   -8.6640 C   0  0  0  0  0
    6.6430   -7.8140   -7.2510 C   0  0  0  0  0
    5.7200   -8.6600   -6.3310 C   0  0  0  0  0
    6.2660   -8.6500   -4.8790 C   0  0  0  0  0
    5.2360   -8.9630   -3.8390 N   0  3  0  0  0
    9.1450   -6.3140   -8.8240 N   0  0  0  0  0
   10.5760   -6.4410   -9.1400 C   0  0  0  0  0
   11.0680   -7.8950   -9.2020 C   0  0  0  0  0
   11.9330   -8.2240  -10.0300 O   0  0  0  0  0
   11.4310   -5.6460   -8.1600 C   0  0  0  0  0
   11.3000   -6.1650   -6.8640 O   0  0  0  0  0
   10.5550   -8.7740   -8.3360 N   0  0  0  0  0
   10.9410  -10.1850   -8.3580 C   0  0  0  0  0
   10.1580  -10.9940   -9.3670 C   0  0  0  0  0
   10.4020  -12.2010   -9.5090 O   0  0  0  0  0
   10.6890  -10.8060   -6.9880 C   0  0  0  0  0
    9.3010  -10.6370   -6.6940 O   0  0  0  0  0
   11.5910  -10.1260   -5.8890 C   0  0  0  0  0
    9.1910  -10.3900  -10.0440 N   0  0  0  0  0
    8.3380  -11.1170  -10.9600 C   0  0  0  0  0
    7.2060  -11.8950  -10.3120 C   0  0  0  0  0
    6.4970  -12.6330  -11.0260 O   0  0  0  0  0
    7.0270  -11.8170   -9.0030 N   0  0  0  0  0
    5.9580  -12.5510   -8.3470 C   0  0  0  0  0
    4.5480  -12.1190   -8.6840 C   0  0  0  0  0
    4.3220  -10.9900   -9.1700 O   0  0  0  0  0
   -2.5720  -15.2200  -11.2690 O   0  0  0  0  0
   -1.5540  -15.5610  -11.8940 C   0  0  0  0  0
   -1.4770  -15.4490  -13.3670 C   0  0  0  0  0
   -0.4770  -15.9860  -11.2320 N   0  0  0  0  0
   -0.4770  -16.1090   -9.8150 C   0  0  0  0  0
    0.9230  -16.3080   -9.2320 C   0  0  0  0  0
    1.8040  -15.0850   -9.3660 C   0  0  0  0  0
    1.3890  -14.0680   -8.2920 C   0  0  0  0  0
    2.1990  -12.7470   -8.4280 C   0  0  0  0  0
    3.6330  -13.0340   -8.3920 N   0  0  0  0  0
    1.8260  -11.7100   -7.3760 C   0  0  0  0  0
    2.6340  -11.3120   -6.5320 O   0  0  0  0  0
    0.5820  -11.2790   -7.3950 N   0  0  0  0  0
    0.1020  -10.3140   -6.4120 C   0  0  0  0  0
   -1.1860  -10.7850   -5.7430 C   0  0  0  0  0
   -2.2320  -10.1160   -5.8110 O   0  0  0  0  0
   -0.0470   -8.9040   -7.0510 C   0  0  0  0  0
   -1.1140  -11.9350   -5.0570 N   0  0  0  0  0
   -2.3350  -12.4790   -4.4490 C   0  0  0  0  0
   -2.9940  -11.4800   -3.5020 C   0  0  0  0  0
   -2.3230  -10.7630   -2.7320 O   0  0  0  0  0
   -1.8680  -13.7340   -3.6910 C   0  0  0  0  0
   -0.3930  -13.5730   -3.5600 C   0  0  0  0  0
    0.0800  -12.7260   -4.7100 C   0  0  0  0  0
   -4.3390  -11.4960   -3.5190 N   0  0  0  0  0
   -5.0520  -10.8380   -2.4360 C   0  0  0  0  0
   -4.5890  -11.4540   -1.1220 C   0  0  0  0  0
   -4.3280  -12.6560   -1.0450 O   0  0  0  0  0
   -6.5400  -11.0370   -2.6510 C   0  0  0  0  0
   -7.0670  -10.1760   -3.7860 C   0  0  0  0  0
   -8.5760  -10.0750   -3.8160 C   0  0  0  0  0
   -9.1460  -11.3420   -4.2750 N   0  0  0  0  0
  -10.1570  -12.0060   -3.6940 C   0  0  0  0  0
  -10.6460  -11.6050   -2.5050 N   0  0  0  0  0
  -10.6110  -13.1280   -4.2780 N   0  0  0  0  0
   -4.4880  -10.6030   -0.0900 N   0  0  0  0  0
   -3.9080  -11.0560    1.1710 C   0  0  0  0  0
   -4.5910  -12.3030    1.7250 C   0  0  0  0  0
   -3.9260  -13.2040    2.2630 O   0  0  0  0  0
   -3.9310   -9.9380    2.1840 C   0  0  0  0  0
   -3.2620  -10.3920    3.4680 C   0  0  0  0  0
   -1.8810  -10.9780    3.1890 C   0  0  0  0  0
   -1.1640  -11.3020    4.4720 C   0  0  0  0  0
   -1.2850  -10.2390    5.5100 N   0  3  0  0  0
   -5.9120  -12.3800    1.6690 N   0  0  0  0  0
   -6.5440  -13.5520    2.2290 C   0  0  0  0  0
   -6.1460  -14.8160    1.4980 C   0  0  0  0  0
   -6.1340  -15.9130    2.0930 O   0  0  0  0  0
   -8.0530  -13.3900    2.2470 C   0  0  0  0  0
   -8.6770  -13.4110    0.8670 C   0  0  0  0  0
  -10.1980  -13.2590    0.9630 C   0  0  0  0  0
  -10.7480  -12.2120    0.6190 O   0  0  0  0  0
  -10.8510  -14.2680    1.4660 N   0  0  0  0  0
   -5.7330  -14.6910    0.2200 N   0  0  0  0  0
   -5.3560  -15.8760   -0.5410 C   0  0  0  0  0
   -3.9070  -16.2690   -0.3180 C   0  0  0  0  0
   -3.4640  -17.2630   -0.9110 O   0  0  0  0  0
   -5.6590  -15.6630   -2.0420 C   0  0  0  0  0
   -7.1190  -15.3080   -2.3600 C   0  0  0  0  0
   -7.2490  -15.1130   -3.8720 C   0  0  0  0  0
   -8.0840  -16.4030   -1.9140 C   0  0  0  0  0
   -3.1510  -15.4900    0.4620 N   0  0  0  0  0
   -1.7810  -15.8140    0.8290 C   0  0  0  0  0
   -1.7310  -16.6970    2.0600 C   0  0  0  0  0
   -0.6540  -17.1530    2.4450 O   0  0  0  0  0
   -1.0240  -14.5200    1.1040 C   0  0  0  0  0
   -2.8660  -16.9790    2.6630 N   0  0  0  0  0
   -2.9220  -17.9340    3.7460 C   0  0  0  0  0
   -2.9910  -19.3710    3.2470 C   0  0  0  0  0
   -3.0090  -20.3120    4.0610 O   0  0  0  0  0
   -4.1160  -17.6800    4.6450 C   0  0  0  0  0
   -3.9790  -16.5380    5.5810 C   0  0  0  0  0
   -4.3400  -15.2660    5.1720 C   0  0  0  0  0
   -3.5110  -16.7200    6.8710 C   0  0  0  0  0
   -4.2470  -14.1910    6.0400 C   0  0  0  0  0
   -3.4520  -15.6590    7.7480 C   0  0  0  0  0
   -3.8000  -14.4000    7.3130 C   0  0  0  0  0
   -3.6620  -13.3780    8.2670 O   0  0  0  0  0
   -3.0290  -19.6040    2.0250 O   0  0  0  0  0
    1.4793   -1.2853  -16.5200 H   0  0  0  0  0
    0.6464   -2.3439  -15.5389 H   0  0  0  0  0
    0.1147   -0.7741  -15.7116 H   0  0  0  0  0
    2.0523    0.0747  -14.6569 H   0  0  0  0  0
    1.4306   -0.3747  -12.4954 H   0  0  0  0  0
    2.0356   -2.6271  -12.5817 H   0  0  0  0  0
   -0.8889   -1.4582  -14.1284 H   0  0  0  0  0
   -0.9864   -0.8485  -12.4581 H   0  0  0  0  0
   -0.5589    0.2579  -13.7863 H   0  0  0  0  0
    4.0108   -0.3591  -13.5406 H   0  0  0  0  0
    5.6140   -2.2247  -14.9409 H   0  0  0  0  0
    6.5210   -0.2179  -13.7896 H   0  0  0  0  0
    6.0934   -0.9228  -12.2112 H   0  0  0  0  0
    7.3506   -1.6854  -13.2157 H   0  0  0  0  0
    6.4470   -4.1784  -14.5546 H   0  0  0  0  0
    4.9973   -6.0535  -12.9198 H   0  0  0  0  0
    7.8514   -6.1479  -13.9495 H   0  0  0  0  0
    6.3575   -6.6155  -14.8940 H   0  0  0  0  0
    5.9452   -8.3007  -13.1674 H   0  0  0  0  0
    7.6345   -7.9379  -12.5494 H   0  0  0  0  0
    6.7770   -9.2534  -15.1320 H   0  0  0  0  0
    7.8678   -9.8705  -13.8766 H   0  0  0  0  0
    9.2240   -7.6898  -14.5567 H   0  0  0  0  0
    8.7082   -9.6613  -18.0566 H   0  0  0  0  0
    7.6334  -10.0439  -16.7077 H   0  0  0  0  0
   10.5130   -7.2168  -16.2660 H   0  0  0  0  0
    5.2440   -6.7790  -10.8948 H   0  0  0  0  0
    6.7325   -5.5640   -8.8548 H   0  0  0  0  0
    6.2537   -8.5495   -9.2158 H   0  0  0  0  0
    5.0328   -7.3687   -8.5783 H   0  0  0  0  0
    6.7370   -6.8258   -6.8007 H   0  0  0  0  0
    7.5913   -8.3441   -7.3398 H   0  0  0  0  0
    5.6922   -9.6864   -6.6968 H   0  0  0  0  0
    4.7167   -8.2341   -6.3400 H   0  0  0  0  0
    6.6325   -7.6433   -4.6783 H   0  0  0  0  0
    7.0332   -9.4218   -4.8168 H   0  0  0  0  0
    5.6683   -8.9375   -2.9155 H   0  0  0  0  0
    4.4875   -8.2715   -3.8846 H   0  0  0  0  0
    4.8527   -9.8925   -4.0107 H   0  0  0  0  0
    8.8426   -5.8051   -7.9933 H   0  0  0  0  0
   10.6883   -6.0261  -10.1417 H   0  0  0  0  0
   11.0999   -4.6075   -8.1616 H   0  0  0  0  0
   12.4753   -5.7126   -8.4651 H   0  0  0  0  0
   11.8436   -5.6544   -6.2596 H   0  0  0  0  0
    9.8783   -8.4536   -7.6433 H   0  0  0  0  0
   11.9957  -10.2097   -8.6319 H   0  0  0  0  0
   10.9478  -11.8648   -6.9933 H   0  0  0  0  0
    9.1083  -11.0188   -5.8345 H   0  0  0  0  0
   12.6411  -10.2609   -6.1482 H   0  0  0  0  0
   11.3614   -9.0616   -5.8399 H   0  0  0  0  0
   11.3921  -10.5869   -4.9214 H   0  0  0  0  0
    9.0447   -9.3887   -9.9162 H   0  0  0  0  0
    8.9711  -11.8475  -11.4637 H   0  0  0  0  0
    7.8750  -10.3756  -11.6112 H   0  0  0  0  0
    7.6495  -11.2322   -8.4455 H   0  0  0  0  0
    6.0820  -12.3793   -7.2778 H   0  0  0  0  0
    6.0482  -13.5845   -8.6814 H   0  0  0  0  0
   -2.2612  -16.0572  -13.8178 H   0  0  0  0  0
   -1.6106  -14.4072  -13.6584 H   0  0  0  0  0
   -0.5026  -15.8004  -13.7064 H   0  0  0  0  0
    0.3655  -16.2282  -11.7535 H   0  0  0  0  0
   -1.0713  -16.9858   -9.5579 H   0  0  0  0  0
   -0.8804  -15.1846   -9.4016 H   0  0  0  0  0
    1.3981  -17.1193   -9.7834 H   0  0  0  0  0
    0.8109  -16.5194   -8.1686 H   0  0  0  0  0
    1.6874  -14.6483  -10.3579 H   0  0  0  0  0
    2.8497  -15.3623   -9.2327 H   0  0  0  0  0
    1.5859  -14.4981   -7.3100 H   0  0  0  0  0
    0.3300  -13.8420   -8.4167 H   0  0  0  0  0
    1.9411  -12.3088   -9.3921 H   0  0  0  0  0
    3.9404  -13.9715   -8.1330 H   0  0  0  0  0
   -0.0575  -11.6261   -8.1098 H   0  0  0  0  0
    0.8488  -10.2363   -5.6218 H   0  0  0  0  0
    0.9211   -8.5726   -7.4266 H   0  0  0  0  0
   -0.7600   -8.9530   -7.8740 H   0  0  0  0  0
   -0.4061   -8.2017   -6.2987 H   0  0  0  0  0
   -3.0913  -12.7043   -5.2009 H   0  0  0  0  0
   -2.1306  -14.6494   -4.2213 H   0  0  0  0  0
   -2.3539  -13.8255   -2.7196 H   0  0  0  0  0
    0.0975  -14.5462   -3.5795 H   0  0  0  0  0
   -0.1468  -13.0956   -2.6115 H   0  0  0  0  0
    0.9364  -12.1038   -4.4503 H   0  0  0  0  0
    0.4494  -13.3197   -5.5462 H   0  0  0  0  0
   -4.8464  -11.9585   -4.2733 H   0  0  0  0  0
   -4.8495   -9.7673   -2.4100 H   0  0  0  0  0
   -7.0592  -10.7522   -1.7359 H   0  0  0  0  0
   -6.7121  -12.0826   -2.9062 H   0  0  0  0  0
   -6.7508  -10.6376   -4.7215 H   0  0  0  0  0
   -6.6740   -9.1694   -3.6434 H   0  0  0  0  0
   -8.8713   -9.2778   -4.4982 H   0  0  0  0  0
   -8.9434   -9.8556   -2.8135 H   0  0  0  0  0
   -8.7380  -11.7581   -5.1122 H   0  0  0  0  0
  -11.3680  -12.1545   -2.0390 H   0  0  0  0  0
  -10.2944  -10.7518   -2.0705 H   0  0  0  0  0
  -10.1879  -13.4587   -5.1452 H   0  0  0  0  0
   -4.8156   -9.6418   -0.1860 H   0  0  0  0  0
   -2.8750  -11.3371    0.9659 H   0  0  0  0  0
   -4.9649   -9.6641    2.3943 H   0  0  0  0  0
   -3.3943   -9.0781    1.7832 H   0  0  0  0  0
   -3.8805  -11.1608    3.9311 H   0  0  0  0  0
   -3.1494   -9.5308    4.1265 H   0  0  0  0  0
   -1.2946  -10.2441    2.6362 H   0  0  0  0  0
   -2.0002  -11.8959    2.6133 H   0  0  0  0  0
   -0.1052  -11.4086    4.2361 H   0  0  0  0  0
   -1.6151  -12.2074    4.8781 H   0  0  0  0  0
   -0.7778  -10.5242    6.3478 H   0  0  0  0  0
   -0.8904   -9.3693    5.1519 H   0  0  0  0  0
   -2.2692  -10.0987    5.7382 H   0  0  0  0  0
   -6.4652  -11.6358    1.2442 H   0  0  0  0  0
   -6.1927  -13.6511    3.2561 H   0  0  0  0  0
   -8.2739  -12.4201    2.6927 H   0  0  0  0  0
   -8.4667  -14.2284    2.8073 H   0  0  0  0  0
   -8.4459  -14.3627    0.3886 H   0  0  0  0  0
   -8.2746  -12.5825    0.2840 H   0  0  0  0  0
  -11.8619  -14.2108    1.5894 H   0  0  0  0  0
  -10.3513  -15.1151    1.7364 H   0  0  0  0  0
   -5.6845  -13.7689   -0.2133 H   0  0  0  0  0
   -5.9581  -16.7087   -0.1774 H   0  0  0  0  0
   -5.4458  -16.6063   -2.5449 H   0  0  0  0  0
   -5.0496  -14.8215   -2.3716 H   0  0  0  0  0
   -7.3776  -14.3982   -1.8183 H   0  0  0  0  0
   -6.5899  -14.3056   -4.1909 H   0  0  0  0  0
   -6.9689  -16.0351   -4.3814 H   0  0  0  0  0
   -8.2805  -14.8599   -4.1171 H   0  0  0  0  0
   -7.8394  -17.3325   -2.4281 H   0  0  0  0  0
   -7.9950  -16.5475   -0.8373 H   0  0  0  0  0
   -9.1043  -16.1083   -2.1592 H   0  0  0  0  0
   -3.5554  -14.6240    0.8182 H   0  0  0  0  0
   -1.3219  -16.3590    0.0042 H   0  0  0  0  0
   -1.0290  -13.9001    0.2075 H   0  0  0  0  0
   -1.5078  -13.9841    1.9206 H   0  0  0  0  0
    0.0043  -14.7537    1.3799 H   0  0  0  0  0
   -3.7223  -16.5148    2.3603 H   0  0  0  0  0
   -1.9984  -17.8000    4.3091 H   0  0  0  0  0
   -4.2372  -18.5721    5.2595 H   0  0  0  0  0
   -4.9540  -17.4447    3.9889 H   0  0  0  0  0
   -4.7014  -15.1087    4.1558 H   0  0  0  0  0
   -3.1871  -17.7090    7.1950 H   0  0  0  0  0
   -4.5272  -13.1903    5.7110 H   0  0  0  0  0
   -3.1323  -15.8152    8.7783 H   0  0  0  0  0
   -3.3338  -13.7508    9.0885 H   0  0  0  0  0
   -3.0076  -18.7749    1.5415 H   0  0  0  0  0
  2  1  1  0  0  0
  3  2  1  0  0  0
  2  5  1  0  0  0
  3  4  2  0  0  0
  8  3  1  0  0  0
  5  6  1  0  0  0
  5  7  1  0  0  0
  9  8  1  0  0  0
 10  9  1  0  0  0
  9 12  1  0  0  0
 10 11  2  0  0  0
 13 10  1  0  0  0
 14 13  1  0  0  0
 15 14  1  0  0  0
 14 17  1  0  0  0
 15 16  2  0  0  0
 24 15  1  0  0  0
 17 18  1  0  0  0
 18 19  1  0  0  0
 19 20  1  0  0  0
 20 21  1  0  0  0
 21 22  1  0  0  0
 21 23  2  0  0  0
 25 24  1  0  0  0
 26 25  1  0  0  0
 25 28  1  0  0  0
 26 27  2  0  0  0
 33 26  1  0  0  0
 28 29  1  0  0  0
 29 30  1  0  0  0
 30 31  1  0  0  0
 31 32  1  0  0  0
 34 33  1  0  0  0
 35 34  1  0  0  0
 34 37  1  0  0  0
 35 36  2  0  0  0
 39 35  1  0  0  0
 37 38  1  0  0  0
 40 39  1  0  0  0
 41 40  1  0  0  0
 40 43  1  0  0  0
 41 42  2  0  0  0
 46 41  1  0  0  0
 43 44  1  0  0  0
 43 45  1  0  0  0
 47 46  1  0  0  0
 48 47  1  0  0  0
 48 49  2  0  0  0
 50 48  1  0  0  0
 51 50  1  0  0  0
 52 51  1  0  0  0
 52 53  2  0  0  0
 63 52  1  0  0  0
 55 54  2  0  0  0
 55 56  1  0  0  0
 57 55  1  0  0  0
 58 57  1  0  0  0
 59 58  1  0  0  0
 60 59  1  0  0  0
 61 60  1  0  0  0
 62 61  1  0  0  0
 62 63  1  0  0  0
 62 64  1  0  0  0
 64 65  2  0  0  0
 64 66  1  0  0  0
 66 67  1  0  0  0
 67 68  1  0  0  0
 67 70  1  0  0  0
 68 69  2  0  0  0
 68 71  1  0  0  0
 71 72  1  0  0  0
 71 77  1  0  0  0
 72 73  1  0  0  0
 72 75  1  0  0  0
 73 74  2  0  0  0
 73 78  1  0  0  0
 75 76  1  0  0  0
 76 77  1  0  0  0
 78 79  1  0  0  0
 79 80  1  0  0  0
 79 82  1  0  0  0
 80 81  2  0  0  0
 80 89  1  0  0  0
 82 83  1  0  0  0
 83 84  1  0  0  0
 84 85  1  0  0  0
 85 86  1  0  0  0
 86 87  1  0  0  0
 86 88  2  0  0  0
 89 90  1  0  0  0
 90 91  1  0  0  0
 90 93  1  0  0  0
 91 92  2  0  0  0
 91 98  1  0  0  0
 93 94  1  0  0  0
 94 95  1  0  0  0
 95 96  1  0  0  0
 96 97  1  0  0  0
 98 99  1  0  0  0
 99100  1  0  0  0
 99102  1  0  0  0
100101  2  0  0  0
100107  1  0  0  0
102103  1  0  0  0
103104  1  0  0  0
104105  2  0  0  0
104106  1  0  0  0
107108  1  0  0  0
108109  1  0  0  0
108111  1  0  0  0
109110  2  0  0  0
109115  1  0  0  0
111112  1  0  0  0
112113  1  0  0  0
112114  1  0  0  0
115116  1  0  0  0
116117  1  0  0  0
116119  1  0  0  0
117118  2  0  0  0
117120  1  0  0  0
120121  1  0  0  0
121122  1  0  0  0
121124  1  0  0  0
122123  2  0  0  0
122132  1  0  0  0
124125  1  0  0  0
125126  4  0  0  0
125127  4  0  0  0
126128  4  0  0  0
127129  4  0  0  0
128130  4  0  0  0
129130  4  0  0  0
130131  1  0  0  0
  1133  1  0  0  0
  1134  1  0  0  0
  1135  1  0  0  0
  2136  1  0  0  0
  5137  1  0  0  0
  6138  1  0  0  0
  7139  1  0  0  0
  7140  1  0  0  0
  7141  1  0  0  0
  8142  1  0  0  0
  9143  1  0  0  0
 12144  1  0  0  0
 12145  1  0  0  0
 12146  1  0  0  0
 13147  1  0  0  0
 14148  1  0  0  0
 17149  1  0  0  0
 17150  1  0  0  0
 18151  1  0  0  0
 18152  1  0  0  0
 19153  1  0  0  0
 19154  1  0  0  0
 20155  1  0  0  0
 22156  1  0  0  0
 22157  1  0  0  0
 23158  1  0  0  0
 24159  1  0  0  0
 25160  1  0  0  0
 28161  1  0  0  0
 28162  1  0  0  0
 29163  1  0  0  0
 29164  1  0  0  0
 30165  1  0  0  0
 30166  1  0  0  0
 31167  1  0  0  0
 31168  1  0  0  0
 32169  1  0  0  0
 32170  1  0  0  0
 32171  1  0  0  0
 33172  1  0  0  0
 34173  1  0  0  0
 37174  1  0  0  0
 37175  1  0  0  0
 38176  1  0  0  0
 39177  1  0  0  0
 40178  1  0  0  0
 43179  1  0  0  0
 44180  1  0  0  0
 45181  1  0  0  0
 45182  1  0  0  0
 45183  1  0  0  0
 46184  1  0  0  0
 47185  1  0  0  0
 47186  1  0  0  0
 50187  1  0  0  0
 51188  1  0  0  0
 51189  1  0  0  0
 56190  1  0  0  0
 56191  1  0  0  0
 56192  1  0  0  0
 57193  1  0  0  0
 58194  1  0  0  0
 58195  1  0  0  0
 59196  1  0  0  0
 59197  1  0  0  0
 60198  1  0  0  0
 60199  1  0  0  0
 61200  1  0  0  0
 61201  1  0  0  0
 62202  1  0  0  0
 63203  1  0  0  0
 66204  1  0  0  0
 67205  1  0  0  0
 70206  1  0  0  0
 70207  1  0  0  0
 70208  1  0  0  0
 72209  1  0  0  0
 75210  1  0  0  0
 75211  1  0  0  0
 76212  1  0  0  0
 76213  1  0  0  0
 77214  1  0  0  0
 77215  1  0  0  0
 78216  1  0  0  0
 79217  1  0  0  0
 82218  1  0  0  0
 82219  1  0  0  0
 83220  1  0  0  0
 83221  1  0  0  0
 84222  1  0  0  0
 84223  1  0  0  0
 85224  1  0  0  0
 87225  1  0  0  0
 87226  1  0  0  0
 88227  1  0  0  0
 89228  1  0  0  0
 90229  1  0  0  0
 93230  1  0  0  0
 93231  1  0  0  0
 94232  1  0  0  0
 94233  1  0  0  0
 95234  1  0  0  0
 95235  1  0  0  0
 96236  1  0  0  0
 96237  1  0  0  0
 97238  1  0  0  0
 97239  1  0  0  0
 97240  1  0  0  0
 98241  1  0  0  0
 99242  1  0  0  0
102243  1  0  0  0
102244  1  0  0  0
103245  1  0  0  0
103246  1  0  0  0
106247  1  0  0  0
106248  1  0  0  0
107249  1  0  0  0
108250  1  0  0  0
111251  1  0  0  0
111252  1  0  0  0
112253  1  0  0  0
113254  1  0  0  0
113255  1  0  0  0
113256  1  0  0  0
114257  1  0  0  0
114258  1  0  0  0
114259  1  0  0  0
115260  1  0  0  0
116261  1  0  0  0
119262  1  0  0  0
119263  1  0  0  0
119264  1  0  0  0
120265  1  0  0  0
121266  1  0  0  0
124267  1  0  0  0
124268  1  0  0  0
126269  1  0  0  0
127270  1  0  0  0
128271  1  0  0  0
129272  1  0  0  0
131273  1  0  0  0
132274  1  0  0  0
M  END
$$$$
