5l4e_ligand
  -I-interpret- 

 34 34  0  0  0  0  0  0  0  0999 V2000
   64.5520  -26.4530   57.4600 C   0  0  0  0  0
   63.6240  -25.3300   57.0280 C   0  0  0  0  0
   62.8650  -25.5350   55.9060 N   0  0  0  0  0
   62.8510  -26.6430   55.1180 C   0  0  0  0  0
   63.6740  -27.6600   55.4860 N   0  0  0  0  0
   64.5090  -27.6930   56.5710 C   0  0  0  0  0
   65.1400  -28.7100   56.8270 O   0  0  0  0  0
   63.5810  -24.2600   57.6170 O   0  0  0  0  0
   61.8600  -26.7550   53.7730 S   0  0  0  0  0
   65.9250  -25.7370   57.3520 C   0  0  0  0  0
   67.1370  -26.6100   57.5010 C   0  0  0  0  0
   64.2090  -26.9780   58.9050 C   0  0  0  0  0
   62.7080  -26.9680   59.1830 C   0  0  0  0  0
   64.9200  -26.2850   60.0910 C   0  0  0  0  0
   65.4410  -27.2480   61.1450 C   0  0  0  0  0
   66.3080  -26.5830   62.1840 C   0  0  0  0  0
   62.2432  -24.7742   55.6322 H   0  0  0  0  0
   63.6693  -28.4877   54.8900 H   0  0  0  0  0
   65.9616  -25.0205   58.1726 H   0  0  0  0  0
   65.9725  -25.3168   56.3474 H   0  0  0  0  0
   67.1208  -27.0879   58.4805 H   0  0  0  0  0
   67.1313  -27.3732   56.7228 H   0  0  0  0  0
   68.0359  -26.0006   57.4075 H   0  0  0  0  0
   64.6032  -27.9934   58.8643 H   0  0  0  0  0
   62.5077  -27.5066   60.1092 H   0  0  0  0  0
   62.3643  -25.9380   59.2786 H   0  0  0  0  0
   62.1839  -27.4522   58.3590 H   0  0  0  0  0
   64.1874  -25.6396   60.5756 H   0  0  0  0  0
   65.7800  -25.7514   59.6862 H   0  0  0  0  0
   66.0505  -27.9949   60.6363 H   0  0  0  0  0
   64.5784  -27.6726   61.6585 H   0  0  0  0  0
   67.1714  -26.1286   61.6981 H   0  0  0  0  0
   65.7318  -25.8134   62.6977 H   0  0  0  0  0
   66.6453  -27.3279   62.9047 H   0  0  0  0  0
  1  2  1  0  0  0
  1  6  1  0  0  0
  1 10  1  0  0  0
  1 12  1  0  0  0
  2  3  1  0  0  0
  2  8  2  0  0  0
  3  4  1  0  0  0
  4  5  1  0  0  0
  4  9  2  0  0  0
  5  6  1  0  0  0
  6  7  2  0  0  0
 10 11  1  0  0  0
 12 13  1  0  0  0
 12 14  1  0  0  0
 14 15  1  0  0  0
 15 16  1  0  0  0
  3 17  1  0  0  0
  5 18  1  0  0  0
 10 19  1  0  0  0
 10 20  1  0  0  0
 11 21  1  0  0  0
 11 22  1  0  0  0
 11 23  1  0  0  0
 12 24  1  0  0  0
 13 25  1  0  0  0
 13 26  1  0  0  0
 13 27  1  0  0  0
 14 28  1  0  0  0
 14 29  1  0  0  0
 15 30  1  0  0  0
 15 31  1  0  0  0
 16 32  1  0  0  0
 16 33  1  0  0  0
 16 34  1  0  0  0
M  END
$$$$
