6fhq_ligand
  -I-interpret- 

 18 18  0  0  0  0  0  0  0  0999 V2000
   19.5760    2.6540    7.8640 C   0  0  0  0  0
   19.3530    1.1520    8.2600 C   0  0  0  0  0
   19.1450    4.5030    4.7880 N   0  0  0  0  0
   19.2010    2.9320    6.5660 N   0  0  0  0  0
   19.2820    4.1890    6.0840 C   0  0  0  0  0
   19.4140    0.9130    9.7410 N   0  3  0  0  0
   19.2540    5.8320    4.5050 C   0  0  0  0  0
   19.4960    6.6050    5.5850 C   0  0  0  0  0
   19.5500    5.6300    6.9500 S   0  0  0  0  0
   19.9870    3.4960    8.6890 O   0  0  0  0  0
   20.1495    0.5680    7.7990 H   0  0  0  0  0
   18.3573    0.8662    7.9209 H   0  0  0  0  0
   18.8598    2.1810    5.9660 H   0  0  0  0  0
   19.2621   -0.0776    9.9309 H   0  0  0  0  0
   20.3307    1.1909   10.0916 H   0  0  0  0  0
   18.6906    1.4639   10.2032 H   0  0  0  0  0
   19.1547    6.2345    3.4969 H   0  0  0  0  0
   19.6339    7.6862    5.5725 H   0  0  0  0  0
  1  2  1  0  0  0
  4  1  1  0  0  0
  1 10  2  0  0  0
  2  6  1  0  0  0
  5  3  4  0  0  0
  3  7  4  0  0  0
  4  5  1  0  0  0
  5  9  4  0  0  0
  7  8  4  0  0  0
  8  9  4  0  0  0
  2 11  1  0  0  0
  2 12  1  0  0  0
  4 13  1  0  0  0
  6 14  1  0  0  0
  6 15  1  0  0  0
  6 16  1  0  0  0
  7 17  1  0  0  0
  8 18  1  0  0  0
M  END
$$$$
