### 
### Created by X-TOOL on Mon Sep 10 21:13:13 2018
### 

@<TRIPOS>MOLECULE
4gng_ligand
  180   179     1     0     0
SMALL
GAST_HUCK


@<TRIPOS>ATOM
      1 N          11.4310   -4.1960   25.9460 N.4       1 ALA         0.2377
      2 CA         12.4390   -3.1060   25.7800 C.3       1 ALA         0.0621
      3 C          13.2740   -2.9430   27.0310 C.2       1 ALA         0.2264
      4 O          12.7810   -3.1550   28.1350 O.2       1 ALA        -0.3907
      5 CB         11.7670   -1.7820   25.4460 C.3       1 ALA        -0.0040
      6 N          14.5290   -2.5530   26.8520 N.am      1 ARG        -0.2610
      7 CA         15.4430   -2.3690   27.9780 C.3       1 ARG         0.1312
      8 C          15.2890   -0.9570   28.5610 C.2       1 ARG         0.2040
      9 O          14.9200   -0.0130   27.8480 O.2       1 ARG        -0.3944
     10 CB         16.8930   -2.6180   27.5370 C.3       1 ARG        -0.0092
     11 CG         17.1440   -3.9750   26.8890 C.3       1 ARG        -0.0156
     12 CD         18.3400   -3.9470   25.9370 C.3       1 ARG         0.0627
     13 NE         18.0010   -3.3600   24.6340 N.pl3     1 ARG        -0.2723
     14 CZ         18.6260   -2.3250   24.0690 C.cat     1 ARG         0.2882
     15 NH1        19.6510   -1.7410   24.6820 N.pl3     1 ARG        -0.2849
     16 NH2        18.2340   -1.8760   22.8770 N.pl3     1 ARG        -0.2849
     17 N          15.5290   -0.8100   29.8620 N.am      1 THR        -0.2613
     18 CA         15.6170    0.5180   30.4480 C.3       1 THR         0.1565
     19 C          17.0160    0.7190   30.9890 C.2       1 THR         0.2065
     20 O          17.7680   -0.2480   31.1810 O.2       1 THR        -0.3943
     21 CB         14.6200    0.7540   31.6030 C.3       1 THR         0.0924
     22 OG1        14.8280   -0.2260   32.6250 O.3       1 THR        -0.3874
     23 CG2        13.1920    0.6890   31.1220 C.3       1 THR        -0.0346
     24 N          17.3630    1.9770   31.2160 N.am      1 LYS        -0.2637
     25 CA         18.5590    2.3190   31.9550 C.3       1 LYS         0.1310
     26 C          18.2660    3.4670   32.9090 C.2       1 LYS         0.2039
     27 O          17.2460    4.1510   32.7840 O.2       1 LYS        -0.3944
     28 CB         19.7120    2.6610   31.0140 C.3       1 LYS        -0.0122
     29 CG         19.4940    3.8680   30.1200 C.3       1 LYS        -0.0440
     30 CD         20.8450    4.2590   29.5440 C.3       1 LYS        -0.0124
     31 CE         20.7620    5.4380   28.6100 C.3       1 LYS        -0.0354
     32 NZ         22.1180    5.6530   28.0220 N.4       1 LYS         0.2185
     33 N          19.1840    3.6800   33.8480 N.am      1 GLN        -0.2636
     34 CA         19.0370    4.6960   34.8630 C.3       1 GLN         0.1330
     35 C          20.1230    5.7340   34.6790 C.2       1 GLN         0.2041
     36 O          21.3060    5.4070   34.7290 O.2       1 GLN        -0.3944
     37 CB         19.1780    4.0350   36.2350 C.3       1 GLN         0.0045
     38 CG         18.3780    4.6930   37.3310 C.3       1 GLN         0.0412
     39 CD         16.8830    4.5840   37.1100 C.2       1 GLN         0.1737
     40 OE1        16.1810    5.5660   37.2050 O.2       1 GLN        -0.3973
     41 NE2        16.3960    3.3800   36.8080 N.am      1 GLN        -0.3009
     42 N          19.7410    6.9810   34.4570 N.am      1 THR        -0.2613
     43 CA         20.7320    8.0490   34.3010 C.3       1 THR         0.1565
     44 C          20.4530    9.1780   35.2730 C.2       1 THR         0.2065
     45 O          19.3590    9.2490   35.8440 O.2       1 THR        -0.3943
     46 CB         20.7720    8.6280   32.8700 C.3       1 THR         0.0924
     47 OG1        19.5530    9.3280   32.6020 O.3       1 THR        -0.3874
     48 CG2        20.9810    7.5300   31.8370 C.3       1 THR        -0.0346
     49 N          21.4270   10.0750   35.4310 N.am      1 ALA        -0.2639
     50 CA         21.3210   11.2000   36.3650 C.3       1 ALA         0.1282
     51 C          20.3650   12.2890   35.8740 C.2       1 ALA         0.2036
     52 O          20.3540   12.6320   34.6980 O.2       1 ALA        -0.3944
     53 CB         22.7020   11.8020   36.6200 C.3       1 ALA        -0.0244
     54 N          19.5600   12.8390   36.7760 N.am      1 ARG        -0.2637
     55 CA         18.7290   13.9880   36.4240 C.3       1 ARG         0.1311
     56 C          19.5410   15.2660   36.4730 C.2       1 ARG         0.2039
     57 O          20.5520   15.3190   37.1590 O.2       1 ARG        -0.3944
     58 CB         17.5490   14.1120   37.3730 C.3       1 ARG        -0.0092
     59 CG         16.6110   12.9310   37.3130 C.3       1 ARG        -0.0156
     60 CD         15.2030   13.4460   37.2340 C.3       1 ARG         0.0627
     61 NE         14.2560   12.3790   36.9670 N.pl3     1 ARG        -0.2723
     62 CZ         13.2060   12.5080   36.1600 C.cat     1 ARG         0.2882
     63 NH1        12.9990   13.6560   35.5240 N.pl3     1 ARG        -0.2849
     64 NH2        12.3880   11.4770   35.9750 N.pl3     1 ARG        -0.2849
     65 N          19.0780   16.3000   35.7730 N.am      1 M3L        -0.2637
     66 CA         19.7840   17.5870   35.7190 C.3       1 M3L         0.1309
     67 CB         19.6870   18.1210   34.2890 C.3       1 M3L        -0.0122
     68 CG         20.7730   17.5180   33.3960 C.3       1 M3L        -0.0440
     69 CD         21.3460   18.5410   32.4130 C.3       1 M3L        -0.0123
     70 CE         20.7380   18.3890   31.0130 C.3       1 M3L        -0.0309
     71 NZ         21.5590   18.9250   29.9010 N.4       1 M3L         0.2369
     72 C          19.2130   18.5900   36.6970 C.2       1 M3L         0.2034
     73 O          18.1280   18.3780   37.2470 O.2       1 M3L        -0.3944
     74 CM1        20.9420   18.4910   28.6380 C.3       1 M3L        -0.0418
     75 CM2        22.9420   18.4210   29.9400 C.3       1 M3L        -0.0418
     76 CM3        21.5690   20.3980   29.9140 C.3       1 M3L        -0.0418
     77 N          19.9440   19.6940   36.9070 N.am      1 SER        -0.2672
     78 CA         19.5360   20.8100   37.7940 C.3       1 SER         0.1173
     79 C          19.3660   20.4070   39.2620 C.2       1 SER         0.0623
     80 O          20.3646   20.1653   39.9913 O.co2     1 SER        -0.5665
     81 CB         18.2690   21.5130   37.2770 C.3       1 SER         0.0789
     82 OG         17.4720   22.0180   38.3440 O.3       1 SER        -0.3910
     83 O          18.2074   20.3157   39.7487 O.co2     1 SER        -0.5665
     84 H1         10.8890   -4.2840   25.1007 H         1 ALA         0.2015
     85 H2         10.8193   -3.9736   26.7156 H         1 ALA         0.2015
     86 H3         11.9045   -5.0659   26.1336 H         1 ALA         0.2015
     87 H4         13.1052   -3.3787   24.9483 H         1 ALA         0.1095
     88 H5         12.5329   -1.0010   25.3301 H         1 ALA         0.0310
     89 H6         11.0801   -1.5041   26.2589 H         1 ALA         0.0310
     90 H7         11.2023   -1.8838   24.5075 H         1 ALA         0.0310
     91 H8         14.8582   -2.3805   25.9236 H         1 ARG         0.1884
     92 H9         15.1866   -3.0992   28.7597 H         1 ARG         0.0800
     93 H10        17.5382   -2.5388   28.4244 H         1 ARG         0.0313
     94 H11        17.1684   -1.8375   26.8125 H         1 ARG         0.0313
     95 H12        16.2476   -4.2689   26.3233 H         1 ARG         0.0301
     96 H13        17.3376   -4.7149   27.6796 H         1 ARG         0.0301
     97 H14        18.6916   -4.9774   25.7801 H         1 ARG         0.0689
     98 H15        19.1432   -3.3512   26.3952 H         1 ARG         0.0689
     99 H16        17.2177   -3.7811   24.1144 H         1 ARG         0.2642
    100 H17        20.1285   -0.9426   24.2398 H         1 ARG         0.2615
    101 H18        19.9676   -2.0869   25.5991 H         1 ARG         0.2615
    102 H19        17.4409   -2.3218   22.3941 H         1 ARG         0.2615
    103 H20        18.7241   -1.0832   22.4387 H         1 ARG         0.2615
    104 H21        15.6495   -1.6173   30.4397 H         1 THR         0.1884
    105 H22        15.4186    1.2585   29.6591 H         1 THR         0.0826
    106 H23        14.8024    1.7536   32.0244 H         1 THR         0.0639
    107 H24        15.7161   -0.1547   32.9545 H         1 THR         0.2101
    108 H25        12.5116    0.8612   31.9690 H         1 THR         0.0257
    109 H26        12.9955   -0.3032   30.6897 H         1 THR         0.0257
    110 H27        13.0273    1.4617   30.3566 H         1 THR         0.0257
    111 H28        16.7815    2.7117   30.8665 H         1 LYS         0.1883
    112 H29        18.8568    1.4440   32.5513 H         1 LYS         0.0800
    113 H30        19.8910    1.7892   30.3675 H         1 LYS         0.0312
    114 H31        20.6046    2.8517   31.6280 H         1 LYS         0.0312
    115 H32        19.0809    4.7011   30.7076 H         1 LYS         0.0269
    116 H33        18.7987    3.6126   29.3068 H         1 LYS         0.0269
    117 H34        21.2530    3.4003   28.9907 H         1 LYS         0.0317
    118 H35        21.5202    4.5149   30.3738 H         1 LYS         0.0317
    119 H36        20.4492    6.3341   29.1659 H         1 LYS         0.0813
    120 H37        20.0361    5.2308   27.8099 H         1 LYS         0.0813
    121 H38        22.0899    6.4387   27.3912 H         1 LYS         0.1994
    122 H39        22.4003    4.8272   27.5176 H         1 LYS         0.1994
    123 H40        22.7789    5.8382   28.7602 H         1 LYS         0.1994
    124 H41        20.0084    3.1140   33.8509 H         1 GLN         0.1883
    125 H42        18.0493    5.1726   34.7783 H         1 GLN         0.0801
    126 H43        20.2397    4.0611   36.5215 H         1 GLN         0.0337
    127 H44        18.8471    2.9895   36.1484 H         1 GLN         0.0337
    128 H45        18.6505    5.7578   37.3748 H         1 GLN         0.0504
    129 H46        18.6283    4.2108   38.2874 H         1 GLN         0.0504
    130 H47        15.4151    3.2617   36.6538 H         1 GLN         0.1814
    131 H48        17.0117    2.5953   36.7357 H         1 GLN         0.1814
    132 H49        18.7665    7.1968   34.3951 H         1 THR         0.1884
    133 H50        21.7216    7.6257   34.5277 H         1 THR         0.0826
    134 H51        21.6108    9.3363   32.8013 H         1 THR         0.0639
    135 H52        19.5801    9.6831   31.7213 H         1 THR         0.2101
    136 H53        21.0049    7.9732   30.8305 H         1 THR         0.0257
    137 H54        20.1553    6.8060   31.8993 H         1 THR         0.0257
    138 H55        21.9339    7.0173   32.0345 H         1 THR         0.0257
    139 H56        22.2629    9.9764   34.8910 H         1 ALA         0.1883
    140 H57        20.9301   10.8115   37.3170 H         1 ALA         0.0797
    141 H58        22.6109   12.6444   37.3214 H         1 ALA         0.0277
    142 H59        23.1271   12.1597   35.6706 H         1 ALA         0.0277
    143 H60        23.3622   11.0353   37.0516 H         1 ALA         0.0277
    144 H61        19.5224   12.4641   37.7023 H         1 ARG         0.1883
    145 H62        18.3494   13.8457   35.4014 H         1 ARG         0.0800
    146 H63        16.9850   15.0199   37.1129 H         1 ARG         0.0313
    147 H64        17.9338   14.2009   38.3996 H         1 ARG         0.0313
    148 H65        16.7309   12.3153   38.2166 H         1 ARG         0.0301
    149 H66        16.8347   12.3240   36.4233 H         1 ARG         0.0301
    150 H67        15.1400   14.1893   36.4256 H         1 ARG         0.0689
    151 H68        14.9432   13.9221   38.1910 H         1 ARG         0.0689
    152 H69        14.4053   11.4703   37.4284 H         1 ARG         0.2642
    153 H70        12.1871   13.7592   34.8986 H         1 ARG         0.2615
    154 H71        13.6504   14.4428   35.6564 H         1 ARG         0.2615
    155 H72        12.5559   10.5907   36.4721 H         1 ARG         0.2615
    156 H73        11.5861   11.5643   35.3345 H         1 ARG         0.2615
    157 H74        18.2214   16.1969   35.2674 H         1 M3L         0.1883
    158 H75        20.8419   17.4218   35.9711 H         1 M3L         0.0800
    159 H76        19.8036   19.2147   34.3061 H         1 M3L         0.0312
    160 H77        18.7002   17.8638   33.8765 H         1 M3L         0.0312
    161 H78        20.3398   16.6829   32.8259 H         1 M3L         0.0269
    162 H79        21.5880   17.1435   34.0328 H         1 M3L         0.0269
    163 H80        22.4347   18.3989   32.3456 H         1 M3L         0.0317
    164 H81        21.1307   19.5530   32.7866 H         1 M3L         0.0317
    165 H82        19.7711   18.9135   31.0042 H         1 M3L         0.0815
    166 H83        20.5753   17.3169   30.8283 H         1 M3L         0.0815
    167 H84        21.5306   18.8746   27.7916 H         1 M3L         0.0778
    168 H85        19.9156   18.8821   28.5779 H         1 M3L         0.0778
    169 H86        20.9185   17.3919   28.6000 H         1 M3L         0.0778
    170 H87        23.4207   18.7361   30.8789 H         1 M3L         0.0778
    171 H88        23.5048   18.8280   29.0870 H         1 M3L         0.0778
    172 H89        22.9337   17.3225   29.8833 H         1 M3L         0.0778
    173 H90        20.5349   20.7719   29.8848 H         1 M3L         0.0778
    174 H91        22.1178   20.7687   29.0358 H         1 M3L         0.0778
    175 H92        22.0616   20.7533   30.8311 H         1 M3L         0.0778
    176 H93        20.8220   19.7698   36.4344 H         1 SER         0.1876
    177 H94        20.3514   21.5476   37.7617 H         1 SER         0.0749
    178 H95        17.6731   20.7924   36.6976 H         1 SER         0.0599
    179 H96        18.5658   22.3496   36.6274 H         1 SER         0.0599
    180 H97        17.2069   21.3001   38.9070 H         1 SER         0.2096
@<TRIPOS>BOND
     1    1    2 1  
     2    2    3 1  
     3    2    5 1  
     4    3    4 2  
     5    3    6 am 
     6    6    7 1  
     7    7    8 1  
     8    7   10 1  
     9    8    9 2  
    10    8   17 am 
    11   10   11 1  
    12   11   12 1  
    13   12   13 1  
    14   13   14 ar 
    15   14   15 ar 
    16   14   16 ar 
    17   17   18 1  
    18   18   19 1  
    19   18   21 1  
    20   19   20 2  
    21   19   24 am 
    22   21   22 1  
    23   21   23 1  
    24   24   25 1  
    25   25   26 1  
    26   25   28 1  
    27   26   27 2  
    28   26   33 am 
    29   28   29 1  
    30   29   30 1  
    31   30   31 1  
    32   31   32 1  
    33   33   34 1  
    34   34   35 1  
    35   34   37 1  
    36   35   36 2  
    37   35   42 am 
    38   37   38 1  
    39   38   39 1  
    40   39   40 2  
    41   39   41 am 
    42   42   43 1  
    43   43   44 1  
    44   43   46 1  
    45   44   45 2  
    46   44   49 am 
    47   46   47 1  
    48   46   48 1  
    49   49   50 1  
    50   50   51 1  
    51   50   53 1  
    52   51   52 2  
    53   51   54 am 
    54   54   55 1  
    55   55   56 1  
    56   55   58 1  
    57   56   57 2  
    58   56   65 am 
    59   58   59 1  
    60   59   60 1  
    61   60   61 1  
    62   61   62 ar 
    63   62   63 ar 
    64   62   64 ar 
    65   65   66 1  
    66   66   67 1  
    67   66   72 1  
    68   67   68 1  
    69   68   69 1  
    70   69   70 1  
    71   70   71 1  
    72   71   74 1  
    73   71   75 1  
    74   71   76 1  
    75   72   73 2  
    76   72   77 am 
    77   77   78 1  
    78   78   79 1  
    79   78   81 1  
    80   79   80 ar 
    81   81   82 1  
    82   79   83 ar 
    83    1   84 1  
    84    1   85 1  
    85    1   86 1  
    86    2   87 1  
    87    5   88 1  
    88    5   89 1  
    89    5   90 1  
    90    6   91 1  
    91    7   92 1  
    92   10   93 1  
    93   10   94 1  
    94   11   95 1  
    95   11   96 1  
    96   12   97 1  
    97   12   98 1  
    98   13   99 1  
    99   15  100 1  
   100   15  101 1  
   101   16  102 1  
   102   16  103 1  
   103   17  104 1  
   104   18  105 1  
   105   21  106 1  
   106   22  107 1  
   107   23  108 1  
   108   23  109 1  
   109   23  110 1  
   110   24  111 1  
   111   25  112 1  
   112   28  113 1  
   113   28  114 1  
   114   29  115 1  
   115   29  116 1  
   116   30  117 1  
   117   30  118 1  
   118   31  119 1  
   119   31  120 1  
   120   32  121 1  
   121   32  122 1  
   122   32  123 1  
   123   33  124 1  
   124   34  125 1  
   125   37  126 1  
   126   37  127 1  
   127   38  128 1  
   128   38  129 1  
   129   41  130 1  
   130   41  131 1  
   131   42  132 1  
   132   43  133 1  
   133   46  134 1  
   134   47  135 1  
   135   48  136 1  
   136   48  137 1  
   137   48  138 1  
   138   49  139 1  
   139   50  140 1  
   140   53  141 1  
   141   53  142 1  
   142   53  143 1  
   143   54  144 1  
   144   55  145 1  
   145   58  146 1  
   146   58  147 1  
   147   59  148 1  
   148   59  149 1  
   149   60  150 1  
   150   60  151 1  
   151   61  152 1  
   152   63  153 1  
   153   63  154 1  
   154   64  155 1  
   155   64  156 1  
   156   65  157 1  
   157   66  158 1  
   158   67  159 1  
   159   67  160 1  
   160   68  161 1  
   161   68  162 1  
   162   69  163 1  
   163   69  164 1  
   164   70  165 1  
   165   70  166 1  
   166   74  167 1  
   167   74  168 1  
   168   74  169 1  
   169   75  170 1  
   170   75  171 1  
   171   75  172 1  
   172   76  173 1  
   173   76  174 1  
   174   76  175 1  
   175   77  176 1  
   176   78  177 1  
   177   81  178 1  
   178   81  179 1  
   179   82  180 1  
@<TRIPOS>SUBSTRUCTURE
     1 ALA         1

