4gng_ligand
  -I-interpret- 

179178  0  0  0  0  0  0  0  0999 V2000
   11.4310   -4.1960   25.9460 N   0  3  0  0  0
   12.4390   -3.1060   25.7800 C   0  0  0  0  0
   13.2740   -2.9430   27.0310 C   0  0  0  0  0
   12.7810   -3.1550   28.1350 O   0  0  0  0  0
   11.7670   -1.7820   25.4460 C   0  0  0  0  0
   14.5290   -2.5530   26.8520 N   0  0  0  0  0
   15.4430   -2.3690   27.9780 C   0  0  0  0  0
   15.2890   -0.9570   28.5610 C   0  0  0  0  0
   14.9200   -0.0130   27.8480 O   0  0  0  0  0
   16.8930   -2.6180   27.5370 C   0  0  0  0  0
   17.1440   -3.9750   26.8890 C   0  0  0  0  0
   18.3400   -3.9470   25.9370 C   0  0  0  0  0
   18.0010   -3.3600   24.6340 N   0  0  0  0  0
   18.6260   -2.3250   24.0690 C   0  0  0  0  0
   19.6510   -1.7410   24.6820 N   0  0  0  0  0
   18.2340   -1.8760   22.8770 N   0  0  0  0  0
   15.5290   -0.8100   29.8620 N   0  0  0  0  0
   15.6170    0.5180   30.4480 C   0  0  0  0  0
   17.0160    0.7190   30.9890 C   0  0  0  0  0
   17.7680   -0.2480   31.1810 O   0  0  0  0  0
   14.6200    0.7540   31.6030 C   0  0  0  0  0
   14.8280   -0.2260   32.6250 O   0  0  0  0  0
   13.1920    0.6890   31.1220 C   0  0  0  0  0
   17.3630    1.9770   31.2160 N   0  0  0  0  0
   18.5590    2.3190   31.9550 C   0  0  0  0  0
   18.2660    3.4670   32.9090 C   0  0  0  0  0
   17.2460    4.1510   32.7840 O   0  0  0  0  0
   19.7120    2.6610   31.0140 C   0  0  0  0  0
   19.4940    3.8680   30.1200 C   0  0  0  0  0
   20.8450    4.2590   29.5440 C   0  0  0  0  0
   20.7620    5.4380   28.6100 C   0  0  0  0  0
   22.1180    5.6530   28.0220 N   0  3  0  0  0
   19.1840    3.6800   33.8480 N   0  0  0  0  0
   19.0370    4.6960   34.8630 C   0  0  0  0  0
   20.1230    5.7340   34.6790 C   0  0  0  0  0
   21.3060    5.4070   34.7290 O   0  0  0  0  0
   19.1780    4.0350   36.2350 C   0  0  0  0  0
   18.3780    4.6930   37.3310 C   0  0  0  0  0
   16.8830    4.5840   37.1100 C   0  0  0  0  0
   16.1810    5.5660   37.2050 O   0  0  0  0  0
   16.3960    3.3800   36.8080 N   0  0  0  0  0
   19.7410    6.9810   34.4570 N   0  0  0  0  0
   20.7320    8.0490   34.3010 C   0  0  0  0  0
   20.4530    9.1780   35.2730 C   0  0  0  0  0
   19.3590    9.2490   35.8440 O   0  0  0  0  0
   20.7720    8.6280   32.8700 C   0  0  0  0  0
   19.5530    9.3280   32.6020 O   0  0  0  0  0
   20.9810    7.5300   31.8370 C   0  0  0  0  0
   21.4270   10.0750   35.4310 N   0  0  0  0  0
   21.3210   11.2000   36.3650 C   0  0  0  0  0
   20.3650   12.2890   35.8740 C   0  0  0  0  0
   20.3540   12.6320   34.6980 O   0  0  0  0  0
   22.7020   11.8020   36.6200 C   0  0  0  0  0
   19.5600   12.8390   36.7760 N   0  0  0  0  0
   18.7290   13.9880   36.4240 C   0  0  0  0  0
   19.5410   15.2660   36.4730 C   0  0  0  0  0
   20.5520   15.3190   37.1590 O   0  0  0  0  0
   17.5490   14.1120   37.3730 C   0  0  0  0  0
   16.6110   12.9310   37.3130 C   0  0  0  0  0
   15.2030   13.4460   37.2340 C   0  0  0  0  0
   14.2560   12.3790   36.9670 N   0  0  0  0  0
   13.2060   12.5080   36.1600 C   0  0  0  0  0
   12.9990   13.6560   35.5240 N   0  0  0  0  0
   12.3880   11.4770   35.9750 N   0  0  0  0  0
   19.0780   16.3000   35.7730 N   0  0  0  0  0
   19.7840   17.5870   35.7190 C   0  0  0  0  0
   19.6870   18.1210   34.2890 C   0  0  0  0  0
   20.7730   17.5180   33.3960 C   0  0  0  0  0
   21.3460   18.5410   32.4130 C   0  0  0  0  0
   20.7380   18.3890   31.0130 C   0  0  0  0  0
   21.5590   18.9250   29.9010 N   0  3  0  0  0
   19.2130   18.5900   36.6970 C   0  0  0  0  0
   18.1280   18.3780   37.2470 O   0  0  0  0  0
   20.9420   18.4910   28.6380 C   0  0  0  0  0
   22.9420   18.4210   29.9400 C   0  0  0  0  0
   21.5690   20.3980   29.9140 C   0  0  0  0  0
   19.9440   19.6940   36.9070 N   0  0  0  0  0
   19.5360   20.8100   37.7940 C   0  0  0  0  0
   19.3660   20.4070   39.2620 C   0  0  0  0  0
   20.3646   20.1653   39.9913 O   0  0  0  0  0
   18.2690   21.5130   37.2770 C   0  0  0  0  0
   17.4720   22.0180   38.3440 O   0  0  0  0  0
   18.2074   20.3157   39.7487 O   0  0  0  0  0
   11.9094   -5.0689   26.1687 H   0  0  0  0  0
   10.7922   -3.9542   26.7035 H   0  0  0  0  0
   10.9056   -4.3065   25.0788 H   0  0  0  0  0
   13.0888   -3.3916   24.9527 H   0  0  0  0  0
   11.1269   -1.4815   26.2755 H   0  0  0  0  0
   12.5293   -1.0209   25.2794 H   0  0  0  0  0
   11.1652   -1.8987   24.5447 H   0  0  0  0  0
   14.8648   -2.3771   25.9051 H   0  0  0  0  0
   15.1927   -3.0924   28.7540 H   0  0  0  0  0
   17.5070   -2.5801   28.4368 H   0  0  0  0  0
   17.1286   -1.8625   26.7875 H   0  0  0  0  0
   16.2585   -4.2455   26.3138 H   0  0  0  0  0
   17.3563   -4.6947   27.6796 H   0  0  0  0  0
   18.6646   -4.9743   25.7712 H   0  0  0  0  0
   19.1197   -3.3354   26.3911 H   0  0  0  0  0
   17.2253   -3.7770   24.1194 H   0  0  0  0  0
   19.9645   -2.0835   25.5902 H   0  0  0  0  0
   18.7193   -1.0909   22.4429 H   0  0  0  0  0
   17.4486   -2.3175   22.3988 H   0  0  0  0  0
   15.6519   -1.6335   30.4512 H   0  0  0  0  0
   15.3711    1.2254   29.6560 H   0  0  0  0  0
   14.7965    1.7524   32.0031 H   0  0  0  0  0
   14.2067   -0.0764   33.3414 H   0  0  0  0  0
   13.0302    1.4550   30.3636 H   0  0  0  0  0
   12.9986   -0.2946   30.6938 H   0  0  0  0  0
   12.5188    0.8597   31.9621 H   0  0  0  0  0
   16.7699    2.7264   30.8595 H   0  0  0  0  0
   18.8676    1.4519   32.5389 H   0  0  0  0  0
   19.8353    1.8040   30.3518 H   0  0  0  0  0
   20.5682    2.8953   31.6465 H   0  0  0  0  0
   19.0693    4.6937   30.6909 H   0  0  0  0  0
   18.7932    3.6287   29.3202 H   0  0  0  0  0
   21.2245    3.4094   28.9763 H   0  0  0  0  0
   21.4945    4.5359   30.3744 H   0  0  0  0  0
   20.4398    6.3272   29.1518 H   0  0  0  0  0
   20.0346    5.2449   27.8215 H   0  0  0  0  0
   22.0884    6.4483   27.3840 H   0  0  0  0  0
   22.7858    5.8403   28.7699 H   0  0  0  0  0
   22.4026    4.8168   27.5120 H   0  0  0  0  0
   20.0249    3.1027   33.8509 H   0  0  0  0  0
   18.0621    5.1774   34.7856 H   0  0  0  0  0
   20.2280    4.1085   36.5182 H   0  0  0  0  0
   18.8067    3.0148   36.1374 H   0  0  0  0  0
   18.6378    5.7515   37.3456 H   0  0  0  0  0
   18.6155    4.1885   38.2676 H   0  0  0  0  0
   15.3960    3.2601   36.6469 H   0  0  0  0  0
   17.0235    2.5789   36.7380 H   0  0  0  0  0
   18.7470    7.2011   34.3938 H   0  0  0  0  0
   21.7010    7.5950   34.5087 H   0  0  0  0  0
   21.6131    9.3178   32.8011 H   0  0  0  0  0
   19.5804    9.6869   31.7120 H   0  0  0  0  0
   21.9255    7.0228   32.0338 H   0  0  0  0  0
   20.1622    6.8132   31.8998 H   0  0  0  0  0
   21.0045    7.9704   30.8402 H   0  0  0  0  0
   22.2796    9.9744   34.8802 H   0  0  0  0  0
   20.9090   10.8032   37.2928 H   0  0  0  0  0
   23.3552   11.0414   37.0476 H   0  0  0  0  0
   23.1221   12.1560   35.6786 H   0  0  0  0  0
   22.6104   12.6366   37.3151 H   0  0  0  0  0
   19.5217   12.4566   37.7208 H   0  0  0  0  0
   18.3588   13.8314   35.4108 H   0  0  0  0  0
   16.9838   14.9978   37.0832 H   0  0  0  0  0
   17.9451   14.1680   38.3869 H   0  0  0  0  0
   16.7323   12.3133   38.2029 H   0  0  0  0  0
   16.8345   12.3219   36.4372 H   0  0  0  0  0
   15.1463   14.1677   36.4192 H   0  0  0  0  0
   14.9487   13.8995   38.1920 H   0  0  0  0  0
   14.4038   11.4791   37.4240 H   0  0  0  0  0
   13.6441   14.4352   35.6551 H   0  0  0  0  0
   11.5939   11.5634   35.3407 H   0  0  0  0  0
   12.5543   10.5993   36.4673 H   0  0  0  0  0
   18.2043   16.1948   35.2573 H   0  0  0  0  0
   20.8250   17.4334   36.0033 H   0  0  0  0  0
   19.8183   19.2028   34.3128 H   0  0  0  0  0
   18.7128   17.8494   33.8824 H   0  0  0  0  0
   20.3273   16.7069   32.8203 H   0  0  0  0  0
   21.5843   17.1707   34.0358 H   0  0  0  0  0
   22.4214   18.3794   32.3387 H   0  0  0  0  0
   21.1109   19.5394   32.7819 H   0  0  0  0  0
   19.8077   18.9570   31.0146 H   0  0  0  0  0
   20.6327   17.3189   30.8341 H   0  0  0  0  0
   20.9193   17.4018   28.6017 H   0  0  0  0  0
   19.9251   18.8791   28.5797 H   0  0  0  0  0
   21.5261   18.8716   27.8001 H   0  0  0  0  0
   23.4085   18.7161   30.8799 H   0  0  0  0  0
   22.9334   17.3338   29.8628 H   0  0  0  0  0
   23.5042   18.8413   29.1061 H   0  0  0  0  0
   20.5494   20.7680   29.8062 H   0  0  0  0  0
   21.9863   20.7489   30.8578 H   0  0  0  0  0
   22.1787   20.7632   29.0876 H   0  0  0  0  0
   20.8396   19.7714   36.4250 H   0  0  0  0  0
   20.3673   21.5144   37.7636 H   0  0  0  0  0
   17.6766   20.7864   36.7209 H   0  0  0  0  0
   18.5736   22.3512   36.6503 H   0  0  0  0  0
   16.6930   22.4483   37.9841 H   0  0  0  0  0
   17.5599   20.5290   39.0728 H   0  0  0  0  0
  1  2  1  0  0  0
  2  3  1  0  0  0
  2  5  1  0  0  0
  3  4  2  0  0  0
  3  6  1  0  0  0
  6  7  1  0  0  0
  7  8  1  0  0  0
  7 10  1  0  0  0
  8  9  2  0  0  0
  8 17  1  0  0  0
 10 11  1  0  0  0
 11 12  1  0  0  0
 12 13  1  0  0  0
 13 14  1  0  0  0
 14 15  2  0  0  0
 14 16  1  0  0  0
 17 18  1  0  0  0
 18 19  1  0  0  0
 18 21  1  0  0  0
 19 20  2  0  0  0
 19 24  1  0  0  0
 21 22  1  0  0  0
 21 23  1  0  0  0
 24 25  1  0  0  0
 25 26  1  0  0  0
 25 28  1  0  0  0
 26 27  2  0  0  0
 26 33  1  0  0  0
 28 29  1  0  0  0
 29 30  1  0  0  0
 30 31  1  0  0  0
 31 32  1  0  0  0
 33 34  1  0  0  0
 34 35  1  0  0  0
 34 37  1  0  0  0
 35 36  2  0  0  0
 35 42  1  0  0  0
 37 38  1  0  0  0
 38 39  1  0  0  0
 39 40  2  0  0  0
 39 41  1  0  0  0
 42 43  1  0  0  0
 43 44  1  0  0  0
 43 46  1  0  0  0
 44 45  2  0  0  0
 44 49  1  0  0  0
 46 47  1  0  0  0
 46 48  1  0  0  0
 49 50  1  0  0  0
 50 51  1  0  0  0
 50 53  1  0  0  0
 51 52  2  0  0  0
 51 54  1  0  0  0
 54 55  1  0  0  0
 55 56  1  0  0  0
 55 58  1  0  0  0
 56 57  2  0  0  0
 56 65  1  0  0  0
 58 59  1  0  0  0
 59 60  1  0  0  0
 60 61  1  0  0  0
 61 62  1  0  0  0
 62 63  2  0  0  0
 62 64  1  0  0  0
 65 66  1  0  0  0
 66 67  1  0  0  0
 66 72  1  0  0  0
 67 68  1  0  0  0
 68 69  1  0  0  0
 69 70  1  0  0  0
 70 71  1  0  0  0
 71 74  1  0  0  0
 71 75  1  0  0  0
 71 76  1  0  0  0
 72 73  2  0  0  0
 72 77  1  0  0  0
 77 78  1  0  0  0
 78 79  1  0  0  0
 78 81  1  0  0  0
 79 80  2  0  0  0
 81 82  1  0  0  0
 79 83  1  0  0  0
  1 84  1  0  0  0
  1 85  1  0  0  0
  1 86  1  0  0  0
  2 87  1  0  0  0
  5 88  1  0  0  0
  5 89  1  0  0  0
  5 90  1  0  0  0
  6 91  1  0  0  0
  7 92  1  0  0  0
 10 93  1  0  0  0
 10 94  1  0  0  0
 11 95  1  0  0  0
 11 96  1  0  0  0
 12 97  1  0  0  0
 12 98  1  0  0  0
 13 99  1  0  0  0
 15100  1  0  0  0
 16101  1  0  0  0
 16102  1  0  0  0
 17103  1  0  0  0
 18104  1  0  0  0
 21105  1  0  0  0
 22106  1  0  0  0
 23107  1  0  0  0
 23108  1  0  0  0
 23109  1  0  0  0
 24110  1  0  0  0
 25111  1  0  0  0
 28112  1  0  0  0
 28113  1  0  0  0
 29114  1  0  0  0
 29115  1  0  0  0
 30116  1  0  0  0
 30117  1  0  0  0
 31118  1  0  0  0
 31119  1  0  0  0
 32120  1  0  0  0
 32121  1  0  0  0
 32122  1  0  0  0
 33123  1  0  0  0
 34124  1  0  0  0
 37125  1  0  0  0
 37126  1  0  0  0
 38127  1  0  0  0
 38128  1  0  0  0
 41129  1  0  0  0
 41130  1  0  0  0
 42131  1  0  0  0
 43132  1  0  0  0
 46133  1  0  0  0
 47134  1  0  0  0
 48135  1  0  0  0
 48136  1  0  0  0
 48137  1  0  0  0
 49138  1  0  0  0
 50139  1  0  0  0
 53140  1  0  0  0
 53141  1  0  0  0
 53142  1  0  0  0
 54143  1  0  0  0
 55144  1  0  0  0
 58145  1  0  0  0
 58146  1  0  0  0
 59147  1  0  0  0
 59148  1  0  0  0
 60149  1  0  0  0
 60150  1  0  0  0
 61151  1  0  0  0
 63152  1  0  0  0
 64153  1  0  0  0
 64154  1  0  0  0
 65155  1  0  0  0
 66156  1  0  0  0
 67157  1  0  0  0
 67158  1  0  0  0
 68159  1  0  0  0
 68160  1  0  0  0
 69161  1  0  0  0
 69162  1  0  0  0
 70163  1  0  0  0
 70164  1  0  0  0
 74165  1  0  0  0
 74166  1  0  0  0
 74167  1  0  0  0
 75168  1  0  0  0
 75169  1  0  0  0
 75170  1  0  0  0
 76171  1  0  0  0
 76172  1  0  0  0
 76173  1  0  0  0
 77174  1  0  0  0
 78175  1  0  0  0
 81176  1  0  0  0
 81177  1  0  0  0
 82178  1  0  0  0
 83179  1  0  0  0
M  END
$$$$
