3e63_ligand
  -I-interpret- 

 26 28  0  0  0  0  0  0  0  0999 V2000
   33.5740   40.8000   36.3640 C   0  0  0  0  0
   32.8970   39.7530   37.0260 C   0  0  0  0  0
   33.3570   42.1870   36.1560 C   0  0  0  0  0
   32.2990   42.8740   36.6180 N   0  0  0  0  0
   33.4360   38.4480   37.0140 C   0  0  0  0  0
   34.6580   38.2220   36.3380 C   0  0  0  0  0
   35.3570   39.2480   35.6690 C   0  0  0  0  0
   34.7760   40.5240   35.7110 C   0  0  0  0  0
   35.1690   41.7250   35.1750 N   0  0  0  0  0
   34.3220   42.7400   35.4310 N   0  0  0  0  0
   32.7160   37.3650   37.7110 C   0  0  0  0  0
   32.0970   37.6000   38.9650 C   0  0  0  0  0
   31.4100   36.5870   39.6450 C   0  0  0  0  0
   31.3140   35.3180   39.0690 C   0  0  0  0  0
   31.9080   35.0600   37.8330 C   0  0  0  0  0
   32.6070   36.0740   37.1500 C   0  0  0  0  0
   31.9596   39.9517   37.5456 H   0  0  0  0  0
   31.5794   42.3975   37.1616 H   0  0  0  0  0
   32.2153   43.8721   36.4252 H   0  0  0  0  0
   35.0757   37.2152   36.3341 H   0  0  0  0  0
   36.2961   39.0600   35.1485 H   0  0  0  0  0
   32.1575   38.5931   39.4102 H   0  0  0  0  0
   30.9543   36.7868   40.6148 H   0  0  0  0  0
   30.7729   34.5262   39.5871 H   0  0  0  0  0
   31.8304   34.0659   37.3927 H   0  0  0  0  0
   33.0657   35.8613   36.1844 H   0  0  0  0  0
  1  2  4  0  0  0
  1  3  4  0  0  0
  1  8  4  0  0  0
  2  5  4  0  0  0
  3  4  1  0  0  0
  3 10  4  0  0  0
  5  6  4  0  0  0
  5 11  1  0  0  0
  6  7  4  0  0  0
  7  8  4  0  0  0
  8  9  4  0  0  0
  9 10  4  0  0  0
 11 12  4  0  0  0
 11 16  4  0  0  0
 12 13  4  0  0  0
 13 14  4  0  0  0
 14 15  4  0  0  0
 15 16  4  0  0  0
  2 17  1  0  0  0
  4 18  1  0  0  0
  4 19  1  0  0  0
  6 20  1  0  0  0
  7 21  1  0  0  0
 12 22  1  0  0  0
 13 23  1  0  0  0
 14 24  1  0  0  0
 15 25  1  0  0  0
 16 26  1  0  0  0
M  END
$$$$
