6f23_ligand
  -I-interpret- 

 36 39  0  0  0  0  0  0  0  0999 V2000
    3.1560   -8.9610  -16.9250 C   0  0  0  0  0
    1.8020   -9.2640  -17.2490 C   0  0  0  0  0
    1.3490  -10.2280  -16.2780 C   0  0  0  0  0
   -2.0040   -8.6570  -20.0770 C   0  0  0  0  0
   -1.7300  -10.1080  -19.6770 C   0  0  0  0  0
   -0.8280   -9.9230  -18.4320 C   0  0  0  0  0
   -1.6370   -9.6650  -17.1820 C   0  0  0  0  0
   -2.3650  -10.7170  -16.6220 C   0  0  0  0  0
   -3.1230  -10.5180  -15.4700 C   0  0  0  0  0
   -3.1440   -9.2540  -14.8700 C   0  0  0  0  0
   -2.4300   -8.2020  -15.4310 C   0  0  0  0  0
   -1.6690   -8.4100  -16.5780 C   0  0  0  0  0
    2.1600   -7.7030  -19.0380 C   0  0  0  0  0
    3.4740   -9.6870  -15.8090 N   0  0  0  0  0
    1.2810   -8.5840  -18.3780 C   0  0  0  0  0
    2.3970  -10.4480  -15.4240 C   0  0  0  0  0
    0.0150   -8.8030  -18.8550 N   0  0  0  0  0
   -0.6170   -7.9950  -19.9140 C   0  0  0  0  0
    3.4660   -7.5040  -18.5770 C   0  0  0  0  0
    3.9970   -8.1230  -17.5280 N   0  0  0  0  0
    0.3637  -10.6919  -16.2322 H   0  0  0  0  0
   -2.7755   -8.1855  -19.4683 H   0  0  0  0  0
   -2.4059   -8.5616  -21.0857 H   0  0  0  0  0
   -1.2653  -10.6972  -20.4676 H   0  0  0  0  0
   -2.6344  -10.6829  -19.4778 H   0  0  0  0  0
   -0.2459  -10.7993  -18.1467 H   0  0  0  0  0
   -2.3400  -11.7012  -17.0897 H   0  0  0  0  0
   -3.6949  -11.3401  -15.0397 H   0  0  0  0  0
   -3.7221   -9.0941  -13.9599 H   0  0  0  0  0
   -2.4658   -7.2136  -14.9728 H   0  0  0  0  0
   -1.0957   -7.5873  -17.0054 H   0  0  0  0  0
    1.8169   -7.1671  -19.9230 H   0  0  0  0  0
    2.3792  -11.1240  -14.5691 H   0  0  0  0  0
   -0.6816   -6.9379  -19.6564 H   0  0  0  0  0
   -0.0414   -7.9879  -20.8396 H   0  0  0  0  0
    4.0911   -6.7919  -19.1157 H   0  0  0  0  0
  2  1  4  0  0  0
  1 14  4  0  0  0
  1 20  4  0  0  0
  2  3  4  0  0  0
 15  2  4  0  0  0
  3 16  4  0  0  0
  5  4  1  0  0  0
  4 18  1  0  0  0
  6  5  1  0  0  0
  6  7  1  0  0  0
 17  6  1  0  0  0
  7  8  4  0  0  0
  7 12  4  0  0  0
  8  9  4  0  0  0
  9 10  4  0  0  0
 11 10  4  0  0  0
 12 11  4  0  0  0
 15 13  4  0  0  0
 13 19  4  0  0  0
 16 14  4  0  0  0
 15 17  1  0  0  0
 17 18  1  0  0  0
 19 20  4  0  0  0
  3 21  1  0  0  0
  4 22  1  0  0  0
  4 23  1  0  0  0
  5 24  1  0  0  0
  5 25  1  0  0  0
  6 26  1  0  0  0
  8 27  1  0  0  0
  9 28  1  0  0  0
 10 29  1  0  0  0
 11 30  1  0  0  0
 12 31  1  0  0  0
 13 32  1  0  0  0
 16 33  1  0  0  0
 18 34  1  0  0  0
 18 35  1  0  0  0
 19 36  1  0  0  0
M  END
$$$$
