6mln_ligand
  -I-interpret- 

 27 26  0  0  0  0  0  0  0  0999 V2000
   -0.2950   -1.5260  -12.2410 N   0  3  0  0  0
   -0.1420   -2.2290  -10.9720 C   0  0  0  0  0
   -0.7300   -1.3910   -9.8520 C   0  0  0  0  0
   -1.1110   -0.2400  -10.0710 O   0  0  0  0  0
    1.3330   -2.5460  -10.6810 C   0  0  0  0  0
    2.2450   -1.3120  -10.7690 C   0  0  0  0  0
    3.6190   -1.5800  -10.1610 C   0  0  0  0  0
    4.5680   -0.5150  -10.4930 N   0  0  0  0  0
    5.8420   -0.4880  -10.0990 C   0  0  0  0  0
    6.3400   -1.4630   -9.3490 N   0  0  0  0  0
    6.6280    0.5230  -10.4690 N   0  0  0  0  0
   -0.8490   -1.8610   -8.7220 O   0  0  0  0  0
   -1.2830   -1.3312  -12.4035 H   0  0  0  0  0
    0.2246   -0.6489  -12.2072 H   0  0  0  0  0
    0.0667   -2.1080  -12.9965 H   0  0  0  0  0
   -0.6771   -3.1763  -11.0379 H   0  0  0  0  0
   -0.9514   -0.0211  -10.9920 H   0  0  0  0  0
    1.6716   -3.2616  -11.4303 H   0  0  0  0  0
    1.3940   -2.9304   -9.6629 H   0  0  0  0  0
    1.7768   -0.4990  -10.2140 H   0  0  0  0  0
    2.3787   -1.0584  -11.8206 H   0  0  0  0  0
    3.9983   -2.5192  -10.5638 H   0  0  0  0  0
    3.5148   -1.6248   -9.0769 H   0  0  0  0  0
    4.2314    0.2595  -11.0650 H   0  0  0  0  0
    5.7470   -2.2438   -9.0678 H   0  0  0  0  0
    7.6047    0.5434  -10.1757 H   0  0  0  0  0
    6.2527    1.2762  -11.0454 H   0  0  0  0  0
  1  2  1  0  0  0
  2  3  1  0  0  0
  2  5  1  0  0  0
  3  4  1  0  0  0
  3 12  2  0  0  0
  5  6  1  0  0  0
  6  7  1  0  0  0
  7  8  1  0  0  0
  8  9  1  0  0  0
  9 10  2  0  0  0
  9 11  1  0  0  0
  1 13  1  0  0  0
  1 14  1  0  0  0
  1 15  1  0  0  0
  2 16  1  0  0  0
  4 17  1  0  0  0
  5 18  1  0  0  0
  5 19  1  0  0  0
  6 20  1  0  0  0
  6 21  1  0  0  0
  7 22  1  0  0  0
  7 23  1  0  0  0
  8 24  1  0  0  0
 10 25  1  0  0  0
 11 26  1  0  0  0
 11 27  1  0  0  0
M  END
$$$$
