5zdp_ligand
  -I-interpret- 

 57 58  0  0  0  0  0  0  0  0999 V2000
  254.9230   53.0020  137.9920 O   0  0  0  0  0
  254.0540   52.1240  137.8220 C   0  0  0  0  0
  252.8200   52.3190  138.3780 O   0  0  0  0  0
  251.8280   51.3920  138.2040 C   0  0  0  0  0
  252.0790   50.2340  137.4640 C   0  0  0  0  0
  251.0810   49.2930  137.3080 C   0  0  0  0  0
  249.8400   49.5200  137.8860 C   0  0  0  0  0
  249.5890   50.6710  138.6140 C   0  0  0  0  0
  250.5810   51.6180  138.7750 C   0  0  0  0  0
  253.3350   50.0200  136.9000 C   0  0  0  0  0
  253.5690   48.8810  136.1800 O   0  0  0  0  0
  254.3300   50.9810  137.0850 C   0  0  0  0  0
  255.7000   50.7810  136.5800 C   0  0  0  0  0
  255.8960   49.6980  135.6480 C   0  0  0  0  0
  256.6230   49.9740  134.5590 C   0  0  0  0  0
  257.3890   51.2240  134.4880 C   0  0  0  0  0
  256.7310   49.0630  133.3690 C   0  0  0  0  0
  255.5530   49.4980  132.4740 C   0  0  0  0  0
  255.8820   49.5930  131.0000 C   0  0  0  0  0
  255.6540   48.5890  130.1210 C   0  0  0  0  0
  255.0900   47.2550  130.5360 C   0  0  0  0  0
  256.0430   48.7930  128.6740 C   0  0  0  0  0
  254.8830   48.7060  127.6970 C   0  0  0  0  0
  255.4400   48.2670  126.3490 C   0  0  0  0  0
  255.1730   48.8840  125.1740 C   0  0  0  0  0
  255.7770   48.3660  123.9060 C   0  0  0  0  0
  254.2830   50.0800  125.0870 C   0  0  0  0  0
  251.2656   48.3826  136.7377 H   0  0  0  0  0
  249.0492   48.7797  137.7649 H   0  0  0  0  0
  248.6073   50.8296  139.0604 H   0  0  0  0  0
  250.3890   52.5292  139.3415 H   0  0  0  0  0
  252.7725   48.3454  136.1626 H   0  0  0  0  0
  256.3088   50.5405  137.4516 H   0  0  0  0  0
  255.9563   51.6921  136.0393 H   0  0  0  0  0
  255.4746   48.7078  135.8214 H   0  0  0  0  0
  256.7084   52.0711  134.5741 H   0  0  0  0  0
  258.1117   51.2526  135.3035 H   0  0  0  0  0
  257.9137   51.2734  133.5339 H   0  0  0  0  0
  256.6800   48.0094  133.6436 H   0  0  0  0  0
  257.6930   49.1483  132.8637 H   0  0  0  0  0
  255.2588   50.4960  132.7989 H   0  0  0  0  0
  254.7776   48.7391  132.5782 H   0  0  0  0  0
  256.3250   50.5165  130.6272 H   0  0  0  0  0
  255.7585   46.7886  131.2597 H   0  0  0  0  0
  254.1088   47.4014  130.9876 H   0  0  0  0  0
  254.9961   46.6133  129.6600 H   0  0  0  0  0
  256.7416   47.9976  128.4143 H   0  0  0  0  0
  256.4572   49.7979  128.5917 H   0  0  0  0  0
  254.3922   49.6750  127.6057 H   0  0  0  0  0
  254.1429   47.9888  128.0519 H   0  0  0  0  0
  256.0976   47.3979  126.3291 H   0  0  0  0  0
  256.8638   48.3995  123.9826 H   0  0  0  0  0
  255.4544   47.3374  123.7451 H   0  0  0  0  0
  255.4511   48.9853  123.0703 H   0  0  0  0  0
  253.2904   49.8202  125.4548 H   0  0  0  0  0
  254.6976   50.8848  125.6941 H   0  0  0  0  0
  254.2137   50.4050  124.0489 H   0  0  0  0  0
  1  2  2  0  0  0
  2  3  1  0  0  0
  2 12  1  0  0  0
  3  4  1  0  0  0
  4  5  4  0  0  0
  4  9  4  0  0  0
  5  6  4  0  0  0
  5 10  1  0  0  0
  6  7  4  0  0  0
  7  8  4  0  0  0
  8  9  4  0  0  0
 10 11  1  0  0  0
 10 12  2  0  0  0
 12 13  1  0  0  0
 13 14  1  0  0  0
 14 15  2  0  0  0
 15 16  1  0  0  0
 15 17  1  0  0  0
 17 18  1  0  0  0
 18 19  1  0  0  0
 19 20  2  0  0  0
 20 21  1  0  0  0
 20 22  1  0  0  0
 22 23  1  0  0  0
 23 24  1  0  0  0
 24 25  2  0  0  0
 25 26  1  0  0  0
 25 27  1  0  0  0
  6 28  1  0  0  0
  7 29  1  0  0  0
  8 30  1  0  0  0
  9 31  1  0  0  0
 11 32  1  0  0  0
 13 33  1  0  0  0
 13 34  1  0  0  0
 14 35  1  0  0  0
 16 36  1  0  0  0
 16 37  1  0  0  0
 16 38  1  0  0  0
 17 39  1  0  0  0
 17 40  1  0  0  0
 18 41  1  0  0  0
 18 42  1  0  0  0
 19 43  1  0  0  0
 21 44  1  0  0  0
 21 45  1  0  0  0
 21 46  1  0  0  0
 22 47  1  0  0  0
 22 48  1  0  0  0
 23 49  1  0  0  0
 23 50  1  0  0  0
 24 51  1  0  0  0
 26 52  1  0  0  0
 26 53  1  0  0  0
 26 54  1  0  0  0
 27 55  1  0  0  0
 27 56  1  0  0  0
 27 57  1  0  0  0
M  END
$$$$
