3zyf_ligand
  -I-interpret- 

 36 37  0  0  0  0  0  0  0  0999 V2000
    9.5260    8.6690    9.7630 C   0  0  0  0  0
   10.8550    8.0270   10.0330 C   0  0  0  0  0
   11.7640    8.9780   10.5390 O   0  0  0  0  0
   11.4020    7.4110    8.8320 C   0  0  0  0  0
   12.6350    6.7180    9.2240 O   0  0  0  0  0
   10.4900    6.5160    8.2380 C   0  0  0  0  0
   10.3340    5.3310    9.0700 O   0  0  0  0  0
    9.1420    7.1250    8.0180 C   0  0  0  0  0
    8.1760    6.0910    7.5210 C   0  0  0  0  0
    6.9930    6.5290    7.0080 O   0  0  0  0  0
    8.6210    7.7650    9.2320 O   0  0  0  0  0
    9.0210    9.1850   10.9590 O   0  0  0  0  0
    8.0930   10.2620   10.6320 C   0  0  0  0  0
    7.9120   10.6290    9.3240 C   0  0  0  0  0
    6.9980   11.6920    8.9950 C   0  0  0  0  0
    6.3270   12.3190    9.9830 C   0  0  0  0  0
    6.5120   11.9420   11.3040 C   0  0  0  0  0
    7.4140   10.8950   11.6250 C   0  0  0  0  0
    5.3960   13.3880    9.6690 N   0  0  0  0  0
    5.3250   13.8680    8.4230 O   0  0  0  0  0
    4.5910   13.8340   10.5930 O   0  0  0  0  0
    9.6706    9.4650    9.0325 H   0  0  0  0  0
   10.6999    7.2448   10.7761 H   0  0  0  0  0
   11.3976    9.3800   11.3300 H   0  0  0  0  0
   11.6062    8.1760    8.0829 H   0  0  0  0  0
   13.2400    7.3461    9.6254 H   0  0  0  0  0
   10.9056    6.2530    7.2653 H   0  0  0  0  0
   11.1936    4.9303    9.2187 H   0  0  0  0  0
    9.2568    7.9019    7.2622 H   0  0  0  0  0
    7.9133    5.4924    8.3932 H   0  0  0  0  0
    8.6835    5.5875    6.6982 H   0  0  0  0  0
    6.4686    5.7754    6.7274 H   0  0  0  0  0
    8.4596   10.1165    8.5331 H   0  0  0  0  0
    6.8496   11.9875    7.9564 H   0  0  0  0  0
    5.9638   12.4505   12.0971 H   0  0  0  0  0
    7.5619   10.5994   12.6637 H   0  0  0  0  0
  1  2  1  0  0  0
  1 11  1  0  0  0
  1 12  1  0  0  0
  2  3  1  0  0  0
  2  4  1  0  0  0
  4  5  1  0  0  0
  4  6  1  0  0  0
  6  7  1  0  0  0
  6  8  1  0  0  0
  8  9  1  0  0  0
  8 11  1  0  0  0
  9 10  1  0  0  0
 12 13  1  0  0  0
 13 14  4  0  0  0
 13 18  4  0  0  0
 14 15  4  0  0  0
 15 16  4  0  0  0
 16 17  4  0  0  0
 16 19  1  0  0  0
 17 18  4  0  0  0
 19 20  2  0  0  0
 19 21  2  0  0  0
  1 22  1  0  0  0
  2 23  1  0  0  0
  3 24  1  0  0  0
  4 25  1  0  0  0
  5 26  1  0  0  0
  6 27  1  0  0  0
  7 28  1  0  0  0
  8 29  1  0  0  0
  9 30  1  0  0  0
  9 31  1  0  0  0
 10 32  1  0  0  0
 14 33  1  0  0  0
 15 34  1  0  0  0
 17 35  1  0  0  0
 18 36  1  0  0  0
M  END
$$$$
