6eqv_ligand
  -I-interpret- 

 98 99  0  0  0  0  0  0  0  0999 V2000
   54.6560  -34.9960   -3.1020 C   0  0  0  0  0
   54.1100  -33.8570   -2.5200 C   0  0  0  0  0
   54.5350  -33.4470   -1.2640 C   0  0  0  0  0
   55.5070  -34.1770   -0.5890 C   0  0  0  0  0
   56.0520  -35.3170   -1.1700 C   0  0  0  0  0
   55.6260  -35.7280   -2.4270 C   0  0  0  0  0
   54.2220  -35.3980   -4.3570 C   0  0  0  0  0
   52.6950  -35.5600   -4.3200 C   0  0  0  0  0
   52.1770  -36.4140   -3.6010 O   0  0  0  0  0
   50.2180  -35.2320   -6.5980 C   0  0  0  0  0
   50.8680  -34.7830   -7.5380 O   0  0  0  0  0
   50.5250  -34.7440   -5.1910 C   0  0  0  0  0
   51.9970  -34.7090   -5.0940 N   0  0  0  0  0
   49.8990  -33.3580   -4.9320 C   0  0  0  0  0
   50.1510  -32.9150   -3.4710 C   0  0  0  0  0
   49.2910  -33.7370   -2.4960 C   0  0  0  0  0
   49.5200  -33.2950   -1.1020 N   0  0  0  0  0
   50.3760  -33.9400   -0.2870 C   0  0  0  0  0
   51.0090  -34.9210   -0.6770 O   0  0  0  0  0
   50.5080  -33.4970    0.9720 N   0  0  0  0  0
   49.2710  -36.1680   -6.7380 N   0  0  0  0  0
   48.9780  -36.7010   -8.0840 C   0  0  0  0  0
   47.4950  -36.5870   -8.4190 C   0  0  0  0  0
   46.6500  -36.5430   -7.5310 O   0  0  0  0  0
   49.3560  -38.1980   -8.1380 C   0  0  0  0  0
   50.8460  -38.4010   -7.8300 C   0  0  0  0  0
   48.5210  -39.0030   -7.1270 C   0  0  0  0  0
   47.2130  -36.5730   -9.7360 N   0  0  0  0  0
   45.8370  -36.5800  -10.2400 C   0  0  0  0  0
   45.2560  -37.9420   -9.8210 C   0  0  0  0  0
   45.9430  -38.9500   -9.9230 O   0  0  0  0  0
   45.8720  -36.4930  -11.7600 C   0  0  0  0  0
   46.3930  -35.1200  -12.2180 C   0  0  0  0  0
   46.5140  -35.1710  -13.7530 C   0  0  0  0  0
   46.9930  -33.8940  -14.3060 N   0  0  0  0  0
   48.2690  -33.4830  -14.2480 C   0  0  0  0  0
   48.6070  -32.3120  -14.8030 N   0  0  0  0  0
   49.2040  -34.2320  -13.6350 N   0  0  0  0  0
   44.0100  -37.9550   -9.3030 N   0  0  0  0  0
   43.3860  -39.1910   -8.7890 C   0  0  0  0  0
   43.5400  -39.1980   -7.3690 C   0  0  0  0  0
   42.5510  -38.6840   -6.5280 C   0  0  0  0  0
   42.7190  -38.6830   -5.1280 C   0  0  0  0  0
   43.8760  -39.1870   -4.5340 C   0  0  0  0  0
   44.0320  -39.1860   -3.1190 C   0  0  0  0  0
   45.2240  -39.4620   -2.5710 N   0  0  0  0  0
   42.9760  -38.8960   -2.3540 N   0  0  0  0  0
   44.8600  -39.7060   -5.3750 C   0  0  0  0  0
   44.6990  -39.7050   -6.7770 C   0  0  0  0  0
   53.3480  -33.2861   -3.0505 H   0  0  0  0  0
   54.1075  -32.5543   -0.8075 H   0  0  0  0  0
   55.8423  -33.8553    0.3970 H   0  0  0  0  0
   56.8136  -35.8882   -0.6391 H   0  0  0  0  0
   56.0513  -36.6222   -2.8827 H   0  0  0  0  0
   54.6890  -36.3458   -4.6248 H   0  0  0  0  0
   54.4976  -34.6511   -5.1014 H   0  0  0  0  0
   50.0983  -35.4020   -4.4340 H   0  0  0  0  0
   52.5063  -34.0110   -5.6360 H   0  0  0  0  0
   48.8243  -33.4167   -5.1042 H   0  0  0  0  0
   50.3539  -32.6321   -5.6060 H   0  0  0  0  0
   49.8863  -31.8623   -3.3719 H   0  0  0  0  0
   51.2026  -33.0732   -3.2318 H   0  0  0  0  0
   49.5645  -34.7885   -2.5832 H   0  0  0  0  0
   48.2394  -33.5935   -2.7444 H   0  0  0  0  0
   49.0164  -32.4809   -0.7498 H   0  0  0  0  0
   51.1379  -33.9740    1.6171 H   0  0  0  0  0
   49.9785  -32.6831    1.2844 H   0  0  0  0  0
   48.7580  -36.5089   -5.9249 H   0  0  0  0  0
   49.5564  -36.1185   -8.8011 H   0  0  0  0  0
   49.1487  -38.5526   -9.1476 H   0  0  0  0  0
   51.4443  -37.8622   -8.5648 H   0  0  0  0  0
   51.0646  -38.0206   -6.8322 H   0  0  0  0  0
   51.0835  -39.4639   -7.8751 H   0  0  0  0  0
   48.7084  -38.6265   -6.1214 H   0  0  0  0  0
   47.4627  -38.8962   -7.3650 H   0  0  0  0  0
   48.8025  -40.0547   -7.1809 H   0  0  0  0  0
   47.9829  -36.5570  -10.4049 H   0  0  0  0  0
   45.2468  -35.7487   -9.8543 H   0  0  0  0  0
   44.8607  -36.6302  -12.1428 H   0  0  0  0  0
   46.5392  -37.2664  -12.1406 H   0  0  0  0  0
   47.3594  -34.9036  -11.7627 H   0  0  0  0  0
   45.7102  -34.3275  -11.9118 H   0  0  0  0  0
   45.5270  -35.3754  -14.1679 H   0  0  0  0  0
   47.2318  -35.9484  -14.0145 H   0  0  0  0  0
   46.3136  -33.2843  -14.7611 H   0  0  0  0  0
   47.8974  -31.7424  -15.2639 H   0  0  0  0  0
   50.1702  -33.9078  -13.5931 H   0  0  0  0  0
   48.9465  -35.1239  -13.2123 H   0  0  0  0  0
   43.4821  -37.0831   -9.2652 H   0  0  0  0  0
   43.8643  -40.0673   -9.2264 H   0  0  0  0  0
   42.3296  -39.2215   -9.0558 H   0  0  0  0  0
   41.6363  -38.2778   -6.9598 H   0  0  0  0  0
   41.9276  -38.2796   -4.4963 H   0  0  0  0  0
   45.3337  -39.4523   -1.5570 H   0  0  0  0  0
   46.0213  -39.6817   -3.1681 H   0  0  0  0  0
   42.0774  -38.6803   -2.7857 H   0  0  0  0  0
   45.7703  -40.1201   -4.9414 H   0  0  0  0  0
   45.4919  -40.1064   -7.4081 H   0  0  0  0  0
  1  2  4  0  0  0
  1  6  4  0  0  0
  7  1  1  0  0  0
  2  3  4  0  0  0
  3  4  4  0  0  0
  5  4  4  0  0  0
  6  5  4  0  0  0
  8  7  1  0  0  0
  8  9  2  0  0  0
 13  8  1  0  0  0
 10 11  2  0  0  0
 12 10  1  0  0  0
 10 21  1  0  0  0
 12 13  1  0  0  0
 12 14  1  0  0  0
 14 15  1  0  0  0
 15 16  1  0  0  0
 16 17  1  0  0  0
 17 18  1  0  0  0
 18 19  2  0  0  0
 18 20  1  0  0  0
 21 22  1  0  0  0
 22 23  1  0  0  0
 22 25  1  0  0  0
 23 24  2  0  0  0
 23 28  1  0  0  0
 25 26  1  0  0  0
 25 27  1  0  0  0
 28 29  1  0  0  0
 29 30  1  0  0  0
 29 32  1  0  0  0
 30 31  2  0  0  0
 30 39  1  0  0  0
 32 33  1  0  0  0
 33 34  1  0  0  0
 34 35  1  0  0  0
 35 36  1  0  0  0
 36 37  2  0  0  0
 36 38  1  0  0  0
 39 40  1  0  0  0
 40 41  1  0  0  0
 41 42  4  0  0  0
 41 49  4  0  0  0
 42 43  4  0  0  0
 43 44  4  0  0  0
 44 45  1  0  0  0
 44 48  4  0  0  0
 45 46  1  0  0  0
 45 47  2  0  0  0
 48 49  4  0  0  0
  2 50  1  0  0  0
  3 51  1  0  0  0
  4 52  1  0  0  0
  5 53  1  0  0  0
  6 54  1  0  0  0
  7 55  1  0  0  0
  7 56  1  0  0  0
 12 57  1  0  0  0
 13 58  1  0  0  0
 14 59  1  0  0  0
 14 60  1  0  0  0
 15 61  1  0  0  0
 15 62  1  0  0  0
 16 63  1  0  0  0
 16 64  1  0  0  0
 17 65  1  0  0  0
 20 66  1  0  0  0
 20 67  1  0  0  0
 21 68  1  0  0  0
 22 69  1  0  0  0
 25 70  1  0  0  0
 26 71  1  0  0  0
 26 72  1  0  0  0
 26 73  1  0  0  0
 27 74  1  0  0  0
 27 75  1  0  0  0
 27 76  1  0  0  0
 28 77  1  0  0  0
 29 78  1  0  0  0
 32 79  1  0  0  0
 32 80  1  0  0  0
 33 81  1  0  0  0
 33 82  1  0  0  0
 34 83  1  0  0  0
 34 84  1  0  0  0
 35 85  1  0  0  0
 37 86  1  0  0  0
 38 87  1  0  0  0
 38 88  1  0  0  0
 39 89  1  0  0  0
 40 90  1  0  0  0
 40 91  1  0  0  0
 42 92  1  0  0  0
 43 93  1  0  0  0
 46 94  1  0  0  0
 46 95  1  0  0  0
 47 96  1  0  0  0
 48 97  1  0  0  0
 49 98  1  0  0  0
M  END
$$$$
