3nxq_ligand
  -I-interpret- 

 65 65  0  0  0  0  0  0  0  0999 V2000
   -7.5060  -19.3570  -23.2410 C   0  0  0  0  0
   -7.7620  -18.3480  -22.1590 C   0  0  0  0  0
   -8.3630  -19.6230  -24.0750 O   0  0  0  0  0
   -4.1880  -18.8950  -23.0540 C   0  0  0  0  0
   -4.0730  -19.0630  -24.2540 O   0  0  0  0  0
   -5.2250  -19.6980  -22.3380 C   0  0  0  0  0
   -4.6910  -21.0680  -21.9530 C   0  0  0  0  0
   -5.7510  -21.7530  -21.1230 C   0  0  0  0  0
   -6.0410  -21.2440  -20.0210 O   0  0  0  0  0
   -6.3050  -22.7880  -21.5640 O   0  0  0  0  0
   -6.3150  -19.9630  -23.2680 N   0  0  0  0  0
   -5.1940  -15.4070  -22.0910 C   0  0  0  0  0
   -6.4970  -15.0460  -22.4600 C   0  0  0  0  0
   -6.7680  -14.6290  -23.7650 C   0  0  0  0  0
   -5.7360  -14.5760  -24.7010 C   0  0  0  0  0
   -4.4340  -14.9330  -24.3340 C   0  0  0  0  0
   -4.1590  -15.3530  -23.0300 C   0  0  0  0  0
   -2.7480  -15.7500  -22.6310 C   0  0  0  0  0
   -2.4510  -17.2060  -23.0280 C   0  0  0  0  0
   -0.7630  -17.7120  -22.5710 P   0  0  0  0  0
   -0.5340  -19.0460  -23.2270 O   0  0  0  0  0
   -0.5880  -17.6640  -21.0700 O   0  0  0  0  0
   -3.4480  -18.0280  -22.3510 N   0  0  0  0  0
    0.3200  -16.4960  -23.3570 C   0  0  0  0  0
    1.6900  -16.4160  -22.6870 C   0  0  0  0  0
    2.7360  -16.0930  -23.7530 C   0  0  0  0  0
    1.7230  -15.2970  -21.6820 C   0  0  0  0  0
    0.9020  -14.3860  -21.7360 O   0  0  0  0  0
    2.7050  -15.3610  -20.7760 N   0  0  0  0  0
    2.9270  -14.3460  -19.7560 C   0  0  0  0  0
    4.0510  -14.7870  -18.8150 C   0  0  0  0  0
    3.3370  -13.0720  -20.4370 C   0  0  0  0  0
    3.9910  -13.1240  -21.4730 O   0  0  0  0  0
    2.9640  -11.9270  -19.8890 N   0  0  0  0  0
   -7.9837  -17.3811  -22.6107 H   0  0  0  0  0
   -8.6101  -18.6716  -21.5555 H   0  0  0  0  0
   -6.8774  -18.2614  -21.5280 H   0  0  0  0  0
   -5.5294  -19.1391  -21.4531 H   0  0  0  0  0
   -3.7663  -20.9702  -21.3843 H   0  0  0  0  0
   -4.4679  -21.6540  -22.8446 H   0  0  0  0  0
   -5.9354  -23.0064  -22.4227 H   0  0  0  0  0
   -6.1575  -20.6627  -23.9932 H   0  0  0  0  0
   -4.9870  -15.7303  -21.0708 H   0  0  0  0  0
   -7.3015  -15.0909  -21.7260 H   0  0  0  0  0
   -7.7813  -14.3464  -24.0504 H   0  0  0  0  0
   -5.9442  -14.2555  -25.7218 H   0  0  0  0  0
   -3.6304  -14.8833  -25.0687 H   0  0  0  0  0
   -2.6513  -15.6561  -21.5494 H   0  0  0  0  0
   -2.0428  -15.0969  -23.1450 H   0  0  0  0  0
   -2.5073  -17.3230  -24.1102 H   0  0  0  0  0
   -0.7568  -16.7721  -20.7576 H   0  0  0  0  0
   -3.5814  -17.9425  -21.3434 H   0  0  0  0  0
   -0.1540  -15.5181  -23.2723 H   0  0  0  0  0
    0.4691  -16.7979  -24.3937 H   0  0  0  0  0
    1.8908  -17.3670  -22.1937 H   0  0  0  0  0
    2.7372  -16.8784  -24.5088 H   0  0  0  0  0
    2.4943  -15.1382  -24.2198 H   0  0  0  0  0
    3.7201  -16.0328  -23.2881 H   0  0  0  0  0
    3.3325  -16.1647  -20.8011 H   0  0  0  0  0
    2.0135  -14.1998  -19.1796 H   0  0  0  0  0
    3.7735  -15.7250  -18.3342 H   0  0  0  0  0
    4.9679  -14.9279  -19.3873 H   0  0  0  0  0
    4.2091  -14.0210  -18.0559 H   0  0  0  0  0
    3.2202  -11.0434  -20.3295 H   0  0  0  0  0
    2.4203  -11.9279  -19.0260 H   0  0  0  0  0
  1  2  1  0  0  0
  1  3  2  0  0  0
 11  1  1  0  0  0
  4  5  2  0  0  0
  4  6  1  0  0  0
 23  4  1  0  0  0
  6  7  1  0  0  0
  6 11  1  0  0  0
  7  8  1  0  0  0
  8  9  2  0  0  0
  8 10  1  0  0  0
 12 13  4  0  0  0
 17 12  4  0  0  0
 13 14  4  0  0  0
 15 14  4  0  0  0
 16 15  4  0  0  0
 17 16  4  0  0  0
 18 17  1  0  0  0
 19 18  1  0  0  0
 19 20  1  0  0  0
 19 23  1  0  0  0
 20 21  2  0  0  0
 20 22  1  0  0  0
 20 24  1  0  0  0
 24 25  1  0  0  0
 25 26  1  0  0  0
 25 27  1  0  0  0
 27 28  2  0  0  0
 27 29  1  0  0  0
 29 30  1  0  0  0
 30 31  1  0  0  0
 30 32  1  0  0  0
 32 33  2  0  0  0
 32 34  1  0  0  0
  2 35  1  0  0  0
  2 36  1  0  0  0
  2 37  1  0  0  0
  6 38  1  0  0  0
  7 39  1  0  0  0
  7 40  1  0  0  0
 10 41  1  0  0  0
 11 42  1  0  0  0
 12 43  1  0  0  0
 13 44  1  0  0  0
 14 45  1  0  0  0
 15 46  1  0  0  0
 16 47  1  0  0  0
 18 48  1  0  0  0
 18 49  1  0  0  0
 19 50  1  0  0  0
 22 51  1  0  0  0
 23 52  1  0  0  0
 24 53  1  0  0  0
 24 54  1  0  0  0
 25 55  1  0  0  0
 26 56  1  0  0  0
 26 57  1  0  0  0
 26 58  1  0  0  0
 29 59  1  0  0  0
 30 60  1  0  0  0
 31 61  1  0  0  0
 31 62  1  0  0  0
 31 63  1  0  0  0
 34 64  1  0  0  0
 34 65  1  0  0  0
M  END
$$$$
