### 
### Created by X-TOOL on Mon Sep 10 21:13:10 2018
### 

@<TRIPOS>MOLECULE
4abj_ligand
  178   181     1     0     0
SMALL
GAST_HUCK


@<TRIPOS>ATOM
      1 N          23.2300  -11.5390   10.9790 N.4       1 ARG         0.2379
      2 CA         21.9780  -10.9550   10.5030 C.3       1 ARG         0.0651
      3 C          21.0940  -10.5590   11.6940 C.2       1 ARG         0.2267
      4 O          20.8210  -11.3700   12.5860 O.2       1 ARG        -0.3907
      5 CB         21.2470  -11.8940    9.5260 C.3       1 ARG         0.0110
      6 CG         20.7600  -13.2170   10.1060 C.3       1 ARG        -0.0125
      7 CD         19.5810  -13.7720    9.3140 C.3       1 ARG         0.0629
      8 NE         18.6950  -14.5860   10.1480 N.pl3     1 ARG        -0.2723
      9 CZ         17.3950  -14.7670    9.9220 C.cat     1 ARG         0.2882
     10 NH1        16.7990  -14.1930    8.8820 N.pl3     1 ARG        -0.2849
     11 NH2        16.6810  -15.5210   10.7450 N.pl3     1 ARG        -0.2849
     12 N          20.6860   -9.2950   11.7140 N.am      1 CYS        -0.2602
     13 CA         19.8640   -8.7490   12.7880 C.3       1 CYS         0.1408
     14 C          18.6450   -8.0350   12.2030 C.2       1 CYS         0.2048
     15 O          18.6920   -7.5140   11.0800 O.2       1 CYS        -0.3944
     16 CB         20.6630   -7.7430   13.6190 C.3       1 CYS         0.0443
     17 SG         22.2110   -8.3590   14.3350 S.3       1 CYS        -0.0882
     18 N          17.5530   -8.0140   12.9690 N.am      1 THR        -0.2613
     19 CA         16.4360   -7.1110   12.6770 C.3       1 THR         0.1565
     20 C          16.9270   -5.6810   12.8790 C.2       1 THR         0.2065
     21 O          17.9310   -5.4420   13.5710 O.2       1 THR        -0.3943
     22 CB         15.2260   -7.3400   13.6080 C.3       1 THR         0.0924
     23 OG1        15.6230   -7.0950   14.9620 O.3       1 THR        -0.3874
     24 CG2        14.6630   -8.7510   13.4700 C.3       1 THR        -0.0346
     25 N          16.2180   -4.7140   12.3030 N.am      1 LYS        -0.2637
     26 CA         16.6420   -3.3130   12.4050 C.3       1 LYS         0.1310
     27 C          15.8700   -2.5120   13.4540 C.2       1 LYS         0.2040
     28 O          15.5010   -1.3540   13.2400 O.2       1 LYS        -0.3944
     29 CB         16.6330   -2.6460   11.0260 C.3       1 LYS        -0.0122
     30 CG         17.7660   -3.1770   10.1740 C.3       1 LYS        -0.0440
     31 CD         17.6180   -2.8020    8.7190 C.3       1 LYS        -0.0124
     32 CE         18.8030   -3.3530    7.9390 C.3       1 LYS        -0.0354
     33 NZ         18.7170   -2.9850    6.5010 N.4       1 LYS         0.2185
     34 N          15.6440   -3.1520   14.6030 N.am      1 SER        -0.2616
     35 CA         14.9170   -2.5510   15.7260 C.3       1 SER         0.1539
     36 C          15.8590   -1.9500   16.7660 C.2       1 SER         0.2063
     37 O          17.0290   -2.3200   16.8170 O.2       1 SER        -0.3943
     38 CB         13.9960   -3.5890   16.3780 C.3       1 SER         0.0843
     39 OG         14.6770   -4.8080   16.6240 O.3       1 SER        -0.3903
     40 O          16.2190   -4.8260   18.9750 O.2       1 PLW        -0.3931
     41 C          17.2700   -4.2330   19.1910 C.2       1 PLW         0.2171
     42 C1         17.3380   -3.2330   20.3270 C.3       1 PLW         0.1726
     43 C2         17.7170   -3.9190   21.6350 C.3       1 PLW        -0.0142
     44 N          15.9950   -2.6250   20.4540 N.pl3     1 PLW        -0.1473
     45 C4         15.4120   -1.5960   19.8610 C.2       1 PLW         0.1184
     46 C3         14.1110   -1.4580   20.3280 C.2       1 PLW         0.0205
     47 N2         13.9180   -2.4550   21.2320 N.2       1 PLW        -0.2426
     48 N1         15.0970   -3.2240   21.3420 N.2       1 PLW        -0.1070
     49 C5         15.8910   -0.6330   18.8460 C.3       1 PLW         0.1085
     50 N3         15.3230   -1.0060   17.5550 N.am      1 PLW        -0.2665
     51 C6         15.5320    0.7900   19.2690 C.3       1 PLW        -0.0073
     52 C7         16.1250    1.0910   20.6400 C.3       1 PLW        -0.0582
     53 C8         16.0170    1.8190   18.2570 C.3       1 PLW        -0.0491
     54 C9         17.4180    1.4760   17.8020 C.3       1 PLW        -0.0648
     55 N          18.3560   -4.4380   18.4160 N.am      1 PRO        -0.2490
     56 CA         18.3970   -5.4760   17.3760 C.3       1 PRO         0.1338
     57 C          18.2240   -6.9120   17.8770 C.2       1 PRO         0.2041
     58 O          18.7240   -7.2620   18.9530 O.2       1 PRO        -0.3944
     59 CB         19.7480   -5.3190   16.6690 C.3       1 PRO        -0.0104
     60 CG         20.5740   -4.4970   17.6040 C.3       1 PRO        -0.0281
     61 CD         19.6150   -3.6940   18.4390 C.3       1 PRO         0.0370
     62 N          17.4970   -7.7140   17.1040 N.am      1 ILE        -0.2635
     63 CA         17.3460   -9.1410   17.3550 C.3       1 ILE         0.1335
     64 C          18.1850   -9.8880   16.3300 C.2       1 ILE         0.2042
     65 O          17.8610   -9.9080   15.1320 O.2       1 ILE        -0.3944
     66 CB         15.8780   -9.6040   17.2680 C.3       1 ILE        -0.0037
     67 CG1        14.9930   -8.7580   18.1910 C.3       1 ILE        -0.0491
     68 CG2        15.7760  -11.0860   17.6060 C.3       1 ILE        -0.0582
     69 CD1        13.5350   -8.7350   17.7880 C.3       1 ILE        -0.0648
     70 N          19.2600  -10.5060   16.8150 N.am      1 CYS        -0.2629
     71 CA         20.2930  -11.0730   15.9480 C.3       1 CYS         0.1406
     72 C          20.3070  -12.5990   15.9570 C.2       1 CYS         0.2043
     73 O          19.8170  -13.2330   16.8980 O.2       1 CYS        -0.3944
     74 CB         21.6640  -10.5160   16.3380 C.3       1 CYS         0.0443
     75 SG         21.7620   -8.7120   16.2920 S.3       1 CYS        -0.0882
     76 N          20.8730  -13.1740   14.8970 N.am      1 PHE        -0.2677
     77 CA         20.8780  -14.6220   14.6840 C.3       1 PHE         0.1039
     78 C          22.2650  -15.1320   14.2950 C.2       1 PHE         0.0621
     79 O          22.9850  -14.4850   13.5320 O.co2     1 PHE        -0.5664
     80 CB         19.8570  -15.0000   13.6050 C.3       1 PHE         0.0159
     81 CG         18.4660  -14.4970   13.8830 C.ar      1 PHE        -0.0392
     82 CD1        17.6040  -15.2110   14.7110 C.ar      1 PHE        -0.0602
     83 CD2        18.0170  -13.3050   13.3160 C.ar      1 PHE        -0.0602
     84 CE1        16.3210  -14.7470   14.9670 C.ar      1 PHE        -0.0686
     85 CE2        16.7360  -12.8350   13.5710 C.ar      1 PHE        -0.0686
     86 CZ         15.8880  -13.5580   14.3970 C.ar      1 PHE        -0.0687
     87 OXT        22.6920  -16.2010   14.7360 O.co2     1 PHE        -0.5664
     88 H1         23.8025  -11.7953   10.1900 H         1 ARG         0.2015
     89 H2         23.0302  -12.3593   11.5297 H         1 ARG         0.2015
     90 H3         23.7210  -10.8653   11.5456 H         1 ARG         0.2015
     91 H4         22.2254  -10.0361    9.9512 H         1 ARG         0.1098
     92 H5         21.9365  -12.1226    8.7000 H         1 ARG         0.0347
     93 H6         20.3712  -11.3560    9.1344 H         1 ARG         0.0347
     94 H7         20.4472  -13.0572   11.1484 H         1 ARG         0.0302
     95 H8         21.5842  -13.9450   10.0780 H         1 ARG         0.0302
     96 H9         19.9662  -14.3941    8.4926 H         1 ARG         0.0689
     97 H10        19.0051  -12.9319    8.8987 H         1 ARG         0.0689
     98 H11        19.1067  -15.0524   10.9689 H         1 ARG         0.2642
     99 H12        15.7929  -14.3412    8.7187 H         1 ARG         0.2615
    100 H13        17.3432  -13.5999    8.2393 H         1 ARG         0.2615
    101 H14        17.1327  -15.9706   11.5541 H         1 ARG         0.2615
    102 H15        15.6742  -15.6575   10.5756 H         1 ARG         0.2615
    103 H16        20.9535   -8.6930   10.9617 H         1 CYS         0.1885
    104 H17        19.5294   -9.5720   13.4366 H         1 CYS         0.0808
    105 H18        20.0213   -7.4033   14.4453 H         1 CYS         0.0432
    106 H19        20.9081   -6.8892   12.9702 H         1 CYS         0.0432
    107 H20        17.4954   -8.6262   13.7576 H         1 THR         0.1884
    108 H21        16.1186   -7.2565   11.6339 H         1 THR         0.0826
    109 H22        14.4357   -6.6252   13.3352 H         1 THR         0.0639
    110 H23        15.9253   -6.1982   15.0449 H         1 THR         0.2101
    111 H24        13.8054   -8.8715   14.1482 H         1 THR         0.0257
    112 H25        15.4415   -9.4835   13.7297 H         1 THR         0.0257
    113 H26        14.3361   -8.9155   12.4327 H         1 THR         0.0257
    114 H27        15.3877   -4.9442   11.7954 H         1 LYS         0.1883
    115 H28        17.6889   -3.3272   12.7422 H         1 LYS         0.0800
    116 H29        16.7506   -1.5592   11.1485 H         1 LYS         0.0312
    117 H30        15.6754   -2.8573   10.5277 H         1 LYS         0.0312
    118 H31        17.7851   -4.2738   10.2557 H         1 LYS         0.0269
    119 H32        18.7139   -2.7647   10.5502 H         1 LYS         0.0269
    120 H33        17.5906   -1.7066    8.6220 H         1 LYS         0.0317
    121 H34        16.6852   -3.2288    8.3218 H         1 LYS         0.0317
    122 H35        18.8135   -4.4493    8.0289 H         1 LYS         0.0813
    123 H36        19.7323   -2.9416    8.3598 H         1 LYS         0.0813
    124 H37        19.5123   -3.3619    6.0096 H         1 LYS         0.1994
    125 H38        18.7112   -1.9811    6.4108 H         1 LYS         0.1994
    126 H39        17.8692   -3.3626    6.1076 H         1 LYS         0.1994
    127 H40        15.9868   -4.0861   14.7031 H         1 SER         0.1884
    128 H41        14.2919   -1.7383   15.3274 H         1 SER         0.0823
    129 H42        13.1461   -3.7837   15.7074 H         1 SER         0.0606
    130 H43        13.6253   -3.1880   17.3329 H         1 SER         0.0606
    131 H44        15.4100   -4.6479   17.2068 H         1 SER         0.2097
    132 H45        18.0823   -2.4569   20.0953 H         1 PLW         0.0924
    133 H46        18.7156   -4.3696   21.5367 H         1 PLW         0.0286
    134 H47        16.9814   -4.7042   21.8638 H         1 PLW         0.0286
    135 H48        17.7275   -3.1781   22.4480 H         1 PLW         0.0286
    136 H49        13.3881   -0.7005   20.0289 H         1 PLW         0.0437
    137 H50        16.9866   -0.7018   18.7757 H         1 PLW         0.0769
    138 H51        14.4965   -0.5368   17.2438 H         1 PLW         0.1885
    139 H52        14.4365    0.8631   19.3366 H         1 PLW         0.0346
    140 H53        15.8615    2.1171   20.9362 H         1 PLW         0.0235
    141 H54        17.2196    0.9918   20.5959 H         1 PLW         0.0235
    142 H55        15.7219    0.3815   21.3777 H         1 PLW         0.0235
    143 H56        16.0190    2.8154   18.7229 H         1 PLW         0.0268
    144 H57        15.3423    1.8218   17.3883 H         1 PLW         0.0268
    145 H58        17.7598    2.2242   17.0717 H         1 PLW         0.0230
    146 H59        17.4182    0.4804   17.3343 H         1 PLW         0.0230
    147 H60        18.0950    1.4740   18.6690 H         1 PLW         0.0230
    148 H61        17.5869   -5.2770   16.6590 H         1 PRO         0.0802
    149 H62        19.6237   -4.8028   15.7057 H         1 PRO         0.0313
    150 H63        20.2142   -6.3011   16.5013 H         1 PRO         0.0313
    151 H64        21.2348   -3.8260   17.0356 H         1 PRO         0.0287
    152 H65        21.1810   -5.1506   18.2477 H         1 PRO         0.0287
    153 H66        19.9877   -3.6015   19.4698 H         1 PRO         0.0524
    154 H67        19.4767   -2.6916   18.0078 H         1 PRO         0.0524
    155 H68        17.0316   -7.3182   16.3123 H         1 ILE         0.1883
    156 H69        17.7211   -9.3645   18.3646 H         1 ILE         0.0803
    157 H70        15.5295   -9.4620   16.2344 H         1 ILE         0.0345
    158 H71        15.3712   -7.7251   18.1827 H         1 ILE         0.0267
    159 H72        15.0645   -9.1665   19.2098 H         1 ILE         0.0267
    160 H73        16.4215  -11.6622   16.9268 H         1 ILE         0.0235
    161 H74        14.7336  -11.4176   17.4904 H         1 ILE         0.0235
    162 H75        16.0994  -11.2483   18.6448 H         1 ILE         0.0235
    163 H76        12.9690   -8.1107   18.4951 H         1 ILE         0.0230
    164 H77        13.1346   -9.7594   17.8016 H         1 ILE         0.0230
    165 H78        13.4412   -8.3180   16.7744 H         1 ILE         0.0230
    166 H79        19.3649  -10.5853   17.8063 H         1 CYS         0.1884
    167 H80        20.0756  -10.7519   14.9186 H         1 CYS         0.0808
    168 H81        22.4132  -10.9213   15.6420 H         1 CYS         0.0432
    169 H82        21.8951  -10.8493   17.3605 H         1 CYS         0.0432
    170 H83        21.3145  -12.5898   14.2159 H         1 PHE         0.1877
    171 H84        20.5856  -15.1081   15.6264 H         1 PHE         0.0749
    172 H85        19.8208  -16.0969   13.5306 H         1 PHE         0.0467
    173 H86        20.1932  -14.5783   12.6463 H         1 PHE         0.0467
    174 H87        17.9383  -16.1390   15.1605 H         1 PHE         0.0557
    175 H88        18.6762  -12.7385   12.6683 H         1 PHE         0.0557
    176 H89        15.6580  -15.3128   15.6115 H         1 PHE         0.0599
    177 H90        16.3993  -11.9057   13.1259 H         1 PHE         0.0599
    178 H91        14.8867  -13.1942   14.5974 H         1 PHE         0.0559
@<TRIPOS>BOND
     1    2    1 1  
     2    3    2 1  
     3    2    5 1  
     4    3    4 2  
     5   12    3 am 
     6    5    6 1  
     7    6    7 1  
     8    7    8 1  
     9    8    9 ar 
    10    9   10 ar 
    11    9   11 ar 
    12   13   12 1  
    13   14   13 1  
    14   13   16 1  
    15   14   15 2  
    16   18   14 am 
    17   16   17 1  
    18   17   75 1  
    19   19   18 1  
    20   20   19 1  
    21   19   22 1  
    22   20   21 2  
    23   25   20 am 
    24   22   23 1  
    25   22   24 1  
    26   26   25 1  
    27   27   26 1  
    28   26   29 1  
    29   27   28 2  
    30   34   27 am 
    31   29   30 1  
    32   30   31 1  
    33   31   32 1  
    34   32   33 1  
    35   35   34 1  
    36   36   35 1  
    37   35   38 1  
    38   36   37 2  
    39   50   36 am 
    40   38   39 1  
    41   41   40 2  
    42   42   41 1  
    43   41   55 am 
    44   42   43 1  
    45   44   42 1  
    46   45   44 1  
    47   44   48 1  
    48   45   46 2  
    49   49   45 1  
    50   46   47 1  
    51   47   48 2  
    52   49   50 1  
    53   49   51 1  
    54   51   52 1  
    55   51   53 1  
    56   53   54 1  
    57   55   56 1  
    58   55   61 1  
    59   56   57 1  
    60   56   59 1  
    61   57   58 2  
    62   57   62 am 
    63   59   60 1  
    64   60   61 1  
    65   62   63 1  
    66   63   64 1  
    67   63   66 1  
    68   64   65 2  
    69   64   70 am 
    70   66   67 1  
    71   66   68 1  
    72   67   69 1  
    73   70   71 1  
    74   71   72 1  
    75   71   74 1  
    76   72   73 2  
    77   72   76 am 
    78   74   75 1  
    79   76   77 1  
    80   77   78 1  
    81   77   80 1  
    82   78   79 ar 
    83   78   87 ar 
    84   80   81 1  
    85   81   82 ar 
    86   81   83 ar 
    87   82   84 ar 
    88   83   85 ar 
    89   84   86 ar 
    90   85   86 ar 
    91    1   88 1  
    92    1   89 1  
    93    1   90 1  
    94    2   91 1  
    95    5   92 1  
    96    5   93 1  
    97    6   94 1  
    98    6   95 1  
    99    7   96 1  
   100    7   97 1  
   101    8   98 1  
   102   10   99 1  
   103   10  100 1  
   104   11  101 1  
   105   11  102 1  
   106   12  103 1  
   107   13  104 1  
   108   16  105 1  
   109   16  106 1  
   110   18  107 1  
   111   19  108 1  
   112   22  109 1  
   113   23  110 1  
   114   24  111 1  
   115   24  112 1  
   116   24  113 1  
   117   25  114 1  
   118   26  115 1  
   119   29  116 1  
   120   29  117 1  
   121   30  118 1  
   122   30  119 1  
   123   31  120 1  
   124   31  121 1  
   125   32  122 1  
   126   32  123 1  
   127   33  124 1  
   128   33  125 1  
   129   33  126 1  
   130   34  127 1  
   131   35  128 1  
   132   38  129 1  
   133   38  130 1  
   134   39  131 1  
   135   42  132 1  
   136   43  133 1  
   137   43  134 1  
   138   43  135 1  
   139   46  136 1  
   140   49  137 1  
   141   50  138 1  
   142   51  139 1  
   143   52  140 1  
   144   52  141 1  
   145   52  142 1  
   146   53  143 1  
   147   53  144 1  
   148   54  145 1  
   149   54  146 1  
   150   54  147 1  
   151   56  148 1  
   152   59  149 1  
   153   59  150 1  
   154   60  151 1  
   155   60  152 1  
   156   61  153 1  
   157   61  154 1  
   158   62  155 1  
   159   63  156 1  
   160   66  157 1  
   161   67  158 1  
   162   67  159 1  
   163   68  160 1  
   164   68  161 1  
   165   68  162 1  
   166   69  163 1  
   167   69  164 1  
   168   69  165 1  
   169   70  166 1  
   170   71  167 1  
   171   74  168 1  
   172   74  169 1  
   173   76  170 1  
   174   77  171 1  
   175   80  172 1  
   176   80  173 1  
   177   82  174 1  
   178   83  175 1  
   179   84  176 1  
   180   85  177 1  
   181   86  178 1  
@<TRIPOS>SUBSTRUCTURE
     1 ARG         1

