4abj_ligand
  -I-interpret- 

178181  0  0  0  0  0  0  0  0999 V2000
   23.2300  -11.5390   10.9790 N   0  3  0  0  0
   21.9780  -10.9550   10.5030 C   0  0  0  0  0
   21.0940  -10.5590   11.6940 C   0  0  0  0  0
   20.8210  -11.3700   12.5860 O   0  0  0  0  0
   21.2470  -11.8940    9.5260 C   0  0  0  0  0
   20.7600  -13.2170   10.1060 C   0  0  0  0  0
   19.5810  -13.7720    9.3140 C   0  0  0  0  0
   18.6950  -14.5860   10.1480 N   0  0  0  0  0
   17.3950  -14.7670    9.9220 C   0  0  0  0  0
   16.7990  -14.1930    8.8820 N   0  0  0  0  0
   16.6810  -15.5210   10.7450 N   0  0  0  0  0
   20.6860   -9.2950   11.7140 N   0  0  0  0  0
   19.8640   -8.7490   12.7880 C   0  0  0  0  0
   18.6450   -8.0350   12.2030 C   0  0  0  0  0
   18.6920   -7.5140   11.0800 O   0  0  0  0  0
   20.6630   -7.7430   13.6190 C   0  0  0  0  0
   22.2110   -8.3590   14.3350 S   0  0  0  0  0
   17.5530   -8.0140   12.9690 N   0  0  0  0  0
   16.4360   -7.1110   12.6770 C   0  0  0  0  0
   16.9270   -5.6810   12.8790 C   0  0  0  0  0
   17.9310   -5.4420   13.5710 O   0  0  0  0  0
   15.2260   -7.3400   13.6080 C   0  0  0  0  0
   15.6230   -7.0950   14.9620 O   0  0  0  0  0
   14.6630   -8.7510   13.4700 C   0  0  0  0  0
   16.2180   -4.7140   12.3030 N   0  0  0  0  0
   16.6420   -3.3130   12.4050 C   0  0  0  0  0
   15.8700   -2.5120   13.4540 C   0  0  0  0  0
   15.5010   -1.3540   13.2400 O   0  0  0  0  0
   16.6330   -2.6460   11.0260 C   0  0  0  0  0
   17.7660   -3.1770   10.1740 C   0  0  0  0  0
   17.6180   -2.8020    8.7190 C   0  0  0  0  0
   18.8030   -3.3530    7.9390 C   0  0  0  0  0
   18.7170   -2.9850    6.5010 N   0  3  0  0  0
   15.6440   -3.1520   14.6030 N   0  0  0  0  0
   14.9170   -2.5510   15.7260 C   0  0  0  0  0
   15.8590   -1.9500   16.7660 C   0  0  0  0  0
   17.0290   -2.3200   16.8170 O   0  0  0  0  0
   13.9960   -3.5890   16.3780 C   0  0  0  0  0
   14.6770   -4.8080   16.6240 O   0  0  0  0  0
   16.2190   -4.8260   18.9750 O   0  0  0  0  0
   17.2700   -4.2330   19.1910 C   0  0  0  0  0
   17.3380   -3.2330   20.3270 C   0  0  0  0  0
   17.7170   -3.9190   21.6350 C   0  0  0  0  0
   15.9950   -2.6250   20.4540 N   0  0  0  0  0
   15.4120   -1.5960   19.8610 C   0  0  0  0  0
   14.1110   -1.4580   20.3280 C   0  0  0  0  0
   13.9180   -2.4550   21.2320 N   0  0  0  0  0
   15.0970   -3.2240   21.3420 N   0  0  0  0  0
   15.8910   -0.6330   18.8460 C   0  0  0  0  0
   15.3230   -1.0060   17.5550 N   0  0  0  0  0
   15.5320    0.7900   19.2690 C   0  0  0  0  0
   16.1250    1.0910   20.6400 C   0  0  0  0  0
   16.0170    1.8190   18.2570 C   0  0  0  0  0
   17.4180    1.4760   17.8020 C   0  0  0  0  0
   18.3560   -4.4380   18.4160 N   0  0  0  0  0
   18.3970   -5.4760   17.3760 C   0  0  0  0  0
   18.2240   -6.9120   17.8770 C   0  0  0  0  0
   18.7240   -7.2620   18.9530 O   0  0  0  0  0
   19.7480   -5.3190   16.6690 C   0  0  0  0  0
   20.5740   -4.4970   17.6040 C   0  0  0  0  0
   19.6150   -3.6940   18.4390 C   0  0  0  0  0
   17.4970   -7.7140   17.1040 N   0  0  0  0  0
   17.3460   -9.1410   17.3550 C   0  0  0  0  0
   18.1850   -9.8880   16.3300 C   0  0  0  0  0
   17.8610   -9.9080   15.1320 O   0  0  0  0  0
   15.8780   -9.6040   17.2680 C   0  0  0  0  0
   14.9930   -8.7580   18.1910 C   0  0  0  0  0
   15.7760  -11.0860   17.6060 C   0  0  0  0  0
   13.5350   -8.7350   17.7880 C   0  0  0  0  0
   19.2600  -10.5060   16.8150 N   0  0  0  0  0
   20.2930  -11.0730   15.9480 C   0  0  0  0  0
   20.3070  -12.5990   15.9570 C   0  0  0  0  0
   19.8170  -13.2330   16.8980 O   0  0  0  0  0
   21.6640  -10.5160   16.3380 C   0  0  0  0  0
   21.7620   -8.7120   16.2920 S   0  0  0  0  0
   20.8730  -13.1740   14.8970 N   0  0  0  0  0
   20.8780  -14.6220   14.6840 C   0  0  0  0  0
   22.2650  -15.1320   14.2950 C   0  0  0  0  0
   22.9850  -14.4850   13.5320 O   0  0  0  0  0
   19.8570  -15.0000   13.6050 C   0  0  0  0  0
   18.4660  -14.4970   13.8830 C   0  0  0  0  0
   17.6040  -15.2110   14.7110 C   0  0  0  0  0
   18.0170  -13.3050   13.3160 C   0  0  0  0  0
   16.3210  -14.7470   14.9670 C   0  0  0  0  0
   16.7360  -12.8350   13.5710 C   0  0  0  0  0
   15.8880  -13.5580   14.3970 C   0  0  0  0  0
   22.6920  -16.2010   14.7360 O   0  0  0  0  0
   23.6839  -10.8899   11.6217 H   0  0  0  0  0
   23.0329  -12.4155   11.4620 H   0  0  0  0  0
   23.8441  -11.7178   10.1844 H   0  0  0  0  0
   22.2112  -10.0506    9.9410 H   0  0  0  0  0
   21.9682  -12.1481    8.7492 H   0  0  0  0  0
   20.3565  -11.3587    9.1964 H   0  0  0  0  0
   20.4372  -13.0465   11.1331 H   0  0  0  0  0
   21.5773  -13.9367   10.0598 H   0  0  0  0  0
   19.9729  -14.4028    8.5162 H   0  0  0  0  0
   19.0060  -12.9318    8.9247 H   0  0  0  0  0
   19.1027  -15.0479   10.9609 H   0  0  0  0  0
   15.8014  -14.3349    8.7237 H   0  0  0  0  0
   17.3392  -13.6106    8.2422 H   0  0  0  0  0
   17.1271  -15.9614   11.5496 H   0  0  0  0  0
   20.9588   -8.6809   10.9466 H   0  0  0  0  0
   19.5459   -9.5760   13.4228 H   0  0  0  0  0
   20.0262   -7.4640   14.4585 H   0  0  0  0  0
   20.9385   -6.9351   12.9411 H   0  0  0  0  0
   17.4942   -8.6384   13.7734 H   0  0  0  0  0
   16.1078   -7.3002   11.6550 H   0  0  0  0  0
   14.4349   -6.6476   13.3200 H   0  0  0  0  0
   14.8732   -7.2363   15.5447 H   0  0  0  0  0
   14.3395   -8.9128   12.4418 H   0  0  0  0  0
   15.4353   -9.4758   13.7275 H   0  0  0  0  0
   13.8133   -8.8692   14.1424 H   0  0  0  0  0
   15.3711   -4.9488   11.7852 H   0  0  0  0  0
   17.6693   -3.3187   12.7694 H   0  0  0  0  0
   16.7579   -1.5705   11.1516 H   0  0  0  0  0
   15.6859   -2.8646   10.5327 H   0  0  0  0  0
   17.7589   -4.2647   10.2439 H   0  0  0  0  0
   18.6958   -2.7423   10.5410 H   0  0  0  0  0
   17.5878   -1.7168    8.6215 H   0  0  0  0  0
   16.6926   -3.2219    8.3247 H   0  0  0  0  0
   18.7989   -4.4399    8.0212 H   0  0  0  0  0
   19.7188   -2.9305    8.3524 H   0  0  0  0  0
   19.5222   -3.3668    6.0048 H   0  0  0  0  0
   17.8588   -3.3676    6.1041 H   0  0  0  0  0
   18.7112   -1.9690    6.4110 H   0  0  0  0  0
   15.9936   -4.1048   14.7051 H   0  0  0  0  0
   14.3146   -1.7358   15.3251 H   0  0  0  0  0
   13.1664   -3.7883   15.6997 H   0  0  0  0  0
   13.6473   -3.1905   17.3307 H   0  0  0  0  0
   14.0736   -5.4338   17.0313 H   0  0  0  0  0
   18.0971   -2.4792   20.1180 H   0  0  0  0  0
   16.9698   -4.6747   21.8773 H   0  0  0  0  0
   18.6926   -4.3927   21.5259 H   0  0  0  0  0
   17.7586   -3.1782   22.4335 H   0  0  0  0  0
   13.3874   -0.6998   20.0286 H   0  0  0  0  0
   16.9769   -0.6615   18.7562 H   0  0  0  0  0
   14.4800   -0.5274   17.2376 H   0  0  0  0  0
   14.4451    0.8572   19.3173 H   0  0  0  0  0
   15.7249    0.3873   21.3700 H   0  0  0  0  0
   17.2096    0.9923   20.5950 H   0  0  0  0  0
   15.8633    2.1079   20.9323 H   0  0  0  0  0
   16.0221    2.8048   18.7221 H   0  0  0  0  0
   15.3494    1.8171   17.3954 H   0  0  0  0  0
   18.0877    1.4743   18.6620 H   0  0  0  0  0
   17.4169    0.4893   17.3388 H   0  0  0  0  0
   17.7555    2.2180   17.0784 H   0  0  0  0  0
   17.5434   -5.3266   16.7148 H   0  0  0  0  0
   19.6432   -4.8428   15.6941 H   0  0  0  0  0
   20.2109   -6.2832   16.4590 H   0  0  0  0  0
   21.2490   -3.8429   17.0521 H   0  0  0  0  0
   21.1966   -5.1334   18.2329 H   0  0  0  0  0
   19.9836   -3.5655   19.4567 H   0  0  0  0  0
   19.4896   -2.6860   18.0436 H   0  0  0  0  0
   17.0223   -7.3103   16.2965 H   0  0  0  0  0
   17.6800   -9.3526   18.3708 H   0  0  0  0  0
   15.5210   -9.4641   16.2477 H   0  0  0  0  0
   15.3596   -7.7327   18.1420 H   0  0  0  0  0
   15.0477   -9.1985   19.1865 H   0  0  0  0  0
   16.3755  -11.6605   16.8999 H   0  0  0  0  0
   16.1451  -11.2528   18.6179 H   0  0  0  0  0
   14.7346  -11.4013   17.5412 H   0  0  0  0  0
   13.4435   -8.3217   16.7836 H   0  0  0  0  0
   13.1395   -9.7506   17.8018 H   0  0  0  0  0
   12.9752   -8.1162   18.4893 H   0  0  0  0  0
   19.3670  -10.5869   17.8261 H   0  0  0  0  0
   20.0549  -10.7757   14.9267 H   0  0  0  0  0
   22.3862  -10.8983   15.6166 H   0  0  0  0  0
   21.8592  -10.8251   17.3649 H   0  0  0  0  0
   21.3233  -12.5781   14.2023 H   0  0  0  0  0
   20.6021  -15.0959   15.6260 H   0  0  0  0  0
   19.8084  -16.0884   13.5702 H   0  0  0  0  0
   20.1869  -14.5447   12.6712 H   0  0  0  0  0
   17.9401  -16.1442   15.1630 H   0  0  0  0  0
   18.6798  -12.7353   12.6647 H   0  0  0  0  0
   15.6543  -15.3159   15.6150 H   0  0  0  0  0
   16.3975  -11.9005   13.1235 H   0  0  0  0  0
   14.8812  -13.1922   14.5985 H   0  0  0  0  0
   22.0326  -16.5944   15.3123 H   0  0  0  0  0
  2  1  1  0  0  0
  3  2  1  0  0  0
  2  5  1  0  0  0
  3  4  2  0  0  0
 12  3  1  0  0  0
  5  6  1  0  0  0
  6  7  1  0  0  0
  7  8  1  0  0  0
  8  9  1  0  0  0
  9 10  1  0  0  0
  9 11  2  0  0  0
 13 12  1  0  0  0
 14 13  1  0  0  0
 13 16  1  0  0  0
 14 15  2  0  0  0
 18 14  1  0  0  0
 16 17  1  0  0  0
 17 75  1  0  0  0
 19 18  1  0  0  0
 20 19  1  0  0  0
 19 22  1  0  0  0
 20 21  2  0  0  0
 25 20  1  0  0  0
 22 23  1  0  0  0
 22 24  1  0  0  0
 26 25  1  0  0  0
 27 26  1  0  0  0
 26 29  1  0  0  0
 27 28  2  0  0  0
 34 27  1  0  0  0
 29 30  1  0  0  0
 30 31  1  0  0  0
 31 32  1  0  0  0
 32 33  1  0  0  0
 35 34  1  0  0  0
 36 35  1  0  0  0
 35 38  1  0  0  0
 36 37  2  0  0  0
 50 36  1  0  0  0
 38 39  1  0  0  0
 41 40  2  0  0  0
 42 41  1  0  0  0
 41 55  1  0  0  0
 42 43  1  0  0  0
 44 42  1  0  0  0
 45 44  4  0  0  0
 44 48  4  0  0  0
 45 46  4  0  0  0
 49 45  1  0  0  0
 46 47  4  0  0  0
 47 48  4  0  0  0
 49 50  1  0  0  0
 49 51  1  0  0  0
 51 52  1  0  0  0
 51 53  1  0  0  0
 53 54  1  0  0  0
 55 56  1  0  0  0
 55 61  1  0  0  0
 56 57  1  0  0  0
 56 59  1  0  0  0
 57 58  2  0  0  0
 57 62  1  0  0  0
 59 60  1  0  0  0
 60 61  1  0  0  0
 62 63  1  0  0  0
 63 64  1  0  0  0
 63 66  1  0  0  0
 64 65  2  0  0  0
 64 70  1  0  0  0
 66 67  1  0  0  0
 66 68  1  0  0  0
 67 69  1  0  0  0
 70 71  1  0  0  0
 71 72  1  0  0  0
 71 74  1  0  0  0
 72 73  2  0  0  0
 72 76  1  0  0  0
 74 75  1  0  0  0
 76 77  1  0  0  0
 77 78  1  0  0  0
 77 80  1  0  0  0
 78 79  2  0  0  0
 78 87  1  0  0  0
 80 81  1  0  0  0
 81 82  4  0  0  0
 81 83  4  0  0  0
 82 84  4  0  0  0
 83 85  4  0  0  0
 84 86  4  0  0  0
 85 86  4  0  0  0
  1 88  1  0  0  0
  1 89  1  0  0  0
  1 90  1  0  0  0
  2 91  1  0  0  0
  5 92  1  0  0  0
  5 93  1  0  0  0
  6 94  1  0  0  0
  6 95  1  0  0  0
  7 96  1  0  0  0
  7 97  1  0  0  0
  8 98  1  0  0  0
 10 99  1  0  0  0
 10100  1  0  0  0
 11101  1  0  0  0
 12102  1  0  0  0
 13103  1  0  0  0
 16104  1  0  0  0
 16105  1  0  0  0
 18106  1  0  0  0
 19107  1  0  0  0
 22108  1  0  0  0
 23109  1  0  0  0
 24110  1  0  0  0
 24111  1  0  0  0
 24112  1  0  0  0
 25113  1  0  0  0
 26114  1  0  0  0
 29115  1  0  0  0
 29116  1  0  0  0
 30117  1  0  0  0
 30118  1  0  0  0
 31119  1  0  0  0
 31120  1  0  0  0
 32121  1  0  0  0
 32122  1  0  0  0
 33123  1  0  0  0
 33124  1  0  0  0
 33125  1  0  0  0
 34126  1  0  0  0
 35127  1  0  0  0
 38128  1  0  0  0
 38129  1  0  0  0
 39130  1  0  0  0
 42131  1  0  0  0
 43132  1  0  0  0
 43133  1  0  0  0
 43134  1  0  0  0
 46135  1  0  0  0
 49136  1  0  0  0
 50137  1  0  0  0
 51138  1  0  0  0
 52139  1  0  0  0
 52140  1  0  0  0
 52141  1  0  0  0
 53142  1  0  0  0
 53143  1  0  0  0
 54144  1  0  0  0
 54145  1  0  0  0
 54146  1  0  0  0
 56147  1  0  0  0
 59148  1  0  0  0
 59149  1  0  0  0
 60150  1  0  0  0
 60151  1  0  0  0
 61152  1  0  0  0
 61153  1  0  0  0
 62154  1  0  0  0
 63155  1  0  0  0
 66156  1  0  0  0
 67157  1  0  0  0
 67158  1  0  0  0
 68159  1  0  0  0
 68160  1  0  0  0
 68161  1  0  0  0
 69162  1  0  0  0
 69163  1  0  0  0
 69164  1  0  0  0
 70165  1  0  0  0
 71166  1  0  0  0
 74167  1  0  0  0
 74168  1  0  0  0
 76169  1  0  0  0
 77170  1  0  0  0
 80171  1  0  0  0
 80172  1  0  0  0
 82173  1  0  0  0
 83174  1  0  0  0
 84175  1  0  0  0
 85176  1  0  0  0
 86177  1  0  0  0
 87178  1  0  0  0
M  END
$$$$
