3zbx_ligand
  -I-interpret- 

 40 44  0  0  0  0  0  0  0  0999 V2000
   22.3960    8.7570   41.5800 C   0  0  0  0  0
   23.4670    8.6310   40.6000 C   0  0  0  0  0
   24.7620    8.7350   41.0090 N   0  0  0  0  0
   25.0910    8.9520   42.2930 C   0  0  0  0  0
   24.0980    9.0890   43.2990 C   0  0  0  0  0
   22.7490    8.9930   42.9500 C   0  0  0  0  0
   20.7460    8.4140   39.8010 C   0  0  0  0  0
   21.7970    8.2940   38.8490 C   0  0  0  0  0
   23.1300    8.3990   39.2300 C   0  0  0  0  0
   21.0320    8.6430   41.1520 C   0  0  0  0  0
   18.2440   12.2020   41.4050 C   0  0  0  0  0
   17.6970   13.1550   40.4820 C   0  0  0  0  0
   17.5550   12.8500   39.1940 N   0  0  0  0  0
   18.6020   11.0130   40.9460 N   0  0  0  0  0
   18.8030   13.0230   45.6090 C   0  0  0  0  0
   18.2330   14.0150   44.7770 C   0  0  0  0  0
   18.0440   13.7640   43.4070 C   0  0  0  0  0
   18.4250   12.5030   42.8550 C   0  0  0  0  0
   18.9940   11.5080   43.7050 C   0  0  0  0  0
   19.1810   11.7720   45.0730 C   0  0  0  0  0
   18.9870   13.2710   46.9190 F   0  0  0  0  0
   18.4470   10.6970   39.5860 N   0  0  0  0  0
   17.9180   11.6350   38.7130 C   0  0  0  0  0
   17.8920   11.0670   37.5220 N   0  0  0  0  0
   18.3600    9.8670   37.6080 N   0  0  0  0  0
   18.7120    9.5930   38.8410 C   0  0  0  0  0
   19.2990    8.2820   39.3440 C   0  0  0  0  0
   26.1430    9.0245   42.5689 H   0  0  0  0  0
   24.3862    9.2676   44.3349 H   0  0  0  0  0
   21.9740    9.0962   43.7095 H   0  0  0  0  0
   21.5524    8.1165   37.8017 H   0  0  0  0  0
   23.9188    8.3044   38.4837 H   0  0  0  0  0
   20.2217    8.7343   41.8754 H   0  0  0  0  0
   17.3945   14.1393   40.8394 H   0  0  0  0  0
   17.9397   14.9761   45.1993 H   0  0  0  0  0
   17.6073   14.5305   42.7668 H   0  0  0  0  0
   19.2841   10.5416   43.2928 H   0  0  0  0  0
   19.6177   11.0113   45.7201 H   0  0  0  0  0
   18.7079    7.9611   40.2018 H   0  0  0  0  0
   19.2750    7.5695   38.5194 H   0  0  0  0  0
  1  2  4  0  0  0
  1  6  4  0  0  0
 10  1  4  0  0  0
  2  3  4  0  0  0
  9  2  4  0  0  0
  3  4  4  0  0  0
  5  4  4  0  0  0
  6  5  4  0  0  0
  7  8  4  0  0  0
  7 10  4  0  0  0
 27  7  1  0  0  0
  8  9  4  0  0  0
 11 12  4  0  0  0
 14 11  4  0  0  0
 11 18  1  0  0  0
 13 12  4  0  0  0
 23 13  4  0  0  0
 22 14  4  0  0  0
 16 15  4  0  0  0
 20 15  4  0  0  0
 15 21  1  0  0  0
 17 16  4  0  0  0
 18 17  4  0  0  0
 18 19  4  0  0  0
 19 20  4  0  0  0
 22 23  4  0  0  0
 26 22  4  0  0  0
 24 23  4  0  0  0
 25 24  4  0  0  0
 26 25  4  0  0  0
 26 27  1  0  0  0
  4 28  1  0  0  0
  5 29  1  0  0  0
  6 30  1  0  0  0
  8 31  1  0  0  0
  9 32  1  0  0  0
 10 33  1  0  0  0
 12 34  1  0  0  0
 16 35  1  0  0  0
 17 36  1  0  0  0
 19 37  1  0  0  0
 20 38  1  0  0  0
 27 39  1  0  0  0
 27 40  1  0  0  0
M  END
$$$$
