5ddf_ligand
  -I-interpret- 

 47 50  0  0  0  0  0  0  0  0999 V2000
   13.2240    7.6090   12.1510 C   0  0  0  0  0
   13.3430    8.9250   11.8640 C   0  0  0  0  0
   12.2620    9.6000   11.3850 C   0  0  0  0  0
   11.1220    8.9230   11.2000 N   0  0  0  0  0
   12.0980    6.9530   11.9880 N   0  0  0  0  0
   19.0430    8.0670   12.3930 F   0  0  0  0  0
   17.8120    7.8980   11.9210 C   0  0  0  0  0
   17.6350    6.6230   11.5900 F   0  0  0  0  0
   17.6410    8.6620   10.8480 F   0  0  0  0  0
   16.8080    8.2870   12.9820 C   0  0  0  0  0
   16.9490    7.4600   14.0030 F   0  0  0  0  0
   17.1010    9.5060   13.3960 F   0  0  0  0  0
   15.3630    8.2740   12.5740 C   0  0  0  0  0
   14.5790    7.0060   12.7310 S   0  0  0  0  0
   14.6120    9.3000   12.1320 C   0  0  0  0  0
   10.9750    7.5900   11.5180 C   0  0  0  0  0
   12.2300   10.9370   11.0920 N   0  0  0  0  0
   11.1980   11.5550   10.2250 C   0  0  0  0  0
   11.3030   13.0990   10.2280 C   0  0  0  0  0
   13.1920   11.8440   11.7640 C   0  0  0  0  0
   12.4590   12.9790   12.5010 C   0  0  0  0  0
   11.5290   13.6840   11.5850 N   0  0  0  0  0
   10.8980   14.8000   11.9410 C   0  0  0  0  0
   11.0440   15.5500   13.3950 S   0  0  0  0  0
    9.9940   16.8870   13.0510 C   0  0  0  0  0
    8.8560   16.9320   14.0800 C   0  0  0  0  0
   10.7880   18.1980   13.1040 C   0  0  0  0  0
    9.4430   16.6650   11.6710 C   0  0  0  0  0
   10.0710   15.4380   11.1250 N   0  0  0  0  0
   14.9853   10.3162   12.0051 H   0  0  0  0  0
   10.0232    7.0713   11.4033 H   0  0  0  0  0
   10.2156   11.2755   10.6056 H   0  0  0  0  0
   11.3478   11.2013    9.2049 H   0  0  0  0  0
   10.3553   13.4906    9.8582 H   0  0  0  0  0
   12.1598   13.3684    9.6104 H   0  0  0  0  0
   13.8448   12.2821   11.0090 H   0  0  0  0  0
   13.7653   11.2686   12.4909 H   0  0  0  0  0
   13.1956   13.6915   12.8723 H   0  0  0  0  0
   11.8866   12.5524   13.3246 H   0  0  0  0  0
    8.2867   16.0038   14.0310 H   0  0  0  0  0
    9.2757   17.0501   15.0790 H   0  0  0  0  0
    8.2003   17.7740   13.8581 H   0  0  0  0  0
   11.2163   18.3219   14.0986 H   0  0  0  0  0
   11.5876   18.1672   12.3639 H   0  0  0  0  0
   10.1224   19.0334   12.8870 H   0  0  0  0  0
    9.6649   17.5202   11.0326 H   0  0  0  0  0
    8.3597   16.5509   11.7097 H   0  0  0  0  0
  1  2  4  0  0  0
  1  5  4  0  0  0
 14  1  4  0  0  0
  2  3  4  0  0  0
  2 15  4  0  0  0
  3  4  4  0  0  0
  3 17  1  0  0  0
 16  4  4  0  0  0
  5 16  4  0  0  0
  7  6  1  0  0  0
  7  8  1  0  0  0
  7  9  1  0  0  0
 10  7  1  0  0  0
 10 11  1  0  0  0
 10 12  1  0  0  0
 13 10  1  0  0  0
 13 14  4  0  0  0
 13 15  4  0  0  0
 17 18  1  0  0  0
 17 20  1  0  0  0
 18 19  1  0  0  0
 19 22  1  0  0  0
 20 21  1  0  0  0
 21 22  1  0  0  0
 22 23  1  0  0  0
 23 24  1  0  0  0
 23 29  2  0  0  0
 24 25  1  0  0  0
 25 26  1  0  0  0
 25 27  1  0  0  0
 25 28  1  0  0  0
 28 29  1  0  0  0
 15 30  1  0  0  0
 16 31  1  0  0  0
 18 32  1  0  0  0
 18 33  1  0  0  0
 19 34  1  0  0  0
 19 35  1  0  0  0
 20 36  1  0  0  0
 20 37  1  0  0  0
 21 38  1  0  0  0
 21 39  1  0  0  0
 26 40  1  0  0  0
 26 41  1  0  0  0
 26 42  1  0  0  0
 27 43  1  0  0  0
 27 44  1  0  0  0
 27 45  1  0  0  0
 28 46  1  0  0  0
 28 47  1  0  0  0
M  END
$$$$
