2g24_ligand
  -I-interpret- 

 45 47  0  0  0  0  0  0  0  0999 V2000
   27.6260  106.0630  130.2130 C   0  0  0  0  0
   28.1670  106.6390  131.3250 N   0  0  0  0  0
   27.8690  107.9350  131.5210 C   0  0  0  0  0
   27.1000  108.6550  130.7040 N   0  0  0  0  0
   26.5520  108.1000  129.5930 C   0  0  0  0  0
   26.7840  106.7440  129.2820 C   0  0  0  0  0
   27.9410  104.7510  130.0340 N   0  0  0  0  0
   28.3560  108.5670  132.5890 N   0  0  0  0  0
   25.7100  109.0690  128.8000 C   0  0  0  0  0
   24.2370  109.0790  129.2140 C   0  0  0  0  0
   24.2590  104.4610  127.6560 C   0  0  0  0  0
   24.9920  105.2280  128.5600 C   0  0  0  0  0
   26.1200  105.9740  128.1740 C   0  0  0  0  0
   26.5060  105.9330  126.8080 C   0  0  0  0  0
   25.7580  105.1480  125.8700 C   0  0  0  0  0
   24.6210  104.3970  126.2830 C   0  0  0  0  0
   23.9150  103.6310  125.3640 N   0  0  0  0  0
   24.5380   99.7310  127.2010 C   0  0  0  0  0
   24.2810  101.0340  126.7400 C   0  0  0  0  0
   23.0160  101.3710  126.1560 C   0  0  0  0  0
   22.0350  100.3550  126.0600 C   0  0  0  0  0
   22.3190   99.0520  126.5320 C   0  0  0  0  0
   23.5680   98.7100  127.1090 C   0  0  0  0  0
   25.7480   99.4700  127.7420 F   0  0  0  0  0
   22.7180  102.7840  125.6460 C   0  0  0  0  0
   21.3760   98.1120  126.4270 F   0  0  0  0  0
   28.5408  104.2741  130.7072 H   0  0  0  0  0
   27.5773  104.2447  129.2267 H   0  0  0  0  0
   28.9502  108.0672  133.2504 H   0  0  0  0  0
   28.1344  109.5504  132.7447 H   0  0  0  0  0
   25.7543  108.7622  127.7550 H   0  0  0  0  0
   26.1067  110.0686  128.9772 H   0  0  0  0  0
   23.8138  108.0848  129.0704 H   0  0  0  0  0
   24.1579  109.3607  130.2640 H   0  0  0  0  0
   23.6937  109.7986  128.6015 H   0  0  0  0  0
   23.3930  103.9005  128.0081 H   0  0  0  0  0
   24.6796  105.2504  129.6040 H   0  0  0  0  0
   27.3738  106.5002  126.4715 H   0  0  0  0  0
   26.0646  105.1258  124.8242 H   0  0  0  0  0
   24.2476  103.6489  124.3999 H   0  0  0  0  0
   25.0536  101.7979  126.8278 H   0  0  0  0  0
   21.0614  100.5765  125.6227 H   0  0  0  0  0
   23.7707   97.7005  127.4667 H   0  0  0  0  0
   22.1900  102.6676  124.6995 H   0  0  0  0  0
   22.1601  103.2878  126.4353 H   0  0  0  0  0
  1  2  4  0  0  0
  6  1  4  0  0  0
  1  7  1  0  0  0
  2  3  4  0  0  0
  4  3  4  0  0  0
  3  8  1  0  0  0
  5  4  4  0  0  0
  6  5  4  0  0  0
  5  9  1  0  0  0
 13  6  1  0  0  0
  9 10  1  0  0  0
 11 12  4  0  0  0
 16 11  4  0  0  0
 12 13  4  0  0  0
 14 13  4  0  0  0
 15 14  4  0  0  0
 16 15  4  0  0  0
 17 16  1  0  0  0
 25 17  1  0  0  0
 19 18  4  0  0  0
 18 23  4  0  0  0
 18 24  1  0  0  0
 20 19  4  0  0  0
 20 21  4  0  0  0
 20 25  1  0  0  0
 21 22  4  0  0  0
 22 23  4  0  0  0
 22 26  1  0  0  0
  7 27  1  0  0  0
  7 28  1  0  0  0
  8 29  1  0  0  0
  8 30  1  0  0  0
  9 31  1  0  0  0
  9 32  1  0  0  0
 10 33  1  0  0  0
 10 34  1  0  0  0
 10 35  1  0  0  0
 11 36  1  0  0  0
 12 37  1  0  0  0
 14 38  1  0  0  0
 15 39  1  0  0  0
 17 40  1  0  0  0
 19 41  1  0  0  0
 21 42  1  0  0  0
 23 43  1  0  0  0
 25 44  1  0  0  0
 25 45  1  0  0  0
M  END
$$$$
