### 
### Created by X-TOOL on Mon Sep 10 21:13:24 2018
### 

@<TRIPOS>MOLECULE
4x9w_ligand
  133   135     1     0     0
SMALL
GAST_HUCK


@<TRIPOS>ATOM
      1 N          40.2490   28.0030   15.8910 N.am      1 LEU        -0.2656
      2 CA         39.9660   27.4410   17.2050 C.3       1 LEU         0.1311
      3 C          38.9750   26.2780   17.1720 C.2       1 LEU         0.2042
      4 O          38.7660   25.6170   18.1840 O.2       1 LEU        -0.3944
      5 CB         39.5630   28.5210   18.2170 C.3       1 LEU        -0.0101
      6 CG         40.6970   29.4120   18.7310 C.3       1 LEU        -0.0425
      7 CD1        41.8650   28.5940   19.2630 C.3       1 LEU        -0.0625
      8 CD2        41.1770   30.4180   17.6940 C.3       1 LEU        -0.0625
      9 C8         37.5730   24.8320   15.8000 C.3       1 3ZH         0.1612
     10 C7         37.4340   24.4930   14.3190 C.2       1 3ZH         0.2099
     11 C9         36.2200   24.9320   16.5110 C.3       1 3ZH         0.1056
     12 C11        34.8320   26.2320   14.8000 C.2       1 3ZH         0.1109
     13 O7         37.8170   25.2880   13.4620 O.2       1 3ZH        -0.3939
     14 N5         38.3950   26.0140   15.9990 N.am      1 3ZH        -0.2587
     15 C43        33.7550   28.1570   13.5430 C.3       1 3ZH         0.0170
     16 N3         34.3730   27.5240   14.7210 N.2       1 3ZH        -0.2826
     17 C12        34.6190   28.1340   15.8710 C.2       1 3ZH         0.1744
     18 N4         35.2300   27.2740   16.6890 N.pl3     1 3ZH        -0.1460
     19 C10        35.3710   26.0640   16.0210 C.2       1 3ZH         0.1984
     20 C13        35.6440   27.5560   18.0720 C.3       1 3ZH         0.0828
     21 C14        34.5100   27.3590   19.0570 C.3       1 3ZH        -0.0226
     22 C15        34.9640   27.2960   20.5030 C.3       1 3ZH        -0.0504
     23 C16        33.8640   26.8240   21.4370 C.3       1 3ZH        -0.0530
     24 C17        34.3020   26.6410   22.8790 C.3       1 3ZH        -0.0529
     25 C18        33.1630   26.7710   23.8760 C.3       1 3ZH        -0.0513
     26 C19        32.0480   25.7440   23.7210 C.3       1 3ZH        -0.0433
     27 C20        32.2910   24.3720   24.3450 C.3       1 3ZH        -0.0192
     28 C21        32.6590   24.4110   25.8090 C.ar      1 3ZH        -0.0430
     29 C26        32.1380   25.3870   26.6460 C.ar      1 3ZH        -0.0603
     30 C25        32.5240   25.4610   27.9730 C.ar      1 3ZH        -0.0686
     31 C24        33.4260   24.5540   28.4830 C.ar      1 3ZH        -0.0687
     32 C23        33.9370   23.5690   27.6670 C.ar      1 3ZH        -0.0686
     33 C22        33.5560   23.4980   26.3390 C.ar      1 3ZH        -0.0603
     34 C33        41.3310   27.6450   15.1940 C.2       1 3ZH         0.1782
     35 O5         42.1060   26.7690   15.5720 O.2       1 3ZH        -0.3969
     36 C34        41.5590   28.3900   13.9030 C.3       1 3ZH         0.0374
     37 C35        40.3150   28.4810   13.0330 C.3       1 3ZH        -0.0361
     38 C36        40.6430   28.8310   11.5910 C.3       1 3ZH        -0.0510
     39 C37        39.4460   28.8720   10.6570 C.3       1 3ZH        -0.0529
     40 C38        38.5570   30.0980   10.8190 C.3       1 3ZH        -0.0531
     41 C39        37.2570   29.8490   11.5630 C.3       1 3ZH        -0.0531
     42 C40        36.2920   28.9060   10.8530 C.3       1 3ZH        -0.0530
     43 C41        34.8630   28.9110   11.3750 C.3       1 3ZH        -0.0521
     44 C42        34.7140   29.1270   12.8780 C.3       1 3ZH        -0.0410
     45 N          36.8730   23.3170   14.0260 N.am      1 SER        -0.2612
     46 CA         36.7800   22.8280   12.6590 C.3       1 SER         0.1539
     47 C          35.6990   23.5350   11.8460 C.2       1 SER         0.2063
     48 O          34.9720   24.3770   12.3630 O.2       1 SER        -0.3943
     49 CB         36.5350   21.3210   12.6400 C.3       1 SER         0.0843
     50 OG         35.3610   20.9840   13.3660 O.3       1 SER        -0.3903
     51 N          35.6150   23.1880   10.5590 N.am      1 TPO        -0.2610
     52 CA         34.7580   23.8830    9.6160 C.3       1 TPO         0.1608
     53 CB         34.9840   23.3470    8.2020 C.3       1 TPO         0.1262
     54 CG2        34.2380   24.1200    7.1390 C.3       1 TPO        -0.0298
     55 OG1        36.4020   23.4550    7.9660 O.3       1 TPO        -0.2685
     56 P          37.4650   22.2470    7.7950 P.3       1 TPO         0.2014
     57 O1P        36.8750   21.4080    6.6810 O.co2     1 TPO        -0.5537
     58 O2P        38.8230   22.7950    7.4690 O.co2     1 TPO        -0.5537
     59 O3P        37.4730   21.4580    9.1190 O.co2     1 TPO        -0.5537
     60 C          33.2750   23.7140    9.9590 C.2       1 TPO         0.2021
     61 O          32.8930   22.6240   10.3930 O.2       1 TPO        -0.3946
     62 N          32.4680   24.7490    9.7780 N.am      1 NH2        -0.2989
     63 H1         39.6176   28.6734   15.5011 H         1 LEU         0.1883
     64 H2         40.9156   27.0192   17.5660 H         1 LEU         0.0800
     65 H3         39.1100   28.0182   19.0842 H         1 LEU         0.0315
     66 H4         38.8154   29.1700   17.7376 H         1 LEU         0.0315
     67 H5         40.2907   29.9881   19.5754 H         1 LEU         0.0298
     68 H6         42.6543   29.2715   19.6207 H         1 LEU         0.0232
     69 H7         42.2640   27.9585   18.4587 H         1 LEU         0.0232
     70 H8         41.5209   27.9609   20.0941 H         1 LEU         0.0232
     71 H9         40.3198   30.9985   17.3221 H         1 LEU         0.0232
     72 H10        41.6493   29.8840   16.8563 H         1 LEU         0.0232
     73 H11        41.9086   31.0984   18.1543 H         1 LEU         0.0232
     74 H12        38.1089   23.9925   16.2668 H         1 3ZH         0.0867
     75 H13        36.4013   25.0729   17.5867 H         1 3ZH         0.0803
     76 H14        35.6723   23.9915   16.3516 H         1 3ZH         0.0803
     77 H15        34.7707   25.4792   14.0155 H         1 3ZH         0.1313
     78 H16        38.5298   26.6467   15.2364 H         1 3ZH         0.1888
     79 H17        32.8540   28.7029   13.8597 H         1 3ZH         0.0412
     80 H18        33.4756   27.3760   12.8206 H         1 3ZH         0.0412
     81 H19        34.3649   29.1658   16.1094 H         1 3ZH         0.1877
     82 H20        35.9901   28.5983   18.1333 H         1 3ZH         0.0644
     83 H21        36.4687   26.8794   18.3405 H         1 3ZH         0.0644
     84 H22        33.9970   26.4172   18.8125 H         1 3ZH         0.0293
     85 H23        33.8069   28.1981   18.9498 H         1 3ZH         0.0293
     86 H24        35.2858   28.3002   20.8159 H         1 3ZH         0.0266
     87 H25        35.8123   26.5996   20.5765 H         1 3ZH         0.0266
     88 H26        33.4884   25.8588   21.0664 H         1 3ZH         0.0265
     89 H27        33.0523   27.5661   21.4155 H         1 3ZH         0.0265
     90 H28        35.0591   27.4038   23.1131 H         1 3ZH         0.0265
     91 H29        34.7453   25.6398   22.9845 H         1 3ZH         0.0265
     92 H30        32.7223   27.7723   23.7613 H         1 3ZH         0.0267
     93 H31        33.5823   26.6686   24.8878 H         1 3ZH         0.0267
     94 H32        31.8782   25.5956   22.6444 H         1 3ZH         0.0287
     95 H33        31.1412   26.1639   24.1808 H         1 3ZH         0.0287
     96 H34        33.1107   23.8846   23.7968 H         1 3ZH         0.0426
     97 H35        31.3724   23.7767   24.2366 H         1 3ZH         0.0426
     98 H36        31.4204   26.0998   26.2562 H         1 3ZH         0.0557
     99 H37        32.1153   26.2349   28.6126 H         1 3ZH         0.0599
    100 H38        33.7322   24.6149   29.5211 H         1 3ZH         0.0559
    101 H39        34.6400   22.8471   28.0667 H         1 3ZH         0.0599
    102 H40        33.9642   22.7187   25.7056 H         1 3ZH         0.0557
    103 H41        42.3452   27.8713   13.3348 H         1 3ZH         0.0502
    104 H42        41.8925   29.4104   14.1430 H         1 3ZH         0.0502
    105 H43        39.6525   29.2574   13.4433 H         1 3ZH         0.0290
    106 H44        39.7982   27.5102   13.0524 H         1 3ZH         0.0290
    107 H45        41.3496   28.0796   11.2088 H         1 3ZH         0.0267
    108 H46        41.1200   29.8221   11.5795 H         1 3ZH         0.0267
    109 H47        38.8340   27.9773   10.8441 H         1 3ZH         0.0265
    110 H48        39.8176   28.8521    9.6219 H         1 3ZH         0.0265
    111 H49        38.3100   30.4764    9.8161 H         1 3ZH         0.0265
    112 H50        39.1252   30.8622   11.3696 H         1 3ZH         0.0265
    113 H51        36.7513   30.8156   11.7038 H         1 3ZH         0.0265
    114 H52        37.5005   29.4161   12.5445 H         1 3ZH         0.0265
    115 H53        36.6845   27.8832   10.9516 H         1 3ZH         0.0265
    116 H54        36.2647   29.1874    9.7900 H         1 3ZH         0.0265
    117 H55        34.4074   27.9415   11.1251 H         1 3ZH         0.0266
    118 H56        34.3172   29.7160   10.8611 H         1 3ZH         0.0266
    119 H57        35.7033   29.0118   13.3448 H         1 3ZH         0.0275
    120 H58        34.3457   30.1497   13.0467 H         1 3ZH         0.0275
    121 H59        36.5061   22.7560   14.7681 H         1 SER         0.1884
    122 H60        37.7464   23.0238   12.1715 H         1 SER         0.0823
    123 H61        37.3972   20.8112   13.0947 H         1 SER         0.0606
    124 H62        36.4204   20.9888   11.5976 H         1 SER         0.0606
    125 H63        34.6124   21.4189   12.9749 H         1 SER         0.2097
    126 H64        36.1643   22.4189   10.2321 H         1 TPO         0.1884
    127 H65        35.0089   24.9537    9.6413 H         1 TPO         0.0830
    128 H66        34.6703   22.2937    8.1565 H         1 TPO         0.0695
    129 H67        34.4464   23.6809    6.1522 H         1 TPO         0.0260
    130 H68        34.5669   25.1696    7.1501 H         1 TPO         0.0260
    131 H69        33.1578   24.0721    7.3409 H         1 TPO         0.0260
    132 H70        31.4948   24.6679    9.9934 H         1 NH2         0.1815
    133 H71        32.8320   25.6113    9.4260 H         1 NH2         0.1815
@<TRIPOS>BOND
     1    2    1 1  
     2    1   34 am 
     3    3    2 1  
     4    2    5 1  
     5    3    4 2  
     6   14    3 am 
     7    5    6 1  
     8    6    7 1  
     9    6    8 1  
    10    9   10 1  
    11   11    9 1  
    12    9   14 1  
    13   10   13 2  
    14   10   45 am 
    15   19   11 1  
    16   12   16 1  
    17   12   19 2  
    18   16   15 1  
    19   15   44 1  
    20   16   17 2  
    21   17   18 1  
    22   18   19 1  
    23   18   20 1  
    24   20   21 1  
    25   21   22 1  
    26   22   23 1  
    27   23   24 1  
    28   24   25 1  
    29   25   26 1  
    30   26   27 1  
    31   27   28 1  
    32   28   29 ar 
    33   28   33 ar 
    34   29   30 ar 
    35   30   31 ar 
    36   31   32 ar 
    37   32   33 ar 
    38   34   35 2  
    39   34   36 1  
    40   36   37 1  
    41   37   38 1  
    42   38   39 1  
    43   39   40 1  
    44   40   41 1  
    45   41   42 1  
    46   42   43 1  
    47   43   44 1  
    48   45   46 1  
    49   46   47 1  
    50   46   49 1  
    51   47   48 2  
    52   47   51 am 
    53   49   50 1  
    54   51   52 1  
    55   52   53 1  
    56   52   60 1  
    57   53   54 1  
    58   53   55 1  
    59   55   56 1  
    60   56   57 ar 
    61   56   58 ar 
    62   56   59 ar 
    63   60   61 2  
    64   60   62 am 
    65    1   63 1  
    66    2   64 1  
    67    5   65 1  
    68    5   66 1  
    69    6   67 1  
    70    7   68 1  
    71    7   69 1  
    72    7   70 1  
    73    8   71 1  
    74    8   72 1  
    75    8   73 1  
    76    9   74 1  
    77   11   75 1  
    78   11   76 1  
    79   12   77 1  
    80   14   78 1  
    81   15   79 1  
    82   15   80 1  
    83   17   81 1  
    84   20   82 1  
    85   20   83 1  
    86   21   84 1  
    87   21   85 1  
    88   22   86 1  
    89   22   87 1  
    90   23   88 1  
    91   23   89 1  
    92   24   90 1  
    93   24   91 1  
    94   25   92 1  
    95   25   93 1  
    96   26   94 1  
    97   26   95 1  
    98   27   96 1  
    99   27   97 1  
   100   29   98 1  
   101   30   99 1  
   102   31  100 1  
   103   32  101 1  
   104   33  102 1  
   105   36  103 1  
   106   36  104 1  
   107   37  105 1  
   108   37  106 1  
   109   38  107 1  
   110   38  108 1  
   111   39  109 1  
   112   39  110 1  
   113   40  111 1  
   114   40  112 1  
   115   41  113 1  
   116   41  114 1  
   117   42  115 1  
   118   42  116 1  
   119   43  117 1  
   120   43  118 1  
   121   44  119 1  
   122   44  120 1  
   123   45  121 1  
   124   46  122 1  
   125   49  123 1  
   126   49  124 1  
   127   50  125 1  
   128   51  126 1  
   129   52  127 1  
   130   53  128 1  
   131   54  129 1  
   132   54  130 1  
   133   54  131 1  
   134   62  132 1  
   135   62  133 1  
@<TRIPOS>SUBSTRUCTURE
     1 LEU         1

