4x9w_ligand
  -I-interpret- 

135137  0  0  0  0  0  0  0  0999 V2000
   40.2490   28.0030   15.8910 N   0  0  0  0  0
   39.9660   27.4410   17.2050 C   0  0  0  0  0
   38.9750   26.2780   17.1720 C   0  0  0  0  0
   38.7660   25.6170   18.1840 O   0  0  0  0  0
   39.5630   28.5210   18.2170 C   0  0  0  0  0
   40.6970   29.4120   18.7310 C   0  0  0  0  0
   41.8650   28.5940   19.2630 C   0  0  0  0  0
   41.1770   30.4180   17.6940 C   0  0  0  0  0
   37.5730   24.8320   15.8000 C   0  0  0  0  0
   37.4340   24.4930   14.3190 C   0  0  0  0  0
   36.2200   24.9320   16.5110 C   0  0  0  0  0
   34.8320   26.2320   14.8000 C   0  0  0  0  0
   37.8170   25.2880   13.4620 O   0  0  0  0  0
   38.3950   26.0140   15.9990 N   0  0  0  0  0
   33.7550   28.1570   13.5430 C   0  0  0  0  0
   34.3730   27.5240   14.7210 N   0  3  0  0  0
   34.6190   28.1340   15.8710 C   0  0  0  0  0
   35.2300   27.2740   16.6890 N   0  0  0  0  0
   35.3710   26.0640   16.0210 C   0  0  0  0  0
   35.6440   27.5560   18.0720 C   0  0  0  0  0
   34.5100   27.3590   19.0570 C   0  0  0  0  0
   34.9640   27.2960   20.5030 C   0  0  0  0  0
   33.8640   26.8240   21.4370 C   0  0  0  0  0
   34.3020   26.6410   22.8790 C   0  0  0  0  0
   33.1630   26.7710   23.8760 C   0  0  0  0  0
   32.0480   25.7440   23.7210 C   0  0  0  0  0
   32.2910   24.3720   24.3450 C   0  0  0  0  0
   32.6590   24.4110   25.8090 C   0  0  0  0  0
   32.1380   25.3870   26.6460 C   0  0  0  0  0
   32.5240   25.4610   27.9730 C   0  0  0  0  0
   33.4260   24.5540   28.4830 C   0  0  0  0  0
   33.9370   23.5690   27.6670 C   0  0  0  0  0
   33.5560   23.4980   26.3390 C   0  0  0  0  0
   41.3310   27.6450   15.1940 C   0  0  0  0  0
   42.1060   26.7690   15.5720 O   0  0  0  0  0
   41.5590   28.3900   13.9030 C   0  0  0  0  0
   40.3150   28.4810   13.0330 C   0  0  0  0  0
   40.6430   28.8310   11.5910 C   0  0  0  0  0
   39.4460   28.8720   10.6570 C   0  0  0  0  0
   38.5570   30.0980   10.8190 C   0  0  0  0  0
   37.2570   29.8490   11.5630 C   0  0  0  0  0
   36.2920   28.9060   10.8530 C   0  0  0  0  0
   34.8630   28.9110   11.3750 C   0  0  0  0  0
   34.7140   29.1270   12.8780 C   0  0  0  0  0
   36.8730   23.3170   14.0260 N   0  0  0  0  0
   36.7800   22.8280   12.6590 C   0  0  0  0  0
   35.6990   23.5350   11.8460 C   0  0  0  0  0
   34.9720   24.3770   12.3630 O   0  0  0  0  0
   36.5350   21.3210   12.6400 C   0  0  0  0  0
   35.3610   20.9840   13.3660 O   0  0  0  0  0
   35.6150   23.1880   10.5590 N   0  0  0  0  0
   34.7580   23.8830    9.6160 C   0  0  0  0  0
   34.9840   23.3470    8.2020 C   0  0  0  0  0
   34.2380   24.1200    7.1390 C   0  0  0  0  0
   36.4020   23.4550    7.9660 O   0  0  0  0  0
   37.4650   22.2470    7.7950 P   0  0  0  0  0
   36.8750   21.4080    6.6810 O   0  0  0  0  0
   38.8230   22.7950    7.4690 O   0  0  0  0  0
   37.4730   21.4580    9.1190 O   0  0  0  0  0
   33.2750   23.7140    9.9590 C   0  0  0  0  0
   32.8930   22.6240   10.3930 O   0  0  0  0  0
   32.4680   24.7490    9.7780 N   0  0  0  0  0
   39.6050   28.6868   15.4933 H   0  0  0  0  0
   40.9056   27.0100   17.5507 H   0  0  0  0  0
   39.1677   27.9952   19.0861 H   0  0  0  0  0
   38.8646   29.1799   17.7011 H   0  0  0  0  0
   40.2729   29.9807   19.5585 H   0  0  0  0  0
   42.3355   28.0566   18.4396 H   0  0  0  0  0
   42.5925   29.2605   19.7264 H   0  0  0  0  0
   41.5006   27.8811   20.0027 H   0  0  0  0  0
   41.9018   31.0915   18.1513 H   0  0  0  0  0
   41.6448   29.8877   16.8645 H   0  0  0  0  0
   40.3268   30.9925   17.3263 H   0  0  0  0  0
   38.0930   23.9973   16.2701 H   0  0  0  0  0
   36.4175   25.1043   17.5690 H   0  0  0  0  0
   35.6777   24.0069   16.3156 H   0  0  0  0  0
   34.7706   25.4785   14.0148 H   0  0  0  0  0
   38.5325   26.6594   15.2212 H   0  0  0  0  0
   32.8709   28.7067   13.8660 H   0  0  0  0  0
   33.4930   27.3789   12.8261 H   0  0  0  0  0
   34.3647   29.1667   16.1097 H   0  0  0  0  0
   35.9645   28.5964   18.1258 H   0  0  0  0  0
   36.4462   26.8663   18.3344 H   0  0  0  0  0
   34.0355   26.4062   18.8221 H   0  0  0  0  0
   33.8424   28.2153   18.9616 H   0  0  0  0  0
   35.2564   28.3008   20.8080 H   0  0  0  0  0
   35.7876   26.5848   20.5665 H   0  0  0  0  0
   33.5343   25.8496   21.0765 H   0  0  0  0  0
   33.0895   27.5909   21.4327 H   0  0  0  0  0
   35.0270   27.4232   23.1042 H   0  0  0  0  0
   34.7087   25.6342   22.9738 H   0  0  0  0  0
   32.7128   27.7501   23.7123 H   0  0  0  0  0
   33.5936   26.6198   24.8659 H   0  0  0  0  0
   31.9429   25.5731   22.6496 H   0  0  0  0  0
   31.1820   26.1598   24.2360 H   0  0  0  0  0
   33.1312   23.9231   23.8151 H   0  0  0  0  0
   31.3587   23.8132   24.2636 H   0  0  0  0  0
   31.4164   26.1038   26.2540 H   0  0  0  0  0
   32.1130   26.2392   28.6161 H   0  0  0  0  0
   33.7339   24.6152   29.5268 H   0  0  0  0  0
   34.6439   22.8431   28.0689 H   0  0  0  0  0
   33.9664   22.7144   25.7021 H   0  0  0  0  0
   42.3167   27.8465   13.3385 H   0  0  0  0  0
   41.8578   29.4068   14.1578 H   0  0  0  0  0
   39.6782   29.2688   13.4354 H   0  0  0  0  0
   39.8249   27.5074   13.0413 H   0  0  0  0  0
   41.3075   28.0509   11.2195 H   0  0  0  0  0
   41.0728   29.8327   11.5985 H   0  0  0  0  0
   38.8323   28.0013   10.8880 H   0  0  0  0  0
   39.8369   28.8947    9.6398 H   0  0  0  0  0
   38.2887   30.4288    9.8157 H   0  0  0  0  0
   39.1223   30.8233   11.4042 H   0  0  0  0  0
   36.7529   30.8111   11.6548 H   0  0  0  0  0
   37.5177   29.3823   12.5129 H   0  0  0  0  0
   36.6746   27.8973   11.0088 H   0  0  0  0  0
   36.2434   29.2369    9.8156 H   0  0  0  0  0
   34.4506   27.9251   11.1606 H   0  0  0  0  0
   34.3580   29.7462   10.8897 H   0  0  0  0  0
   35.6952   28.9743   13.3276 H   0  0  0  0  0
   34.3152   30.1308   13.0245 H   0  0  0  0  0
   36.4987   22.7448   14.7829 H   0  0  0  0  0
   37.7380   23.0513   12.1894 H   0  0  0  0  0
   37.3867   20.8235   13.1039 H   0  0  0  0  0
   36.4090   21.0013   11.6056 H   0  0  0  0  0
   35.2308   20.0333   13.3382 H   0  0  0  0  0
   36.1753   22.4036   10.2256 H   0  0  0  0  0
   35.0168   24.9403    9.6735 H   0  0  0  0  0
   34.6107   22.3249    8.1390 H   0  0  0  0  0
   33.1678   24.0718    7.3402 H   0  0  0  0  0
   34.5648   25.1598    7.1511 H   0  0  0  0  0
   34.4453   23.6840    6.1617 H   0  0  0  0  0
   36.0103   21.0871    6.9472 H   0  0  0  0  0
   36.5909   21.1229    9.2958 H   0  0  0  0  0
   31.4760   24.6673   10.0009 H   0  0  0  0  0
   32.8387   25.6275    9.4158 H   0  0  0  0  0
  2  1  1  0  0  0
  1 34  1  0  0  0
  3  2  1  0  0  0
  2  5  1  0  0  0
  3  4  2  0  0  0
 14  3  1  0  0  0
  5  6  1  0  0  0
  6  7  1  0  0  0
  6  8  1  0  0  0
  9 10  1  0  0  0
 11  9  1  0  0  0
  9 14  1  0  0  0
 10 13  2  0  0  0
 10 45  1  0  0  0
 19 11  1  0  0  0
 12 16  4  0  0  0
 12 19  4  0  0  0
 16 15  1  0  0  0
 15 44  1  0  0  0
 16 17  4  0  0  0
 17 18  4  0  0  0
 18 19  4  0  0  0
 18 20  1  0  0  0
 20 21  1  0  0  0
 21 22  1  0  0  0
 22 23  1  0  0  0
 23 24  1  0  0  0
 24 25  1  0  0  0
 25 26  1  0  0  0
 26 27  1  0  0  0
 27 28  1  0  0  0
 28 29  4  0  0  0
 28 33  4  0  0  0
 29 30  4  0  0  0
 30 31  4  0  0  0
 31 32  4  0  0  0
 32 33  4  0  0  0
 34 35  2  0  0  0
 34 36  1  0  0  0
 36 37  1  0  0  0
 37 38  1  0  0  0
 38 39  1  0  0  0
 39 40  1  0  0  0
 40 41  1  0  0  0
 41 42  1  0  0  0
 42 43  1  0  0  0
 43 44  1  0  0  0
 45 46  1  0  0  0
 46 47  1  0  0  0
 46 49  1  0  0  0
 47 48  2  0  0  0
 47 51  1  0  0  0
 49 50  1  0  0  0
 51 52  1  0  0  0
 52 53  1  0  0  0
 52 60  1  0  0  0
 53 54  1  0  0  0
 53 55  1  0  0  0
 55 56  1  0  0  0
 56 57  1  0  0  0
 56 58  2  0  0  0
 56 59  1  0  0  0
 60 61  2  0  0  0
 60 62  1  0  0  0
  1 63  1  0  0  0
  2 64  1  0  0  0
  5 65  1  0  0  0
  5 66  1  0  0  0
  6 67  1  0  0  0
  7 68  1  0  0  0
  7 69  1  0  0  0
  7 70  1  0  0  0
  8 71  1  0  0  0
  8 72  1  0  0  0
  8 73  1  0  0  0
  9 74  1  0  0  0
 11 75  1  0  0  0
 11 76  1  0  0  0
 12 77  1  0  0  0
 14 78  1  0  0  0
 15 79  1  0  0  0
 15 80  1  0  0  0
 17 81  1  0  0  0
 20 82  1  0  0  0
 20 83  1  0  0  0
 21 84  1  0  0  0
 21 85  1  0  0  0
 22 86  1  0  0  0
 22 87  1  0  0  0
 23 88  1  0  0  0
 23 89  1  0  0  0
 24 90  1  0  0  0
 24 91  1  0  0  0
 25 92  1  0  0  0
 25 93  1  0  0  0
 26 94  1  0  0  0
 26 95  1  0  0  0
 27 96  1  0  0  0
 27 97  1  0  0  0
 29 98  1  0  0  0
 30 99  1  0  0  0
 31100  1  0  0  0
 32101  1  0  0  0
 33102  1  0  0  0
 36103  1  0  0  0
 36104  1  0  0  0
 37105  1  0  0  0
 37106  1  0  0  0
 38107  1  0  0  0
 38108  1  0  0  0
 39109  1  0  0  0
 39110  1  0  0  0
 40111  1  0  0  0
 40112  1  0  0  0
 41113  1  0  0  0
 41114  1  0  0  0
 42115  1  0  0  0
 42116  1  0  0  0
 43117  1  0  0  0
 43118  1  0  0  0
 44119  1  0  0  0
 44120  1  0  0  0
 45121  1  0  0  0
 46122  1  0  0  0
 49123  1  0  0  0
 49124  1  0  0  0
 50125  1  0  0  0
 51126  1  0  0  0
 52127  1  0  0  0
 53128  1  0  0  0
 54129  1  0  0  0
 54130  1  0  0  0
 54131  1  0  0  0
 57132  1  0  0  0
 59133  1  0  0  0
 62134  1  0  0  0
 62135  1  0  0  0
M  END
$$$$
