5ajy_ligand
  -I-interpret- 

 46 49  0  0  0  0  0  0  0  0999 V2000
  -35.8970  -42.5390  -12.3990 C   0  0  0  0  0
  -37.2750  -42.4580  -11.9240 N   0  0  0  0  0
  -41.2450  -37.1310  -13.3220 O   0  0  0  0  0
  -38.3690  -42.1700  -12.6400 C   0  0  0  0  0
  -37.5590  -42.7060  -10.6240 N   0  0  0  0  0
  -40.0820  -36.9030  -19.7590 O   0  0  0  0  0
  -39.4450  -42.2380  -11.7750 C   0  0  0  0  0
  -43.0810  -42.2000  -12.2720 N   0  0  0  0  0
  -38.8720  -42.5560  -10.5300 C   0  0  0  0  0
  -40.8360  -35.1360  -18.5210 N   0  0  0  0  0
  -40.8580  -41.9440  -12.0590 C   0  0  0  0  0
  -39.6120  -35.2240  -21.9130 N   0  3  0  0  0
  -41.9080  -42.8250  -11.9500 C   0  0  0  0  0
  -42.8200  -40.8850  -12.5820 C   0  0  0  0  0
  -41.4350  -40.6760  -12.4450 C   0  0  0  0  0
  -40.9130  -39.4100  -12.7020 C   0  0  0  0  0
  -41.7810  -38.3870  -13.0680 C   0  0  0  0  0
  -43.1560  -38.5930  -13.1690 C   0  0  0  0  0
  -43.6830  -39.8560  -12.9580 C   0  0  0  0  0
  -41.1640  -36.6760  -14.6350 C   0  0  0  0  0
  -41.0000  -37.5580  -15.6970 C   0  0  0  0  0
  -40.9110  -37.0670  -16.9870 C   0  0  0  0  0
  -40.9270  -35.6930  -17.2200 C   0  0  0  0  0
  -41.1030  -34.8210  -16.1490 C   0  0  0  0  0
  -41.2030  -35.3090  -14.8580 C   0  0  0  0  0
  -40.4990  -35.7480  -19.6780 C   0  0  0  0  0
  -40.6480  -34.9250  -20.9750 C   0  0  0  0  0
  -35.8240  -43.3069  -13.1691 H   0  0  0  0  0
  -35.6002  -41.5762  -12.8149 H   0  0  0  0  0
  -35.2414  -42.7942  -11.5664 H   0  0  0  0  0
  -38.4044  -41.9281  -13.7022 H   0  0  0  0  0
  -39.4373  -42.6652   -9.6044 H   0  0  0  0  0
  -41.0537  -34.1421  -18.5931 H   0  0  0  0  0
  -39.7442  -34.6625  -22.7542 H   0  0  0  0  0
  -38.7059  -35.0079  -21.4974 H   0  0  0  0  0
  -39.6491  -36.2143  -22.1545 H   0  0  0  0  0
  -41.8185  -43.8693  -11.6506 H   0  0  0  0  0
  -39.8422  -39.2245  -12.6176 H   0  0  0  0  0
  -43.8157  -37.7606  -13.4139 H   0  0  0  0  0
  -44.7497  -40.0420  -13.0831 H   0  0  0  0  0
  -40.9419  -38.6310  -15.5140 H   0  0  0  0  0
  -40.8279  -37.7582  -17.8257 H   0  0  0  0  0
  -41.1624  -33.7475  -16.3285 H   0  0  0  0  0
  -41.3120  -34.6208  -14.0198 H   0  0  0  0  0
  -41.6063  -35.1735  -21.4311 H   0  0  0  0  0
  -40.5851  -33.8672  -20.7196 H   0  0  0  0  0
  2  1  1  0  0  0
  4  2  4  0  0  0
  5  2  4  0  0  0
  3 17  1  0  0  0
 20  3  1  0  0  0
  7  4  4  0  0  0
  9  5  4  0  0  0
 26  6  2  0  0  0
  7  9  4  0  0  0
 11  7  1  0  0  0
  8 13  4  0  0  0
 14  8  4  0  0  0
 10 23  1  0  0  0
 26 10  1  0  0  0
 11 13  4  0  0  0
 15 11  4  0  0  0
 27 12  1  0  0  0
 15 14  4  0  0  0
 19 14  4  0  0  0
 16 15  4  0  0  0
 17 16  4  0  0  0
 17 18  4  0  0  0
 18 19  4  0  0  0
 21 20  4  0  0  0
 25 20  4  0  0  0
 22 21  4  0  0  0
 23 22  4  0  0  0
 23 24  4  0  0  0
 24 25  4  0  0  0
 26 27  1  0  0  0
  1 28  1  0  0  0
  1 29  1  0  0  0
  1 30  1  0  0  0
  4 31  1  0  0  0
  9 32  1  0  0  0
 10 33  1  0  0  0
 12 34  1  0  0  0
 12 35  1  0  0  0
 12 36  1  0  0  0
 13 37  1  0  0  0
 16 38  1  0  0  0
 18 39  1  0  0  0
 19 40  1  0  0  0
 21 41  1  0  0  0
 22 42  1  0  0  0
 24 43  1  0  0  0
 25 44  1  0  0  0
 27 45  1  0  0  0
 27 46  1  0  0  0
M  END
$$$$
