2qo8_ligand
  -I-interpret- 

 49 50  0  0  0  0  0  0  0  0999 V2000
   -4.1360    2.5460   15.0980 C   0  0  0  0  0
   -5.3780    2.4270   15.7410 C   0  0  0  0  0
   -6.3370    3.4800   15.7110 C   0  0  0  0  0
   -6.0410    4.6680   15.0240 C   0  0  0  0  0
   -3.8470    3.7650   14.4010 C   0  0  0  0  0
   -4.8280    4.7930   14.3920 C   0  0  0  0  0
   -4.2810    5.9060   13.6180 C   0  0  0  0  0
   -3.2090    5.3530   12.8240 C   0  0  0  0  0
   -2.6640    4.2220   13.6290 C   0  0  0  0  0
   -5.8200    0.9510   16.6350 S   0  0  0  0  0
   -5.2710    1.0780   17.9540 O   0  0  0  0  0
   -7.2490    0.8090   16.5010 O   0  0  0  0  0
   -5.1460   -0.3060   15.9840 N   0  0  0  0  0
   -2.1590    6.3770   12.5290 N   0  0  0  0  0
   -2.3190    7.4950   11.7640 C   0  0  0  0  0
   -3.4470    7.6510   11.2820 O   0  0  0  0  0
   -1.2010    8.5590   11.4660 C   0  0  0  0  0
   -0.5330    9.0940   12.7750 C   0  0  0  0  0
   -1.4750    9.6020   13.8930 C   0  0  0  0  0
   -0.8660    9.3860   15.2820 C   0  0  0  0  0
   -0.1390    7.9690   10.4650 C   0  0  0  0  0
   -0.6710    7.3110    9.1660 C   0  0  0  0  0
   -0.6590    8.2810    7.9780 C   0  0  0  0  0
   -3.4104    1.7331   15.1278 H   0  0  0  0  0
   -7.2947    3.3640   16.2183 H   0  0  0  0  0
   -6.7655    5.4818   14.9925 H   0  0  0  0  0
   -3.9183    6.6995   14.2714 H   0  0  0  0  0
   -5.0450    6.3598   12.9868 H   0  0  0  0  0
   -3.5637    5.0157   11.8501 H   0  0  0  0  0
   -2.2301    3.4343   13.0131 H   0  0  0  0  0
   -1.8311    4.5186   14.2665 H   0  0  0  0  0
   -4.4593   -0.8464   16.5101 H   0  0  0  0  0
   -5.3942   -0.5834   15.0343 H   0  0  0  0  0
   -1.2371    6.2249   12.9382 H   0  0  0  0  0
   -1.6744    9.4191   10.9925 H   0  0  0  0  0
    0.0604    9.9570   12.4731 H   0  0  0  0  0
    0.0026    8.2461   13.2019 H   0  0  0  0  0
   -2.4103    9.0451   13.8358 H   0  0  0  0  0
   -1.6365   10.6703   13.7493 H   0  0  0  0  0
   -0.6875    8.3220   15.4376 H   0  0  0  0  0
    0.0771    9.9280   15.3521 H   0  0  0  0  0
   -1.5558    9.7548   16.0411 H   0  0  0  0  0
    0.3694    7.1740   11.0105 H   0  0  0  0  0
    0.4620    8.8181   10.1397 H   0  0  0  0  0
   -1.7014    7.0012    9.3403 H   0  0  0  0  0
   -0.0232    6.4689    8.9226 H   0  0  0  0  0
   -1.2898    9.1403    8.2058 H   0  0  0  0  0
    0.3618    8.6164    7.7947 H   0  0  0  0  0
   -1.0405    7.7733    7.0921 H   0  0  0  0  0
  1  2  4  0  0  0
  1  5  4  0  0  0
  2  3  4  0  0  0
  2 10  1  0  0  0
  3  4  4  0  0  0
  4  6  4  0  0  0
  5  6  4  0  0  0
  5  9  1  0  0  0
  6  7  1  0  0  0
  7  8  1  0  0  0
  8  9  1  0  0  0
  8 14  1  0  0  0
 10 11  2  0  0  0
 10 12  2  0  0  0
 10 13  1  0  0  0
 14 15  1  0  0  0
 15 16  2  0  0  0
 15 17  1  0  0  0
 17 18  1  0  0  0
 17 21  1  0  0  0
 18 19  1  0  0  0
 19 20  1  0  0  0
 21 22  1  0  0  0
 22 23  1  0  0  0
  1 24  1  0  0  0
  3 25  1  0  0  0
  4 26  1  0  0  0
  7 27  1  0  0  0
  7 28  1  0  0  0
  8 29  1  0  0  0
  9 30  1  0  0  0
  9 31  1  0  0  0
 13 32  1  0  0  0
 13 33  1  0  0  0
 14 34  1  0  0  0
 17 35  1  0  0  0
 18 36  1  0  0  0
 18 37  1  0  0  0
 19 38  1  0  0  0
 19 39  1  0  0  0
 20 40  1  0  0  0
 20 41  1  0  0  0
 20 42  1  0  0  0
 21 43  1  0  0  0
 21 44  1  0  0  0
 22 45  1  0  0  0
 22 46  1  0  0  0
 23 47  1  0  0  0
 23 48  1  0  0  0
 23 49  1  0  0  0
M  END
$$$$
