### 
### Created by X-TOOL on Mon Sep 10 21:13:24 2018
### 

@<TRIPOS>MOLECULE
3x1k_ligand
   44    46     1     0     0
SMALL
GAST_HUCK


@<TRIPOS>ATOM
      1 PG        -28.4440  -18.2610  -21.4820 P.3       1 ANP         0.1803
      2 O1G       -29.4350  -17.4170  -22.3200 O.co2     1 ANP        -0.5454
      3 O2G       -29.0640  -19.6730  -21.1520 O.co2     1 ANP        -0.5454
      4 O3G       -28.1160  -17.5070  -20.1630 O.co2     1 ANP        -0.5454
      5 PB        -26.5160  -17.5280  -23.5030 P.3       1 ANP         0.2543
      6 O1B       -27.6990  -17.2520  -24.4620 O.co2     1 ANP        -0.6257
      7 O2B       -25.3500  -18.2000  -24.2860 O.co2     1 ANP        -0.6257
      8 N3B       -26.9860  -18.5040  -22.2810 N.am      1 ANP        -0.1803
      9 PA        -24.9620  -15.2350  -23.5080 P.3       1 ANP         0.2949
     10 O1A       -24.6070  -15.6450  -24.9960 O.co2     1 ANP        -0.6129
     11 O2A       -25.5840  -13.8520  -23.4470 O.co2     1 ANP        -0.6129
     12 O3A       -26.0650  -16.1810  -22.8730 O.3       1 ANP        -0.1431
     13 O5'       -23.6460  -15.3600  -22.5140 O.3       1 ANP        -0.2478
     14 C5'       -22.3450  -14.8890  -22.8720 C.3       1 ANP         0.1128
     15 C4'       -21.3680  -15.4270  -22.0120 C.3       1 ANP         0.1189
     16 O4'       -21.4720  -15.0450  -20.5600 O.3       1 ANP        -0.3364
     17 C3'       -21.3600  -17.0480  -21.9770 C.3       1 ANP         0.1149
     18 O3'       -19.9190  -17.4670  -21.9160 O.3       1 ANP        -0.3864
     19 C2'       -22.0140  -17.3380  -20.9830 C.3       1 ANP         0.1385
     20 O2'       -21.7550  -18.6930  -20.3210 O.3       1 ANP        -0.3836
     21 C1'       -21.7910  -16.1320  -19.8880 C.3       1 ANP         0.2010
     22 N9        -22.9480  -15.9150  -19.1410 N.pl3     1 ANP        -0.1919
     23 C8        -24.2560  -15.7580  -19.2700 C.2       1 ANP         0.1123
     24 N7        -24.7660  -15.5450  -18.0400 N.2       1 ANP        -0.2958
     25 C5        -23.7600  -15.5600  -17.1450 C.ar      1 ANP         0.1045
     26 C6        -23.7900  -15.3810  -15.7410 C.ar      1 ANP         0.1298
     27 N6        -24.9090  -15.1330  -14.8860 N.pl3     1 ANP        -0.3152
     28 N1        -22.6560  -15.4350  -15.0440 N.ar      1 ANP        -0.2698
     29 C2        -21.4680  -15.6730  -15.7130 C.ar      1 ANP         0.0533
     30 N3        -21.4200  -15.8480  -17.0880 N.ar      1 ANP        -0.2714
     31 C4        -22.6080  -15.7870  -17.8080 C.ar      1 ANP         0.1613
     32 H1        -26.3946  -19.2609  -22.0028 H         1 ANP         0.2132
     33 H2        -22.3254  -13.7916  -22.7994 H         1 ANP         0.0648
     34 H3        -22.1228  -15.1922  -23.9058 H         1 ANP         0.0648
     35 H4        -20.3967  -15.0760  -22.3907 H         1 ANP         0.0651
     36 H5        -21.8310  -17.4751  -22.8746 H         1 ANP         0.0648
     37 H6        -19.8668  -18.4153  -21.8938 H         1 ANP         0.2100
     38 H7        -23.0709  -17.3407  -21.2878 H         1 ANP         0.0676
     39 H8        -20.8481  -18.7397  -20.0421 H         1 ANP         0.2101
     40 H9        -20.9705  -16.4008  -19.2065 H         1 ANP         0.0996
     41 H10       -24.8188  -15.7943  -20.2016 H         1 ANP         0.1349
     42 H11       -24.7679  -15.0242  -13.8715 H         1 ANP         0.1820
     43 H12       -25.8562  -15.0631  -15.2846 H         1 ANP         0.1820
     44 H13       -20.5464  -15.7242  -15.1446 H         1 ANP         0.0996
@<TRIPOS>BOND
     1    1    2 ar 
     2    1    3 ar 
     3    1    4 ar 
     4    8    1 am 
     5    5    6 ar 
     6    5    7 ar 
     7    5    8 1  
     8   12    5 1  
     9    9   10 ar 
    10    9   11 ar 
    11    9   12 1  
    12    9   13 1  
    13   13   14 1  
    14   14   15 1  
    15   15   16 1  
    16   15   17 1  
    17   16   21 1  
    18   17   18 1  
    19   17   19 1  
    20   19   20 1  
    21   19   21 1  
    22   21   22 1  
    23   22   23 1  
    24   22   31 1  
    25   23   24 2  
    26   24   25 1  
    27   25   26 ar 
    28   25   31 ar 
    29   26   27 1  
    30   26   28 ar 
    31   28   29 ar 
    32   29   30 ar 
    33   30   31 ar 
    34    8   32 1  
    35   14   33 1  
    36   14   34 1  
    37   15   35 1  
    38   17   36 1  
    39   18   37 1  
    40   19   38 1  
    41   20   39 1  
    42   21   40 1  
    43   23   41 1  
    44   27   42 1  
    45   27   43 1  
    46   29   44 1  
@<TRIPOS>SUBSTRUCTURE
     1 ANP         1

