3x1k_ligand
  -I-interpret- 

 48 50  0  0  0  0  0  0  0  0999 V2000
  -28.4440  -18.2610  -21.4820 P   0  0  0  0  0
  -29.4350  -17.4170  -22.3200 O   0  0  0  0  0
  -29.0640  -19.6730  -21.1520 O   0  0  0  0  0
  -28.1160  -17.5070  -20.1630 O   0  0  0  0  0
  -26.5160  -17.5280  -23.5030 P   0  0  0  0  0
  -27.6990  -17.2520  -24.4620 O   0  0  0  0  0
  -25.3500  -18.2000  -24.2860 O   0  0  0  0  0
  -26.9860  -18.5040  -22.2810 N   0  0  0  0  0
  -24.9620  -15.2350  -23.5080 P   0  0  0  0  0
  -24.6070  -15.6450  -24.9960 O   0  0  0  0  0
  -25.5840  -13.8520  -23.4470 O   0  0  0  0  0
  -26.0650  -16.1810  -22.8730 O   0  0  0  0  0
  -23.6460  -15.3600  -22.5140 O   0  0  0  0  0
  -22.3450  -14.8890  -22.8720 C   0  0  0  0  0
  -21.3680  -15.4270  -22.0120 C   0  0  0  0  0
  -21.4720  -15.0450  -20.5600 O   0  0  0  0  0
  -21.3600  -17.0480  -21.9770 C   0  0  0  0  0
  -19.9190  -17.4670  -21.9160 O   0  0  0  0  0
  -22.0140  -17.3380  -20.9830 C   0  0  0  0  0
  -21.7550  -18.6930  -20.3210 O   0  0  0  0  0
  -21.7910  -16.1320  -19.8880 C   0  0  0  0  0
  -22.9480  -15.9150  -19.1410 N   0  0  0  0  0
  -24.2560  -15.7580  -19.2700 C   0  0  0  0  0
  -24.7660  -15.5450  -18.0400 N   0  0  0  0  0
  -23.7600  -15.5600  -17.1450 C   0  0  0  0  0
  -23.7900  -15.3810  -15.7410 C   0  0  0  0  0
  -24.9090  -15.1330  -14.8860 N   0  0  0  0  0
  -22.6560  -15.4350  -15.0440 N   0  0  0  0  0
  -21.4680  -15.6730  -15.7130 C   0  0  0  0  0
  -21.4200  -15.8480  -17.0880 N   0  0  0  0  0
  -22.6080  -15.7870  -17.8080 C   0  0  0  0  0
  -28.4378  -20.1828  -20.6328 H   0  0  0  0  0
  -27.5015  -18.0288  -19.6418 H   0  0  0  0  0
  -24.6192  -18.3689  -23.6868 H   0  0  0  0  0
  -26.3828  -19.2761  -21.9973 H   0  0  0  0  0
  -24.2165  -16.5220  -25.0006 H   0  0  0  0  0
  -22.3281  -13.8023  -22.7892 H   0  0  0  0  0
  -22.1258  -15.2001  -23.8934 H   0  0  0  0  0
  -20.4709  -14.9962  -22.4568 H   0  0  0  0  0
  -21.7968  -17.5507  -22.8399 H   0  0  0  0  0
  -19.8662  -18.4253  -21.8936 H   0  0  0  0  0
  -23.0406  -17.4417  -21.3342 H   0  0  0  0  0
  -22.3307  -18.7909  -19.5590 H   0  0  0  0  0
  -21.0004  -16.4024  -19.1880 H   0  0  0  0  0
  -24.8193  -15.7943  -20.2024 H   0  0  0  0  0
  -25.8470  -15.0638  -15.2807 H   0  0  0  0  0
  -24.7692  -15.0253  -13.8814 H   0  0  0  0  0
  -20.5413  -15.7245  -15.1415 H   0  0  0  0  0
  1  2  2  0  0  0
  1  3  1  0  0  0
  1  4  1  0  0  0
  8  1  1  0  0  0
  5  6  2  0  0  0
  5  7  1  0  0  0
  5  8  1  0  0  0
 12  5  1  0  0  0
  9 10  1  0  0  0
  9 11  2  0  0  0
  9 12  1  0  0  0
  9 13  1  0  0  0
 13 14  1  0  0  0
 14 15  1  0  0  0
 15 16  1  0  0  0
 15 17  1  0  0  0
 16 21  1  0  0  0
 17 18  1  0  0  0
 17 19  1  0  0  0
 19 20  1  0  0  0
 19 21  1  0  0  0
 21 22  1  0  0  0
 22 23  4  0  0  0
 22 31  4  0  0  0
 23 24  4  0  0  0
 24 25  4  0  0  0
 25 26  4  0  0  0
 25 31  4  0  0  0
 26 27  1  0  0  0
 26 28  4  0  0  0
 28 29  4  0  0  0
 29 30  4  0  0  0
 30 31  4  0  0  0
  3 32  1  0  0  0
  4 33  1  0  0  0
  7 34  1  0  0  0
  8 35  1  0  0  0
 10 36  1  0  0  0
 14 37  1  0  0  0
 14 38  1  0  0  0
 15 39  1  0  0  0
 17 40  1  0  0  0
 18 41  1  0  0  0
 19 42  1  0  0  0
 20 43  1  0  0  0
 21 44  1  0  0  0
 23 45  1  0  0  0
 27 46  1  0  0  0
 27 47  1  0  0  0
 29 48  1  0  0  0
M  END
$$$$
