2prj_ligand
  -I-interpret- 

 30 30  0  0  0  0  0  0  0  0999 V2000
   33.9360   22.7760   27.7630 C   0  0  0  0  0
   33.9510   23.0930   26.2730 C   0  0  0  0  0
   32.6630   22.5660   25.6160 C   0  0  0  0  0
   32.4430   21.1000   25.9790 C   0  0  0  0  0
   32.3540   20.9620   27.5390 C   0  0  0  0  0
   32.1480   19.5350   27.9330 C   0  0  0  0  0
   35.5810   23.6360   29.2910 C   0  0  0  0  0
   37.1030   23.8370   29.5690 C   0  0  0  0  0
   35.2790   23.0300   28.1470 N   0  0  0  0  0
   32.7600   22.6940   24.2070 O   0  0  0  0  0
   34.0520   24.4820   26.0970 O   0  0  0  0  0
   31.2830   20.6510   25.3480 O   0  0  0  0  0
   33.5820   21.3990   28.1090 O   0  0  0  0  0
   33.2120   18.7960   27.3760 O   0  0  0  0  0
   34.7260   24.0190   30.0990 O   0  0  0  0  0
   33.1725   23.3686   28.2669 H   0  0  0  0  0
   34.8066   22.6083   25.8028 H   0  0  0  0  0
   31.8189   23.1513   25.9806 H   0  0  0  0  0
   33.2754   20.4841   25.6387 H   0  0  0  0  0
   31.5156   21.5619   27.8930 H   0  0  0  0  0
   31.1896   19.1679   27.5658 H   0  0  0  0  0
   32.1337   19.4326   29.0181 H   0  0  0  0  0
   37.3144   24.9011   29.6744 H   0  0  0  0  0
   37.3747   23.3185   30.4885 H   0  0  0  0  0
   37.6796   23.4314   28.7376 H   0  0  0  0  0
   36.0346   22.7389   27.5267 H   0  0  0  0  0
   32.8984   23.6163   23.9794 H   0  0  0  0  0
   34.8585   24.7980   26.5108 H   0  0  0  0  0
   31.3773   20.7520   24.3980 H   0  0  0  0  0
   33.1133   17.8699   27.6089 H   0  0  0  0  0
  1  2  1  0  0  0
  9  1  1  0  0  0
  1 13  1  0  0  0
  2  3  1  0  0  0
  2 11  1  0  0  0
  3  4  1  0  0  0
  3 10  1  0  0  0
  5  4  1  0  0  0
  4 12  1  0  0  0
  5  6  1  0  0  0
 13  5  1  0  0  0
  6 14  1  0  0  0
  7  8  1  0  0  0
  7  9  1  0  0  0
  7 15  2  0  0  0
  1 16  1  0  0  0
  2 17  1  0  0  0
  3 18  1  0  0  0
  4 19  1  0  0  0
  5 20  1  0  0  0
  6 21  1  0  0  0
  6 22  1  0  0  0
  8 23  1  0  0  0
  8 24  1  0  0  0
  8 25  1  0  0  0
  9 26  1  0  0  0
 10 27  1  0  0  0
 11 28  1  0  0  0
 12 29  1  0  0  0
 14 30  1  0  0  0
M  END
$$$$
