6p83_ligand
  -I-interpret- 

 50 54  0  0  0  0  0  0  0  0999 V2000
  -14.6650   27.1930   19.5160 C   0  0  0  0  0
  -14.5340   26.4870   18.2680 C   0  0  0  0  0
  -14.0520   27.4480   17.3650 C   0  0  0  0  0
  -13.4390   29.8840   17.5660 C   0  0  0  0  0
  -12.4710   29.9530   16.5520 C   0  0  0  0  0
  -12.0390   31.2220   16.1340 C   0  0  0  0  0
  -12.5580   32.3790   16.7240 C   0  0  0  0  0
  -13.5260   32.2910   17.7430 C   0  0  0  0  0
  -13.9870   31.0230   18.1780 C   0  0  0  0  0
  -18.2080   23.8230   20.8740 C   0  0  0  0  0
  -17.2170   22.8650   22.9550 C   0  0  0  0  0
  -14.8190   24.5090   16.7970 C   0  0  0  0  0
  -15.8980   24.4070   15.9110 C   0  0  0  0  0
  -15.7430   23.9750   14.5810 C   0  0  0  0  0
  -14.4740   23.6070   14.1670 C   0  0  0  0  0
  -13.4020   23.6580   15.0450 C   0  0  0  0  0
  -13.5680   24.1100   16.3470 C   0  0  0  0  0
  -15.4910   25.3240   20.5190 C   0  0  0  0  0
  -14.9160   25.1280   18.1620 C   0  0  0  0  0
  -15.3700   24.5170   19.3280 C   0  0  0  0  0
  -15.6220   23.0680   19.4140 C   0  0  0  0  0
  -16.1170   22.4740   20.7330 C   0  0  0  0  0
  -16.9040   23.4860   21.5790 C   0  0  0  0  0
  -16.0400   24.7430   21.7980 C   0  0  0  0  0
  -15.1750   26.5920   20.6700 N   0  0  0  0  0
  -13.8960   28.6130   18.0700 N   0  0  0  0  0
  -14.2770   28.4910   19.4220 N   0  0  0  0  0
  -15.4060   22.3190   18.4520 O   0  0  0  0  0
  -13.8660   27.4290   16.0480 O   0  0  0  0  0
  -17.4610   24.7420   16.4580 Cl  0  0  0  0  0
  -12.0659   29.0468   16.1016 H   0  0  0  0  0
  -11.2933   31.3060   15.3435 H   0  0  0  0  0
  -12.2102   33.3573   16.3922 H   0  0  0  0  0
  -13.9214   33.1992   18.1979 H   0  0  0  0  0
  -14.7408   30.9351   18.9604 H   0  0  0  0  0
  -18.7932   22.9131   20.7407 H   0  0  0  0  0
  -18.7723   24.5343   21.4771 H   0  0  0  0  0
  -17.9902   24.2624   19.9005 H   0  0  0  0  0
  -17.7834   23.5783   23.5537 H   0  0  0  0  0
  -17.8042   21.9571   22.8173 H   0  0  0  0  0
  -16.2839   22.6221   23.4633 H   0  0  0  0  0
  -16.5928   23.9315   13.8998 H   0  0  0  0  0
  -14.3162   23.2741   13.1412 H   0  0  0  0  0
  -12.4156   23.3389   14.7083 H   0  0  0  0  0
  -12.7113   24.1518   17.0196 H   0  0  0  0  0
  -15.2452   22.1624   21.3083 H   0  0  0  0  0
  -16.7832   21.6440   20.4977 H   0  0  0  0  0
  -16.6742   25.5013   22.2572 H   0  0  0  0  0
  -15.1914   24.4540   22.4180 H   0  0  0  0  0
  -14.2643   29.2038   20.1515 H   0  0  0  0  0
  2  1  4  0  0  0
 25  1  4  0  0  0
  1 27  1  0  0  0
  2  3  1  0  0  0
 19  2  4  0  0  0
  3 26  1  0  0  0
  3 29  2  0  0  0
  4  5  4  0  0  0
  4  9  4  0  0  0
 26  4  1  0  0  0
  5  6  4  0  0  0
  6  7  4  0  0  0
  8  7  4  0  0  0
  9  8  4  0  0  0
 23 10  1  0  0  0
 23 11  1  0  0  0
 12 13  4  0  0  0
 12 17  4  0  0  0
 19 12  1  0  0  0
 13 14  4  0  0  0
 13 30  1  0  0  0
 14 15  4  0  0  0
 16 15  4  0  0  0
 17 16  4  0  0  0
 20 18  4  0  0  0
 18 24  1  0  0  0
 18 25  4  0  0  0
 20 19  4  0  0  0
 21 20  1  0  0  0
 22 21  1  0  0  0
 21 28  2  0  0  0
 22 23  1  0  0  0
 23 24  1  0  0  0
 26 27  1  0  0  0
  5 31  1  0  0  0
  6 32  1  0  0  0
  7 33  1  0  0  0
  8 34  1  0  0  0
  9 35  1  0  0  0
 10 36  1  0  0  0
 10 37  1  0  0  0
 10 38  1  0  0  0
 11 39  1  0  0  0
 11 40  1  0  0  0
 11 41  1  0  0  0
 14 42  1  0  0  0
 15 43  1  0  0  0
 16 44  1  0  0  0
 17 45  1  0  0  0
 22 46  1  0  0  0
 22 47  1  0  0  0
 24 48  1  0  0  0
 24 49  1  0  0  0
 27 50  1  0  0  0
M  END
$$$$
