6dq8_ligand
  -I-interpret- 

 53 56  0  0  0  0  0  0  0  0999 V2000
  -27.8170   23.1480    5.1950 C   0  0  0  0  0
  -29.1540   23.1470    5.5390 C   0  0  0  0  0
  -30.0980   22.5870    4.7060 C   0  0  0  0  0
  -29.6990   22.0220    3.5150 C   0  0  0  0  0
  -28.3650   22.0200    3.1630 C   0  0  0  0  0
  -27.3920   22.5840    3.9830 C   0  0  0  0  0
  -25.9480   22.5290    3.5210 C   0  0  0  0  0
  -25.5840   24.8670    3.1270 C   0  0  0  0  0
  -24.3930   25.7790    3.0950 C   0  0  0  0  0
  -23.0870   25.0470    2.8890 C   0  0  0  0  0
  -22.7090   23.9280    0.7180 C   0  0  0  0  0
  -21.2600   25.6520    1.4850 C   0  0  0  0  0
  -21.0660   26.3450    2.8090 C   0  0  0  0  0
  -21.9440   25.5730    3.7580 C   0  0  0  0  0
  -25.2250   21.3360    4.0940 C   0  0  0  0  0
  -24.8430   20.2090    3.4230 C   0  0  0  0  0
  -24.1890   19.2280    4.1850 C   0  0  0  0  0
  -24.0320   19.5620    5.5300 C   0  0  0  0  0
  -23.3630   18.6050    6.4020 C   0  0  0  0  0
  -23.1440   18.8660    7.8500 C   0  0  0  0  0
  -22.9240   17.4200    5.8350 C   0  0  0  0  0
  -23.1310   17.1790    4.4790 C   0  0  0  0  0
  -22.6410   25.1720    1.4780 N   0  3  0  0  0
  -23.7470   18.0570    3.6620 N   0  0  0  0  0
  -25.2340   23.7160    3.8800 O   0  0  0  0  0
  -22.3930   18.1650    8.5220 O   0  0  0  0  0
  -23.7660   19.8790    8.4190 O   0  0  0  0  0
  -24.7560   21.1840    5.7870 S   0  0  0  0  0
  -26.7070   23.8760    6.3070 Cl  0  0  0  0  0
  -29.4670   23.5951    6.4820 H   0  0  0  0  0
  -31.1511   22.5911    4.9871 H   0  0  0  0  0
  -30.4381   21.5758    2.8496 H   0  0  0  0  0
  -28.0655   21.5652    2.2188 H   0  0  0  0  0
  -25.9789   22.4423    2.4349 H   0  0  0  0  0
  -25.8681   24.5825    2.1139 H   0  0  0  0  0
  -26.4339   25.3729    3.5851 H   0  0  0  0  0
  -24.3391   26.2853    4.0588 H   0  0  0  0  0
  -24.5237   26.4632    2.2566 H   0  0  0  0  0
  -23.2949   24.0138    3.1670 H   0  0  0  0  0
  -22.0728   23.1797    1.1907 H   0  0  0  0  0
  -23.7388   23.5713    0.6987 H   0  0  0  0  0
  -22.3660   24.1071   -0.3010 H   0  0  0  0  0
  -20.5559   24.8287    1.3641 H   0  0  0  0  0
  -21.0748   26.3319    0.6534 H   0  0  0  0  0
  -21.3338   27.4007    2.7653 H   0  0  0  0  0
  -20.0223   26.3494    3.1234 H   0  0  0  0  0
  -21.4009   24.7650    4.2482 H   0  0  0  0  0
  -22.3079   26.1971    4.5742 H   0  0  0  0  0
  -25.0349   20.0790    2.3579 H   0  0  0  0  0
  -22.4168   16.6764    6.4498 H   0  0  0  0  0
  -22.7787   16.2370    4.0588 H   0  0  0  0  0
  -23.2781   25.8204    1.0152 H   0  0  0  0  0
  -24.3114   20.3251    7.7670 H   0  0  0  0  0
  1  2  4  0  0  0
  6  1  4  0  0  0
  1 29  1  0  0  0
  2  3  4  0  0  0
  4  3  4  0  0  0
  5  4  4  0  0  0
  6  5  4  0  0  0
  7  6  1  0  0  0
  7 15  1  0  0  0
 25  7  1  0  0  0
  9  8  1  0  0  0
  8 25  1  0  0  0
 10  9  1  0  0  0
 10 14  1  0  0  0
 23 10  1  0  0  0
 23 11  1  0  0  0
 12 13  1  0  0  0
 12 23  1  0  0  0
 13 14  1  0  0  0
 15 16  4  0  0  0
 15 28  4  0  0  0
 16 17  4  0  0  0
 17 18  4  0  0  0
 17 24  4  0  0  0
 18 19  4  0  0  0
 18 28  4  0  0  0
 19 20  1  0  0  0
 19 21  4  0  0  0
 20 26  2  0  0  0
 20 27  1  0  0  0
 21 22  4  0  0  0
 22 24  4  0  0  0
  2 30  1  0  0  0
  3 31  1  0  0  0
  4 32  1  0  0  0
  5 33  1  0  0  0
  7 34  1  0  0  0
  8 35  1  0  0  0
  8 36  1  0  0  0
  9 37  1  0  0  0
  9 38  1  0  0  0
 10 39  1  0  0  0
 11 40  1  0  0  0
 11 41  1  0  0  0
 11 42  1  0  0  0
 12 43  1  0  0  0
 12 44  1  0  0  0
 13 45  1  0  0  0
 13 46  1  0  0  0
 14 47  1  0  0  0
 14 48  1  0  0  0
 16 49  1  0  0  0
 21 50  1  0  0  0
 22 51  1  0  0  0
 23 52  1  0  0  0
 27 53  1  0  0  0
M  END
$$$$
