9lpr_ligand
  -I-interpret- 

 58 58  0  0  0  0  0  0  0  0999 V2000
   13.1020   41.8450   18.4670 N   0  3  0  0  0
   13.9700   40.6270   18.4770 C   0  0  0  0  0
   13.1670   39.3350   18.7140 C   0  0  0  0  0
   12.4510   39.2520   19.7500 O   0  0  0  0  0
   15.0550   40.4570   19.5440 C   0  0  0  0  0
   13.3660   38.4190   17.7830 N   0  0  0  0  0
   12.6620   37.1300   17.9730 C   0  0  0  0  0
   13.6440   35.9970   17.6930 C   0  0  0  0  0
   14.5590   36.2630   16.8870 O   0  0  0  0  0
   11.5300   37.0890   16.9810 C   0  0  0  0  0
   13.3980   34.8570   18.3120 N   0  0  0  0  0
   14.2030   33.6620   18.0490 C   0  0  0  0  0
   13.8560   33.1750   16.6400 C   0  0  0  0  0
   12.6420   33.2800   16.2790 O   0  0  0  0  0
   13.7150   32.6720   19.1100 C   0  0  0  0  0
   12.7100   33.3470   19.9620 C   0  0  0  0  0
   12.2610   34.6040   19.2190 C   0  0  0  0  0
   14.4300   32.1340   14.4880 C   0  0  0  0  0
   15.0530   33.1020   13.4490 C   0  0  0  0  0
   14.5980   34.5320   13.7570 C   0  0  0  0  0
   15.5590   35.3810   13.0310 C   0  0  0  0  0
   13.2280   34.9240   13.2220 C   0  0  0  0  0
   14.7650   32.6240   15.8380 N   0  0  0  0  0
   14.8110   30.6480   14.2750 B   0  0  0  0  0
   14.7480   30.1580   12.8370 O   0  0  0  0  0
   14.0430   29.7820   15.2160 O   0  0  0  0  0
   12.4426   41.7848   17.6911 H   0  0  0  0  0
   12.5892   41.9028   19.3468 H   0  0  0  0  0
   13.6843   42.6751   18.3563 H   0  0  0  0  0
   14.4256   40.7844   17.4994 H   0  0  0  0  0
   14.5892   40.3962   20.5276 H   0  0  0  0  0
   15.6149   39.5424   19.3485 H   0  0  0  0  0
   15.7306   41.3118   19.5128 H   0  0  0  0  0
   13.9701   38.5899   16.9791 H   0  0  0  0  0
   12.2780   37.0251   18.9877 H   0  0  0  0  0
   11.9282   37.2004   15.9725 H   0  0  0  0  0
   11.0100   36.1347   17.0643 H   0  0  0  0  0
   10.8353   37.9023   17.1906 H   0  0  0  0  0
   15.2820   33.8087   18.0963 H   0  0  0  0  0
   14.5546   32.3394   19.7203 H   0  0  0  0  0
   13.2679   31.8027   18.6277 H   0  0  0  0  0
   13.1384   33.6054   20.9304 H   0  0  0  0  0
   11.8620   32.6888   20.1510 H   0  0  0  0  0
   11.3142   34.4766   18.6942 H   0  0  0  0  0
   12.0480   35.4415   19.8833 H   0  0  0  0  0
   13.3482   32.1377   14.3546 H   0  0  0  0  0
   14.7274   32.8223   12.4471 H   0  0  0  0  0
   16.1402   33.0447   13.5014 H   0  0  0  0  0
   14.5471   34.6355   14.8409 H   0  0  0  0  0
   16.5661   35.1835   13.3982 H   0  0  0  0  0
   15.5086   35.1555   11.9658 H   0  0  0  0  0
   15.3107   36.4298   13.1939 H   0  0  0  0  0
   13.2231   34.8306   12.1360 H   0  0  0  0  0
   12.4710   34.2656   13.6480 H   0  0  0  0  0
   13.0123   35.9556   13.5002 H   0  0  0  0  0
   15.7260   32.5379   16.1688 H   0  0  0  0  0
   14.9992   29.2320   12.8044 H   0  0  0  0  0
   14.2866   28.8641   15.0756 H   0  0  0  0  0
  2  1  1  0  0  0
  3  2  1  0  0  0
  2  5  1  0  0  0
  3  4  2  0  0  0
  6  3  1  0  0  0
  7  6  1  0  0  0
  8  7  1  0  0  0
  7 10  1  0  0  0
  8  9  2  0  0  0
 11  8  1  0  0  0
 12 11  1  0  0  0
 11 17  1  0  0  0
 13 12  1  0  0  0
 12 15  1  0  0  0
 13 14  2  0  0  0
 23 13  1  0  0  0
 15 16  1  0  0  0
 16 17  1  0  0  0
 18 19  1  0  0  0
 18 23  1  0  0  0
 18 24  1  0  0  0
 19 20  1  0  0  0
 20 21  1  0  0  0
 20 22  1  0  0  0
 24 25  1  0  0  0
 24 26  1  0  0  0
  1 27  1  0  0  0
  1 28  1  0  0  0
  1 29  1  0  0  0
  2 30  1  0  0  0
  5 31  1  0  0  0
  5 32  1  0  0  0
  5 33  1  0  0  0
  6 34  1  0  0  0
  7 35  1  0  0  0
 10 36  1  0  0  0
 10 37  1  0  0  0
 10 38  1  0  0  0
 12 39  1  0  0  0
 15 40  1  0  0  0
 15 41  1  0  0  0
 16 42  1  0  0  0
 16 43  1  0  0  0
 17 44  1  0  0  0
 17 45  1  0  0  0
 18 46  1  0  0  0
 19 47  1  0  0  0
 19 48  1  0  0  0
 20 49  1  0  0  0
 21 50  1  0  0  0
 21 51  1  0  0  0
 21 52  1  0  0  0
 22 53  1  0  0  0
 22 54  1  0  0  0
 22 55  1  0  0  0
 23 56  1  0  0  0
 25 57  1  0  0  0
 26 58  1  0  0  0
M  END
$$$$
