### 
### Created by X-TOOL on Mon Sep 10 21:12:44 2018
### 

@<TRIPOS>MOLECULE
9lpr_ligand
   58    58     1     0     0
SMALL
GAST_HUCK


@<TRIPOS>ATOM
      1 N          13.1020   41.8450   18.4670 N.4       1 ALA         0.2377
      2 CA         13.9700   40.6270   18.4770 C.3       1 ALA         0.0621
      3 C          13.1670   39.3350   18.7140 C.2       1 ALA         0.2264
      4 O          12.4510   39.2520   19.7500 O.2       1 ALA        -0.3907
      5 CB         15.0550   40.4570   19.5440 C.3       1 ALA        -0.0040
      6 N          13.3660   38.4190   17.7830 N.am      1 ALA        -0.2613
      7 CA         12.6620   37.1300   17.9730 C.3       1 ALA         0.1285
      8 C          13.6440   35.9970   17.6930 C.2       1 ALA         0.2061
      9 O          14.5590   36.2630   16.8870 O.2       1 ALA        -0.3942
     10 CB         11.5300   37.0890   16.9810 C.3       1 ALA        -0.0244
     11 N          13.3980   34.8570   18.3120 N.am      1 PRO        -0.2498
     12 CA         14.2030   33.6620   18.0490 C.3       1 PRO         0.1336
     13 C          13.8560   33.1750   16.6400 C.2       1 PRO         0.2010
     14 O          12.6420   33.2800   16.2790 O.2       1 PRO        -0.3946
     15 CB         13.7150   32.6720   19.1100 C.3       1 PRO        -0.0104
     16 CG         12.7100   33.3470   19.9620 C.3       1 PRO        -0.0281
     17 CD         12.2610   34.6040   19.2190 C.3       1 PRO         0.0369
     18 CA         14.4300   32.1340   14.4880 C.3       1 BLE         0.0535
     19 CB         15.0530   33.1020   13.4490 C.3       1 BLE        -0.0365
     20 CG         14.5980   34.5320   13.7570 C.3       1 BLE        -0.0458
     21 CD1        15.5590   35.3810   13.0310 C.3       1 BLE        -0.0626
     22 CD2        13.2280   34.9240   13.2220 C.3       1 BLE        -0.0626
     23 N          14.7650   32.6240   15.8380 N.am      1 BLE        -0.2918
     24 B          14.8110   30.6480   14.2750 B         1 BLE         0.7164
     25 O1         14.7480   30.1580   12.8370 O.3       1 BLE        -0.4967
     26 O2         14.0430   29.7820   15.2160 O.3       1 BLE        -0.4967
     27 H1         13.6711   42.6618   18.3091 H         1 ALA         0.2015
     28 H2         12.6316   41.9297   19.3545 H         1 ALA         0.2015
     29 H3         12.4184   41.7644   17.7307 H         1 ALA         0.2015
     30 H4         14.4516   40.5928   17.4886 H         1 ALA         0.1095
     31 H5         15.5813   39.5045   19.3832 H         1 ALA         0.0310
     32 H6         14.5914   40.4559   20.5415 H         1 ALA         0.0310
     33 H7         15.7718   41.2884   19.4737 H         1 ALA         0.0310
     34 H8         13.9583   38.5865   16.9949 H         1 ALA         0.1884
     35 H9         12.2737   37.0480   18.9989 H         1 ALA         0.0797
     36 H10        10.9803   36.1426   17.0910 H         1 ALA         0.0277
     37 H11        11.9339   37.1619   15.9605 H         1 ALA         0.0277
     38 H12        10.8488   37.9324   17.1669 H         1 ALA         0.0277
     39 H13        15.2820   33.8551   18.1405 H         1 PRO         0.0802
     40 H14        14.5636   32.3435   19.7280 H         1 PRO         0.0313
     41 H15        13.2587   31.7993   18.6200 H         1 PRO         0.0313
     42 H16        13.1577   33.6202   20.9289 H         1 PRO         0.0287
     43 H17        11.8506   32.6815   20.1308 H         1 PRO         0.0287
     44 H18        11.3341   34.4234   18.6549 H         1 PRO         0.0524
     45 H19        12.1103   35.4442   19.9128 H         1 PRO         0.0524
     46 H20        13.3374   32.1935   14.3759 H         1 BLE         0.0432
     47 H21        14.7218   32.8201   12.4386 H         1 BLE         0.0277
     48 H22        16.1501   33.0450   13.5045 H         1 BLE         0.0277
     49 H23        14.6327   34.7075   14.8423 H         1 BLE         0.0296
     50 H24        15.3094   36.4397   13.1946 H         1 BLE         0.0232
     51 H25        15.5091   35.1545   11.9557 H         1 BLE         0.0232
     52 H26        16.5758   35.1827   13.4007 H         1 BLE         0.0232
     53 H27        12.4535   34.3251   13.7235 H         1 BLE         0.0232
     54 H28        13.1906   34.7384   12.1384 H         1 BLE         0.0232
     55 H29        13.0497   35.9917   13.4175 H         1 BLE         0.0232
     56 H30        15.7072   32.5396   16.1623 H         1 BLE         0.1840
     57 H31        15.2511   30.7424   12.2822 H         1 BLE         0.1667
     58 H32        14.1151   30.1313   16.0965 H         1 BLE         0.1667
@<TRIPOS>BOND
     1    2    1 1  
     2    3    2 1  
     3    2    5 1  
     4    3    4 2  
     5    6    3 am 
     6    7    6 1  
     7    8    7 1  
     8    7   10 1  
     9    8    9 2  
    10   11    8 am 
    11   12   11 1  
    12   11   17 1  
    13   13   12 1  
    14   12   15 1  
    15   13   14 2  
    16   23   13 am 
    17   15   16 1  
    18   16   17 1  
    19   18   19 1  
    20   18   23 1  
    21   18   24 1  
    22   19   20 1  
    23   20   21 1  
    24   20   22 1  
    25   24   25 1  
    26   24   26 1  
    27    1   27 1  
    28    1   28 1  
    29    1   29 1  
    30    2   30 1  
    31    5   31 1  
    32    5   32 1  
    33    5   33 1  
    34    6   34 1  
    35    7   35 1  
    36   10   36 1  
    37   10   37 1  
    38   10   38 1  
    39   12   39 1  
    40   15   40 1  
    41   15   41 1  
    42   16   42 1  
    43   16   43 1  
    44   17   44 1  
    45   17   45 1  
    46   18   46 1  
    47   19   47 1  
    48   19   48 1  
    49   20   49 1  
    50   21   50 1  
    51   21   51 1  
    52   21   52 1  
    53   22   53 1  
    54   22   54 1  
    55   22   55 1  
    56   23   56 1  
    57   25   57 1  
    58   26   58 1  
@<TRIPOS>SUBSTRUCTURE
     1 ALA         1

