6e9l_ligand
  -I-interpret- 

 44 47  0  0  0  0  0  0  0  0999 V2000
  -33.1670   -9.9750   -4.4530 N   0  0  0  0  0
  -23.0000  -14.3300    0.1070 C   0  0  0  0  0
  -21.6800  -14.3620    0.4860 C   0  0  0  0  0
  -21.0080  -13.1930    0.7600 C   0  0  0  0  0
  -21.6610  -11.9810    0.6540 C   0  0  0  0  0
  -19.6520  -10.9250    1.2370 C   0  0  0  0  0
  -27.3190  -10.2800   -0.6820 C   0  0  0  0  0
  -29.5710  -10.2230   -2.2350 C   0  0  0  0  0
  -27.2960   -9.5850   -1.8700 C   0  0  0  0  0
  -30.8020  -10.4220   -4.3560 C   0  0  0  0  0
  -31.9590   -9.7830   -2.3890 C   0  0  0  0  0
  -26.2960  -10.1340    1.3770 O   0  0  0  0  0
  -26.1310  -10.3360    0.1800 C   0  0  0  0  0
  -28.4310   -9.5680   -2.6480 C   0  0  0  0  0
  -30.7780  -10.1520   -3.0050 C   0  0  0  0  0
  -33.1080   -9.7150   -3.1430 C   0  0  0  0  0
  -32.0050  -10.3180   -5.0210 C   0  0  0  0  0
  -29.5710  -10.9130   -1.0440 C   0  0  0  0  0
  -28.4430  -10.9550   -0.2670 C   0  0  0  0  0
  -24.9500  -10.6430   -0.4830 N   0  0  0  0  0
  -23.6810  -10.6100    0.2000 C   0  0  0  0  0
  -22.9920  -11.9380    0.2800 C   0  0  0  0  0
  -21.0410  -10.7700    0.9660 O   0  0  0  0  0
  -19.4230  -12.1900    2.0110 C   0  0  0  0  0
  -19.6740  -13.2850    1.1390 O   0  0  0  0  0
  -23.6490  -13.1210    0.0040 C   0  0  0  0  0
  -23.5303  -15.2570   -0.1109 H   0  0  0  0  0
  -21.1627  -15.3177    0.5700 H   0  0  0  0  0
  -19.3023  -10.0754    1.8235 H   0  0  0  0  0
  -19.1046  -10.9744    0.2957 H   0  0  0  0  0
  -26.3963   -9.0584   -2.1883 H   0  0  0  0  0
  -29.8936  -10.7102   -4.8850 H   0  0  0  0  0
  -31.9798   -9.5499   -1.3244 H   0  0  0  0  0
  -28.4283   -9.0327   -3.5975 H   0  0  0  0  0
  -34.0314   -9.4302   -2.6387 H   0  0  0  0  0
  -32.0101  -10.5312   -6.0899 H   0  0  0  0  0
  -30.4736  -11.4291   -0.7169 H   0  0  0  0  0
  -28.4367  -11.5160    0.6676 H   0  0  0  0  0
  -24.9811  -10.8963   -1.4706 H   0  0  0  0  0
  -23.8744  -10.2859    1.2226 H   0  0  0  0  0
  -23.0293   -9.9430   -0.3643 H   0  0  0  0  0
  -20.0893  -12.2321    2.8726 H   0  0  0  0  0
  -18.3980  -12.2275    2.3799 H   0  0  0  0  0
  -24.6956  -13.0967   -0.2995 H   0  0  0  0  0
 16  1  4  0  0  0
 17  1  4  0  0  0
  3  2  4  0  0  0
  2 26  4  0  0  0
  4  3  4  0  0  0
  5  4  4  0  0  0
  4 25  1  0  0  0
 22  5  4  0  0  0
  5 23  1  0  0  0
 23  6  1  0  0  0
  6 24  1  0  0  0
  7  9  4  0  0  0
 13  7  1  0  0  0
  7 19  4  0  0  0
 14  8  4  0  0  0
  8 15  1  0  0  0
 18  8  4  0  0  0
  9 14  4  0  0  0
 15 10  4  0  0  0
 10 17  4  0  0  0
 15 11  4  0  0  0
 11 16  4  0  0  0
 13 12  2  0  0  0
 20 13  1  0  0  0
 19 18  4  0  0  0
 21 20  1  0  0  0
 21 22  1  0  0  0
 22 26  4  0  0  0
 24 25  1  0  0  0
  2 27  1  0  0  0
  3 28  1  0  0  0
  6 29  1  0  0  0
  6 30  1  0  0  0
  9 31  1  0  0  0
 10 32  1  0  0  0
 11 33  1  0  0  0
 14 34  1  0  0  0
 16 35  1  0  0  0
 17 36  1  0  0  0
 18 37  1  0  0  0
 19 38  1  0  0  0
 20 39  1  0  0  0
 21 40  1  0  0  0
 21 41  1  0  0  0
 24 42  1  0  0  0
 24 43  1  0  0  0
 26 44  1  0  0  0
M  END
$$$$
