2ym6_ligand
  -I-interpret- 

 37 40  0  0  0  0  0  0  0  0999 V2000
   17.8290   -0.4760    9.6120 N   0  0  0  0  0
   17.7470    0.5970    8.8490 C   0  0  0  0  0
   16.6470    1.3280    8.8310 N   0  0  0  0  0
   15.5870    0.9930    9.5770 C   0  0  0  0  0
   15.6230   -0.1520   10.3620 C   0  0  0  0  0
   16.8280   -0.8470   10.4280 C   0  0  0  0  0
   18.4180   -3.2790   14.9140 N   0  3  0  0  0
   12.4990   -0.7880   12.3870 C   0  0  0  0  0
   13.7990   -1.0460   11.9520 C   0  0  0  0  0
   12.3600    1.0920   11.0600 C   0  0  0  0  0
   18.2920   -2.5410   13.6460 C   0  0  0  0  0
   16.1110   -3.7530   12.6210 C   0  0  0  0  0
   15.9270   -3.0090   11.3110 C   0  0  0  0  0
   18.3350   -2.6990   11.1220 C   0  0  0  0  0
   11.8250    0.2600   11.9410 N   0  0  0  0  0
   14.3950    1.5750    9.7210 N   0  0  0  0  0
   17.3590   -4.4590   12.6070 O   0  0  0  0  0
   13.6470    0.8870   10.5820 C   0  0  0  0  0
   14.3930   -0.1920   11.0320 C   0  0  0  0  0
   18.4300   -3.4880   12.4350 C   0  0  0  0  0
   17.0220   -2.0470   11.1080 N   0  0  0  0  0
   18.5953    0.8832    8.2273 H   0  0  0  0  0
   18.3230   -2.6296   15.6948 H   0  0  0  0  0
   17.6858   -3.9871   14.9681 H   0  0  0  0  0
   19.3322   -3.7296   14.9543 H   0  0  0  0  0
   12.0307   -1.4604   13.1058 H   0  0  0  0  0
   14.3440   -1.9106   12.3310 H   0  0  0  0  0
   11.7834    1.9468   10.7066 H   0  0  0  0  0
   19.0848   -1.7946   13.5969 H   0  0  0  0  0
   17.3085   -2.0724   13.6117 H   0  0  0  0  0
   15.2955   -4.4648   12.7490 H   0  0  0  0  0
   16.1100   -3.0388   13.4445 H   0  0  0  0  0
   14.9809   -2.4685   11.3400 H   0  0  0  0  0
   15.9299   -3.7277   10.4915 H   0  0  0  0  0
   18.4453   -3.3626   10.2644 H   0  0  0  0  0
   19.1334   -1.9598   11.0575 H   0  0  0  0  0
   19.3962   -3.9898   12.3836 H   0  0  0  0  0
  1  2  4  0  0  0
  6  1  4  0  0  0
  2  3  4  0  0  0
  4  3  4  0  0  0
  5  4  4  0  0  0
  4 16  4  0  0  0
  6  5  4  0  0  0
  5 19  4  0  0  0
 21  6  1  0  0  0
 11  7  1  0  0  0
  9  8  4  0  0  0
  8 15  4  0  0  0
 19  9  4  0  0  0
 15 10  4  0  0  0
 10 18  4  0  0  0
 20 11  1  0  0  0
 13 12  1  0  0  0
 12 17  1  0  0  0
 21 13  1  0  0  0
 14 20  1  0  0  0
 14 21  1  0  0  0
 16 18  4  0  0  0
 17 20  1  0  0  0
 18 19  4  0  0  0
  2 22  1  0  0  0
  7 23  1  0  0  0
  7 24  1  0  0  0
  7 25  1  0  0  0
  8 26  1  0  0  0
  9 27  1  0  0  0
 10 28  1  0  0  0
 11 29  1  0  0  0
 11 30  1  0  0  0
 12 31  1  0  0  0
 12 32  1  0  0  0
 13 33  1  0  0  0
 13 34  1  0  0  0
 14 35  1  0  0  0
 14 36  1  0  0  0
 20 37  1  0  0  0
M  END
$$$$
