4ly9_ligand
  -I-interpret- 

 66 69  0  0  0  0  0  0  0  0999 V2000
   38.3610  -20.1460   13.5120 C   0  0  0  0  0
   36.9810  -20.7680   13.9080 C   0  0  0  0  0
   35.8760  -20.3360   12.9320 C   0  0  0  0  0
   36.0260  -20.9250   11.6160 O   0  0  0  0  0
   36.2560  -22.3580   11.5800 C   0  0  0  0  0
   37.3810  -22.6940   12.5800 C   0  0  0  0  0
   37.0070  -22.2400   13.9250 N   0  3  0  0  0
   37.9740  -22.7270   14.9270 C   0  0  0  0  0
   37.5180  -23.9710   15.7180 C   0  0  0  0  0
   38.2580  -25.2450   15.1800 C   0  0  0  0  0
   39.7210  -25.0170   15.0960 N   0  0  0  0  0
   40.4540  -26.1770   14.2610 S   0  0  0  0  0
   41.9100  -26.1510   14.5550 O   0  0  0  0  0
   40.0440  -25.9790   12.8430 O   0  0  0  0  0
   39.8670  -27.7520   14.7180 C   0  0  0  0  0
   38.9010  -28.4650   14.1160 C   0  0  0  0  0
   38.6450  -29.6230   14.7510 C   0  0  0  0  0
   39.3890  -29.9020   15.8550 C   0  0  0  0  0
   40.4700  -28.5870   16.0370 S   0  0  0  0  0
   40.1410  -25.0330   16.4750 C   0  0  0  0  0
   39.3990  -23.9860   17.3200 C   0  0  0  0  0
   38.0150  -23.7150   17.0180 N   0  0  0  0  0
   37.2960  -22.9030   17.8870 C   0  0  0  0  0
   37.8010  -22.6220   19.1490 C   0  0  0  0  0
   37.1200  -21.8240   20.0360 C   0  0  0  0  0
   36.0830  -22.3630   17.5500 C   0  0  0  0  0
   35.3730  -21.5490   18.4190 C   0  0  0  0  0
   35.8910  -21.2860   19.6620 C   0  0  0  0  0
   35.1670  -20.3890   20.6220 C   0  0  0  0  0
   34.4870  -21.1030   21.7460 C   0  0  0  0  0
   33.7030  -20.2520   22.4360 F   0  0  0  0  0
   35.4460  -21.6320   22.5550 F   0  0  0  0  0
   33.6990  -21.9800   21.1970 F   0  0  0  0  0
   36.2680  -19.5350   21.2450 C   0  0  0  0  0
   34.2300  -19.6290   19.9080 O   0  0  0  0  0
   39.1188  -20.4596   14.2300 H   0  0  0  0  0
   38.6395  -20.4878   12.5152 H   0  0  0  0  0
   38.2826  -19.0588   13.5160 H   0  0  0  0  0
   36.7742  -20.4000   14.9130 H   0  0  0  0  0
   35.9335  -19.2532   12.8213 H   0  0  0  0  0
   34.9217  -20.6694   13.3398 H   0  0  0  0  0
   36.5456  -22.6647   10.5750 H   0  0  0  0  0
   35.3439  -22.8897   11.8513 H   0  0  0  0  0
   38.2973  -22.1900   12.2726 H   0  0  0  0  0
   37.5375  -23.7726   12.5955 H   0  0  0  0  0
   36.0912  -22.6098   14.1800 H   0  0  0  0  0
   38.1092  -21.9241   15.6517 H   0  0  0  0  0
   38.8754  -23.0110   14.3839 H   0  0  0  0  0
   36.4427  -24.1391   15.6574 H   0  0  0  0  0
   37.8824  -25.4712   14.1821 H   0  0  0  0  0
   38.0726  -26.0717   15.8658 H   0  0  0  0  0
   38.3823  -28.1414   13.2136 H   0  0  0  0  0
   37.8749  -30.3079   14.3962 H   0  0  0  0  0
   39.3126  -30.7824   16.4931 H   0  0  0  0  0
   41.2058  -24.8025   16.5079 H   0  0  0  0  0
   39.9201  -26.0184   16.8853 H   0  0  0  0  0
   39.9208  -23.0473   17.1341 H   0  0  0  0  0
   39.3968  -24.3868   18.3336 H   0  0  0  0  0
   38.7615  -23.0449   19.4435 H   0  0  0  0  0
   37.5367  -21.6143   21.0211 H   0  0  0  0  0
   35.6629  -22.5801   16.5679 H   0  0  0  0  0
   34.4155  -21.1234   18.1186 H   0  0  0  0  0
   36.9848  -20.1814   21.7514 H   0  0  0  0  0
   36.7753  -18.9709   20.4623 H   0  0  0  0  0
   35.8275  -18.8449   21.9646 H   0  0  0  0  0
   33.7605  -19.0507   20.5136 H   0  0  0  0  0
  1  2  1  0  0  0
  2  3  1  0  0  0
  2  7  1  0  0  0
  3  4  1  0  0  0
  4  5  1  0  0  0
  5  6  1  0  0  0
  6  7  1  0  0  0
  7  8  1  0  0  0
  8  9  1  0  0  0
  9 10  1  0  0  0
  9 22  1  0  0  0
 10 11  1  0  0  0
 11 12  1  0  0  0
 11 20  1  0  0  0
 12 13  2  0  0  0
 12 14  2  0  0  0
 12 15  1  0  0  0
 15 16  4  0  0  0
 15 19  4  0  0  0
 16 17  4  0  0  0
 17 18  4  0  0  0
 18 19  4  0  0  0
 20 21  1  0  0  0
 21 22  1  0  0  0
 22 23  1  0  0  0
 23 24  4  0  0  0
 23 26  4  0  0  0
 24 25  4  0  0  0
 25 28  4  0  0  0
 26 27  4  0  0  0
 27 28  4  0  0  0
 28 29  1  0  0  0
 29 30  1  0  0  0
 29 34  1  0  0  0
 29 35  1  0  0  0
 30 31  1  0  0  0
 30 32  1  0  0  0
 30 33  1  0  0  0
  1 36  1  0  0  0
  1 37  1  0  0  0
  1 38  1  0  0  0
  2 39  1  0  0  0
  3 40  1  0  0  0
  3 41  1  0  0  0
  5 42  1  0  0  0
  5 43  1  0  0  0
  6 44  1  0  0  0
  6 45  1  0  0  0
  7 46  1  0  0  0
  8 47  1  0  0  0
  8 48  1  0  0  0
  9 49  1  0  0  0
 10 50  1  0  0  0
 10 51  1  0  0  0
 16 52  1  0  0  0
 17 53  1  0  0  0
 18 54  1  0  0  0
 20 55  1  0  0  0
 20 56  1  0  0  0
 21 57  1  0  0  0
 21 58  1  0  0  0
 24 59  1  0  0  0
 25 60  1  0  0  0
 26 61  1  0  0  0
 27 62  1  0  0  0
 34 63  1  0  0  0
 34 64  1  0  0  0
 34 65  1  0  0  0
 35 66  1  0  0  0
M  END
$$$$
