6nrg_ligand
  -I-interpret- 

 35 38  0  0  0  0  0  0  0  0999 V2000
   24.8740   -7.4680    7.6210 C   0  0  0  0  0
   23.8420   -8.3310    7.3020 C   0  0  0  0  0
   23.9600   -9.2300    6.2410 C   0  0  0  0  0
   25.1520   -9.2040    5.5260 C   0  0  0  0  0
   27.4170   -5.6300    7.9790 C   0  0  0  0  0
   27.2170   -6.6230    7.1150 C   0  0  0  0  0
   26.8160   -3.8780   11.0720 C   0  0  0  0  0
   26.6710   -5.4400    9.1290 O   0  0  0  0  0
   27.5980   -2.8810   11.6620 C   0  0  0  0  0
   28.7180   -2.3760   11.0070 C   0  0  0  0  0
   29.0710   -2.8480    9.7490 C   0  0  0  0  0
   28.3150   -3.8510    9.1580 C   0  0  0  0  0
   25.3180  -10.0560    4.4880 F   0  0  0  0  0
   22.8410  -10.1400    5.9680 C   0  0  0  0  0
   22.8170  -11.0650    5.0050 N   0  0  0  0  0
   21.6520  -11.7400    5.0760 N   0  0  0  0  0
   20.9950  -11.2240    6.0630 N   0  0  0  0  0
   21.7030  -10.2210    6.6420 N   0  0  0  0  0
   26.1900   -8.3590    5.8210 C   0  0  0  0  0
   26.0630   -7.4730    6.8910 C   0  0  0  0  0
   28.4880   -4.6340    7.9210 C   0  0  0  0  0
   29.3400   -4.4970    6.9990 O   0  0  0  0  0
   27.2130   -4.3780    9.8290 C   0  0  0  0  0
   25.5720   -4.3070   11.7960 C   0  0  0  0  0
   25.1590   -3.6340   12.7520 O   0  0  0  0  0
   24.9460   -5.4160   11.3810 N   0  0  0  0  0
   24.7572   -6.7746    8.4538 H   0  0  0  0  0
   22.9229   -8.3089    7.8876 H   0  0  0  0  0
   28.0659   -6.8334    6.4644 H   0  0  0  0  0
   27.3282   -2.4949   12.6450 H   0  0  0  0  0
   29.3222   -1.6047   11.4847 H   0  0  0  0  0
   29.9353   -2.4338    9.2298 H   0  0  0  0  0
   27.1036   -8.3790    5.2268 H   0  0  0  0  0
   24.1002   -5.7321   11.8554 H   0  0  0  0  0
   25.3151   -5.9445   10.5905 H   0  0  0  0  0
  1  2  4  0  0  0
 20  1  4  0  0  0
  2  3  4  0  0  0
  3  4  4  0  0  0
  3 14  1  0  0  0
  4 13  1  0  0  0
  4 19  4  0  0  0
  5  6  2  0  0  0
  8  5  1  0  0  0
  5 21  1  0  0  0
  6 20  1  0  0  0
  7  9  4  0  0  0
 23  7  4  0  0  0
  7 24  1  0  0  0
  8 23  1  0  0  0
  9 10  4  0  0  0
 10 11  4  0  0  0
 11 12  4  0  0  0
 12 21  1  0  0  0
 12 23  4  0  0  0
 14 15  4  0  0  0
 14 18  4  0  0  0
 15 16  4  0  0  0
 16 17  4  0  0  0
 17 18  4  0  0  0
 19 20  4  0  0  0
 21 22  2  0  0  0
 24 25  2  0  0  0
 24 26  1  0  0  0
  1 27  1  0  0  0
  2 28  1  0  0  0
  6 29  1  0  0  0
  9 30  1  0  0  0
 10 31  1  0  0  0
 11 32  1  0  0  0
 19 33  1  0  0  0
 26 34  1  0  0  0
 26 35  1  0  0  0
M  END
$$$$
