6c7i_ligand
  -I-interpret- 

 52 55  0  0  0  0  0  0  0  0999 V2000
    8.5830    5.8680    4.9360 C   0  0  0  0  0
    9.6340    6.7400    5.0750 C   0  0  0  0  0
   10.0560    7.1570    6.3160 C   0  0  0  0  0
    6.7170    4.5490    8.3980 C   0  0  0  0  0
    5.2690    3.3080    6.8070 N   0  0  0  0  0
    6.5980    3.8360    3.5420 C   0  0  0  0  0
    6.1770    4.2180    1.2400 C   0  0  0  0  0
    7.7820    3.2130    3.1830 C   0  0  0  0  0
   11.3960    9.1610    2.8910 C   0  0  0  0  0
    4.1480    5.0030    0.7530 C   0  0  0  0  0
   10.5880   10.3400    2.4080 C   0  0  0  0  0
    9.4050    6.6850    7.4330 C   0  0  0  0  0
    7.3580    3.6100    0.8930 C   0  0  0  0  0
    8.1740    3.1050    1.8700 C   0  0  0  0  0
    5.7730    4.3420    2.5530 C   0  0  0  0  0
    8.3490    5.8080    7.3350 C   0  0  0  0  0
    7.9560    5.4160    6.0690 C   0  0  0  0  0
    6.2450    3.8960    4.9480 C   0  0  0  0  0
    6.2650    4.1090    7.1160 C   0  0  0  0  0
   10.2970    7.2310    3.8640 C   0  0  0  0  0
    5.9880    4.0180    9.5920 C   0  0  0  0  0
    9.4930   10.6410    3.4010 C   0  0  0  0  0
   11.4890   11.5450    2.2790 C   0  0  0  0  0
    5.2690    3.1700    5.4450 N   0  0  0  0  0
    7.7190    5.3610    8.5070 N   0  0  0  0  0
    6.8910    4.5240    5.9850 N   0  0  0  0  0
   10.7260    8.5280    3.9950 N   0  0  0  0  0
   10.3880    6.5410    2.8580 O   0  0  0  0  0
    5.4180    4.6950    0.1960 O   0  0  0  0  0
    8.8780    2.5410    4.3520 Cl  0  0  0  0  0
    8.2546    5.5426    3.9489 H   0  0  0  0  0
   10.8920    7.8497    6.4132 H   0  0  0  0  0
   12.3773    9.5066    3.2162 H   0  0  0  0  0
   11.5063    8.4434    2.0780 H   0  0  0  0  0
    3.7117    4.1004    1.1808 H   0  0  0  0  0
    4.2674    5.7551    1.5328 H   0  0  0  0  0
    3.4938    5.3890   -0.0287 H   0  0  0  0  0
   10.1471   10.1056    1.4391 H   0  0  0  0  0
    9.7337    7.0137    8.4189 H   0  0  0  0  0
    7.6449    3.5296   -0.1555 H   0  0  0  0  0
    9.1180    2.6257    1.6109 H   0  0  0  0  0
    4.8292    4.8256    2.8048 H   0  0  0  0  0
    4.9389    4.3079    9.5341 H   0  0  0  0  0
    6.0654    2.9309    9.6095 H   0  0  0  0  0
    6.4306    4.4297   10.4990 H   0  0  0  0  0
    8.8438    9.7709    3.4989 H   0  0  0  0  0
    9.9363   10.8759    4.3687 H   0  0  0  0  0
    8.9104   11.4929    3.0504 H   0  0  0  0  0
   11.9265   11.7756    3.2504 H   0  0  0  0  0
   12.2826   11.3288    1.5638 H   0  0  0  0  0
   10.9060   12.3973    1.9301 H   0  0  0  0  0
   10.5715    9.0371    4.8652 H   0  0  0  0  0
  2  1  4  0  0  0
  1 17  4  0  0  0
  2  3  4  0  0  0
 20  2  1  0  0  0
  3 12  4  0  0  0
 19  4  4  0  0  0
  4 21  1  0  0  0
 25  4  4  0  0  0
 19  5  4  0  0  0
  5 24  4  0  0  0
  6  8  4  0  0  0
  6 15  4  0  0  0
 18  6  1  0  0  0
  7 13  4  0  0  0
 15  7  4  0  0  0
  7 29  1  0  0  0
  8 14  4  0  0  0
  8 30  1  0  0  0
  9 11  1  0  0  0
 27  9  1  0  0  0
 29 10  1  0  0  0
 11 22  1  0  0  0
 11 23  1  0  0  0
 12 16  4  0  0  0
 14 13  4  0  0  0
 17 16  4  0  0  0
 16 25  4  0  0  0
 17 26  4  0  0  0
 18 24  4  0  0  0
 26 18  4  0  0  0
 26 19  4  0  0  0
 20 27  1  0  0  0
 20 28  2  0  0  0
  1 31  1  0  0  0
  3 32  1  0  0  0
  9 33  1  0  0  0
  9 34  1  0  0  0
 10 35  1  0  0  0
 10 36  1  0  0  0
 10 37  1  0  0  0
 11 38  1  0  0  0
 12 39  1  0  0  0
 13 40  1  0  0  0
 14 41  1  0  0  0
 15 42  1  0  0  0
 21 43  1  0  0  0
 21 44  1  0  0  0
 21 45  1  0  0  0
 22 46  1  0  0  0
 22 47  1  0  0  0
 22 48  1  0  0  0
 23 49  1  0  0  0
 23 50  1  0  0  0
 23 51  1  0  0  0
 27 52  1  0  0  0
M  END
$$$$
