1xbc_ligand
  -I-interpret- 

 62 69  0  0  0  0  0  0  0  0999 V2000
    6.0430    3.6690   12.5560 C   0  0  0  0  0
    6.3950    4.7720   11.7760 C   0  0  0  0  0
    5.4350    5.4420   11.0070 C   0  0  0  0  0
    4.0950    5.0400   10.9830 C   0  0  0  0  0
    3.6630    3.9390   11.7300 C   0  0  0  0  0
    2.4570    3.3470   11.9160 N   0  0  0  0  0
    2.5470    2.3070   12.7690 C   0  0  0  0  0
    1.6340    1.4040   13.3240 C   0  0  0  0  0
    0.2450    1.2880   13.0930 N   0  0  0  0  0
   -0.2510    0.2190   13.8730 C   0  0  0  0  0
   -1.5470   -0.2800   13.9900 C   0  0  0  0  0
   -1.7380   -1.3670   14.8540 C   0  0  0  0  0
   -0.6820   -1.9480   15.5800 C   0  0  0  0  0
    0.6320   -1.4730   15.4890 C   0  0  0  0  0
    0.8460   -0.4050   14.6310 C   0  0  0  0  0
    2.0590    0.3580   14.2780 C   0  0  0  0  0
    3.4820    0.2660   14.6600 C   0  0  0  0  0
    4.2400   -0.6050   15.5820 C   0  0  0  0  0
    5.5020   -0.1520   15.6180 N   0  0  0  0  0
    5.8020    0.9420   14.6740 C   0  0  0  0  0
    4.4300    1.2250   14.1040 C   0  0  0  0  0
    3.9800    2.1920   13.2040 C   0  0  0  0  0
    4.7130    3.2710   12.5110 C   0  0  0  0  0
    1.1240    3.8070   11.4150 C   0  0  0  0  0
    0.5130    4.7680   12.4570 C   0  0  0  0  0
   -0.9940    4.5980   12.4890 C   0  0  0  0  0
   -1.3200    3.1870   12.9850 C   0  0  0  0  0
   -0.5530    2.1140   12.1830 C   0  0  0  0  0
    0.2880    2.6620   11.1590 O   0  0  0  0  0
    3.7620   -1.5520   16.1890 O   0  0  0  0  0
   -1.5810    5.6430   13.3080 N   0  3  0  0  0
   -1.4970    7.0250   12.8450 C   0  0  0  0  0
    0.9760    4.5220   13.7920 O   0  0  0  0  0
    1.8980    5.4880   14.2970 C   0  0  0  0  0
    1.2270    4.4960   10.0540 C   0  0  0  0  0
    6.7759    3.1458   13.1702 H   0  0  0  0  0
    7.4293    5.1159   11.7653 H   0  0  0  0  0
    5.7406    6.3013   10.4101 H   0  0  0  0  0
    3.3786    5.5918   10.3744 H   0  0  0  0  0
   -2.3765    0.1563   13.4335 H   0  0  0  0  0
   -2.7414   -1.7773   14.9677 H   0  0  0  0  0
   -0.8935   -2.7943   16.2336 H   0  0  0  0  0
    1.4442   -1.9195   16.0627 H   0  0  0  0  0
    6.2032   -0.5357   16.2516 H   0  0  0  0  0
    6.5444    0.6796   13.9203 H   0  0  0  0  0
    6.2700    1.8084   15.1413 H   0  0  0  0  0
    0.8166    5.7692   12.1511 H   0  0  0  0  0
   -1.4258    4.7011   11.4935 H   0  0  0  0  0
   -2.3888    3.0147   12.8579 H   0  0  0  0  0
   -1.0250    3.1122   14.0316 H   0  0  0  0  0
   -1.3038    1.5060   11.6782 H   0  0  0  0  0
   -1.0546    5.6231   14.1814 H   0  0  0  0  0
   -2.5785    5.4316   13.3335 H   0  0  0  0  0
   -0.4498    7.3090   12.7411 H   0  0  0  0  0
   -1.9966    7.1147   11.8804 H   0  0  0  0  0
   -1.9821    7.6795   13.5691 H   0  0  0  0  0
    2.7812    5.5138   13.6587 H   0  0  0  0  0
    1.4252    6.4701   14.3052 H   0  0  0  0  0
    2.1891    5.2150   15.3113 H   0  0  0  0  0
    0.2323    4.7948    9.7232 H   0  0  0  0  0
    1.8622    5.3775   10.1416 H   0  0  0  0  0
    1.6597    3.8052    9.3303 H   0  0  0  0  0
  1  2  4  0  0  0
  1 23  4  0  0  0
  2  3  4  0  0  0
  3  4  4  0  0  0
  4  5  4  0  0  0
  5  6  4  0  0  0
  5 23  4  0  0  0
  6  7  4  0  0  0
  6 24  1  0  0  0
  7  8  4  0  0  0
  7 22  4  0  0  0
  8  9  4  0  0  0
  8 16  4  0  0  0
  9 10  4  0  0  0
  9 28  1  0  0  0
 10 11  4  0  0  0
 10 15  4  0  0  0
 11 12  4  0  0  0
 12 13  4  0  0  0
 13 14  4  0  0  0
 14 15  4  0  0  0
 15 16  4  0  0  0
 16 17  4  0  0  0
 17 18  1  0  0  0
 17 21  4  0  0  0
 18 19  1  0  0  0
 18 30  2  0  0  0
 19 20  1  0  0  0
 20 21  1  0  0  0
 21 22  4  0  0  0
 22 23  4  0  0  0
 24 25  1  0  0  0
 24 29  1  0  0  0
 24 35  1  0  0  0
 25 26  1  0  0  0
 25 33  1  0  0  0
 26 27  1  0  0  0
 26 31  1  0  0  0
 27 28  1  0  0  0
 28 29  1  0  0  0
 31 32  1  0  0  0
 33 34  1  0  0  0
  1 36  1  0  0  0
  2 37  1  0  0  0
  3 38  1  0  0  0
  4 39  1  0  0  0
 11 40  1  0  0  0
 12 41  1  0  0  0
 13 42  1  0  0  0
 14 43  1  0  0  0
 19 44  1  0  0  0
 20 45  1  0  0  0
 20 46  1  0  0  0
 25 47  1  0  0  0
 26 48  1  0  0  0
 27 49  1  0  0  0
 27 50  1  0  0  0
 28 51  1  0  0  0
 31 52  1  0  0  0
 31 53  1  0  0  0
 32 54  1  0  0  0
 32 55  1  0  0  0
 32 56  1  0  0  0
 34 57  1  0  0  0
 34 58  1  0  0  0
 34 59  1  0  0  0
 35 60  1  0  0  0
 35 61  1  0  0  0
 35 62  1  0  0  0
M  END
$$$$
