1af6_ligand
  -I-interpret- 

 45 46  0  0  0  0  0  0  0  0999 V2000
   12.4190   39.2880   85.7670 C   0  0  0  0  0
   13.0120   37.8620   85.6750 C   0  0  0  0  0
   14.4260   37.9190   85.0500 C   0  0  0  0  0
   14.3370   38.5690   83.6650 C   0  0  0  0  0
   13.5240   39.8610   83.6470 C   0  0  0  0  0
   13.0830   40.1780   82.2090 C   0  0  0  0  0
   13.0850   37.3160   86.9890 O   0  0  0  0  0
   14.9570   36.5940   84.9620 O   0  0  0  0  0
   15.6480   38.8500   83.1520 O   0  0  0  0  0
   12.3140   39.8530   84.4570 O   0  0  0  0  0
   12.3130   41.3720   82.2470 O   0  0  0  0  0
   11.4430   40.9520   87.8580 C   0  0  0  0  0
   12.8040   41.2550   87.1810 C   0  0  0  0  0
   13.9170   41.7790   88.1490 C   0  0  0  0  0
   14.8430   42.4840   87.1270 C   0  0  0  0  0
   13.7690   43.2140   86.2970 C   0  0  0  0  0
   14.2040   43.6460   84.9250 C   0  0  0  0  0
   10.9650   42.0370   88.6640 O   0  0  0  0  0
   13.2970   40.0420   86.5380 O   0  0  0  0  0
   14.5930   40.6720   88.7730 O   0  0  0  0  0
   15.7700   43.3640   87.7470 O   0  0  0  0  0
   12.6650   42.2850   86.1410 O   0  0  0  0  0
   13.2820   44.6090   84.4310 O   0  0  0  0  0
   11.4240   39.2717   86.2118 H   0  0  0  0  0
   12.3788   37.2360   85.0464 H   0  0  0  0  0
   15.0921   38.5167   85.6722 H   0  0  0  0  0
   13.8213   37.8428   83.0367 H   0  0  0  0  0
   14.1986   40.6051   84.0705 H   0  0  0  0  0
   12.4909   39.3573   81.8040 H   0  0  0  0  0
   13.9529   40.3078   81.5652 H   0  0  0  0  0
   12.2045   37.2837   87.3703 H   0  0  0  0  0
   15.0025   36.2097   85.8405 H   0  0  0  0  0
   16.1717   38.0454   83.1573 H   0  0  0  0  0
   12.0239   41.5934   81.3587 H   0  0  0  0  0
   11.5810   40.0894   88.5100 H   0  0  0  0  0
   10.7114   40.7765   87.0693 H   0  0  0  0  0
   13.5710   42.4085   88.9688 H   0  0  0  0  0
   15.5014   41.8300   86.5552 H   0  0  0  0  0
   13.5188   44.1304   86.8315 H   0  0  0  0  0
   14.2290   42.7841   84.2582 H   0  0  0  0  0
   15.2013   44.0829   84.9754 H   0  0  0  0  0
   10.1231   41.7955   89.0570 H   0  0  0  0  0
   15.2725   41.0052   89.3636 H   0  0  0  0  0
   16.3186   43.7746   87.0746 H   0  0  0  0  0
   13.5535   44.8900   83.5541 H   0  0  0  0  0
  1  2  1  0  0  0
  1 10  1  0  0  0
  2  3  1  0  0  0
  2  7  1  0  0  0
  3  4  1  0  0  0
  3  8  1  0  0  0
  5  4  1  0  0  0
  4  9  1  0  0  0
  5  6  1  0  0  0
 10  5  1  0  0  0
  6 11  1  0  0  0
 13 12  1  0  0  0
 12 18  1  0  0  0
 13 14  1  0  0  0
 19 13  1  0  0  0
 13 22  1  0  0  0
 14 15  1  0  0  0
 14 20  1  0  0  0
 16 15  1  0  0  0
 15 21  1  0  0  0
 16 17  1  0  0  0
 22 16  1  0  0  0
 17 23  1  0  0  0
 19  1  1  0  0  0
  1 24  1  0  0  0
  2 25  1  0  0  0
  3 26  1  0  0  0
  4 27  1  0  0  0
  5 28  1  0  0  0
  6 29  1  0  0  0
  6 30  1  0  0  0
  7 31  1  0  0  0
  8 32  1  0  0  0
  9 33  1  0  0  0
 11 34  1  0  0  0
 12 35  1  0  0  0
 12 36  1  0  0  0
 14 37  1  0  0  0
 15 38  1  0  0  0
 16 39  1  0  0  0
 17 40  1  0  0  0
 17 41  1  0  0  0
 18 42  1  0  0  0
 20 43  1  0  0  0
 21 44  1  0  0  0
 23 45  1  0  0  0
M  END
$$$$
