### 
### Created by X-TOOL on Mon Sep 10 21:12:53 2018
### 

@<TRIPOS>MOLECULE
2h6q_ligand
  123   122     1     0     0
SMALL
GAST_HUCK


@<TRIPOS>ATOM
      1 N           4.7450    6.1730   46.0520 N.4       1 ALA         0.2377
      2 CA          6.1310    5.6240   46.0130 C.3       1 ALA         0.0621
      3 C           6.7390    5.7210   44.6130 C.2       1 ALA         0.2264
      4 O           7.9440    5.9280   44.4790 O.2       1 ALA        -0.3907
      5 CB          6.1450    4.1690   46.4950 C.3       1 ALA        -0.0040
      6 N           5.9150    5.5830   43.5710 N.am      1 ARG        -0.2610
      7 CA          6.4470    5.5700   42.2080 C.3       1 ARG         0.1312
      8 C           7.2030    6.8570   41.8530 C.2       1 ARG         0.2040
      9 O           8.1140    6.8360   41.0350 O.2       1 ARG        -0.3944
     10 CB          5.3430    5.3070   41.1750 C.3       1 ARG        -0.0092
     11 CG          5.9150    5.0820   39.7630 C.3       1 ARG        -0.0156
     12 CD          4.8320    4.7980   38.7220 C.3       1 ARG         0.0627
     13 NE          4.0240    3.6160   39.0380 N.pl3     1 ARG        -0.2723
     14 CZ          4.2430    2.3860   38.5520 C.cat     1 ARG         0.2882
     15 NH1         5.2710    2.1360   37.7180 N.pl3     1 ARG        -0.2849
     16 NH2         3.4250    1.3950   38.8950 N.pl3     1 ARG        -0.2849
     17 N           6.8320    7.9670   42.4710 N.am      1 THR        -0.2613
     18 CA          7.4010    9.2700   42.0740 C.3       1 THR         0.1565
     19 C           8.7180    9.6170   42.7900 C.2       1 THR         0.2065
     20 O           9.3070   10.6880   42.5570 O.2       1 THR        -0.3943
     21 CB          6.3730   10.4180   42.2530 C.3       1 THR         0.0924
     22 OG1         6.0790   10.5510   43.6360 O.3       1 THR        -0.3874
     23 CG2         5.0590   10.1550   41.4750 C.3       1 THR        -0.0346
     24 N           9.1810    8.7170   43.6520 N.am      1 M3L        -0.2637
     25 CA         10.5230    8.8330   44.2560 C.3       1 M3L         0.1310
     26 CB         10.3560    8.8710   45.7660 C.3       1 M3L        -0.0122
     27 CG          9.5100   10.0750   46.1800 C.3       1 M3L        -0.0440
     28 CD         10.1750   11.4040   45.8040 C.3       1 M3L        -0.0123
     29 CE          9.3280   12.5920   46.2880 C.3       1 M3L        -0.0309
     30 NZ          9.6800   13.8800   45.6510 N.4       1 M3L         0.2369
     31 C          11.3990    7.6700   43.8530 C.2       1 M3L         0.2039
     32 O          10.9030    6.6800   43.3130 O.2       1 M3L        -0.3944
     33 CM1        11.1380   14.1480   45.6860 C.3       1 M3L        -0.0418
     34 CM2         9.0180   14.9920   46.3650 C.3       1 M3L        -0.0418
     35 CM3         9.2100   13.8320   44.2500 C.3       1 M3L        -0.0418
     36 N          12.7010    7.7490   44.1080 N.am      1 GLN        -0.2636
     37 CA         13.5880    6.6510   43.7410 C.3       1 GLN         0.1330
     38 C          13.6950    5.7300   44.9340 C.2       1 GLN         0.2041
     39 O          14.0650    6.1740   46.0270 O.2       1 GLN        -0.3944
     40 CB         14.9750    7.1570   43.3600 C.3       1 GLN         0.0045
     41 CG         14.9850    8.2540   42.3570 C.3       1 GLN         0.0412
     42 CD         16.3520    8.8710   42.1940 C.2       1 GLN         0.1737
     43 OE1        17.3770    8.2090   42.3850 O.2       1 GLN        -0.3973
     44 NE2        16.3800   10.1540   41.8390 N.am      1 GLN        -0.3009
     45 N          13.3410    4.4640   44.7320 N.am      1 THR        -0.2613
     46 CA         13.2960    3.4770   45.8190 C.3       1 THR         0.1564
     47 C          14.1430    2.2340   45.5340 C.2       1 THR         0.2059
     48 O          14.1720    1.2840   46.3320 O.2       1 THR        -0.3943
     49 CB         11.8400    3.0390   46.0960 C.3       1 THR         0.0924
     50 OG1        11.2400    2.6010   44.8670 O.3       1 THR        -0.3874
     51 CG2        11.0160    4.2070   46.6770 C.3       1 THR        -0.0346
     52 N          14.8340    2.2350   44.4030 N.am      1 ALA        -0.2697
     53 CA         15.5700    1.0530   43.9860 C.3       1 ALA         0.0916
     54 C          17.0200    1.1680   44.4200 C.2       1 ALA         0.0598
     55 O          17.4420    2.2700   44.7820 O.co2     1 ALA        -0.5666
     56 CB         15.4700    0.8750   42.4980 C.3       1 ALA        -0.0300
     57 O1         17.7764    0.1604   44.4109 O.co2     1 ALA        -0.5666
     58 H1          4.3779    6.0924   46.9873 H         1 ALA         0.2015
     59 H2          4.1601    5.6543   45.4157 H         1 ALA         0.2015
     60 H3          4.7601    7.1433   45.7795 H         1 ALA         0.2015
     61 H4          6.7524    6.2207   46.6969 H         1 ALA         0.1095
     62 H5          7.1737    3.7809   46.4596 H         1 ALA         0.0310
     63 H6          5.5010    3.5605   45.8431 H         1 ALA         0.0310
     64 H7          5.7705    4.1214   47.5282 H         1 ALA         0.0310
     65 H8          4.9311    5.4882   43.7228 H         1 ARG         0.1884
     66 H9          7.1651    4.7389   42.1483 H         1 ARG         0.0800
     67 H10         4.6664    6.1739   41.1499 H         1 ARG         0.0313
     68 H11         4.7803    4.4113   41.4769 H         1 ARG         0.0313
     69 H12         6.6041    4.2252   39.7956 H         1 ARG         0.0301
     70 H13         6.4660    5.9843   39.4593 H         1 ARG         0.0301
     71 H14         5.3166    4.6399   37.7473 H         1 ARG         0.0689
     72 H15         4.1659    5.6714   38.6630 H         1 ARG         0.0689
     73 H16         3.2291    3.7399   39.6812 H         1 ARG         0.2642
     74 H17         5.4208    1.1833   37.3564 H         1 ARG         0.2615
     75 H18         5.9072    2.8976   37.4420 H         1 ARG         0.2615
     76 H19         2.6360    1.5756   39.5320 H         1 ARG         0.2615
     77 H20         3.5805    0.4470   38.5236 H         1 ARG         0.2615
     78 H21         6.1618    7.9227   43.2118 H         1 THR         0.1884
     79 H22         7.6301    9.1997   41.0004 H         1 THR         0.0826
     80 H23         6.8191   11.3531   41.8834 H         1 THR         0.0639
     81 H24         5.7145    9.7361   43.9609 H         1 THR         0.2101
     82 H25         4.3652   10.9938   41.6331 H         1 THR         0.0257
     83 H26         4.5980    9.2245   41.8378 H         1 THR         0.0257
     84 H27         5.2810   10.0600   40.4018 H         1 THR         0.0257
     85 H28         8.6034    7.9388   43.8984 H         1 M3L         0.1883
     86 H29        10.9949    9.7669   43.9167 H         1 M3L         0.0800
     87 H30        11.3467    8.9450   46.2382 H         1 M3L         0.0312
     88 H31         9.8592    7.9477   46.0988 H         1 M3L         0.0312
     89 H32         9.3635   10.0476   47.2698 H         1 M3L         0.0269
     90 H33         8.5337   10.0122   45.6771 H         1 M3L         0.0269
     91 H34        10.2810   11.4580   44.7105 H         1 M3L         0.0317
     92 H35        11.1693   11.4553   46.2717 H         1 M3L         0.0317
     93 H36         9.4647   12.6946   47.3746 H         1 M3L         0.0815
     94 H37         8.2718   12.3755   46.0702 H         1 M3L         0.0815
     95 H38        11.3450   15.1136   45.2015 H         1 M3L         0.0778
     96 H39        11.6709   13.3479   45.1513 H         1 M3L         0.0778
     97 H40        11.4797   14.1814   46.7310 H         1 M3L         0.0778
     98 H41         7.9296   14.8327   46.3630 H         1 M3L         0.0778
     99 H42         9.2505   15.9416   45.8608 H         1 M3L         0.0778
    100 H43         9.3811   15.0293   47.4026 H         1 M3L         0.0778
    101 H44         9.7065   13.0026   43.7249 H         1 M3L         0.0778
    102 H45         9.4528   14.7807   43.7491 H         1 M3L         0.0778
    103 H46         8.1211   13.6768   44.2336 H         1 M3L         0.0778
    104 H47        13.0735    8.5635   44.5527 H         1 GLN         0.1883
    105 H48        13.1592    6.1054   42.8875 H         1 GLN         0.0801
    106 H49        15.5463    6.3119   42.9484 H         1 GLN         0.0337
    107 H50        15.4681    7.5233   44.2725 H         1 GLN         0.0337
    108 H51        14.2811    9.0350   42.6804 H         1 GLN         0.0504
    109 H52        14.6624    7.8486   41.3867 H         1 GLN         0.0504
    110 H53        17.2563   10.6195   41.7151 H         1 GLN         0.1814
    111 H54        15.5247   10.6521   41.6962 H         1 GLN         0.1814
    112 H55        13.0967    4.1736   43.8068 H         1 THR         0.1884
    113 H56        13.6934    3.9589   46.7244 H         1 THR         0.0826
    114 H57        11.8446    2.2086   46.8174 H         1 THR         0.0639
    115 H58        11.2460    3.3154   44.2407 H         1 THR         0.2101
    116 H59         9.9857    3.8709   46.8652 H         1 THR         0.0257
    117 H60        11.0044    5.0404   45.9591 H         1 THR         0.0257
    118 H61        11.4704    4.5424   47.6209 H         1 THR         0.0257
    119 H62        14.8491    3.0557   43.8319 H         1 ALA         0.1875
    120 H63        15.1271    0.1719   44.4733 H         1 ALA         0.0723
    121 H64        16.0310   -0.0222   42.1976 H         1 ALA         0.0270
    122 H65        15.8918    1.7571   41.9940 H         1 ALA         0.0270
    123 H66        14.4139    0.7597   42.2126 H         1 ALA         0.0270
@<TRIPOS>BOND
     1    1    2 1  
     2    2    3 1  
     3    2    5 1  
     4    3    4 2  
     5    3    6 am 
     6    6    7 1  
     7    7    8 1  
     8    7   10 1  
     9    8    9 2  
    10    8   17 am 
    11   10   11 1  
    12   11   12 1  
    13   12   13 1  
    14   13   14 ar 
    15   14   15 ar 
    16   14   16 ar 
    17   17   18 1  
    18   18   19 1  
    19   18   21 1  
    20   19   20 2  
    21   19   24 am 
    22   21   22 1  
    23   21   23 1  
    24   24   25 1  
    25   25   26 1  
    26   25   31 1  
    27   26   27 1  
    28   27   28 1  
    29   28   29 1  
    30   29   30 1  
    31   30   33 1  
    32   30   34 1  
    33   30   35 1  
    34   31   32 2  
    35   31   36 am 
    36   36   37 1  
    37   37   38 1  
    38   37   40 1  
    39   38   39 2  
    40   38   45 am 
    41   40   41 1  
    42   41   42 1  
    43   42   43 2  
    44   42   44 am 
    45   45   46 1  
    46   46   47 1  
    47   46   49 1  
    48   47   48 2  
    49   47   52 am 
    50   49   50 1  
    51   49   51 1  
    52   52   53 1  
    53   53   54 1  
    54   53   56 1  
    55   54   55 ar 
    56   54   57 ar 
    57    1   58 1  
    58    1   59 1  
    59    1   60 1  
    60    2   61 1  
    61    5   62 1  
    62    5   63 1  
    63    5   64 1  
    64    6   65 1  
    65    7   66 1  
    66   10   67 1  
    67   10   68 1  
    68   11   69 1  
    69   11   70 1  
    70   12   71 1  
    71   12   72 1  
    72   13   73 1  
    73   15   74 1  
    74   15   75 1  
    75   16   76 1  
    76   16   77 1  
    77   17   78 1  
    78   18   79 1  
    79   21   80 1  
    80   22   81 1  
    81   23   82 1  
    82   23   83 1  
    83   23   84 1  
    84   24   85 1  
    85   25   86 1  
    86   26   87 1  
    87   26   88 1  
    88   27   89 1  
    89   27   90 1  
    90   28   91 1  
    91   28   92 1  
    92   29   93 1  
    93   29   94 1  
    94   33   95 1  
    95   33   96 1  
    96   33   97 1  
    97   34   98 1  
    98   34   99 1  
    99   34  100 1  
   100   35  101 1  
   101   35  102 1  
   102   35  103 1  
   103   36  104 1  
   104   37  105 1  
   105   40  106 1  
   106   40  107 1  
   107   41  108 1  
   108   41  109 1  
   109   44  110 1  
   110   44  111 1  
   111   45  112 1  
   112   46  113 1  
   113   49  114 1  
   114   50  115 1  
   115   51  116 1  
   116   51  117 1  
   117   51  118 1  
   118   52  119 1  
   119   53  120 1  
   120   56  121 1  
   121   56  122 1  
   122   56  123 1  
@<TRIPOS>SUBSTRUCTURE
     1 ALA         1

