1oif_ligand
  -I-interpret- 

 24 24  0  0  0  0  0  0  0  0999 V2000
   -1.2450   10.9210    6.4200 O   0  0  0  0  0
   -0.8590   10.6970    7.7800 C   0  0  0  0  0
    0.0200   11.9210    8.2090 C   0  0  0  0  0
    1.1280   12.2160    7.3640 O   0  0  0  0  0
    0.4770   11.8650    9.6770 C   0  0  0  0  0
   -0.6170   11.5090   10.6020 N   0  3  0  0  0
   -1.4470   10.3550   10.1920 C   0  0  0  0  0
   -2.0480   10.5600    8.7840 C   0  0  0  0  0
   -2.9910    9.3730    8.4930 C   0  0  0  0  0
   -2.2870    8.1680    8.8340 O   0  0  0  0  0
   -0.4592   10.9929    5.8732 H   0  0  0  0  0
   -0.3321    9.7436    7.8178 H   0  0  0  0  0
   -0.6778   12.7499    8.0907 H   0  0  0  0  0
    0.8329   12.2487    6.4511 H   0  0  0  0  0
    0.8388   12.8556    9.9526 H   0  0  0  0  0
    1.2468   11.0976    9.7585 H   0  0  0  0  0
   -1.2397   12.3160   10.6398 H   0  0  0  0  0
   -0.1779   11.2517   11.4860 H   0  0  0  0  0
   -2.2654   10.2486   10.9041 H   0  0  0  0  0
   -0.8160    9.4665   10.1715 H   0  0  0  0  0
   -2.6480   11.4656    8.6946 H   0  0  0  0  0
   -3.2770    9.3625    7.4412 H   0  0  0  0  0
   -3.9050    9.4596    9.0806 H   0  0  0  0  0
   -2.8508    7.4100    8.6629 H   0  0  0  0  0
  1  2  1  0  0  0
  2  3  1  0  0  0
  2  8  1  0  0  0
  3  4  1  0  0  0
  3  5  1  0  0  0
  5  6  1  0  0  0
  6  7  1  0  0  0
  7  8  1  0  0  0
  8  9  1  0  0  0
  9 10  1  0  0  0
  1 11  1  0  0  0
  2 12  1  0  0  0
  3 13  1  0  0  0
  4 14  1  0  0  0
  5 15  1  0  0  0
  5 16  1  0  0  0
  6 17  1  0  0  0
  6 18  1  0  0  0
  7 19  1  0  0  0
  7 20  1  0  0  0
  8 21  1  0  0  0
  9 22  1  0  0  0
  9 23  1  0  0  0
 10 24  1  0  0  0
M  END
$$$$
