### 
### Created by X-TOOL on Mon Sep 10 21:13:10 2018
### 

@<TRIPOS>MOLECULE
4ee0_ligand
   50    53     1     0     0
SMALL
GAST_HUCK


@<TRIPOS>ATOM
      1 O1         23.5820    2.6570   18.1010 O.2       1 0O4        -0.3840
      2 C2         23.1250    1.5280   18.0970 C.2       1 0O4         0.2060
      3 N3         23.9430    0.4690   18.1140 N.am      1 0O4        -0.2879
      4 C4         25.4070    0.5150   18.1240 C.3       1 0O4         0.0119
      5 C5         25.8110    0.1090   19.5400 C.3       1 0O4        -0.0922
      6 N6         27.1380    0.6050   19.9270 N.4       1 0O4         0.4073
      7 C11        27.4750    0.5120   21.3470 C.3       1 0O4        -0.0888
      8 C10        28.6170    1.4820   21.6290 C.3       1 0O4         0.0291
      9 O9         29.7680    1.1560   20.8430 O.3       1 0O4        -0.3838
     10 C8         29.4920    0.6970   19.5090 C.3       1 0O4         0.0291
     11 C7         28.1220    1.1520   18.9950 C.3       1 0O4        -0.0888
     12 C12        21.6270    1.3570   18.1000 C.ar      1 0O4         0.0517
     13 C13        20.7780    2.4670   18.0230 C.ar      1 0O4        -0.0392
     14 C17        21.0600    0.0900   18.1850 C.ar      1 0O4        -0.0392
     15 C16        19.6790   -0.0580   18.1970 C.ar      1 0O4        -0.0444
     16 C15        18.8300    1.0500   18.0740 C.ar      1 0O4         0.0063
     17 C14        19.3880    2.3200   18.0300 C.ar      1 0O4        -0.0444
     18 C18        17.3670    0.8130   18.1510 C.ar      1 0O4         0.0623
     19 N19        16.6780    1.5780   19.0420 N.ar      1 0O4        -0.2927
     20 C20        15.3570    1.4130   19.2480 C.ar      1 0O4         0.0063
     21 C27        16.7060   -0.1980   17.4380 C.ar      1 0O4         0.0157
     22 C26        17.3540   -1.0120   16.5030 C.ar      1 0O4        -0.0451
     23 C25        16.6440   -1.9860   15.8190 C.ar      1 0O4        -0.0556
     24 C22        15.3390   -0.3670   17.6420 C.ar      1 0O4        -0.0025
     25 C21        14.6660    0.4330   18.5520 C.ar      1 0O4        -0.0319
     26 C23        14.6400   -1.3490   16.9550 C.ar      1 0O4        -0.0467
     27 C24        15.2940   -2.1550   16.0440 C.ar      1 0O4        -0.0558
     28 H          23.5077   -0.4534   18.1206 H         1 0O4         0.1844
     29 H          25.7798    1.5068   17.8683 H         1 0O4         0.0499
     30 H          25.8353   -0.1529   17.3766 H         1 0O4         0.0499
     31 H          25.8419   -0.9800   19.5755 H         1 0O4         0.0037
     32 H          25.0835    0.5401   20.2277 H         1 0O4         0.0037
     33 H          27.7772   -0.5055   21.5949 H         1 0O4         0.0040
     34 H          26.6075    0.7667   21.9559 H         1 0O4         0.0040
     35 H          28.8820    1.4151   22.6842 H         1 0O4         0.0539
     36 H          28.2919    2.4907   21.3740 H         1 0O4         0.0539
     37 H          29.4976   -0.3929   19.5235 H         1 0O4         0.0539
     38 H          30.2517    1.1152   18.8486 H         1 0O4         0.0539
     39 H          28.0595    2.2392   18.9491 H         1 0O4         0.0040
     40 H          27.9438    0.7964   17.9802 H         1 0O4         0.0040
     41 H          21.2093    3.4658   17.9563 H         1 0O4         0.0674
     42 H          21.7013   -0.7895   18.2424 H         1 0O4         0.0674
     43 H          19.2481   -1.0535   18.3040 H         1 0O4         0.0656
     44 H          18.7447    3.1995   18.0010 H         1 0O4         0.0656
     45 H          14.8321    2.0490   19.9608 H         1 0O4         0.0777
     46 H          18.4190   -0.8800   16.3121 H         1 0O4         0.0656
     47 H          17.1563   -2.6230   15.0980 H         1 0O4         0.0644
     48 H          13.5982    0.2923   18.7197 H         1 0O4         0.0710
     49 H          13.5735   -1.4845   17.1345 H         1 0O4         0.0645
     50 H          14.7433   -2.9245   15.5030 H         1 0O4         0.0653
@<TRIPOS>BOND
     1    1    2 2  
     2    2    3 am 
     3    2   12 1  
     4    3    4 1  
     5    4    5 1  
     6    5    6 1  
     7    6    7 1  
     8    6   11 1  
     9    7    8 1  
    10    8    9 1  
    11    9   10 1  
    12   10   11 1  
    13   12   13 ar 
    14   12   14 ar 
    15   13   17 ar 
    16   14   15 ar 
    17   15   16 ar 
    18   16   17 ar 
    19   16   18 1  
    20   18   19 ar 
    21   18   21 ar 
    22   19   20 ar 
    23   20   25 ar 
    24   21   22 ar 
    25   21   24 ar 
    26   22   23 ar 
    27   23   27 ar 
    28   24   25 ar 
    29   24   26 ar 
    30   26   27 ar 
    31    3   28 1  
    32    4   29 1  
    33    4   30 1  
    34    5   31 1  
    35    5   32 1  
    36    7   33 1  
    37    7   34 1  
    38    8   35 1  
    39    8   36 1  
    40   10   37 1  
    41   10   38 1  
    42   11   39 1  
    43   11   40 1  
    44   13   41 1  
    45   14   42 1  
    46   15   43 1  
    47   17   44 1  
    48   20   45 1  
    49   22   46 1  
    50   23   47 1  
    51   25   48 1  
    52   26   49 1  
    53   27   50 1  
@<TRIPOS>SUBSTRUCTURE
     1 0O4         1

