5aol_ligand
  -I-interpret- 

 19 19  0  0  0  0  0  0  0  0999 V2000
   90.9510   88.8590  -41.6310 C   0  0  0  0  0
   92.1710   89.4800  -41.4430 C   0  0  0  0  0
   92.3710   90.7770  -41.8770 C   0  0  0  0  0
   91.3330   91.4330  -42.5180 C   0  0  0  0  0
   90.1030   90.8090  -42.7180 C   0  0  0  0  0
   89.9030   89.5050  -42.2700 C   0  0  0  0  0
   88.6580   88.8270  -42.4760 N   0  0  0  0  0
   89.0450   91.5050  -43.3760 N   0  0  0  0  0
   90.6830   87.0560  -40.9760 Br  0  0  0  0  0
   93.6910   91.4490  -41.6810 C   0  0  0  0  0
   94.1690   91.8110  -42.8660 F   0  0  0  0  0
   94.5360   90.6090  -41.0970 F   0  0  0  0  0
   93.5800   92.5200  -40.9000 F   0  0  0  0  0
   92.9811   88.9434  -40.9491 H   0  0  0  0  0
   91.4805   92.4534  -42.8716 H   0  0  0  0  0
   88.5405   87.8668  -42.1525 H   0  0  0  0  0
   87.8890   89.3044  -42.9462 H   0  0  0  0  0
   89.1882   92.4612  -43.7010 H   0  0  0  0  0
   88.1456   91.0463  -43.5213 H   0  0  0  0  0
  1  2  4  0  0  0
  1  6  4  0  0  0
  1  9  1  0  0  0
  2  3  4  0  0  0
  3  4  4  0  0  0
  3 10  1  0  0  0
  4  5  4  0  0  0
  5  6  4  0  0  0
  5  8  1  0  0  0
  6  7  1  0  0  0
 10 11  1  0  0  0
 10 12  1  0  0  0
 10 13  1  0  0  0
  2 14  1  0  0  0
  4 15  1  0  0  0
  7 16  1  0  0  0
  7 17  1  0  0  0
  8 18  1  0  0  0
  8 19  1  0  0  0
M  END
$$$$
