4x6i_ligand
  -I-interpret- 

 42 43  0  0  0  0  0  0  0  0999 V2000
   13.3410   10.1500  -19.1330 C   0  0  0  0  0
   13.0860    8.7350  -18.9810 C   0  0  0  0  0
   15.2850    7.6420  -18.9350 C   0  0  0  0  0
   16.2080    6.5710  -19.5510 C   0  0  0  0  0
   16.8330    4.0990  -19.1030 C   0  0  0  0  0
   16.5320    3.7670  -20.5630 C   0  0  0  0  0
   16.7430    4.9760  -21.4780 C   0  0  0  0  0
   15.8360    6.1350  -20.9890 C   0  0  0  0  0
   17.9830    8.2220  -20.1330 C   0  0  0  0  0
   19.2790    8.7300  -19.5760 C   0  0  0  0  0
   19.5300   10.0910  -19.4980 C   0  0  0  0  0
   20.1800    7.8170  -18.9730 C   0  0  0  0  0
   13.5730   11.2690  -19.2180 N   0  0  0  0  0
   14.1110    7.8830  -19.5270 N   0  0  0  0  0
   15.5760    8.2170  -17.8780 O   0  0  0  0  0
   16.0520    5.3510  -18.6370 C   0  0  0  0  0
   17.6020    7.0350  -19.5680 N   0  0  0  0  0
   17.1900    8.9500  -20.7880 O   0  0  0  0  0
   20.6580   10.5420  -18.8500 C   0  0  0  0  0
   21.5280    9.6410  -18.2460 C   0  0  0  0  0
   21.3190    8.2690  -18.3020 C   0  0  0  0  0
   18.7040   11.1380  -20.0750 N   0  0  0  0  0
   23.0140   10.3880  -17.3230 Br  0  0  0  0  0
   12.1661    8.5160  -19.5231 H   0  0  0  0  0
   13.0380    8.5320  -17.9111 H   0  0  0  0  0
   17.8999    4.3003  -19.0063 H   0  0  0  0  0
   16.5311    3.2528  -18.4859 H   0  0  0  0  0
   15.4884    3.4609  -20.6360 H   0  0  0  0  0
   17.2105    2.9753  -20.8806 H   0  0  0  0  0
   16.4860    4.7128  -22.5040 H   0  0  0  0  0
   17.7877    5.2855  -21.4472 H   0  0  0  0  0
   15.9709    6.9866  -21.6559 H   0  0  0  0  0
   14.8017    5.7910  -20.9910 H   0  0  0  0  0
   19.9814    6.7470  -19.0337 H   0  0  0  0  0
   13.9290    7.4339  -20.4246 H   0  0  0  0  0
   14.9947    5.0860  -18.6350 H   0  0  0  0  0
   16.4482    5.6301  -17.6607 H   0  0  0  0  0
   18.3171    6.4468  -19.1400 H   0  0  0  0  0
   20.8700   11.6104  -18.8103 H   0  0  0  0  0
   22.0173    7.5712  -17.8398 H   0  0  0  0  0
   17.8578   10.8945  -20.5898 H   0  0  0  0  0
   18.9704   12.1165  -19.9652 H   0  0  0  0  0
  2  1  1  0  0  0
  1 13  3  0  0  0
 14  2  1  0  0  0
  4  3  1  0  0  0
  3 14  1  0  0  0
  3 15  2  0  0  0
  4  8  1  0  0  0
  4 16  1  0  0  0
 17  4  1  0  0  0
  5  6  1  0  0  0
 16  5  1  0  0  0
  7  6  1  0  0  0
  8  7  1  0  0  0
  9 10  1  0  0  0
  9 17  1  0  0  0
  9 18  2  0  0  0
 10 11  4  0  0  0
 10 12  4  0  0  0
 11 19  4  0  0  0
 11 22  1  0  0  0
 12 21  4  0  0  0
 19 20  4  0  0  0
 20 21  4  0  0  0
 20 23  1  0  0  0
  2 24  1  0  0  0
  2 25  1  0  0  0
  5 26  1  0  0  0
  5 27  1  0  0  0
  6 28  1  0  0  0
  6 29  1  0  0  0
  7 30  1  0  0  0
  7 31  1  0  0  0
  8 32  1  0  0  0
  8 33  1  0  0  0
 12 34  1  0  0  0
 14 35  1  0  0  0
 16 36  1  0  0  0
 16 37  1  0  0  0
 17 38  1  0  0  0
 19 39  1  0  0  0
 21 40  1  0  0  0
 22 41  1  0  0  0
 22 42  1  0  0  0
M  END
$$$$
