4zek_ligand
  -I-interpret- 

 34 34  0  0  0  0  0  0  0  0999 V2000
  -13.3670  -26.2370   21.8030 C   0  0  0  0  0
  -14.8510  -26.0020   22.0710 C   0  0  0  0  0
  -15.2140  -25.7370   23.4990 C   0  0  0  0  0
  -15.6860  -26.9100   21.4320 O   0  0  0  0  0
  -16.6860  -26.4640   20.3100 P   0  0  0  0  0
  -17.8670  -27.4020   20.3190 O   0  0  0  0  0
  -17.1490  -25.0690   20.5760 O   0  0  0  0  0
  -15.9970  -26.4420   18.8850 O   0  0  0  0  0
  -15.8420  -27.5880   18.0160 C   0  0  0  0  0
  -14.4510  -27.9270   17.8610 C   0  0  0  0  0
  -13.8700  -28.3960   19.1450 O   0  0  0  0  0
  -14.1440  -28.8610   16.8420 C   0  0  0  0  0
  -14.5300  -30.1940   17.2210 O   0  0  0  0  0
  -14.8340  -28.5570   15.5280 C   0  0  0  0  0
  -16.2020  -28.2330   15.7100 O   0  0  0  0  0
  -16.4390  -27.2340   16.6730 C   0  0  0  0  0
  -17.7920  -27.0330   16.7710 O   0  0  0  0  0
  -13.0897  -27.2325   22.1496 H   0  0  0  0  0
  -13.1752  -26.1569   20.7330 H   0  0  0  0  0
  -12.7800  -25.4888   22.3356 H   0  0  0  0  0
  -15.0466  -25.0447   21.5878 H   0  0  0  0  0
  -16.2249  -25.3322   23.5465 H   0  0  0  0  0
  -15.1674  -26.6684   24.0633 H   0  0  0  0  0
  -14.5131  -25.0181   23.9233 H   0  0  0  0  0
  -17.5647  -28.2969   20.1477 H   0  0  0  0  0
  -16.3483  -28.4514   18.4475 H   0  0  0  0  0
  -13.9973  -26.9890   17.5410 H   0  0  0  0  0
  -12.9444  -28.6151   19.0150 H   0  0  0  0  0
  -13.0648  -28.7849   16.7092 H   0  0  0  0  0
  -14.3100  -30.8033   16.5125 H   0  0  0  0  0
  -14.7745  -29.4446   14.8981 H   0  0  0  0  0
  -14.3381  -27.6998   15.0726 H   0  0  0  0  0
  -15.9501  -26.3133   16.3546 H   0  0  0  0  0
  -18.1447  -26.8102   15.9064 H   0  0  0  0  0
  1  2  1  0  0  0
  2  3  1  0  0  0
  2  4  1  0  0  0
  4  5  1  0  0  0
  5  6  1  0  0  0
  5  7  2  0  0  0
  5  8  1  0  0  0
  8  9  1  0  0  0
  9 10  1  0  0  0
  9 16  1  0  0  0
 10 11  1  0  0  0
 10 12  1  0  0  0
 12 13  1  0  0  0
 12 14  1  0  0  0
 14 15  1  0  0  0
 15 16  1  0  0  0
 16 17  1  0  0  0
  1 18  1  0  0  0
  1 19  1  0  0  0
  1 20  1  0  0  0
  2 21  1  0  0  0
  3 22  1  0  0  0
  3 23  1  0  0  0
  3 24  1  0  0  0
  6 25  1  0  0  0
  9 26  1  0  0  0
 10 27  1  0  0  0
 11 28  1  0  0  0
 12 29  1  0  0  0
 13 30  1  0  0  0
 14 31  1  0  0  0
 14 32  1  0  0  0
 16 33  1  0  0  0
 17 34  1  0  0  0
M  END
$$$$
