1o5m_ligand
  -I-interpret- 

 67 71  0  0  0  0  0  0  0  0999 V2000
  187.0850  131.7040   33.5950 C   0  0  0  0  0
  186.5480  129.3030   32.9650 C   0  0  0  0  0
  185.5670  129.2750   34.1290 C   0  0  0  0  0
  185.9990  130.1840   35.2580 C   0  0  0  0  0
  186.2300  131.5440   34.7780 N   0  0  0  0  0
  186.7040  130.7330   32.4780 C   0  0  0  0  0
  182.9210  123.6340   33.6710 Cl  0  0  0  0  0
  189.3290  126.9440   30.2190 C   0  0  0  0  0
  183.8560  124.9740   33.1350 C   0  0  0  0  0
  185.2100  125.0900   33.4790 C   0  0  0  0  0
  187.3990  126.3340   33.4020 C   0  0  0  0  0
  188.2570  125.9940   32.2370 C   0  0  0  0  0
  183.9730  127.0570   31.9000 C   0  0  0  0  0
  189.4490  127.8370   29.1540 C   0  0  0  0  0
  188.4800  128.8380   29.0030 C   0  0  0  0  0
  187.4640  128.9310   29.8640 N   0  0  0  0  0
  186.1110  128.3570   31.7660 C   0  0  0  0  0
  183.2440  125.9510   32.3480 C   0  0  0  0  0
  190.9020  127.6770   27.9550 Br  0  0  0  0  0
  183.0970  128.3630   30.8380 Br  0  0  0  0  0
  187.3140  128.0810   30.9040 C   0  0  0  0  0
  185.3350  127.1790   32.2400 C   0  0  0  0  0
  188.2680  127.0420   31.1220 C   0  0  0  0  0
  185.9430  126.1930   33.0310 C   0  0  0  0  0
  185.6190  136.4690   35.1620 C   0  0  0  0  0
  185.5270  137.5850   36.2030 C   0  0  0  0  0
  185.7850  135.0940   35.8090 C   0  0  0  0  0
  186.8820  135.0780   36.8700 C   0  0  0  0  0
  186.6240  137.4630   37.1640 N   0  0  0  0  0
  187.5070  138.4670   37.3900 C   0  0  0  0  0
  188.4200  138.1080   38.3050 N   0  0  0  0  0
  187.5000  139.5720   36.8480 O   0  0  0  0  0
  186.7260  136.1870   37.8620 C   0  0  0  0  0
  185.9960  133.9640   34.8060 C   0  0  0  0  0
  184.9540  132.5040   36.3980 O   0  0  0  0  0
  185.6730  132.5960   35.4100 C   0  0  0  0  0
  188.1146  131.4992   33.8883 H   0  0  0  0  0
  186.9618  132.7201   33.2202 H   0  0  0  0  0
  187.5018  128.9203   33.3281 H   0  0  0  0  0
  185.5217  128.2553   34.5114 H   0  0  0  0  0
  184.5986  129.6196   33.7662 H   0  0  0  0  0
  186.9280  129.8000   35.6793 H   0  0  0  0  0
  185.2089  130.2082   36.0085 H   0  0  0  0  0
  187.5039  130.7470   31.7377 H   0  0  0  0  0
  185.7443  131.0528   32.0721 H   0  0  0  0  0
  190.0738  126.1587   30.3482 H   0  0  0  0  0
  185.6880  124.3255   34.0915 H   0  0  0  0  0
  187.5940  127.3636   33.7020 H   0  0  0  0  0
  187.6264  125.6556   34.2243 H   0  0  0  0  0
  187.8566  125.0766   31.8056 H   0  0  0  0  0
  189.2788  125.9156   32.6082 H   0  0  0  0  0
  188.5563  129.5453   28.1772 H   0  0  0  0  0
  185.3910  128.8512   31.1137 H   0  0  0  0  0
  182.1919  125.8512   32.0811 H   0  0  0  0  0
  186.4908  136.6583   34.5357 H   0  0  0  0  0
  184.6944  136.4645   34.5848 H   0  0  0  0  0
  184.5767  137.5061   36.7310 H   0  0  0  0  0
  185.5947  138.5504   35.7014 H   0  0  0  0  0
  184.8307  134.9049   36.3005 H   0  0  0  0  0
  187.8410  135.2050   36.3678 H   0  0  0  0  0
  186.8201  134.1316   37.4072 H   0  0  0  0  0
  189.1514  138.7636   38.5802 H   0  0  0  0  0
  188.3828  137.1795   38.7255 H   0  0  0  0  0
  187.5936  136.2053   38.5216 H   0  0  0  0  0
  185.8210  136.0228   38.4469 H   0  0  0  0  0
  187.0437  133.9657   34.5052 H   0  0  0  0  0
  185.3292  134.1296   33.9598 H   0  0  0  0  0
  5  1  1  0  0  0
  1  6  1  0  0  0
  3  2  1  0  0  0
  6  2  1  0  0  0
  2 17  1  0  0  0
  4  3  1  0  0  0
  5  4  1  0  0  0
 36  5  1  0  0  0
  9  7  1  0  0  0
  8 14  4  0  0  0
 23  8  4  0  0  0
 10  9  4  0  0  0
 18  9  4  0  0  0
 24 10  4  0  0  0
 11 12  1  0  0  0
 24 11  1  0  0  0
 23 12  1  0  0  0
 13 18  4  0  0  0
 13 20  1  0  0  0
 22 13  4  0  0  0
 15 14  4  0  0  0
 14 19  1  0  0  0
 16 15  4  0  0  0
 21 16  4  0  0  0
 17 21  1  0  0  0
 17 22  1  0  0  0
 21 23  4  0  0  0
 22 24  4  0  0  0
 25 26  1  0  0  0
 27 25  1  0  0  0
 26 29  1  0  0  0
 27 28  1  0  0  0
 34 27  1  0  0  0
 28 33  1  0  0  0
 29 30  1  0  0  0
 33 29  1  0  0  0
 30 31  1  0  0  0
 30 32  2  0  0  0
 34 36  1  0  0  0
 36 35  2  0  0  0
  1 37  1  0  0  0
  1 38  1  0  0  0
  2 39  1  0  0  0
  3 40  1  0  0  0
  3 41  1  0  0  0
  4 42  1  0  0  0
  4 43  1  0  0  0
  6 44  1  0  0  0
  6 45  1  0  0  0
  8 46  1  0  0  0
 10 47  1  0  0  0
 11 48  1  0  0  0
 11 49  1  0  0  0
 12 50  1  0  0  0
 12 51  1  0  0  0
 15 52  1  0  0  0
 17 53  1  0  0  0
 18 54  1  0  0  0
 25 55  1  0  0  0
 25 56  1  0  0  0
 26 57  1  0  0  0
 26 58  1  0  0  0
 27 59  1  0  0  0
 28 60  1  0  0  0
 28 61  1  0  0  0
 31 62  1  0  0  0
 31 63  1  0  0  0
 33 64  1  0  0  0
 33 65  1  0  0  0
 34 66  1  0  0  0
 34 67  1  0  0  0
M  END
$$$$
