3mzc_ligand
  -I-interpret- 

 36 37  0  0  0  0  0  0  0  0999 V2000
   -5.0690    2.2280   15.7970 C   0  0  0  0  0
   -5.3850   -0.4900   16.1470 N   0  0  0  0  0
   -7.3100    1.1610   16.6550 O   0  0  0  0  0
   -5.8620    0.9760   16.7700 S   0  0  0  0  0
   -5.7650    3.3080   15.3320 C   0  0  0  0  0
   -5.3530    1.1050   18.1370 O   0  0  0  0  0
   -5.1270    4.2980   14.6120 C   0  0  0  0  0
   -3.7750    4.1690   14.3490 C   0  0  0  0  0
   -3.0900    3.1030   14.8080 C   0  0  0  0  0
   -3.7020    2.1450   15.5090 C   0  0  0  0  0
   -2.9260    5.1230   13.6770 N   0  0  0  0  0
   -3.2450    6.4550   13.3690 C   0  0  0  0  0
   -4.3040    6.9340   13.6480 O   0  0  0  0  0
   -2.0960    7.2070   12.9610 N   0  0  0  0  0
   -2.1060    8.5580   12.8950 C   0  0  0  0  0
   -2.1230    9.0870   14.2700 C   0  0  0  0  0
   -0.7180    9.1120   14.7700 C   0  0  0  0  0
    0.1500    9.0570   13.5390 C   0  0  0  0  0
   -0.7970    9.0040   12.3390 C   0  0  0  0  0
   -6.0777   -1.1257   15.7514 H   0  0  0  0  0
   -4.3997   -0.7536   16.1605 H   0  0  0  0  0
   -6.8336    3.3885   15.5314 H   0  0  0  0  0
   -5.6797    5.1675   14.2564 H   0  0  0  0  0
   -2.0223    3.0216   14.6044 H   0  0  0  0  0
   -3.1292    1.2872   15.8614 H   0  0  0  0  0
   -2.0009    4.7966   13.3976 H   0  0  0  0  0
   -1.2423    6.7073   12.7121 H   0  0  0  0  0
   -2.9579    8.8898   12.3015 H   0  0  0  0  0
   -2.7397    8.4554   14.9095 H   0  0  0  0  0
   -2.5456   10.0916   14.2824 H   0  0  0  0  0
   -0.5172    8.2740   15.4375 H   0  0  0  0  0
   -0.5198   10.0080   15.3581 H   0  0  0  0  0
    0.8010    8.1830   13.5603 H   0  0  0  0  0
    0.8016    9.9290   13.4827 H   0  0  0  0  0
   -0.8779    9.9733   11.8470 H   0  0  0  0  0
   -0.4336    8.3231   11.5693 H   0  0  0  0  0
  1  4  1  0  0  0
  1  5  4  0  0  0
  1 10  4  0  0  0
  4  2  1  0  0  0
  4  3  2  0  0  0
  4  6  2  0  0  0
  5  7  4  0  0  0
  7  8  4  0  0  0
  8  9  4  0  0  0
  8 11  1  0  0  0
  9 10  4  0  0  0
 11 12  1  0  0  0
 12 13  2  0  0  0
 12 14  1  0  0  0
 14 15  1  0  0  0
 15 16  1  0  0  0
 15 19  1  0  0  0
 16 17  1  0  0  0
 17 18  1  0  0  0
 18 19  1  0  0  0
  2 20  1  0  0  0
  2 21  1  0  0  0
  5 22  1  0  0  0
  7 23  1  0  0  0
  9 24  1  0  0  0
 10 25  1  0  0  0
 11 26  1  0  0  0
 14 27  1  0  0  0
 15 28  1  0  0  0
 16 29  1  0  0  0
 16 30  1  0  0  0
 17 31  1  0  0  0
 17 32  1  0  0  0
 18 33  1  0  0  0
 18 34  1  0  0  0
 19 35  1  0  0  0
 19 36  1  0  0  0
M  END
$$$$
