5uq9_ligand
  -I-interpret- 

 31 31  0  0  0  0  0  0  0  0999 V2000
  192.9640  -11.6360  225.7070 C   0  0  0  0  0
  191.4800  -11.8650  226.0160 C   0  0  0  0  0
  190.7900  -12.2520  224.7060 C   0  0  0  0  0
  188.5740  -10.5520  227.1770 C   0  0  0  0  0
  190.0870  -10.8740  227.5510 C   0  0  0  0  0
  190.3540  -12.3860  227.8620 C   0  0  0  0  0
  189.1370  -13.2260  227.7680 C   0  0  0  0  0
  188.2050  -10.3090  225.7700 N   0  0  0  0  0
  187.7580  -10.4840  228.0150 O   0  0  0  0  0
  189.4000  -14.4990  228.3680 O   0  0  0  0  0
  191.4430  -15.9800  227.9410 O   0  0  0  0  0
  190.1190  -15.2070  226.0310 O   0  0  0  0  0
  189.1940  -16.9060  227.5360 O   0  0  0  0  0
  191.3440  -12.8260  226.9090 O   0  0  0  0  0
  190.8400  -10.5600  226.6110 O   0  0  0  0  0
  186.8590  -10.0120  225.4180 O   0  0  0  0  0
  190.0510  -15.6670  227.4490 P   0  0  0  0  0
  193.4844  -11.3507  226.6213 H   0  0  0  0  0
  193.3976  -12.5548  225.3122 H   0  0  0  0  0
  193.0615  -10.8402  224.9685 H   0  0  0  0  0
  191.2392  -13.1655  224.3163 H   0  0  0  0  0
  189.7287  -12.4177  224.8910 H   0  0  0  0  0
  190.9124  -11.4474  223.9809 H   0  0  0  0  0
  190.2864  -10.2932  228.4516 H   0  0  0  0  0
  190.6953  -12.4902  228.8919 H   0  0  0  0  0
  188.8654  -13.3627  226.7213 H   0  0  0  0  0
  188.3131  -12.7380  228.2888 H   0  0  0  0  0
  188.9200  -10.3542  225.0440 H   0  0  0  0  0
  191.3998  -16.2760  228.8532 H   0  0  0  0  0
  189.1512  -17.2007  228.4487 H   0  0  0  0  0
  186.7986   -9.8836  224.4685 H   0  0  0  0  0
  2  1  1  0  0  0
  2  3  1  0  0  0
  2 14  1  0  0  0
 15  2  1  0  0  0
  5  4  1  0  0  0
  4  8  1  0  0  0
  4  9  2  0  0  0
  5  6  1  0  0  0
  5 15  1  0  0  0
  6  7  1  0  0  0
  6 14  1  0  0  0
  7 10  1  0  0  0
  8 16  1  0  0  0
 10 17  1  0  0  0
 17 11  1  0  0  0
 17 12  2  0  0  0
 17 13  1  0  0  0
  1 18  1  0  0  0
  1 19  1  0  0  0
  1 20  1  0  0  0
  3 21  1  0  0  0
  3 22  1  0  0  0
  3 23  1  0  0  0
  5 24  1  0  0  0
  6 25  1  0  0  0
  7 26  1  0  0  0
  7 27  1  0  0  0
  8 28  1  0  0  0
 11 29  1  0  0  0
 13 30  1  0  0  0
 16 31  1  0  0  0
M  END
$$$$
