### 
### Created by X-TOOL on Mon Aug  2 16:12:15 2021
### 

@<TRIPOS>MOLECULE
5uq9_ligand
   29    29     1     0     0
SMALL
GAST_HUCK


@<TRIPOS>ATOM
      1 C14       192.9640  -11.6360  225.7070 C.3       1 MOL        -0.0106
      2 C12       191.4800  -11.8650  226.0160 C.3       1 MOL         0.1684
      3 C13       190.7900  -12.2520  224.7060 C.3       1 MOL        -0.0106
      4 C02       188.5740  -10.5520  227.1770 C.2       1 MOL         0.2308
      5 C03       190.0870  -10.8740  227.5510 C.3       1 MOL         0.1804
      6 C04       190.3540  -12.3860  227.8620 C.3       1 MOL         0.1327
      7 C05       189.1370  -13.2260  227.7680 C.3       1 MOL         0.1093
      8 N16       188.2050  -10.3090  225.7700 N.am      1 MOL        -0.1620
      9 O01       187.7580  -10.4840  228.0150 O.2       1 MOL        -0.3940
     10 O06       189.4000  -14.4990  228.3680 O.3       1 MOL        -0.2732
     11 O08       191.4430  -15.9800  227.9410 O.co2     1 MOL        -0.5537
     12 O09       190.1190  -15.2070  226.0310 O.co2     1 MOL        -0.5537
     13 O10       189.1940  -16.9060  227.5360 O.co2     1 MOL        -0.5537
     14 O11       191.3440  -12.8260  226.9090 O.3       1 MOL        -0.3382
     15 O15       190.8400  -10.5600  226.6110 O.3       1 MOL        -0.3227
     16 O17       186.8590  -10.0120  225.4180 O.3       1 MOL        -0.2717
     17 P07       190.0510  -15.6670  227.4490 P.3       1 MOL         0.2008
     18 H1        193.3984  -12.5572  225.2915 H         1 MOL         0.0281
     19 H2        193.4938  -11.3658  226.6324 H         1 MOL         0.0281
     20 H3        193.0647  -10.8208  224.9754 H         1 MOL         0.0281
     21 H4        189.7197  -12.4242  224.8923 H         1 MOL         0.0281
     22 H5        191.2456  -13.1712  224.3092 H         1 MOL         0.0281
     23 H6        190.9087  -11.4388  223.9749 H         1 MOL         0.0281
     24 H7        190.3492  -10.2818  228.4401 H         1 MOL         0.0868
     25 H8        190.7569  -12.4769  228.8815 H         1 MOL         0.0676
     26 H9        188.8664  -13.3657  226.7110 H         1 MOL         0.0641
     27 H10       188.3076  -12.7337  228.2969 H         1 MOL         0.0641
     28 H11       188.9060  -10.3533  225.0582 H         1 MOL         0.2217
     29 H12       186.7992   -9.8849  224.4784 H         1 MOL         0.2490
@<TRIPOS>BOND
     1    2    1 1  
     2    2    3 1  
     3    2   14 1  
     4   15    2 1  
     5    5    4 1  
     6    4    8 am 
     7    4    9 2  
     8    5    6 1  
     9    5   15 1  
    10    6    7 1  
    11    6   14 1  
    12    7   10 1  
    13    8   16 1  
    14   10   17 1  
    15   17   11 ar 
    16   17   12 ar 
    17   17   13 ar 
    18    1   18 1  
    19    1   19 1  
    20    1   20 1  
    21    3   21 1  
    22    3   22 1  
    23    3   23 1  
    24    5   24 1  
    25    6   25 1  
    26    7   26 1  
    27    7   27 1  
    28    8   28 1  
    29   16   29 1  
@<TRIPOS>SUBSTRUCTURE
     1 MOL         1

