4ibi_ligand
  -I-interpret- 

 53 57  0  0  0  0  0  0  0  0999 V2000
    9.3250   20.1190    5.1000 F   0  0  0  0  0
    8.8610   20.1290    3.8550 C   0  0  0  0  0
    9.4510   19.1550    3.1910 F   0  0  0  0  0
    9.1820   21.2470    3.2490 F   0  0  0  0  0
    7.3810   19.9500    3.8140 C   0  0  0  0  0
    6.6080   20.6180    2.8640 C   0  0  0  0  0
    6.7710   19.0910    4.7170 C   0  0  0  0  0
    5.3980   18.9110    4.6930 C   0  0  0  0  0
    4.6230   19.5670    3.7490 C   0  0  0  0  0
    5.2280   20.4240    2.8330 C   0  0  0  0  0
    4.4020   21.1350    1.8250 C   0  0  0  0  0
    4.7150   22.2800    1.5190 O   0  0  0  0  0
    3.1910   20.5410    1.1950 C   0  0  0  0  0
    2.9000   19.1920    0.9660 C   0  0  0  0  0
    3.6040   18.0450    1.3060 O   0  0  0  0  0
    1.7150   19.1760    0.2540 C   0  0  0  0  0
    1.1080   18.0140   -0.1920 O   0  0  0  0  0
    1.3000   20.4290    0.0630 N   0  0  0  0  0
    0.1810   20.7680   -0.7610 C   0  0  0  0  0
   -1.0390   20.1320   -0.5520 C   0  0  0  0  0
   -2.1330   20.4360   -1.3440 C   0  0  0  0  0
   -3.4330   19.7490   -1.1010 C   0  0  0  0  0
   -3.5290   18.8920   -0.1820 O   0  0  0  0  0
   -4.4320   20.0110   -1.8140 O   0  0  0  0  0
   -2.0050   21.3820   -2.3490 C   0  0  0  0  0
   -0.7890   22.0190   -2.5640 C   0  0  0  0  0
    0.3050   21.7140   -1.7730 C   0  0  0  0  0
    2.1380   21.2890    0.6710 C   0  0  0  0  0
    1.5650   22.2670    1.6340 C   0  0  0  0  0
    0.9080   21.6900    2.7080 C   0  0  0  0  0
    0.3380   22.4790    3.6990 C   0  0  0  0  0
   -0.3730   22.1860    4.8510 O   0  0  0  0  0
   -0.4840   23.3600    5.5830 C   0  0  0  0  0
   -0.2040   24.3730    4.6770 O   0  0  0  0  0
    0.4280   23.8150    3.5890 C   0  0  0  0  0
    1.1070   24.3690    2.5090 C   0  0  0  0  0
    1.1890   26.0580    2.4330 Cl  0  0  0  0  0
    1.6870   23.6330    1.5080 C   0  0  0  0  0
    7.0818   21.2897    2.1481 H   0  0  0  0  0
    7.3754   18.5552    5.4489 H   0  0  0  0  0
    4.9246   18.2506    5.4196 H   0  0  0  0  0
    3.5443   19.4126    3.7238 H   0  0  0  0  0
    3.1234   17.2730    0.9984 H   0  0  0  0  0
   -1.1338   19.3896    0.2405 H   0  0  0  0  0
   -2.6840   18.8089    0.2660 H   0  0  0  0  0
   -2.8633   21.6276   -2.9743 H   0  0  0  0  0
   -0.6965   22.7606   -3.3574 H   0  0  0  0  0
    1.2593   22.2128   -1.9423 H   0  0  0  0  0
    2.4770   21.9847   -0.0966 H   0  0  0  0  0
    0.8374   20.6044    2.7764 H   0  0  0  0  0
    0.2005   23.3746    6.4311 H   0  0  0  0  0
   -1.4757   23.4716    6.0215 H   0  0  0  0  0
    2.2084   24.0968    0.6707 H   0  0  0  0  0
  1  2  1  0  0  0
  2  3  1  0  0  0
  2  4  1  0  0  0
  2  5  1  0  0  0
  5  6  4  0  0  0
  5  7  4  0  0  0
  6 10  4  0  0  0
  7  8  4  0  0  0
  8  9  4  0  0  0
  9 10  4  0  0  0
 10 11  1  0  0  0
 11 12  2  0  0  0
 11 13  1  0  0  0
 13 14  2  0  0  0
 13 28  1  0  0  0
 14 15  1  0  0  0
 14 16  1  0  0  0
 16 17  2  0  0  0
 16 18  1  0  0  0
 18 19  1  0  0  0
 18 28  1  0  0  0
 19 20  4  0  0  0
 19 27  4  0  0  0
 20 21  4  0  0  0
 21 22  1  0  0  0
 21 25  4  0  0  0
 22 23  1  0  0  0
 22 24  2  0  0  0
 25 26  4  0  0  0
 26 27  4  0  0  0
 28 29  1  0  0  0
 29 30  4  0  0  0
 29 38  4  0  0  0
 30 31  4  0  0  0
 31 32  1  0  0  0
 31 35  4  0  0  0
 32 33  1  0  0  0
 33 34  1  0  0  0
 34 35  1  0  0  0
 35 36  4  0  0  0
 36 37  1  0  0  0
 36 38  4  0  0  0
  6 39  1  0  0  0
  7 40  1  0  0  0
  8 41  1  0  0  0
  9 42  1  0  0  0
 15 43  1  0  0  0
 20 44  1  0  0  0
 23 45  1  0  0  0
 25 46  1  0  0  0
 26 47  1  0  0  0
 27 48  1  0  0  0
 28 49  1  0  0  0
 30 50  1  0  0  0
 33 51  1  0  0  0
 33 52  1  0  0  0
 38 53  1  0  0  0
M  END
$$$$
