5e0g_ligand
  -I-interpret- 

 63 64  0  0  0  0  0  0  0  0999 V2000
   18.5810  -55.1310  140.2420 C   0  0  0  0  0
   17.9500  -54.0840  140.9060 O   0  0  0  0  0
   19.0810  -56.0370  140.8200 O   0  0  0  0  0
   17.0060  -53.2820  134.1980 N   0  0  0  0  0
   15.7130  -53.7970  133.7780 C   0  0  0  0  0
   15.6730  -55.3150  133.7570 C   0  0  0  0  0
   16.1050  -55.8310  135.0390 N   0  0  0  0  0
   20.0580  -54.2780  136.6800 O   0  0  0  0  0
   20.2510  -55.3950  137.0480 C   0  0  0  0  0
   19.4280  -56.0710  138.1390 C   0  0  0  0  0
   18.5380  -57.1910  137.5980 C   0  0  0  0  0
   17.3840  -56.6750  136.7600 C   0  0  0  0  0
   17.3460  -56.2070  135.4050 C   0  0  0  0  0
   15.3780  -56.0450  136.1110 N   0  0  0  0  0
   16.1150  -56.5370  137.1060 N   0  0  0  0  0
   18.6190  -55.0770  138.8040 N   0  0  0  0  0
   21.8600  -54.0680  133.6090 N   0  0  0  0  0
   21.2120  -53.5770  132.4130 C   0  0  0  0  0
   20.4610  -52.3010  132.7740 C   0  0  0  0  0
   19.3600  -52.5400  133.8000 C   0  0  0  0  0
   18.0630  -53.1120  133.2400 C   0  0  0  0  0
   17.8860  -53.4140  132.0930 O   0  0  0  0  0
   22.2750  -53.3230  131.3500 C   0  0  0  0  0
   22.9210  -54.4940  130.9610 O   0  0  0  0  0
   21.3190  -56.1880  136.5130 N   0  0  0  0  0
   22.1830  -55.6270  135.5020 C   0  0  0  0  0
   21.3960  -55.2600  134.2560 C   0  0  0  0  0
   20.4760  -55.8990  133.8460 O   0  0  0  0  0
   23.2970  -56.5830  135.1140 C   0  0  0  0  0
   24.1820  -56.9600  136.2880 C   0  0  0  0  0
   25.2110  -57.9900  135.8250 C   0  0  0  0  0
   24.8520  -55.7470  136.9340 C   0  0  0  0  0
   17.6129  -53.4557  140.2631 H   0  0  0  0  0
   17.1633  -53.0405  135.1764 H   0  0  0  0  0
   15.5208  -53.4407  132.7660 H   0  0  0  0  0
   14.9644  -53.4499  134.4902 H   0  0  0  0  0
   16.3379  -55.6837  132.9759 H   0  0  0  0  0
   14.6542  -55.6474  133.5579 H   0  0  0  0  0
   20.1228  -56.5318  138.8411 H   0  0  0  0  0
   18.1179  -57.7239  138.4510 H   0  0  0  0  0
   19.1532  -57.8272  136.9617 H   0  0  0  0  0
   18.2161  -56.1610  134.7501 H   0  0  0  0  0
   18.1002  -54.3716  138.2809 H   0  0  0  0  0
   22.6557  -53.5607  133.9963 H   0  0  0  0  0
   20.5013  -54.3006  132.0137 H   0  0  0  0  0
   19.9960  -51.9170  131.8660 H   0  0  0  0  0
   21.1764  -51.6014  133.2063 H   0  0  0  0  0
   19.1142  -51.5677  134.2271 H   0  0  0  0  0
   19.7458  -53.2741  134.5073 H   0  0  0  0  0
   23.0206  -52.6483  131.7706 H   0  0  0  0  0
   21.7838  -52.8997  130.4738 H   0  0  0  0  0
   23.5793  -54.2883  130.2933 H   0  0  0  0  0
   21.4671  -57.1413  136.8443 H   0  0  0  0  0
   22.6254  -54.7302  135.9356 H   0  0  0  0  0
   23.9208  -56.0857  134.3712 H   0  0  0  0  0
   22.8374  -57.4958  134.7351 H   0  0  0  0  0
   23.5542  -57.3965  137.0647 H   0  0  0  0  0
   24.6951  -58.8755  135.4537 H   0  0  0  0  0
   25.8191  -57.5614  135.0284 H   0  0  0  0  0
   25.8503  -58.2654  136.6638 H   0  0  0  0  0
   25.4733  -55.2405  136.1954 H   0  0  0  0  0
   24.0865  -55.0618  137.2981 H   0  0  0  0  0
   25.4722  -56.0770  137.7674 H   0  0  0  0  0
  1  2  1  0  0  0
  1  3  2  0  0  0
 16  1  1  0  0  0
  4  5  1  0  0  0
 21  4  1  0  0  0
  5  6  1  0  0  0
  6  7  1  0  0  0
  7 13  4  0  0  0
  7 14  4  0  0  0
  9  8  2  0  0  0
 10  9  1  0  0  0
  9 25  1  0  0  0
 11 10  1  0  0  0
 10 16  1  0  0  0
 12 11  1  0  0  0
 13 12  4  0  0  0
 15 12  4  0  0  0
 14 15  4  0  0  0
 18 17  1  0  0  0
 17 27  1  0  0  0
 19 18  1  0  0  0
 18 23  1  0  0  0
 20 19  1  0  0  0
 20 21  1  0  0  0
 21 22  2  0  0  0
 23 24  1  0  0  0
 25 26  1  0  0  0
 26 27  1  0  0  0
 26 29  1  0  0  0
 27 28  2  0  0  0
 29 30  1  0  0  0
 30 31  1  0  0  0
 30 32  1  0  0  0
  2 33  1  0  0  0
  4 34  1  0  0  0
  5 35  1  0  0  0
  5 36  1  0  0  0
  6 37  1  0  0  0
  6 38  1  0  0  0
 10 39  1  0  0  0
 11 40  1  0  0  0
 11 41  1  0  0  0
 13 42  1  0  0  0
 16 43  1  0  0  0
 17 44  1  0  0  0
 18 45  1  0  0  0
 19 46  1  0  0  0
 19 47  1  0  0  0
 20 48  1  0  0  0
 20 49  1  0  0  0
 23 50  1  0  0  0
 23 51  1  0  0  0
 24 52  1  0  0  0
 25 53  1  0  0  0
 26 54  1  0  0  0
 29 55  1  0  0  0
 29 56  1  0  0  0
 30 57  1  0  0  0
 31 58  1  0  0  0
 31 59  1  0  0  0
 31 60  1  0  0  0
 32 61  1  0  0  0
 32 62  1  0  0  0
 32 63  1  0  0  0
M  END
$$$$
