3gpo_ligand
  -I-interpret- 

 59 62  0  0  0  0  0  0  0  0999 V2000
   15.2070   39.9840   -9.4250 N   0  0  0  0  0
   15.3640   41.2450   -8.9870 C   0  0  0  0  0
   15.1580   42.3210   -9.7700 N   0  0  0  0  0
   14.7930   42.1800  -11.0660 C   0  0  0  0  0
   14.6140   40.8300  -11.6250 C   0  0  0  0  0
   14.8490   39.6980  -10.7010 C   0  0  0  0  0
   14.7020   38.4150  -11.1110 N   0  0  0  0  0
   14.2430   40.9880  -12.9100 N   0  0  0  0  0
   14.2120   42.3260  -13.1600 C   0  0  0  0  0
   14.5490   43.0330  -12.0540 N   0  0  0  0  0
   14.5880   44.5090  -11.8620 C   0  0  0  0  0
   14.4950   45.3220  -13.1460 C   0  0  0  0  0
   15.7820   45.6850  -13.6600 O   0  0  0  0  0
   13.6950   46.5500  -12.7310 C   0  0  0  0  0
   14.5820   47.5410  -12.1820 O   0  0  0  0  0
   13.3680   44.8000  -11.1530 O   0  0  0  0  0
   12.7910   46.0480  -11.6160 C   0  0  0  0  0
   11.3450   45.8510  -12.0610 C   0  0  0  0  0
   11.3220   45.5520  -13.4610 O   0  0  0  0  0
   10.1890   44.6340  -14.1190 P   0  0  0  0  0
   10.2250   43.2800  -13.4520 O   0  0  0  0  0
   10.3030   44.7180  -15.6140 O   0  0  0  0  0
    8.7660   45.2660  -13.6570 O   0  0  0  0  0
    7.9370   46.5110  -14.2840 P   0  0  0  0  0
    6.9110   46.8390  -13.1920 O   0  0  0  0  0
    8.9150   47.5490  -14.7530 O   0  0  0  0  0
    7.1290   45.8590  -15.4900 O   0  0  0  0  0
    6.1890   44.8180  -15.2360 C   0  0  0  0  0
    7.1620   43.3430  -16.8410 O   0  0  0  0  0
    7.7820   41.1230  -17.0330 O   0  0  0  0  0
    6.7120   42.0250  -17.1990 C   0  0  0  0  0
    4.6360   40.7150  -16.6350 O   0  0  0  0  0
    5.5400   41.7710  -16.2700 C   0  0  0  0  0
    4.2340   43.0030  -17.8150 O   0  0  0  0  0
    4.8410   43.0870  -16.5100 C   0  0  0  0  0
    5.9770   44.0880  -16.5500 C   0  0  0  0  0
   15.6714   41.4035   -7.9533 H   0  0  0  0  0
   14.8611   37.6490  -10.4565 H   0  0  0  0  0
   14.4322   38.2151  -12.0741 H   0  0  0  0  0
   13.9511   42.7692  -14.1210 H   0  0  0  0  0
   15.5300   44.7665  -11.3778 H   0  0  0  0  0
   14.0304   44.7596  -13.9559 H   0  0  0  0  0
   15.6713   46.1941  -14.4663 H   0  0  0  0  0
   13.1526   46.9936  -13.5659 H   0  0  0  0  0
   14.0750   48.3134  -11.9215 H   0  0  0  0  0
   12.7409   46.7912  -10.8203 H   0  0  0  0  0
   10.7758   46.7610  -11.8711 H   0  0  0  0  0
   10.8986   45.0279  -11.5030 H   0  0  0  0  0
   10.1418   43.3902  -12.5020 H   0  0  0  0  0
    6.3712   46.0643  -13.0186 H   0  0  0  0  0
    5.2495   45.2266  -14.8638 H   0  0  0  0  0
    6.5619   44.1375  -14.4705 H   0  0  0  0  0
    7.4931   40.2385  -17.2693 H   0  0  0  0  0
    6.3949   41.9095  -18.2354 H   0  0  0  0  0
    3.9403   40.6491  -15.9768 H   0  0  0  0  0
    5.8520   41.4736  -15.2688 H   0  0  0  0  0
    3.7765   43.8248  -18.0074 H   0  0  0  0  0
    4.0828   43.3448  -15.7705 H   0  0  0  0  0
    5.7404   44.8472  -17.2955 H   0  0  0  0  0
  2  1  4  0  0  0
  6  1  4  0  0  0
  3  2  4  0  0  0
  4  3  4  0  0  0
  4  5  4  0  0  0
 10  4  4  0  0  0
  5  6  4  0  0  0
  8  5  4  0  0  0
  6  7  1  0  0  0
  9  8  4  0  0  0
 10  9  4  0  0  0
 11 10  1  0  0  0
 11 12  1  0  0  0
 16 11  1  0  0  0
 12 13  1  0  0  0
 14 12  1  0  0  0
 14 15  1  0  0  0
 17 14  1  0  0  0
 17 16  1  0  0  0
 18 17  1  0  0  0
 19 18  1  0  0  0
 20 19  1  0  0  0
 20 21  1  0  0  0
 20 22  2  0  0  0
 23 20  1  0  0  0
 24 23  1  0  0  0
 24 25  1  0  0  0
 24 26  2  0  0  0
 27 24  1  0  0  0
 28 27  1  0  0  0
 36 28  1  0  0  0
 29 31  1  0  0  0
 29 36  1  0  0  0
 31 30  1  0  0  0
 31 33  1  0  0  0
 33 32  1  0  0  0
 33 35  1  0  0  0
 35 34  1  0  0  0
 35 36  1  0  0  0
  2 37  1  0  0  0
  7 38  1  0  0  0
  7 39  1  0  0  0
  9 40  1  0  0  0
 11 41  1  0  0  0
 12 42  1  0  0  0
 13 43  1  0  0  0
 14 44  1  0  0  0
 15 45  1  0  0  0
 17 46  1  0  0  0
 18 47  1  0  0  0
 18 48  1  0  0  0
 21 49  1  0  0  0
 25 50  1  0  0  0
 28 51  1  0  0  0
 28 52  1  0  0  0
 30 53  1  0  0  0
 31 54  1  0  0  0
 32 55  1  0  0  0
 33 56  1  0  0  0
 34 57  1  0  0  0
 35 58  1  0  0  0
 36 59  1  0  0  0
M  END
$$$$
