### 
### Created by X-TOOL on Mon Sep 10 21:12:59 2018
### 

@<TRIPOS>MOLECULE
3gpo_ligand
   57    60     1     0     0
SMALL
GAST_HUCK


@<TRIPOS>ATOM
      1 N1         15.2070   39.9840   -9.4250 N.ar      1 APR        -0.2698
      2 C2         15.3640   41.2450   -8.9870 C.ar      1 APR         0.0533
      3 N3         15.1580   42.3210   -9.7700 N.ar      1 APR        -0.2714
      4 C4         14.7930   42.1800  -11.0660 C.ar      1 APR         0.1613
      5 C5         14.6140   40.8300  -11.6250 C.ar      1 APR         0.1045
      6 C6         14.8490   39.6980  -10.7010 C.ar      1 APR         0.1298
      7 N6         14.7020   38.4150  -11.1110 N.pl3     1 APR        -0.3152
      8 N7         14.2430   40.9880  -12.9100 N.2       1 APR        -0.2958
      9 C8         14.2120   42.3260  -13.1600 C.2       1 APR         0.1123
     10 N9         14.5490   43.0330  -12.0540 N.pl3     1 APR        -0.1919
     11 C1'        14.5880   44.5090  -11.8620 C.3       1 APR         0.2010
     12 C2'        14.4950   45.3220  -13.1460 C.3       1 APR         0.1385
     13 O2'        15.7820   45.6850  -13.6600 O.3       1 APR        -0.3836
     14 C3'        13.6950   46.5500  -12.7310 C.3       1 APR         0.1149
     15 O3'        14.5820   47.5410  -12.1820 O.3       1 APR        -0.3864
     16 O4'        13.3680   44.8000  -11.1530 O.3       1 APR        -0.3364
     17 C4'        12.7910   46.0480  -11.6160 C.3       1 APR         0.1189
     18 C5'        11.3450   45.8510  -12.0610 C.3       1 APR         0.1128
     19 O5'        11.3220   45.5520  -13.4610 O.3       1 APR        -0.2476
     20 PA         10.1890   44.6340  -14.1190 P.3       1 APR         0.2972
     21 O1A        10.2250   43.2800  -13.4520 O.co2     1 APR        -0.6127
     22 O2A        10.3030   44.7180  -15.6140 O.co2     1 APR        -0.6127
     23 O3A         8.7660   45.2660  -13.6570 O.3       1 APR        -0.1319
     24 PB          7.9370   46.5110  -14.2840 P.3       1 APR         0.2972
     25 O1B         6.9110   46.8390  -13.1920 O.co2     1 APR        -0.6127
     26 O2B         8.9150   47.5490  -14.7530 O.co2     1 APR        -0.6127
     27 O5D         7.1290   45.8590  -15.4900 O.3       1 APR        -0.2476
     28 C5D         6.1890   44.8180  -15.2360 C.3       1 APR         0.1128
     29 O4D         7.1620   43.3430  -16.8410 O.3       1 APR        -0.3403
     30 O1D         7.7820   41.1230  -17.0330 O.3       1 APR        -0.3649
     31 C1D         6.7120   42.0250  -17.1990 C.3       1 APR         0.1854
     32 O2D         4.6360   40.7150  -16.6350 O.3       1 APR        -0.3841
     33 C2D         5.5400   41.7710  -16.2700 C.3       1 APR         0.1339
     34 O3D         4.2340   43.0030  -17.8150 O.3       1 APR        -0.3864
     35 C3D         4.8410   43.0870  -16.5100 C.3       1 APR         0.1144
     36 C4D         5.9770   44.0880  -16.5500 C.3       1 APR         0.1184
     37 H1         15.6697   41.4026   -7.9590 H         1 APR         0.0996
     38 H2         14.4296   38.2132  -12.0836 H         1 APR         0.1820
     39 H3         14.8627   37.6415  -10.4501 H         1 APR         0.1820
     40 H4         13.9513   42.7688  -14.1202 H         1 APR         0.1349
     41 H5         15.4840   44.7979  -11.2930 H         1 APR         0.0996
     42 H6         13.9549   44.7540  -13.9177 H         1 APR         0.0676
     43 H7         16.2434   46.2079  -13.0149 H         1 APR         0.2101
     44 H8         13.1191   46.9630  -13.5723 H         1 APR         0.0648
     45 H9         14.0803   48.3054  -11.9242 H         1 APR         0.2100
     46 H10        12.7975   46.7795  -10.7946 H         1 APR         0.0651
     47 H11        10.7727   46.7711  -11.8715 H         1 APR         0.0648
     48 H12        10.8969   45.0182  -11.4992 H         1 APR         0.0648
     49 H13         5.2387   45.2440  -14.8820 H         1 APR         0.0648
     50 H14         6.5856   44.1262  -14.4783 H         1 APR         0.0648
     51 H15         8.0654   41.1330  -16.1264 H         1 APR         0.2126
     52 H16         6.3747   41.9932  -18.2455 H         1 APR         0.0935
     53 H17         4.2537   40.9060  -17.4834 H         1 APR         0.2101
     54 H18         5.8694   41.6297  -15.2300 H         1 APR         0.0671
     55 H19         3.7813   43.8162  -18.0054 H         1 APR         0.2100
     56 H20         4.1008   43.3259  -15.7322 H         1 APR         0.0648
     57 H21         5.7835   44.8262  -17.3422 H         1 APR         0.0651
@<TRIPOS>BOND
     1    2    1 ar 
     2    6    1 ar 
     3    3    2 ar 
     4    4    3 ar 
     5    4    5 ar 
     6   10    4 1  
     7    5    6 ar 
     8    8    5 1  
     9    6    7 1  
    10    9    8 2  
    11   10    9 1  
    12   11   10 1  
    13   11   12 1  
    14   16   11 1  
    15   12   13 1  
    16   14   12 1  
    17   14   15 1  
    18   17   14 1  
    19   17   16 1  
    20   18   17 1  
    21   19   18 1  
    22   20   19 1  
    23   20   21 ar 
    24   20   22 ar 
    25   23   20 1  
    26   24   23 1  
    27   24   25 ar 
    28   24   26 ar 
    29   27   24 1  
    30   28   27 1  
    31   36   28 1  
    32   29   31 1  
    33   29   36 1  
    34   31   30 1  
    35   31   33 1  
    36   33   32 1  
    37   33   35 1  
    38   35   34 1  
    39   35   36 1  
    40    2   37 1  
    41    7   38 1  
    42    7   39 1  
    43    9   40 1  
    44   11   41 1  
    45   12   42 1  
    46   13   43 1  
    47   14   44 1  
    48   15   45 1  
    49   17   46 1  
    50   18   47 1  
    51   18   48 1  
    52   28   49 1  
    53   28   50 1  
    54   30   51 1  
    55   31   52 1  
    56   32   53 1  
    57   33   54 1  
    58   34   55 1  
    59   35   56 1  
    60   36   57 1  
@<TRIPOS>SUBSTRUCTURE
     1 APR         1

