2weh_ligand
  -I-interpret- 

 17 17  0  0  0  0  0  0  0  0999 V2000
   16.4040    6.1350   14.2890 C   0  0  0  0  0
   14.2720    5.5730   17.4890 Cl  0  0  0  0  0
   16.8440    4.8510   14.0150 C   0  0  0  0  0
   16.4800    3.7760   14.8180 C   0  0  0  0  0
   15.6590    3.9230   15.9510 C   0  0  0  0  0
   15.2350    5.2270   16.1830 C   0  0  0  0  0
   15.5750    6.3030   15.3620 C   0  0  0  0  0
   15.1850    2.6030   16.8580 S   0  0  0  0  0
   15.6700    1.2230   16.1740 N   0  0  0  0  0
   15.6260    2.7440   18.1820 O   0  0  0  0  0
   13.7540    2.5670   16.8350 O   0  0  0  0  0
   16.7077    6.9804   13.6716 H   0  0  0  0  0
   17.4884    4.6797   13.1528 H   0  0  0  0  0
   16.8445    2.7817   14.5600 H   0  0  0  0  0
   15.1731    7.2925   15.5800 H   0  0  0  0  0
   16.2378    0.5626   16.7049 H   0  0  0  0  0
   15.4086    1.0117   15.2110 H   0  0  0  0  0
  3  1  4  0  0  0
  1  7  4  0  0  0
  6  2  1  0  0  0
  4  3  4  0  0  0
  5  4  4  0  0  0
  5  6  4  0  0  0
  5  8  1  0  0  0
  6  7  4  0  0  0
  8  9  1  0  0  0
  8 10  2  0  0  0
  8 11  2  0  0  0
  1 12  1  0  0  0
  3 13  1  0  0  0
  4 14  1  0  0  0
  7 15  1  0  0  0
  9 16  1  0  0  0
  9 17  1  0  0  0
M  END
$$$$
