6f9v_ligand
  -I-interpret- 

 81 82  0  0  0  0  0  0  0  0999 V2000
   -7.9060  -17.0090  -23.0530 C   0  0  0  0  0
   -5.1140  -18.4170  -23.1490 C   0  0  0  0  0
   -4.5480  -19.6230  -22.3880 C   0  0  0  0  0
   -5.7430  -20.2630  -21.6430 C   0  0  0  0  0
   -5.2890  -20.9590  -20.3830 C   0  0  0  0  0
   -6.4540  -21.4800  -19.5660 C   0  0  0  0  0
   -4.0310  -17.7300  -23.9720 C   0  0  0  0  0
   -2.3150  -15.8900  -24.1510 C   0  0  0  0  0
   -1.0630  -15.8330  -23.2700 C   0  0  0  0  0
    0.0720  -15.3370  -24.1940 C   0  0  0  0  0
    1.4460  -15.2150  -23.4980 C   0  0  0  0  0
    2.4640  -14.4180  -24.5730 C   0  0  0  0  0
    3.3920  -15.3750  -24.9880 C   0  0  0  0  0
    3.5580  -16.3440  -23.7180 C   0  0  0  0  0
    2.0380  -16.4820  -23.2190 C   0  0  0  0  0
    1.3760  -14.2200  -22.3300 C   0  0  0  0  0
    2.5260  -13.4610  -20.1990 C   0  0  0  0  0
    3.4950  -13.9790  -19.1110 C   0  0  0  0  0
    4.5750  -14.9580  -19.5970 C   0  0  0  0  0
    5.7980  -14.4940  -20.0220 C   0  0  0  0  0
    6.7530  -15.4330  -20.4110 C   0  0  0  0  0
    6.4600  -16.7870  -20.3610 C   0  0  0  0  0
    5.2360  -17.2370  -19.9140 C   0  0  0  0  0
    4.2740  -16.3050  -19.5300 C   0  0  0  0  0
    3.1820  -12.2490  -20.8520 C   0  0  0  0  0
   -0.7750  -17.2110  -22.6960 C   0  0  0  0  0
   -6.0830  -18.9630  -24.0750 N   0  0  0  0  0
   -6.6490  -20.6200  -18.4100 N   0  3  0  0  0
   -3.3620  -16.5690  -23.4050 N   0  0  0  0  0
    2.3510  -14.4140  -21.2860 N   0  0  0  0  0
   -6.9530  -17.0950  -25.5670 O   0  0  0  0  0
   -8.4020  -18.8320  -25.0630 O   0  0  0  0  0
   -3.7200  -18.1620  -25.0320 O   0  0  0  0  0
    0.6590  -13.2470  -22.2650 O   0  0  0  0  0
    7.4460  -17.7290  -20.7570 O   0  0  0  0  0
    3.1030  -11.1320  -20.2790 O   0  0  0  0  0
    3.8170  -12.3440  -21.9870 O   0  0  0  0  0
   -0.6790  -17.3970  -21.4590 O   0  0  0  0  0
   -0.5520  -18.1920  -23.4410 O   0  0  0  0  0
   -7.3990  -17.9310  -24.4680 S   0  0  0  0  0
   -7.0698  -16.4098  -22.6926 H   0  0  0  0  0
   -8.7335  -16.3538  -23.3252 H   0  0  0  0  0
   -8.2270  -17.6955  -22.2695 H   0  0  0  0  0
   -5.5320  -17.6907  -22.4519 H   0  0  0  0  0
   -3.7685  -19.3168  -21.6903 H   0  0  0  0  0
   -4.0833  -20.3351  -23.0700 H   0  0  0  0  0
   -6.2091  -20.9984  -22.2988 H   0  0  0  0  0
   -6.4468  -19.4760  -21.3722 H   0  0  0  0  0
   -4.7436  -20.2376  -19.7746 H   0  0  0  0  0
   -4.6686  -21.8083  -20.6692 H   0  0  0  0  0
   -6.2429  -22.4966  -19.2344 H   0  0  0  0  0
   -7.3570  -21.4829  -20.1765 H   0  0  0  0  0
   -2.1008  -16.4296  -25.0735 H   0  0  0  0  0
   -2.6350  -14.8819  -24.4146 H   0  0  0  0  0
   -1.1775  -15.1649  -22.4164 H   0  0  0  0  0
   -0.2047  -14.3402  -24.5373 H   0  0  0  0  0
    0.1799  -16.0700  -24.9934 H   0  0  0  0  0
    2.9533  -13.5655  -24.1020 H   0  0  0  0  0
    1.9102  -14.0067  -25.4169 H   0  0  0  0  0
    4.3387  -14.9255  -25.2876 H   0  0  0  0  0
    3.0571  -15.9140  -25.8743 H   0  0  0  0  0
    4.2332  -15.9534  -22.9567 H   0  0  0  0  0
    4.0272  -17.2986  -23.9561 H   0  0  0  0  0
    1.5167  -17.2938  -23.7263 H   0  0  0  0  0
    1.9800  -16.7323  -22.1597 H   0  0  0  0  0
    1.5686  -13.2620  -19.7175 H   0  0  0  0  0
    2.8870  -14.5224  -18.3877 H   0  0  0  0  0
    4.0200  -13.1063  -18.7226 H   0  0  0  0  0
    6.0140  -13.4261  -20.0538 H   0  0  0  0  0
    7.7325  -15.1013  -20.7553 H   0  0  0  0  0
    5.0241  -18.3049  -19.8618 H   0  0  0  0  0
    3.2955  -16.6346  -19.1808 H   0  0  0  0  0
   -5.9906  -19.8994  -24.4686 H   0  0  0  0  0
   -7.4327  -20.9677  -17.8574 H   0  0  0  0  0
   -5.8029  -20.6210  -17.8404 H   0  0  0  0  0
   -6.8478  -19.6701  -18.7241 H   0  0  0  0  0
   -3.6286  -16.2302  -22.4806 H   0  0  0  0  0
    2.9385  -15.2475  -21.3095 H   0  0  0  0  0
    7.0932  -18.6172  -20.6661 H   0  0  0  0  0
    3.7886  -13.2534  -22.2932 H   0  0  0  0  0
   -0.8715  -16.5776  -20.9974 H   0  0  0  0  0
 40  1  1  0  0  0
  2  3  1  0  0  0
  2  7  1  0  0  0
 27  2  1  0  0  0
  3  4  1  0  0  0
  4  5  1  0  0  0
  5  6  1  0  0  0
  6 28  1  0  0  0
  7 29  1  0  0  0
  7 33  2  0  0  0
  8  9  1  0  0  0
 29  8  1  0  0  0
  9 10  1  0  0  0
  9 26  1  0  0  0
 10 11  1  0  0  0
 11 12  1  0  0  0
 11 15  1  0  0  0
 11 16  1  0  0  0
 12 13  1  0  0  0
 14 13  1  0  0  0
 15 14  1  0  0  0
 16 30  1  0  0  0
 16 34  2  0  0  0
 17 18  1  0  0  0
 17 25  1  0  0  0
 30 17  1  0  0  0
 18 19  1  0  0  0
 19 20  4  0  0  0
 19 24  4  0  0  0
 20 21  4  0  0  0
 21 22  4  0  0  0
 23 22  4  0  0  0
 22 35  1  0  0  0
 24 23  4  0  0  0
 25 36  2  0  0  0
 25 37  1  0  0  0
 26 38  1  0  0  0
 26 39  2  0  0  0
 27 40  1  0  0  0
 40 31  2  0  0  0
 40 32  2  0  0  0
  1 41  1  0  0  0
  1 42  1  0  0  0
  1 43  1  0  0  0
  2 44  1  0  0  0
  3 45  1  0  0  0
  3 46  1  0  0  0
  4 47  1  0  0  0
  4 48  1  0  0  0
  5 49  1  0  0  0
  5 50  1  0  0  0
  6 51  1  0  0  0
  6 52  1  0  0  0
  8 53  1  0  0  0
  8 54  1  0  0  0
  9 55  1  0  0  0
 10 56  1  0  0  0
 10 57  1  0  0  0
 12 58  1  0  0  0
 12 59  1  0  0  0
 13 60  1  0  0  0
 13 61  1  0  0  0
 14 62  1  0  0  0
 14 63  1  0  0  0
 15 64  1  0  0  0
 15 65  1  0  0  0
 17 66  1  0  0  0
 18 67  1  0  0  0
 18 68  1  0  0  0
 20 69  1  0  0  0
 21 70  1  0  0  0
 23 71  1  0  0  0
 24 72  1  0  0  0
 27 73  1  0  0  0
 28 74  1  0  0  0
 28 75  1  0  0  0
 28 76  1  0  0  0
 29 77  1  0  0  0
 30 78  1  0  0  0
 35 79  1  0  0  0
 37 80  1  0  0  0
 38 81  1  0  0  0
M  END
$$$$
