5wlt_ligand
  -I-interpret- 

 40 40  0  0  0  0  0  0  0  0999 V2000
   -5.3720    2.8170   16.0370 C   0  0  0  0  0
   -6.1940    3.8460   15.7290 C   0  0  0  0  0
   -5.6660    4.9080   15.0510 C   0  0  0  0  0
   -4.3400    4.9800   14.6800 C   0  0  0  0  0
   -3.5400    3.9200   15.0090 C   0  0  0  0  0
   -4.0600    2.8680   15.7030 C   0  0  0  0  0
   -6.0460    1.3950   16.9510 S   0  0  0  0  0
   -5.5970    1.5140   18.2490 O   0  0  0  0  0
   -7.3470    1.5290   16.8880 O   0  0  0  0  0
   -5.3430    0.0530   16.2890 N   0  0  0  0  0
   -3.8510    6.0900   13.9940 O   0  0  0  0  0
   -2.5840    6.0160   13.5600 C   0  0  0  0  0
   -2.2110    7.2770   12.7710 C   0  0  0  0  0
   -1.9300    8.3580   13.7720 C   0  0  0  0  0
   -1.5750    9.5810   13.0330 N   0  3  0  0  0
   -3.2130    7.6890   11.9690 O   0  0  0  0  0
   -1.5430   10.6650   13.9610 C   0  0  0  0  0
   -1.7340   11.9980   13.3420 C   0  0  0  0  0
   -0.3790   10.5300   14.9190 C   0  0  0  0  0
   -7.2461    3.8284   16.0132 H   0  0  0  0  0
   -6.3238    5.7373   14.7911 H   0  0  0  0  0
   -2.4898    3.9166   14.7171 H   0  0  0  0  0
   -3.4043    2.0481   15.9962 H   0  0  0  0  0
   -4.7018   -0.5134   16.8444 H   0  0  0  0  0
   -5.5505   -0.2085   15.3252 H   0  0  0  0  0
   -2.4834    5.1482   12.9082 H   0  0  0  0  0
   -1.9201    5.9274   14.4199 H   0  0  0  0  0
   -1.3505    7.0572   12.1391 H   0  0  0  0  0
   -1.1100    8.0617   14.4261 H   0  0  0  0  0
   -2.8086    8.5345   14.3924 H   0  0  0  0  0
   -2.2633    9.7632   12.3026 H   0  0  0  0  0
   -0.6636    9.4714   12.5883 H   0  0  0  0  0
   -2.9386    8.4777   11.4954 H   0  0  0  0  0
   -2.4323   10.5919   14.5870 H   0  0  0  0  0
   -0.9430   12.1755   12.6133 H   0  0  0  0  0
   -2.7029   12.0303   12.8436 H   0  0  0  0  0
   -1.6961   12.7651   14.1154 H   0  0  0  0  0
   -0.4742    9.5975   15.4753 H   0  0  0  0  0
    0.5544   10.5252   14.3562 H   0  0  0  0  0
   -0.3819   11.3705   15.6130 H   0  0  0  0  0
  1  2  4  0  0  0
  1  6  4  0  0  0
  1  7  1  0  0  0
  2  3  4  0  0  0
  3  4  4  0  0  0
  4  5  4  0  0  0
  4 11  1  0  0  0
  5  6  4  0  0  0
  7  8  2  0  0  0
  7  9  2  0  0  0
  7 10  1  0  0  0
 11 12  1  0  0  0
 12 13  1  0  0  0
 13 14  1  0  0  0
 13 16  1  0  0  0
 14 15  1  0  0  0
 15 17  1  0  0  0
 17 18  1  0  0  0
 17 19  1  0  0  0
  2 20  1  0  0  0
  3 21  1  0  0  0
  5 22  1  0  0  0
  6 23  1  0  0  0
 10 24  1  0  0  0
 10 25  1  0  0  0
 12 26  1  0  0  0
 12 27  1  0  0  0
 13 28  1  0  0  0
 14 29  1  0  0  0
 14 30  1  0  0  0
 15 31  1  0  0  0
 15 32  1  0  0  0
 16 33  1  0  0  0
 17 34  1  0  0  0
 18 35  1  0  0  0
 18 36  1  0  0  0
 18 37  1  0  0  0
 19 38  1  0  0  0
 19 39  1  0  0  0
 19 40  1  0  0  0
M  END
$$$$
