3myq_ligand
  -I-interpret- 

 40 43  0  0  0  0  0  0  0  0999 V2000
   -2.2320    5.5460   11.5400 N   0  0  0  0  0
   -1.9320    4.9120   10.3970 C   0  0  0  0  0
   -0.7730    5.3550    9.8940 N   0  0  0  0  0
   -0.3410    6.2780   10.7350 C   0  0  0  0  0
    0.8050    7.0570   10.7040 C   0  0  0  0  0
    0.9930    7.9250   11.7020 N   0  0  0  0  0
    0.1240    8.0630   12.7130 C   0  0  0  0  0
   -1.0370    7.2950   12.7750 C   0  0  0  0  0
   -1.2440    6.3940   11.7490 C   0  0  0  0  0
    0.3770    8.9840   13.7230 C   0  0  0  0  0
   -0.5220    9.1320   14.7740 C   0  0  0  0  0
   -1.6780    8.3590   14.8250 C   0  0  0  0  0
   -1.9400    7.4340   13.8200 C   0  0  0  0  0
   -2.9730    3.6670    9.6880 S   0  0  0  0  0
   -4.3340    3.4550   10.8620 C   0  0  0  0  0
   -3.9840    2.6700   12.1880 C   0  0  0  0  0
   -3.1280    1.7230   12.2400 O   0  0  0  0  0
   -4.6460    2.9280   13.5660 C   0  0  0  0  0
   -4.9210    1.8980   14.4420 C   0  0  0  0  0
   -5.5230    2.1270   15.6300 C   0  0  0  0  0
   -5.9370    3.4030   15.9370 C   0  0  0  0  0
   -5.7190    4.4710   15.0750 C   0  0  0  0  0
   -5.1000    4.1950   13.9030 C   0  0  0  0  0
   -5.9460    0.8020   16.7410 S   0  0  0  0  0
   -7.4330    0.7740   16.7380 O   0  0  0  0  0
   -6.7760    3.8310   17.4050 Cl  0  0  0  0  0
   -5.3100    1.1070   18.0230 O   0  0  0  0  0
   -5.3740   -0.5550   16.0470 N   0  0  0  0  0
    1.5278    6.9646    9.8934 H   0  0  0  0  0
    1.2816    9.5913   13.6913 H   0  0  0  0  0
   -0.3199    9.8575   15.5620 H   0  0  0  0  0
   -2.3778    8.4784   15.6521 H   0  0  0  0  0
   -2.8437    6.8254   13.8526 H   0  0  0  0  0
   -5.0944    2.8669   10.3482 H   0  0  0  0  0
   -4.6347    4.4570   11.1682 H   0  0  0  0  0
   -4.6470    0.8786   14.1702 H   0  0  0  0  0
   -6.0317    5.4834   15.3305 H   0  0  0  0  0
   -4.9513    5.0064   13.1906 H   0  0  0  0  0
   -6.0218   -1.2593   15.6939 H   0  0  0  0  0
   -4.3678   -0.7009   15.9652 H   0  0  0  0  0
  1  2  4  0  0  0
  1  9  4  0  0  0
  2  3  4  0  0  0
  2 14  1  0  0  0
  3  4  4  0  0  0
  4  5  4  0  0  0
  4  9  4  0  0  0
  5  6  4  0  0  0
  6  7  4  0  0  0
  7  8  4  0  0  0
  7 10  4  0  0  0
  8  9  4  0  0  0
  8 13  4  0  0  0
 10 11  4  0  0  0
 11 12  4  0  0  0
 12 13  4  0  0  0
 14 15  1  0  0  0
 15 16  1  0  0  0
 16 17  2  0  0  0
 16 18  1  0  0  0
 18 19  4  0  0  0
 18 23  4  0  0  0
 19 20  4  0  0  0
 20 21  4  0  0  0
 20 24  1  0  0  0
 21 22  4  0  0  0
 21 26  1  0  0  0
 22 23  4  0  0  0
 24 25  2  0  0  0
 24 27  2  0  0  0
 24 28  1  0  0  0
  5 29  1  0  0  0
 10 30  1  0  0  0
 11 31  1  0  0  0
 12 32  1  0  0  0
 13 33  1  0  0  0
 15 34  1  0  0  0
 15 35  1  0  0  0
 19 36  1  0  0  0
 22 37  1  0  0  0
 23 38  1  0  0  0
 28 39  1  0  0  0
 28 40  1  0  0  0
M  END
$$$$
