5zae_ligand
  -I-interpret- 

 45 47  0  0  0  0  0  0  0  0999 V2000
  -27.4490  -16.1920   -3.4480 N   0  0  0  0  0
  -27.0440  -16.3170   -2.1500 C   0  0  0  0  0
  -28.3800  -17.2980    1.1010 O   0  0  0  0  0
  -28.8410  -16.7080   -5.2470 N   0  0  0  0  0
  -29.1710  -17.7600   -3.1500 C   0  0  0  0  0
  -31.0230  -19.1330   -2.5920 N   0  0  0  0  0
  -30.3380  -18.5740   -3.5980 C   0  0  0  0  0
  -25.4150  -15.4350   -0.3850 C   0  0  0  0  0
  -26.1290  -14.2570    0.2610 C   0  0  0  0  0
  -25.5910  -12.9520   -0.3210 C   0  0  0  0  0
  -26.3590  -12.5320   -1.5690 C   0  0  0  0  0
  -30.6430  -18.6790   -4.7650 O   0  0  0  0  0
  -31.8820  -20.1280   -2.7370 C   0  0  0  0  0
  -32.4990  -20.5730   -1.6340 N   0  0  0  0  0
  -32.1120  -20.6540   -3.9470 N   0  0  0  0  0
  -28.4810  -16.8850   -3.9540 C   0  0  0  0  0
  -28.8120  -17.9070   -1.8640 N   0  0  0  0  0
  -27.7750  -17.2200   -1.3520 C   0  0  0  0  0
  -27.5400  -17.5730    0.0610 C   0  0  0  0  0
  -26.4660  -18.3250    0.5290 C   0  0  0  0  0
  -26.6270  -18.4590    1.8920 C   0  0  0  0  0
  -27.8000  -17.8280    2.2420 C   0  0  0  0  0
  -25.9550  -15.5100   -1.7410 N   0  0  0  0  0
  -25.2740  -14.6320   -2.6780 C   0  0  0  0  0
  -26.0270  -13.3120   -2.8490 C   0  0  0  0  0
  -28.3284  -16.0495   -5.8336 H   0  0  0  0  0
  -29.6248  -17.2331   -5.6346 H   0  0  0  0  0
  -25.5821  -16.3598    0.1672 H   0  0  0  0  0
  -24.3336  -15.2982   -0.3887 H   0  0  0  0  0
  -25.9551  -14.2732    1.3369 H   0  0  0  0  0
  -27.1986  -14.3285    0.0634 H   0  0  0  0  0
  -24.5469  -13.1030   -0.5950 H   0  0  0  0  0
  -25.7019  -12.1697    0.4299 H   0  0  0  0  0
  -26.0902  -11.4934   -1.7619 H   0  0  0  0  0
  -27.4127  -12.7165   -1.3597 H   0  0  0  0  0
  -32.2981  -20.1459   -0.7298 H   0  0  0  0  0
  -33.1696  -21.3389   -1.6986 H   0  0  0  0  0
  -31.6233  -20.2873   -4.7638 H   0  0  0  0  0
  -25.6508  -18.7316   -0.0696 H   0  0  0  0  0
  -25.9469  -18.9729    2.5714 H   0  0  0  0  0
  -28.2056  -17.7572    3.2513 H   0  0  0  0  0
  -25.2223  -15.1303   -3.6461 H   0  0  0  0  0
  -24.2782  -14.4161   -2.2907 H   0  0  0  0  0
  -25.3692  -12.6660   -3.4304 H   0  0  0  0  0
  -26.9858  -13.5710   -3.2982 H   0  0  0  0  0
  2  1  4  0  0  0
  1 16  4  0  0  0
 18  2  4  0  0  0
  2 23  1  0  0  0
 19  3  4  0  0  0
  3 22  4  0  0  0
 16  4  1  0  0  0
  5  7  1  0  0  0
  5 16  4  0  0  0
 17  5  4  0  0  0
  7  6  1  0  0  0
  6 13  4  0  0  0
  7 12  2  0  0  0
  8  9  1  0  0  0
 23  8  1  0  0  0
  9 10  1  0  0  0
 10 11  1  0  0  0
 11 25  1  0  0  0
 13 14  1  0  0  0
 13 15  2  0  0  0
 18 17  4  0  0  0
 18 19  1  0  0  0
 19 20  4  0  0  0
 20 21  4  0  0  0
 21 22  4  0  0  0
 23 24  1  0  0  0
 24 25  1  0  0  0
  4 26  1  0  0  0
  4 27  1  0  0  0
  8 28  1  0  0  0
  8 29  1  0  0  0
  9 30  1  0  0  0
  9 31  1  0  0  0
 10 32  1  0  0  0
 10 33  1  0  0  0
 11 34  1  0  0  0
 11 35  1  0  0  0
 14 36  1  0  0  0
 14 37  1  0  0  0
 15 38  1  0  0  0
 20 39  1  0  0  0
 21 40  1  0  0  0
 22 41  1  0  0  0
 24 42  1  0  0  0
 24 43  1  0  0  0
 25 44  1  0  0  0
 25 45  1  0  0  0
M  END
$$$$
