4drm_ligand
  -I-interpret- 

 91 94  0  0  0  0  0  0  0  0999 V2000
   26.5360   16.0350  -22.4370 C   0  0  0  0  0
   27.7260   15.7860  -21.4930 C   0  0  0  0  0
   28.4180   14.4040  -21.6720 C   0  0  0  0  0
   28.6010   13.9760  -23.1480 C   0  0  0  0  0
   29.4660   12.6940  -23.2320 C   0  0  0  0  0
   28.8480   11.5260  -22.4280 C   0  0  0  0  0
   28.5710   11.9180  -20.9600 C   0  0  0  0  0
   27.7810   13.2500  -20.8290 C   0  0  0  0  0
   26.4500   13.0000  -21.2620 O   0  0  0  0  0
   27.7830   13.6320  -19.3380 C   0  0  0  0  0
   26.7620   13.6290  -18.6570 O   0  0  0  0  0
   29.0490   14.1080  -18.6270 C   0  0  0  0  0
   29.3210   15.3190  -18.7340 O   0  0  0  0  0
   29.7800   13.2670  -17.8810 N   0  0  0  0  0
   29.4110   11.7890  -17.7400 C   0  0  0  0  0
   29.4020   11.3940  -16.2520 C   0  0  0  0  0
   30.7330   11.8090  -15.5660 C   0  0  0  0  0
   30.9690   13.3270  -15.7400 C   0  0  0  0  0
   30.9930   13.7590  -17.2200 C   0  0  0  0  0
   32.2510   13.2290  -17.9100 C   0  0  0  0  0
   33.3590   13.3900  -17.4090 O   0  0  0  0  0
   32.1020   12.6040  -19.0770 O   0  0  0  0  0
   33.2870   12.1460  -19.7830 C   0  0  0  0  0
   33.5020   13.0620  -20.9810 C   0  0  0  0  0
   34.9240   12.8360  -21.5870 C   0  0  0  0  0
   36.1080   13.4320  -20.7540 C   0  0  0  0  0
   36.3280   14.8170  -20.7830 C   0  0  0  0  0
   36.9390   12.6300  -19.9900 C   0  0  0  0  0
   37.9940   13.1740  -19.2410 C   0  0  0  0  0
   38.2100   14.5640  -19.2820 C   0  0  0  0  0
   39.2250   15.2090  -18.5920 O   0  0  0  0  0
   40.2000   14.3580  -17.9450 C   0  0  0  0  0
   37.3740   15.3770  -20.0380 C   0  0  0  0  0
   37.6550   16.7170  -20.0090 O   0  0  0  0  0
   36.9080   17.6200  -20.8600 C   0  0  0  0  0
   33.0090   10.6510  -20.0300 C   0  0  0  0  0
   33.7240    9.7330  -19.2740 C   0  0  0  0  0
   32.0650   10.2190  -20.9830 C   0  0  0  0  0
   31.8710    8.8430  -21.1410 C   0  0  0  0  0
   32.5850    7.9230  -20.3680 C   0  0  0  0  0
   33.5220    8.3650  -19.4120 C   0  0  0  0  0
   34.2820    7.5430  -18.5720 O   0  0  0  0  0
   33.9340    6.1270  -18.4460 C   0  0  0  0  0
   34.4220    5.4240  -19.7240 C   0  0  0  0  0
   35.3470    5.9640  -20.3840 O   0  0  0  0  0
   33.8520    4.3570  -20.0500 O   0  0  0  0  0
   26.8772   15.9837  -23.4710 H   0  0  0  0  0
   25.7734   15.2750  -22.2665 H   0  0  0  0  0
   26.1177   17.0220  -22.2396 H   0  0  0  0  0
   27.3363   15.8168  -20.4755 H   0  0  0  0  0
   28.4736   16.5470  -21.7166 H   0  0  0  0  0
   29.4145   14.5750  -21.2647 H   0  0  0  0  0
   29.0995   14.7782  -23.6922 H   0  0  0  0  0
   27.6226   13.7746  -23.5843 H   0  0  0  0  0
   30.4470   12.9160  -22.8120 H   0  0  0  0  0
   29.5292   12.3928  -24.2776 H   0  0  0  0  0
   29.5557   10.6970  -22.4320 H   0  0  0  0  0
   27.9003   11.2553  -22.8934 H   0  0  0  0  0
   29.5323   12.0506  -20.4636 H   0  0  0  0  0
   27.9683   11.1278  -20.5123 H   0  0  0  0  0
   25.9351   13.8073  -21.1926 H   0  0  0  0  0
   30.1451   11.1819  -18.2698 H   0  0  0  0  0
   28.4204   11.6227  -18.1632 H   0  0  0  0  0
   29.2879   10.3127  -16.1750 H   0  0  0  0  0
   28.5760   11.9045  -15.7567 H   0  0  0  0  0
   31.5575   11.2637  -16.0252 H   0  0  0  0  0
   30.6758   11.5752  -14.5029 H   0  0  0  0  0
   31.9393   13.5671  -15.3053 H   0  0  0  0  0
   30.1481   13.8517  -15.2512 H   0  0  0  0  0
   31.0159   14.8468  -17.2855 H   0  0  0  0  0
   34.2448   12.2065  -19.2663 H   0  0  0  0  0
   33.4137   14.0989  -20.6568 H   0  0  0  0  0
   32.7519   12.8382  -21.7396 H   0  0  0  0  0
   34.9359   13.3415  -22.5526 H   0  0  0  0  0
   35.0799   11.7578  -21.6242 H   0  0  0  0  0
   35.6846   15.4581  -21.3856 H   0  0  0  0  0
   36.7702   11.5533  -19.9699 H   0  0  0  0  0
   38.6350   12.5309  -18.6379 H   0  0  0  0  0
   39.6981   13.7214  -17.2163 H   0  0  0  0  0
   40.6923   13.7373  -18.6936 H   0  0  0  0  0
   40.9415   14.9765  -17.4393 H   0  0  0  0  0
   37.0518   17.3370  -21.9027 H   0  0  0  0  0
   35.8489   17.5612  -20.6089 H   0  0  0  0  0
   37.2631   18.6391  -20.7065 H   0  0  0  0  0
   34.4606   10.0930  -18.5558 H   0  0  0  0  0
   31.5022   10.9367  -21.5799 H   0  0  0  0  0
   31.1527    8.4829  -21.8775 H   0  0  0  0  0
   32.4159    6.8550  -20.5055 H   0  0  0  0  0
   32.8573    6.0051  -18.3278 H   0  0  0  0  0
   34.4057    5.6925  -17.5646 H   0  0  0  0  0
   35.6260    6.7692  -19.9420 H   0  0  0  0  0
  1  2  1  0  0  0
  2  3  1  0  0  0
  3  4  1  0  0  0
  3  8  1  0  0  0
  4  5  1  0  0  0
  5  6  1  0  0  0
  6  7  1  0  0  0
  7  8  1  0  0  0
  8  9  1  0  0  0
  8 10  1  0  0  0
 10 11  2  0  0  0
 10 12  1  0  0  0
 12 13  2  0  0  0
 12 14  1  0  0  0
 14 15  1  0  0  0
 14 19  1  0  0  0
 15 16  1  0  0  0
 16 17  1  0  0  0
 17 18  1  0  0  0
 18 19  1  0  0  0
 19 20  1  0  0  0
 20 21  2  0  0  0
 20 22  1  0  0  0
 22 23  1  0  0  0
 23 24  1  0  0  0
 23 36  1  0  0  0
 24 25  1  0  0  0
 25 26  1  0  0  0
 26 27  4  0  0  0
 26 28  4  0  0  0
 27 33  4  0  0  0
 28 29  4  0  0  0
 29 30  4  0  0  0
 30 31  1  0  0  0
 30 33  4  0  0  0
 31 32  1  0  0  0
 33 34  1  0  0  0
 34 35  1  0  0  0
 36 37  4  0  0  0
 36 38  4  0  0  0
 37 41  4  0  0  0
 38 39  4  0  0  0
 39 40  4  0  0  0
 40 41  4  0  0  0
 41 42  1  0  0  0
 42 43  1  0  0  0
 43 44  1  0  0  0
 44 45  1  0  0  0
 44 46  2  0  0  0
  1 47  1  0  0  0
  1 48  1  0  0  0
  1 49  1  0  0  0
  2 50  1  0  0  0
  2 51  1  0  0  0
  3 52  1  0  0  0
  4 53  1  0  0  0
  4 54  1  0  0  0
  5 55  1  0  0  0
  5 56  1  0  0  0
  6 57  1  0  0  0
  6 58  1  0  0  0
  7 59  1  0  0  0
  7 60  1  0  0  0
  9 61  1  0  0  0
 15 62  1  0  0  0
 15 63  1  0  0  0
 16 64  1  0  0  0
 16 65  1  0  0  0
 17 66  1  0  0  0
 17 67  1  0  0  0
 18 68  1  0  0  0
 18 69  1  0  0  0
 19 70  1  0  0  0
 23 71  1  0  0  0
 24 72  1  0  0  0
 24 73  1  0  0  0
 25 74  1  0  0  0
 25 75  1  0  0  0
 27 76  1  0  0  0
 28 77  1  0  0  0
 29 78  1  0  0  0
 32 79  1  0  0  0
 32 80  1  0  0  0
 32 81  1  0  0  0
 35 82  1  0  0  0
 35 83  1  0  0  0
 35 84  1  0  0  0
 37 85  1  0  0  0
 38 86  1  0  0  0
 39 87  1  0  0  0
 40 88  1  0  0  0
 43 89  1  0  0  0
 43 90  1  0  0  0
 45 91  1  0  0  0
M  END
$$$$
