4hwp_ligand
  -I-interpret- 

 51 53  0  0  0  0  0  0  0  0999 V2000
  -11.3080  -34.6160   19.9010 C   0  0  0  0  0
  -11.2040  -33.6830   18.6920 C   0  0  0  0  0
  -10.8100  -34.4180   17.4080 C   0  0  0  0  0
  -11.9580  -35.3040   17.0020 C   0  0  0  0  0
  -11.9000  -36.5850   17.3310 N   0  0  0  0  0
  -10.3330  -32.6330   19.0650 O   0  0  0  0  0
  -10.6490  -33.4780   16.3400 N   0  3  0  0  0
  -12.8720  -34.8390   16.3770 O   0  0  0  0  0
  -13.0600  -37.5910   16.9060 S   0  0  0  0  0
  -12.6020  -38.8290   17.2930 O   0  0  0  0  0
  -13.2940  -37.4810   15.5710 O   0  0  0  0  0
  -14.4090  -37.3040   17.7650 C   0  0  0  0  0
  -14.3690  -36.7660   19.0530 C   0  0  0  0  0
  -15.5210  -36.5250   19.8090 C   0  0  0  0  0
  -16.7460  -36.8380   19.2490 C   0  0  0  0  0
  -16.8220  -37.4400   18.0030 C   0  0  0  0  0
  -15.6610  -37.6320   17.2610 C   0  0  0  0  0
  -18.1670  -37.7250   17.4010 C   0  0  0  0  0
  -19.2940  -37.8050   18.2000 C   0  0  0  0  0
  -20.5620  -37.9960   17.6770 C   0  0  0  0  0
  -20.7000  -38.1020   16.3040 C   0  0  0  0  0
  -19.5250  -38.0260   15.4320 C   0  0  0  0  0
  -18.2920  -37.8230   16.0260 C   0  0  0  0  0
  -19.7060  -38.1250   14.0950 N   0  0  0  0  0
  -20.9210  -38.3000   13.5480 C   0  0  0  0  0
  -22.0390  -38.3730   14.2920 N   0  0  0  0  0
  -22.0090  -38.2920   15.6180 C   0  0  0  0  0
  -23.0980  -38.3540   16.3280 N   0  0  0  0  0
  -21.0070  -38.4170   12.0560 C   0  0  0  0  0
  -10.3184  -35.0006   20.1477 H   0  0  0  0  0
  -11.7069  -34.0633   20.7516 H   0  0  0  0  0
  -11.9725  -35.4462   19.6616 H   0  0  0  0  0
  -12.1762  -33.2639   18.4325 H   0  0  0  0  0
   -9.8898  -34.9740   17.5874 H   0  0  0  0  0
  -11.1024  -36.9324   17.8634 H   0  0  0  0  0
  -10.6507  -32.2278   19.8752 H   0  0  0  0  0
   -9.8794  -32.8453   16.5587 H   0  0  0  0  0
  -10.4436  -33.9791   15.4757 H   0  0  0  0  0
  -11.5097  -32.9423   16.2275 H   0  0  0  0  0
  -13.3992  -36.5236   19.4876 H   0  0  0  0  0
  -15.4549  -36.1023   20.8115 H   0  0  0  0  0
  -17.6619  -36.6087   19.7936 H   0  0  0  0  0
  -15.7359  -38.0509   16.2575 H   0  0  0  0  0
  -19.1795  -37.7144   19.2802 H   0  0  0  0  0
  -21.4312  -38.0613   18.3315 H   0  0  0  0  0
  -17.4035  -37.7388   15.4002 H   0  0  0  0  0
  -23.0500  -38.2727   17.3436 H   0  0  0  0  0
  -23.9995  -38.4839   15.8688 H   0  0  0  0  0
  -20.6162  -37.5081   11.5984 H   0  0  0  0  0
  -20.4192  -39.2734   11.7255 H   0  0  0  0  0
  -22.0479  -38.5543   11.7630 H   0  0  0  0  0
  1  2  1  0  0  0
  2  3  1  0  0  0
  2  6  1  0  0  0
  3  4  1  0  0  0
  3  7  1  0  0  0
  4  5  1  0  0  0
  4  8  2  0  0  0
  5  9  1  0  0  0
  9 10  2  0  0  0
  9 11  2  0  0  0
  9 12  1  0  0  0
 12 13  4  0  0  0
 12 17  4  0  0  0
 13 14  4  0  0  0
 14 15  4  0  0  0
 15 16  4  0  0  0
 16 17  4  0  0  0
 16 18  1  0  0  0
 18 19  4  0  0  0
 18 23  4  0  0  0
 19 20  4  0  0  0
 20 21  4  0  0  0
 21 22  4  0  0  0
 21 27  4  0  0  0
 22 23  4  0  0  0
 22 24  4  0  0  0
 24 25  4  0  0  0
 25 26  4  0  0  0
 25 29  1  0  0  0
 26 27  4  0  0  0
 27 28  1  0  0  0
  1 30  1  0  0  0
  1 31  1  0  0  0
  1 32  1  0  0  0
  2 33  1  0  0  0
  3 34  1  0  0  0
  5 35  1  0  0  0
  6 36  1  0  0  0
  7 37  1  0  0  0
  7 38  1  0  0  0
  7 39  1  0  0  0
 13 40  1  0  0  0
 14 41  1  0  0  0
 15 42  1  0  0  0
 17 43  1  0  0  0
 19 44  1  0  0  0
 20 45  1  0  0  0
 23 46  1  0  0  0
 28 47  1  0  0  0
 28 48  1  0  0  0
 29 49  1  0  0  0
 29 50  1  0  0  0
 29 51  1  0  0  0
M  END
$$$$
