5ny3_ligand
  -I-interpret- 

 39 40  0  0  0  0  0  0  0  0999 V2000
   -5.4280    1.2880   16.1000 N   0  0  0  0  0
   -5.4710    3.9580   15.9490 C   0  0  0  0  0
   -4.1130    4.1220   15.5980 C   0  0  0  0  0
   -3.6220    5.2530   14.9250 C   0  0  0  0  0
   -4.5230    6.2640   14.6060 C   0  0  0  0  0
   -5.8590    6.1710   14.9710 C   0  0  0  0  0
   -6.3150    5.0470   15.6410 C   0  0  0  0  0
   -2.9010    7.5550   13.0000 C   0  0  0  0  0
   -4.1330    7.5200   13.9040 C   0  0  0  0  0
   -1.8120    9.7490   13.4600 C   0  0  0  0  0
    0.2190   14.2630   13.7020 C   0  0  0  0  0
   -0.8190   13.3860   13.3620 C   0  0  0  0  0
   -0.7890   12.0350   13.8130 C   0  0  0  0  0
    1.3130   13.8100   14.4820 C   0  0  0  0  0
    0.3340   11.6140   14.5850 C   0  0  0  0  0
    1.3650   12.4830   14.9220 C   0  0  0  0  0
   -0.9210    9.1620   14.1520 O   0  0  0  0  0
   -1.8430   11.1640   13.4060 N   0  0  0  0  0
    2.6020   14.8470   14.9150 Cl  0  0  0  0  0
   -2.7220    8.9840   12.7550 N   0  0  0  0  0
   -6.0400    2.6250   16.8220 S   0  0  0  0  0
   -5.4870    2.7110   18.1460 O   0  0  0  0  0
   -7.4720    2.6450   16.7050 O   0  0  0  0  0
   -4.7719    0.6914   16.6039 H   0  0  0  0  0
   -5.7031    1.0521   15.1465 H   0  0  0  0  0
   -3.4107    3.3315   15.8625 H   0  0  0  0  0
   -2.5677    5.3360   14.6609 H   0  0  0  0  0
   -6.5482    6.9807   14.7310 H   0  0  0  0  0
   -7.3620    5.0021   15.9407 H   0  0  0  0  0
   -3.0301    6.9796   12.0833 H   0  0  0  0  0
   -2.0268    7.0891   13.4549 H   0  0  0  0  0
   -3.8937    8.2139   14.7098 H   0  0  0  0  0
   -4.9658    7.7195   13.2296 H   0  0  0  0  0
    0.1855   15.2991   13.3652 H   0  0  0  0  0
   -1.6507   13.7377   12.7516 H   0  0  0  0  0
    0.3852   10.5784   14.9212 H   0  0  0  0  0
    2.2051   12.1344   15.5227 H   0  0  0  0  0
   -2.6925   11.5979   13.0448 H   0  0  0  0  0
   -3.2897    9.4340   12.0369 H   0  0  0  0  0
 21  1  1  0  0  0
  3  2  4  0  0  0
  7  2  4  0  0  0
  2 21  1  0  0  0
  4  3  4  0  0  0
  5  4  4  0  0  0
  5  6  4  0  0  0
  9  5  1  0  0  0
  6  7  4  0  0  0
  8  9  1  0  0  0
 20  8  1  0  0  0
 10 17  2  0  0  0
 18 10  1  0  0  0
 10 20  1  0  0  0
 12 11  4  0  0  0
 11 14  4  0  0  0
 13 12  4  0  0  0
 13 15  4  0  0  0
 13 18  1  0  0  0
 14 16  4  0  0  0
 14 19  1  0  0  0
 15 16  4  0  0  0
 21 22  2  0  0  0
 21 23  2  0  0  0
  1 24  1  0  0  0
  1 25  1  0  0  0
  3 26  1  0  0  0
  4 27  1  0  0  0
  6 28  1  0  0  0
  7 29  1  0  0  0
  8 30  1  0  0  0
  8 31  1  0  0  0
  9 32  1  0  0  0
  9 33  1  0  0  0
 11 34  1  0  0  0
 12 35  1  0  0  0
 15 36  1  0  0  0
 16 37  1  0  0  0
 18 38  1  0  0  0
 20 39  1  0  0  0
M  END
$$$$
