### 
### Created by X-TOOL on Mon Sep 10 21:12:57 2018
### 

@<TRIPOS>MOLECULE
3b95_ligand
   90    89     1     0     0
SMALL
GAST_HUCK


@<TRIPOS>ATOM
      1 N         -31.3100   -5.7920    7.1790 N.4       1 ALA         0.2377
      2 CA        -30.5920   -5.8900    8.4530 C.3       1 ALA         0.0621
      3 C         -29.0660   -5.8740    8.2740 C.2       1 ALA         0.2264
      4 O         -28.5050   -6.5890    7.4270 O.2       1 ALA        -0.3907
      5 CB        -31.0200   -7.1630    9.2090 C.3       1 ALA        -0.0040
      6 N         -28.3940   -5.0490    9.0740 N.am      1 ARG        -0.2613
      7 CA        -26.9420   -4.9560    8.9940 C.3       1 ARG         0.1283
      8 C         -26.2820   -4.5730   10.3180 C.2       1 ARG         0.2036
      9 O         -26.5860   -3.5310   10.9060 O.2       1 ARG        -0.3944
     10 CB        -26.5310   -3.9610    7.8860 C.3       1 ARG        -0.0244
     11 N         -25.3960   -5.4500   10.7840 N.am      1 MLY        -0.2637
     12 CA        -24.6250   -5.2210   11.9930 C.3       1 MLY         0.1310
     13 CB        -24.1850   -6.5670   12.5850 C.3       1 MLY        -0.0122
     14 CG        -24.0260   -7.6860   11.5420 C.3       1 MLY        -0.0440
     15 CD        -23.3040   -8.9160   12.0900 C.3       1 MLY        -0.0123
     16 CE        -23.2320  -10.0260   11.0430 C.3       1 MLY        -0.0324
     17 NZ        -22.0860  -10.9220   11.2240 N.4       1 MLY         0.2309
     18 CH1       -22.2300  -11.9920   10.2430 C.3       1 MLY        -0.0433
     19 CH2       -20.8750  -10.1830   10.8550 C.3       1 MLY        -0.0433
     20 C         -23.4120   -4.4230   11.4850 C.2       1 MLY         0.2040
     21 O         -22.9830   -4.6070   10.3420 O.2       1 MLY        -0.3944
     22 N         -22.8700   -3.5250   12.3050 N.am      1 SER        -0.2616
     23 CA        -21.7140   -2.7250   11.8870 C.3       1 SER         0.1539
     24 C         -20.5070   -2.9130   12.8010 C.2       1 SER         0.2063
     25 O         -20.6500   -3.2120   13.9920 O.2       1 SER        -0.3943
     26 CB        -22.0900   -1.2330   11.8380 C.3       1 SER         0.0843
     27 OG        -20.9620   -0.4120   11.5660 O.3       1 SER        -0.3903
     28 N         -19.3200   -2.7300   12.2300 N.am      1 THR        -0.2613
     29 CA        -18.0770   -2.8520   12.9730 C.3       1 THR         0.1565
     30 C         -17.6040   -1.4910   13.4420 C.2       1 THR         0.2063
     31 O         -16.4050   -1.2900   13.6680 O.2       1 THR        -0.3943
     32 CB        -16.9710   -3.4530   12.1180 C.3       1 THR         0.0924
     33 OG1       -16.9490   -2.8100   10.8400 O.3       1 THR        -0.3874
     34 CG2       -17.1820   -4.9180   11.9440 C.3       1 THR        -0.0346
     35 N         -18.5350   -0.5480   13.5790 N.am      1 GLY        -0.2663
     36 CA        -18.1390    0.7690   14.0260 C.3       1 GLY         0.1201
     37 C         -19.1870    1.4660   14.8640 C.2       1 GLY         0.2000
     38 O         -19.3640    2.6730   14.7240 O.2       1 GLY        -0.3947
     39 N         -19.8640    0.7070   15.7270 N.am      1 GLY        -0.2724
     40 CA        -20.9200    1.2520   16.5750 C.3       1 GLY         0.0833
     41 C         -20.5220    2.3410   17.5660 C.2       1 GLY         0.0570
     42 O         -20.8755    2.2322   18.7705 O.co2     1 GLY        -0.5669
     43 O         -19.8489    3.3358   17.1853 O.co2     1 GLY        -0.5669
     44 H1        -32.3031   -5.8067    7.3510 H         1 ALA         0.2015
     45 H2        -31.0593   -6.5715    6.5912 H         1 ALA         0.2015
     46 H3        -31.0615   -4.9304    6.7187 H         1 ALA         0.2015
     47 H4        -30.8687   -5.0170    9.0624 H         1 ALA         0.1095
     48 H5        -30.4744   -7.2243   10.1622 H         1 ALA         0.0310
     49 H6        -30.7897   -8.0477    8.5972 H         1 ALA         0.0310
     50 H7        -32.1013   -7.1256    9.4073 H         1 ALA         0.0310
     51 H8        -28.8904   -4.4877    9.7362 H         1 ARG         0.1884
     52 H9        -26.5645   -5.9507    8.7148 H         1 ARG         0.0797
     53 H10       -25.4338   -3.9003    7.8363 H         1 ARG         0.0277
     54 H11       -26.9432   -2.9671    8.1144 H         1 ARG         0.0277
     55 H12       -26.9232   -4.3071    6.9184 H         1 ARG         0.0277
     56 H13       -25.2553   -6.3024   10.2804 H         1 MLY         0.1883
     57 H14       -25.1979   -4.6494   12.7380 H         1 MLY         0.0800
     58 H15       -24.9385   -6.8844   13.3208 H         1 MLY         0.0312
     59 H16       -23.2178   -6.4238   13.0890 H         1 MLY         0.0312
     60 H17       -23.4509   -7.2925   10.6909 H         1 MLY         0.0269
     61 H18       -25.0260   -7.9904   11.1995 H         1 MLY         0.0269
     62 H19       -23.8475   -9.2884   12.9709 H         1 MLY         0.0317
     63 H20       -22.2824   -8.6318   12.3825 H         1 MLY         0.0317
     64 H21       -23.1590   -9.5629   10.0479 H         1 MLY         0.0814
     65 H22       -24.1542  -10.6226   11.1030 H         1 MLY         0.0814
     66 H23       -22.0352  -11.2771   12.1660 H         1 MLY         0.2028
     67 H24       -21.3887  -12.6940   10.3400 H         1 MLY         0.0777
     68 H25       -22.2344  -11.5628    9.2302 H         1 MLY         0.0777
     69 H26       -23.1754  -12.5261   10.4191 H         1 MLY         0.0777
     70 H27       -20.7173   -9.3590   11.5664 H         1 MLY         0.0777
     71 H28       -20.9897   -9.7743    9.8402 H         1 MLY         0.0777
     72 H29       -20.0093  -10.8611   10.8816 H         1 MLY         0.0777
     73 H30       -23.2562   -3.3942   13.2181 H         1 SER         0.1884
     74 H31       -21.4284   -3.0472   10.8748 H         1 SER         0.0823
     75 H32       -22.5164   -0.9414   12.8091 H         1 SER         0.0606
     76 H33       -22.8398   -1.0807   11.0477 H         1 SER         0.0606
     77 H34       -20.5909   -0.6540   10.7257 H         1 SER         0.2097
     78 H35       -19.2815   -2.5009   11.2574 H         1 THR         0.1884
     79 H36       -18.2514   -3.4989   13.8454 H         1 THR         0.0826
     80 H37       -16.0051   -3.2900   12.6185 H         1 THR         0.0639
     81 H38       -16.2577   -3.1873   10.3088 H         1 THR         0.2101
     82 H39       -16.3739   -5.3338   11.3243 H         1 THR         0.0257
     83 H40       -18.1494   -5.0931   11.4507 H         1 THR         0.0257
     84 H41       -17.1783   -5.4085   12.9286 H         1 THR         0.0257
     85 H42       -19.4935   -0.7479   13.3757 H         1 GLY         0.1881
     86 H43       -17.9330    1.3890   13.1410 H         1 GLY         0.0763
     87 H44       -17.2226    0.6712   14.6265 H         1 GLY         0.0763
     88 H45       -19.6413   -0.2655   15.7952 H         1 GLY         0.1873
     89 H46       -21.3452    0.4178   17.1524 H         1 GLY         0.0689
     90 H47       -21.6925    1.6717   15.9139 H         1 GLY         0.0689
@<TRIPOS>BOND
     1    1    2 1  
     2    2    3 1  
     3    2    5 1  
     4    3    4 2  
     5    3    6 am 
     6    6    7 1  
     7    7    8 1  
     8    7   10 1  
     9    8    9 2  
    10    8   11 am 
    11   11   12 1  
    12   12   13 1  
    13   12   20 1  
    14   13   14 1  
    15   14   15 1  
    16   15   16 1  
    17   16   17 1  
    18   17   18 1  
    19   17   19 1  
    20   20   21 2  
    21   20   22 am 
    22   22   23 1  
    23   23   24 1  
    24   23   26 1  
    25   24   25 2  
    26   24   28 am 
    27   26   27 1  
    28   28   29 1  
    29   29   30 1  
    30   29   32 1  
    31   30   31 2  
    32   30   35 am 
    33   32   33 1  
    34   32   34 1  
    35   35   36 1  
    36   36   37 1  
    37   37   38 2  
    38   37   39 am 
    39   39   40 1  
    40   40   41 1  
    41   41   42 ar 
    42   41   43 ar 
    43    1   44 1  
    44    1   45 1  
    45    1   46 1  
    46    2   47 1  
    47    5   48 1  
    48    5   49 1  
    49    5   50 1  
    50    6   51 1  
    51    7   52 1  
    52   10   53 1  
    53   10   54 1  
    54   10   55 1  
    55   11   56 1  
    56   12   57 1  
    57   13   58 1  
    58   13   59 1  
    59   14   60 1  
    60   14   61 1  
    61   15   62 1  
    62   15   63 1  
    63   16   64 1  
    64   16   65 1  
    65   17   66 1  
    66   18   67 1  
    67   18   68 1  
    68   18   69 1  
    69   19   70 1  
    70   19   71 1  
    71   19   72 1  
    72   22   73 1  
    73   23   74 1  
    74   26   75 1  
    75   26   76 1  
    76   27   77 1  
    77   28   78 1  
    78   29   79 1  
    79   32   80 1  
    80   33   81 1  
    81   34   82 1  
    82   34   83 1  
    83   34   84 1  
    84   35   85 1  
    85   36   86 1  
    86   36   87 1  
    87   39   88 1  
    88   40   89 1  
    89   40   90 1  
@<TRIPOS>SUBSTRUCTURE
     1 ALA         1

