3b95_ligand
  -I-interpret- 

 91 90  0  0  0  0  0  0  0  0999 V2000
  -31.3100   -5.7920    7.1790 N   0  3  0  0  0
  -30.5920   -5.8900    8.4530 C   0  0  0  0  0
  -29.0660   -5.8740    8.2740 C   0  0  0  0  0
  -28.5050   -6.5890    7.4270 O   0  0  0  0  0
  -31.0200   -7.1630    9.2090 C   0  0  0  0  0
  -28.3940   -5.0490    9.0740 N   0  0  0  0  0
  -26.9420   -4.9560    8.9940 C   0  0  0  0  0
  -26.2820   -4.5730   10.3180 C   0  0  0  0  0
  -26.5860   -3.5310   10.9060 O   0  0  0  0  0
  -26.5310   -3.9610    7.8860 C   0  0  0  0  0
  -25.3960   -5.4500   10.7840 N   0  0  0  0  0
  -24.6250   -5.2210   11.9930 C   0  0  0  0  0
  -24.1850   -6.5670   12.5850 C   0  0  0  0  0
  -24.0260   -7.6860   11.5420 C   0  0  0  0  0
  -23.3040   -8.9160   12.0900 C   0  0  0  0  0
  -23.2320  -10.0260   11.0430 C   0  0  0  0  0
  -22.0860  -10.9220   11.2240 N   0  3  0  0  0
  -22.2300  -11.9920   10.2430 C   0  0  0  0  0
  -20.8750  -10.1830   10.8550 C   0  0  0  0  0
  -23.4120   -4.4230   11.4850 C   0  0  0  0  0
  -22.9830   -4.6070   10.3420 O   0  0  0  0  0
  -22.8700   -3.5250   12.3050 N   0  0  0  0  0
  -21.7140   -2.7250   11.8870 C   0  0  0  0  0
  -20.5070   -2.9130   12.8010 C   0  0  0  0  0
  -20.6500   -3.2120   13.9920 O   0  0  0  0  0
  -22.0900   -1.2330   11.8380 C   0  0  0  0  0
  -20.9620   -0.4120   11.5660 O   0  0  0  0  0
  -19.3200   -2.7300   12.2300 N   0  0  0  0  0
  -18.0770   -2.8520   12.9730 C   0  0  0  0  0
  -17.6040   -1.4910   13.4420 C   0  0  0  0  0
  -16.4050   -1.2900   13.6680 O   0  0  0  0  0
  -16.9710   -3.4530   12.1180 C   0  0  0  0  0
  -16.9490   -2.8100   10.8400 O   0  0  0  0  0
  -17.1820   -4.9180   11.9440 C   0  0  0  0  0
  -18.5350   -0.5480   13.5790 N   0  0  0  0  0
  -18.1390    0.7690   14.0260 C   0  0  0  0  0
  -19.1870    1.4660   14.8640 C   0  0  0  0  0
  -19.3640    2.6730   14.7240 O   0  0  0  0  0
  -19.8640    0.7070   15.7270 N   0  0  0  0  0
  -20.9200    1.2520   16.5750 C   0  0  0  0  0
  -20.5220    2.3410   17.5660 C   0  0  0  0  0
  -20.8755    2.2322   18.7705 O   0  0  0  0  0
  -19.8489    3.3358   17.1853 O   0  0  0  0  0
  -31.0177   -4.9462    6.6895 H   0  0  0  0  0
  -31.0968   -6.6086    6.6062 H   0  0  0  0  0
  -32.3135   -5.7532    7.3577 H   0  0  0  0  0
  -30.8576   -5.0083    9.0362 H   0  0  0  0  0
  -30.7155   -8.0415    8.6401 H   0  0  0  0  0
  -30.5429   -7.1798   10.1889 H   0  0  0  0  0
  -32.1032   -7.1648    9.3308 H   0  0  0  0  0
  -28.9004   -4.4765    9.7494 H   0  0  0  0  0
  -26.5829   -5.9554    8.7485 H   0  0  0  0  0
  -26.8477   -2.9563    8.1659 H   0  0  0  0  0
  -25.4480   -3.9813    7.7647 H   0  0  0  0  0
  -27.0083   -4.2458    6.9484 H   0  0  0  0  0
  -25.2525   -6.3195   10.2703 H   0  0  0  0  0
  -25.1743   -4.7003   12.7774 H   0  0  0  0  0
  -24.9606   -6.8827   13.2827 H   0  0  0  0  0
  -23.2096   -6.4141   13.0469 H   0  0  0  0  0
  -23.4300   -7.2906   10.7195 H   0  0  0  0  0
  -25.0244   -7.9970   11.2344 H   0  0  0  0  0
  -23.8557   -9.2874   12.9536 H   0  0  0  0  0
  -22.2886   -8.6300   12.3644 H   0  0  0  0  0
  -23.1278   -9.5516   10.0672 H   0  0  0  0  0
  -24.1370  -10.6262   11.1371 H   0  0  0  0  0
  -22.0363  -11.2709   12.1812 H   0  0  0  0  0
  -23.1671  -12.5204   10.4185 H   0  0  0  0  0
  -22.2343  -11.5654    9.2400 H   0  0  0  0  0
  -21.3959  -12.6869   10.3401 H   0  0  0  0  0
  -20.9470   -9.8664    9.8145 H   0  0  0  0  0
  -20.7756   -9.3074   11.4965 H   0  0  0  0  0
  -20.0051  -10.8276   10.9806 H   0  0  0  0  0
  -23.2640   -3.3916   13.2363 H   0  0  0  0  0
  -21.4328   -3.0752   10.8938 H   0  0  0  0  0
  -22.4931   -0.9496   12.8102 H   0  0  0  0  0
  -22.8181   -1.0896   11.0396 H   0  0  0  0  0
  -21.2353    0.5080   11.5434 H   0  0  0  0  0
  -19.2807   -2.4963   11.2379 H   0  0  0  0  0
  -18.2812   -3.5047   13.8218 H   0  0  0  0  0
  -16.0159   -3.2977   12.6197 H   0  0  0  0  0
  -16.2504   -3.1913   10.3032 H   0  0  0  0  0
  -17.1782   -5.4028   12.9202 H   0  0  0  0  0
  -18.1409   -5.0901   11.4551 H   0  0  0  0  0
  -16.3807   -5.3288   11.3298 H   0  0  0  0  0
  -19.5127   -0.7519   13.3717 H   0  0  0  0  0
  -17.9729    1.3787   13.1379 H   0  0  0  0  0
  -17.2512    0.6495   14.6470 H   0  0  0  0  0
  -19.6368   -0.2849   15.7966 H   0  0  0  0  0
  -21.2766    0.4173   17.1785 H   0  0  0  0  0
  -21.6362    1.7154   15.8965 H   0  0  0  0  0
  -19.6683    3.2579   16.2457 H   0  0  0  0  0
  1  2  1  0  0  0
  2  3  1  0  0  0
  2  5  1  0  0  0
  3  4  2  0  0  0
  3  6  1  0  0  0
  6  7  1  0  0  0
  7  8  1  0  0  0
  7 10  1  0  0  0
  8  9  2  0  0  0
  8 11  1  0  0  0
 11 12  1  0  0  0
 12 13  1  0  0  0
 12 20  1  0  0  0
 13 14  1  0  0  0
 14 15  1  0  0  0
 15 16  1  0  0  0
 16 17  1  0  0  0
 17 18  1  0  0  0
 17 19  1  0  0  0
 20 21  2  0  0  0
 20 22  1  0  0  0
 22 23  1  0  0  0
 23 24  1  0  0  0
 23 26  1  0  0  0
 24 25  2  0  0  0
 24 28  1  0  0  0
 26 27  1  0  0  0
 28 29  1  0  0  0
 29 30  1  0  0  0
 29 32  1  0  0  0
 30 31  2  0  0  0
 30 35  1  0  0  0
 32 33  1  0  0  0
 32 34  1  0  0  0
 35 36  1  0  0  0
 36 37  1  0  0  0
 37 38  2  0  0  0
 37 39  1  0  0  0
 39 40  1  0  0  0
 40 41  1  0  0  0
 41 42  2  0  0  0
 41 43  1  0  0  0
  1 44  1  0  0  0
  1 45  1  0  0  0
  1 46  1  0  0  0
  2 47  1  0  0  0
  5 48  1  0  0  0
  5 49  1  0  0  0
  5 50  1  0  0  0
  6 51  1  0  0  0
  7 52  1  0  0  0
 10 53  1  0  0  0
 10 54  1  0  0  0
 10 55  1  0  0  0
 11 56  1  0  0  0
 12 57  1  0  0  0
 13 58  1  0  0  0
 13 59  1  0  0  0
 14 60  1  0  0  0
 14 61  1  0  0  0
 15 62  1  0  0  0
 15 63  1  0  0  0
 16 64  1  0  0  0
 16 65  1  0  0  0
 17 66  1  0  0  0
 18 67  1  0  0  0
 18 68  1  0  0  0
 18 69  1  0  0  0
 19 70  1  0  0  0
 19 71  1  0  0  0
 19 72  1  0  0  0
 22 73  1  0  0  0
 23 74  1  0  0  0
 26 75  1  0  0  0
 26 76  1  0  0  0
 27 77  1  0  0  0
 28 78  1  0  0  0
 29 79  1  0  0  0
 32 80  1  0  0  0
 33 81  1  0  0  0
 34 82  1  0  0  0
 34 83  1  0  0  0
 34 84  1  0  0  0
 35 85  1  0  0  0
 36 86  1  0  0  0
 36 87  1  0  0  0
 39 88  1  0  0  0
 40 89  1  0  0  0
 40 90  1  0  0  0
 43 91  1  0  0  0
M  END
$$$$
