2f4j_ligand
  -I-interpret- 

 61 65  0  0  0  0  0  0  0  0999 V2000
    4.0480   -5.7010  -32.3330 N   0  3  0  0  0
    4.8630   -5.2040  -31.1770 C   0  0  0  0  0
    4.7900   -6.1190  -29.9500 C   0  0  0  0  0
    3.3730   -6.6210  -29.5090 N   0  0  0  0  0
    2.4800   -6.9450  -30.7200 C   0  0  0  0  0
    2.6470   -5.9780  -31.9390 C   0  0  0  0  0
    4.1610   -4.7620  -33.5150 C   0  0  0  0  0
    2.9410   -6.8290  -28.1480 C   0  0  0  0  0
    1.7350   -7.6070  -27.8250 C   0  0  0  0  0
    1.4040   -7.7640  -26.4390 C   0  0  0  0  0
    2.2290   -7.1970  -25.5230 N   0  0  0  0  0
    3.3000   -6.4960  -25.8670 C   0  0  0  0  0
    3.6710   -6.2970  -27.1230 N   0  0  0  0  0
    0.2810   -8.4830  -26.1230 N   0  0  0  0  0
   -0.3180   -8.9380  -24.8800 C   0  0  0  0  0
    0.1140   -8.6020  -23.5870 C   0  0  0  0  0
   -0.7650   -9.2460  -22.7200 C   0  0  0  0  0
   -1.7150   -9.9640  -23.4620 N   0  0  0  0  0
   -1.4390   -9.7740  -24.7750 N   0  0  0  0  0
   -0.7830   -9.2290  -21.2080 C   0  0  0  0  0
    4.2820   -5.7760  -24.5270 S   0  0  0  0  0
    3.5870   -6.2600  -23.0170 C   0  0  0  0  0
    2.8600   -5.3390  -22.2520 C   0  0  0  0  0
    2.2500   -5.7700  -21.0340 C   0  0  0  0  0
    2.3780   -7.0940  -20.6020 C   0  0  0  0  0
    3.1180   -8.0230  -21.3800 C   0  0  0  0  0
    3.7360   -7.5750  -22.6130 C   0  0  0  0  0
    1.7610   -7.5600  -19.3910 N   0  0  0  0  0
    1.7010   -8.7610  -18.7430 C   0  0  0  0  0
    2.2160   -9.8050  -19.1370 O   0  0  0  0  0
    0.8850   -8.7370  -17.4500 C   0  0  0  0  0
   -0.6020   -9.2660  -17.3890 C   0  0  0  0  0
    0.4870   -9.8100  -16.4320 C   0  0  0  0  0
    4.4316   -6.5972  -32.6332 H   0  0  0  0  0
    4.4668   -4.2307  -30.8875 H   0  0  0  0  0
    5.9037   -5.1651  -31.4988 H   0  0  0  0  0
    5.1642   -5.5244  -29.1166 H   0  0  0  0  0
    5.3498   -7.0152  -30.2174 H   0  0  0  0  0
    1.4471   -6.8537  -30.3839 H   0  0  0  0  0
    2.7641   -7.9393  -31.0646 H   0  0  0  0  0
    2.1708   -6.4622  -32.7916 H   0  0  0  0  0
    2.2087   -5.0241  -31.6456 H   0  0  0  0  0
    3.6571   -5.2014  -34.3759 H   0  0  0  0  0
    3.6939   -3.8091  -33.2663 H   0  0  0  0  0
    5.2131   -4.6018  -33.7509 H   0  0  0  0  0
    1.1176   -8.0466  -28.6084 H   0  0  0  0  0
   -0.2547   -8.7613  -26.9452 H   0  0  0  0  0
    0.9601   -7.9696  -23.3182 H   0  0  0  0  0
    0.1587   -9.6271  -20.8302 H   0  0  0  0  0
   -0.9119   -8.2045  -20.8589 H   0  0  0  0  0
   -1.6088   -9.8432  -20.8488 H   0  0  0  0  0
    2.7607   -4.3050  -22.5822 H   0  0  0  0  0
    1.6792   -5.0599  -20.4356 H   0  0  0  0  0
    3.2201   -9.0584  -21.0550 H   0  0  0  0  0
    4.3156   -8.2713  -23.2191 H   0  0  0  0  0
    1.2501   -6.8246  -18.9026 H   0  0  0  0  0
    1.4656   -7.8229  -17.3262 H   0  0  0  0  0
   -1.3775   -9.6377  -18.0587 H   0  0  0  0  0
   -1.6193   -8.8764  -17.3508 H   0  0  0  0  0
    0.6021   -9.9846  -15.3622 H   0  0  0  0  0
    0.8553  -10.7819  -16.1037 H   0  0  0  0  0
  1  2  1  0  0  0
  1  6  1  0  0  0
  1  7  1  0  0  0
  2  3  1  0  0  0
  3  4  1  0  0  0
  4  5  1  0  0  0
  4  8  1  0  0  0
  5  6  1  0  0  0
  8  9  4  0  0  0
  8 13  4  0  0  0
  9 10  4  0  0  0
 10 11  4  0  0  0
 10 14  1  0  0  0
 11 12  4  0  0  0
 12 13  4  0  0  0
 12 21  1  0  0  0
 14 15  1  0  0  0
 15 16  4  0  0  0
 15 19  4  0  0  0
 16 17  4  0  0  0
 17 18  4  0  0  0
 17 20  1  0  0  0
 18 19  4  0  0  0
 21 22  1  0  0  0
 22 23  4  0  0  0
 22 27  4  0  0  0
 23 24  4  0  0  0
 24 25  4  0  0  0
 25 26  4  0  0  0
 25 28  1  0  0  0
 26 27  4  0  0  0
 28 29  1  0  0  0
 29 30  2  0  0  0
 29 31  1  0  0  0
 31 32  1  0  0  0
 31 33  1  0  0  0
 32 33  1  0  0  0
  1 34  1  0  0  0
  2 35  1  0  0  0
  2 36  1  0  0  0
  3 37  1  0  0  0
  3 38  1  0  0  0
  5 39  1  0  0  0
  5 40  1  0  0  0
  6 41  1  0  0  0
  6 42  1  0  0  0
  7 43  1  0  0  0
  7 44  1  0  0  0
  7 45  1  0  0  0
  9 46  1  0  0  0
 14 47  1  0  0  0
 16 48  1  0  0  0
 20 49  1  0  0  0
 20 50  1  0  0  0
 20 51  1  0  0  0
 23 52  1  0  0  0
 24 53  1  0  0  0
 26 54  1  0  0  0
 27 55  1  0  0  0
 28 56  1  0  0  0
 31 57  1  0  0  0
 32 58  1  0  0  0
 32 59  1  0  0  0
 33 60  1  0  0  0
 33 61  1  0  0  0
M  END
$$$$
