5uv2_ligand
  -I-interpret- 

 39 38  0  0  0  0  0  0  0  0999 V2000
   -7.4720   12.5330  -21.0460 C   0  0  0  0  0
   -7.6100   11.3800  -21.8630 O   0  0  0  0  0
   -7.1410   12.0860  -19.6430 C   0  0  0  0  0
   -6.1440   11.2640  -19.4090 F   0  0  0  0  0
   -7.8810   12.5240  -18.6370 C   0  0  0  0  0
   -7.5100   12.0530  -17.2650 C   0  0  0  0  0
   -9.0230   13.4790  -18.9580 C   0  0  0  0  0
  -10.0740   13.7890  -17.8840 C   0  0  0  0  0
   -9.6560   14.3130  -16.5190 C   0  0  0  0  0
   -8.6560   15.1280  -16.1340 C   0  0  0  0  0
   -7.6340   15.7420  -17.0440 C   0  0  0  0  0
   -8.9040   11.1250  -22.7690 P   0  0  0  0  0
  -11.4610    9.9790  -22.3860 P   0  0  0  0  0
   -8.5690   15.4240  -14.6690 C   0  0  0  0  0
   -8.5760    9.9730  -23.6970 O   0  0  0  0  0
  -12.4090    9.8390  -21.2150 O   0  0  0  0  0
   -9.2570   12.3740  -23.5330 O   0  0  0  0  0
  -11.1120    8.6150  -22.9340 O   0  0  0  0  0
  -10.1400   10.7070  -21.8190 O   0  0  0  0  0
  -12.0590   10.8310  -23.4860 O   0  0  0  0  0
   -8.4007   13.1036  -21.0463 H   0  0  0  0  0
   -6.6764   13.1704  -21.4318 H   0  0  0  0  0
   -7.5748   10.9656  -17.2256 H   0  0  0  0  0
   -6.4909   12.3660  -17.0380 H   0  0  0  0  0
   -8.1952   12.4857  -16.5361 H   0  0  0  0  0
   -9.5795   12.9863  -19.7553 H   0  0  0  0  0
   -8.5372   14.4350  -19.1535 H   0  0  0  0  0
  -10.5313   12.8228  -17.6708 H   0  0  0  0  0
  -10.6630   14.5998  -18.3126 H   0  0  0  0  0
  -10.2833   13.9634  -15.6990 H   0  0  0  0  0
   -7.0769   14.9522  -17.5480 H   0  0  0  0  0
   -8.1361   16.3639  -17.7851 H   0  0  0  0  0
   -6.9488   16.3545  -16.4580 H   0  0  0  0  0
   -9.4911   15.9039  -14.3412 H   0  0  0  0  0
   -8.4270   14.4935  -14.1194 H   0  0  0  0  0
   -7.7258   16.0893  -14.4835 H   0  0  0  0  0
   -8.3567    9.1967  -23.1765 H   0  0  0  0  0
  -12.6250   10.7099  -20.8737 H   0  0  0  0  0
  -12.2796   11.6967  -23.1346 H   0  0  0  0  0
  2  1  1  0  0  0
  1  3  1  0  0  0
 12  2  1  0  0  0
  3  4  1  0  0  0
  3  5  2  0  0  0
  5  6  1  0  0  0
  5  7  1  0  0  0
  7  8  1  0  0  0
  8  9  1  0  0  0
  9 10  2  0  0  0
 10 11  1  0  0  0
 10 14  1  0  0  0
 12 15  1  0  0  0
 12 17  2  0  0  0
 19 12  1  0  0  0
 13 16  1  0  0  0
 13 18  2  0  0  0
 13 19  1  0  0  0
 13 20  1  0  0  0
  1 21  1  0  0  0
  1 22  1  0  0  0
  6 23  1  0  0  0
  6 24  1  0  0  0
  6 25  1  0  0  0
  7 26  1  0  0  0
  7 27  1  0  0  0
  8 28  1  0  0  0
  8 29  1  0  0  0
  9 30  1  0  0  0
 11 31  1  0  0  0
 11 32  1  0  0  0
 11 33  1  0  0  0
 14 34  1  0  0  0
 14 35  1  0  0  0
 14 36  1  0  0  0
 15 37  1  0  0  0
 16 38  1  0  0  0
 20 39  1  0  0  0
M  END
$$$$
