### 
### Created by X-TOOL on Mon Sep 10 21:13:32 2018
### 

@<TRIPOS>MOLECULE
5uv2_ligand
   36    35     1     0     0
SMALL
GAST_HUCK


@<TRIPOS>ATOM
      1 C1         -7.4720   12.5330  -21.0460 C.3       1 LA6         0.1264
      2 O1         -7.6100   11.3800  -21.8630 O.3       1 LA6        -0.2376
      3 C2         -7.1410   12.0860  -19.6430 C.2       1 LA6         0.1124
      4 F2         -6.1440   11.2640  -19.4090 F         1 LA6        -0.2150
      5 C3         -7.8810   12.5240  -18.6370 C.2       1 LA6        -0.0527
      6 C4         -7.5100   12.0530  -17.2650 C.3       1 LA6        -0.0437
      7 C5         -9.0230   13.4790  -18.9580 C.3       1 LA6        -0.0288
      8 C6        -10.0740   13.7890  -17.8840 C.3       1 LA6        -0.0405
      9 C7         -9.6560   14.3130  -16.5190 C.2       1 LA6        -0.1076
     10 C8         -8.6560   15.1280  -16.1340 C.2       1 LA6        -0.0870
     11 C9         -7.6340   15.7420  -17.0440 C.3       1 LA6        -0.0406
     12 PA         -8.9040   11.1250  -22.7690 P.3       1 LA6         0.3289
     13 PB        -11.4610    9.9790  -22.3860 P.3       1 LA6         0.2070
     14 C10        -8.5690   15.4240  -14.6690 C.3       1 LA6        -0.0406
     15 O1A        -8.5760    9.9730  -23.6970 O.co2     1 LA6        -0.5555
     16 O1B       -12.4090    9.8390  -21.2150 O.co2     1 LA6        -0.5891
     17 O2A        -9.2570   12.3740  -23.5330 O.co2     1 LA6        -0.5555
     18 O2B       -11.1120    8.6150  -22.9340 O.co2     1 LA6        -0.5891
     19 O3A       -10.1400   10.7070  -21.8190 O.3       1 LA6        -0.1547
     20 O3B       -12.0590   10.8310  -23.4860 O.co2     1 LA6        -0.5891
     21 H1         -8.4142   13.1007  -21.0424 H         1 LA6         0.0731
     22 H2         -6.6624   13.1686  -21.4341 H         1 LA6         0.0731
     23 H3         -8.2008   12.4890  -16.5284 H         1 LA6         0.0350
     24 H4         -6.4816   12.3683  -17.0347 H         1 LA6         0.0350
     25 H5         -7.5750   10.9557  -17.2239 H         1 LA6         0.0350
     26 H6         -9.5610   13.0562  -19.8193 H         1 LA6         0.0400
     27 H7         -8.5669   14.4379  -19.2453 H         1 LA6         0.0400
     28 H8        -10.6271   12.8549  -17.7063 H         1 LA6         0.0358
     29 H9        -10.7520   14.5403  -18.3151 H         1 LA6         0.0358
     30 H10       -10.2827   13.9637  -15.6998 H         1 LA6         0.0243
     31 H11        -6.9419   16.3605  -16.4537 H         1 LA6         0.0375
     32 H12        -8.1395   16.3700  -17.7924 H         1 LA6         0.0375
     33 H13        -7.0710   14.9459  -17.5532 H         1 LA6         0.0375
     34 H14        -9.3822   14.9044  -14.1411 H         1 LA6         0.0375
     35 H15        -8.6612   16.5082  -14.5078 H         1 LA6         0.0375
     36 H16        -7.5998   15.0768  -14.2817 H         1 LA6         0.0375
@<TRIPOS>BOND
     1    2    1 1  
     2    1    3 1  
     3   12    2 1  
     4    3    4 1  
     5    3    5 2  
     6    5    6 1  
     7    5    7 1  
     8    7    8 1  
     9    8    9 1  
    10    9   10 2  
    11   10   11 1  
    12   10   14 1  
    13   12   15 ar 
    14   12   17 ar 
    15   19   12 1  
    16   13   16 ar 
    17   13   18 ar 
    18   13   19 1  
    19   13   20 ar 
    20    1   21 1  
    21    1   22 1  
    22    6   23 1  
    23    6   24 1  
    24    6   25 1  
    25    7   26 1  
    26    7   27 1  
    27    8   28 1  
    28    8   29 1  
    29    9   30 1  
    30   11   31 1  
    31   11   32 1  
    32   11   33 1  
    33   14   34 1  
    34   14   35 1  
    35   14   36 1  
@<TRIPOS>SUBSTRUCTURE
     1 LA6         1

