4meq_ligand
  -I-interpret- 

 28 30  0  0  0  0  0  0  0  0999 V2000
   29.0310   15.7910   -0.6100 C   0  0  0  0  0
   27.9610   15.4720    0.1800 C   0  0  0  0  0
   26.8230   14.9490   -0.3770 C   0  0  0  0  0
   33.0990   15.5000   -1.9290 C   0  0  0  0  0
   26.7040   14.7900   -1.7110 C   0  0  0  0  0
   27.7070   15.1260   -2.5280 C   0  0  0  0  0
   28.8970   15.6160   -1.9860 C   0  0  0  0  0
   32.6670   16.9340   -0.3720 C   0  0  0  0  0
   32.6690   17.8780    0.5680 N   0  0  0  0  0
   33.7020   16.4840   -1.1320 N   0  0  0  0  0
   30.1920   16.5520   -0.1880 C   0  0  0  0  0
   33.8910   14.7830   -2.8390 N   0  0  0  0  0
   31.4540   18.1590    1.1430 C   0  0  0  0  0
   31.3380   19.2490    2.2250 C   0  0  0  0  0
   31.7350   15.2970   -1.7430 N   0  0  0  0  0
   31.4450   16.2140   -0.7660 N   0  0  0  0  0
   30.2570   17.5220    0.7890 C   0  0  0  0  0
   28.0134   15.6343    1.2566 H   0  0  0  0  0
   25.9974   14.6556    0.2714 H   0  0  0  0  0
   25.7817   14.3839   -2.1265 H   0  0  0  0  0
   27.5971   15.0186   -3.6071 H   0  0  0  0  0
   29.7288   15.8639   -2.6453 H   0  0  0  0  0
   34.8889   14.9810   -2.9130 H   0  0  0  0  0
   33.4688   14.0639   -3.4264 H   0  0  0  0  0
   31.9727   18.9876    3.0717 H   0  0  0  0  0
   31.6577   20.2054    1.8112 H   0  0  0  0  0
   30.3018   19.3227    2.5551 H   0  0  0  0  0
   29.3407   17.8050    1.3071 H   0  0  0  0  0
  1  2  4  0  0  0
  1  7  4  0  0  0
 11  1  1  0  0  0
  2  3  4  0  0  0
  3  5  4  0  0  0
 10  4  4  0  0  0
  4 12  1  0  0  0
  4 15  4  0  0  0
  6  5  4  0  0  0
  7  6  4  0  0  0
  8  9  4  0  0  0
  8 10  4  0  0  0
 16  8  4  0  0  0
  9 13  4  0  0  0
 11 16  4  0  0  0
 11 17  4  0  0  0
 13 14  1  0  0  0
 13 17  4  0  0  0
 15 16  4  0  0  0
  2 18  1  0  0  0
  3 19  1  0  0  0
  5 20  1  0  0  0
  6 21  1  0  0  0
  7 22  1  0  0  0
 12 23  1  0  0  0
 12 24  1  0  0  0
 14 25  1  0  0  0
 14 26  1  0  0  0
 14 27  1  0  0  0
 17 28  1  0  0  0
M  END
$$$$
