3v5q_ligand
  -I-interpret- 

 56 60  0  0  0  0  0  0  0  0999 V2000
  -10.8120  -29.0820   -7.1700 F   0  0  0  0  0
  -10.0890  -28.7650   -8.2220 C   0  0  0  0  0
  -10.7060  -29.2650   -9.2730 F   0  0  0  0  0
   -9.9880  -27.4460   -8.2950 F   0  0  0  0  0
   -8.7000  -29.3340   -8.1270 C   0  0  0  0  0
   -8.1130  -29.5920   -6.8950 C   0  0  0  0  0
   -6.8230  -30.1190   -6.8290 C   0  0  0  0  0
   -6.1200  -30.3990   -7.9940 C   0  0  0  0  0
   -6.7040  -30.1530   -9.2280 C   0  0  0  0  0
   -5.9710  -30.4380  -10.3350 N   0  0  0  0  0
   -6.1990  -30.0320  -11.5910 C   0  0  0  0  0
   -7.1440  -29.3370  -11.9230 O   0  0  0  0  0
   -5.3150  -30.4760  -12.4820 N   0  0  0  0  0
   -5.3310  -30.1820  -13.8020 C   0  0  0  0  0
   -4.1430  -29.7340  -14.3740 C   0  0  0  0  0
   -4.0850  -29.4410  -15.7340 C   0  0  0  0  0
   -5.2220  -29.6150  -16.5150 C   0  0  0  0  0
   -6.4270  -30.0620  -15.9570 C   0  0  0  0  0
   -7.5770  -30.2470  -16.6760 N   0  0  0  0  0
   -8.0000  -29.6010  -17.8040 C   0  0  0  0  0
   -7.3770  -28.4580  -18.3280 C   0  0  0  0  0
   -7.8480  -27.8440  -19.4880 C   0  0  0  0  0
   -8.9550  -28.4020  -20.1060 C   0  0  0  0  0
   -9.6080  -29.5480  -19.6210 C   0  0  0  0  0
  -10.6760  -29.8780  -20.4130 N   0  0  0  0  0
  -10.7490  -28.9960  -21.4130 C   0  0  0  0  0
  -11.6360  -29.0290  -22.3420 O   0  0  0  0  0
   -9.6790  -28.0050  -21.3210 C   0  0  0  0  0
   -9.2930  -26.8210  -22.1360 C   0  0  0  0  0
  -10.0340  -26.4400  -23.3660 C   0  0  0  0  0
   -9.6760  -25.3470  -24.1440 C   0  0  0  0  0
  -10.6210  -25.3430  -25.1610 C   0  0  0  0  0
  -11.4750  -26.4190  -24.9330 C   0  0  0  0  0
  -11.1050  -27.1020  -23.8070 N   0  0  0  0  0
   -9.1200  -30.1290  -18.4490 C   0  0  0  0  0
   -6.4620  -30.3550  -14.5960 C   0  0  0  0  0
   -7.9990  -29.6220   -9.2880 C   0  0  0  0  0
   -8.6619  -29.3821   -5.9770 H   0  0  0  0  0
   -6.3647  -30.3119   -5.8590 H   0  0  0  0  0
   -5.1123  -30.8108   -7.9386 H   0  0  0  0  0
   -5.1522  -31.0296  -10.1938 H   0  0  0  0  0
   -4.5692  -31.0839  -12.1435 H   0  0  0  0  0
   -3.2546  -29.6122  -13.7543 H   0  0  0  0  0
   -3.1590  -29.0794  -16.1811 H   0  0  0  0  0
   -5.1751  -29.3994  -17.5824 H   0  0  0  0  0
   -8.2059  -30.9672  -16.3206 H   0  0  0  0  0
   -6.5079  -28.0420  -17.8183 H   0  0  0  0  0
   -7.3624  -26.9566  -19.8940 H   0  0  0  0  0
  -11.3084  -30.6643  -20.2641 H   0  0  0  0  0
   -8.4425  -26.2162  -21.8215 H   0  0  0  0  0
   -8.8478  -24.6549  -23.9920 H   0  0  0  0  0
  -10.6829  -24.6309  -25.9839 H   0  0  0  0  0
  -12.3229  -26.6813  -25.5657 H   0  0  0  0  0
   -9.6189  -31.0043  -18.0330 H   0  0  0  0  0
   -7.3845  -30.7237  -14.1474 H   0  0  0  0  0
   -8.4602  -29.4333  -10.2574 H   0  0  0  0  0
  1  2  1  0  0  0
  2  3  1  0  0  0
  2  4  1  0  0  0
  2  5  1  0  0  0
  5  6  4  0  0  0
  5 37  4  0  0  0
  6  7  4  0  0  0
  7  8  4  0  0  0
  8  9  4  0  0  0
  9 10  1  0  0  0
  9 37  4  0  0  0
 10 11  1  0  0  0
 11 12  2  0  0  0
 11 13  1  0  0  0
 13 14  1  0  0  0
 14 15  4  0  0  0
 14 36  4  0  0  0
 15 16  4  0  0  0
 16 17  4  0  0  0
 17 18  4  0  0  0
 18 19  1  0  0  0
 18 36  4  0  0  0
 19 20  1  0  0  0
 20 21  4  0  0  0
 20 35  4  0  0  0
 21 22  4  0  0  0
 22 23  4  0  0  0
 23 24  4  0  0  0
 23 28  1  0  0  0
 24 25  1  0  0  0
 24 35  4  0  0  0
 25 26  1  0  0  0
 26 27  2  0  0  0
 26 28  1  0  0  0
 28 29  2  0  0  0
 29 30  1  0  0  0
 30 31  4  0  0  0
 30 34  4  0  0  0
 31 32  4  0  0  0
 32 33  4  0  0  0
 33 34  4  0  0  0
  6 38  1  0  0  0
  7 39  1  0  0  0
  8 40  1  0  0  0
 10 41  1  0  0  0
 13 42  1  0  0  0
 15 43  1  0  0  0
 16 44  1  0  0  0
 17 45  1  0  0  0
 19 46  1  0  0  0
 21 47  1  0  0  0
 22 48  1  0  0  0
 25 49  1  0  0  0
 29 50  1  0  0  0
 31 51  1  0  0  0
 32 52  1  0  0  0
 33 53  1  0  0  0
 35 54  1  0  0  0
 36 55  1  0  0  0
 37 56  1  0  0  0
M  END
$$$$
