4z1k_ligand
  -I-interpret- 

 40 42  0  0  0  0  0  0  0  0999 V2000
   18.5820   11.0000   11.6180 C   0  0  0  0  0
   18.5520    9.9280   12.5010 C   0  0  0  0  0
   16.4650    7.1920   13.1550 C   0  0  0  0  0
   16.2010    6.0650   14.0930 C   0  0  0  0  0
   17.9080    8.7100   11.9780 C   0  0  0  0  0
   18.7240    7.5970   13.9960 C   0  0  0  0  0
   19.0430    8.8860   14.6990 C   0  0  0  0  0
   19.1010   10.0250   13.7780 C   0  0  0  0  0
   15.4820    7.4680   12.4210 O   0  0  0  0  0
   17.0600    4.9700   14.1960 C   0  0  0  0  0
   16.7230    3.9070   15.0470 C   0  0  0  0  0
   15.0690    6.0840   14.8380 C   0  0  0  0  0
   14.7310    5.0230   15.6450 C   0  0  0  0  0
   15.5520    3.8920   15.7950 C   0  0  0  0  0
   15.0570    2.6030   16.8190 S   0  0  0  0  0
   15.6280    1.2720   16.2070 N   0  0  0  0  0
   13.6510    2.6570   16.7980 O   0  0  0  0  0
   15.6530    2.8410   18.0900 O   0  0  0  0  0
   17.6810    7.7500   13.0610 N   0  0  0  0  0
   19.7170   11.2030   14.2140 C   0  0  0  0  0
   19.7560   12.2880   13.3300 C   0  0  0  0  0
   20.3850   13.4260   13.8250 O   0  0  0  0  0
   19.1850   12.1760   12.0460 C   0  0  0  0  0
   19.2260   13.2630   11.1760 O   0  0  0  0  0
   18.1466   10.9210   10.6219 H   0  0  0  0  0
   18.5589    8.2561   11.2307 H   0  0  0  0  0
   16.9497    8.9773   11.5327 H   0  0  0  0  0
   18.4074    6.8700   14.7439 H   0  0  0  0  0
   19.6160    7.2705   13.4613 H   0  0  0  0  0
   20.0213    8.7813   15.1681 H   0  0  0  0  0
   18.2530    9.0789   15.4248 H   0  0  0  0  0
   17.9850    4.9410   13.6201 H   0  0  0  0  0
   17.4055    3.0607   15.1245 H   0  0  0  0  0
   14.4152    6.9552   14.7968 H   0  0  0  0  0
   13.7881    5.0606   16.1905 H   0  0  0  0  0
   14.9906    0.5608   15.8488 H   0  0  0  0  0
   16.6358    1.1197   16.1682 H   0  0  0  0  0
   20.1529   11.2739   15.2105 H   0  0  0  0  0
   20.3665   14.1162   13.1580 H   0  0  0  0  0
   19.6691   13.9985   11.6053 H   0  0  0  0  0
  2  1  4  0  0  0
  1 23  4  0  0  0
  5  2  1  0  0  0
  2  8  4  0  0  0
  3  4  1  0  0  0
  3  9  2  0  0  0
 19  3  1  0  0  0
  4 10  4  0  0  0
  4 12  4  0  0  0
 19  5  1  0  0  0
  6  7  1  0  0  0
  6 19  1  0  0  0
  7  8  1  0  0  0
  8 20  4  0  0  0
 10 11  4  0  0  0
 11 14  4  0  0  0
 12 13  4  0  0  0
 13 14  4  0  0  0
 14 15  1  0  0  0
 15 16  1  0  0  0
 15 17  2  0  0  0
 15 18  2  0  0  0
 20 21  4  0  0  0
 21 22  1  0  0  0
 21 23  4  0  0  0
 23 24  1  0  0  0
  1 25  1  0  0  0
  5 26  1  0  0  0
  5 27  1  0  0  0
  6 28  1  0  0  0
  6 29  1  0  0  0
  7 30  1  0  0  0
  7 31  1  0  0  0
 10 32  1  0  0  0
 11 33  1  0  0  0
 12 34  1  0  0  0
 13 35  1  0  0  0
 16 36  1  0  0  0
 16 37  1  0  0  0
 20 38  1  0  0  0
 22 39  1  0  0  0
 24 40  1  0  0  0
M  END
$$$$
