2ctc_ligand
  -I-interpret- 

 22 22  0  0  0  0  0  0  0  0999 V2000
   -1.0160   29.4920   -8.2580 C   0  0  0  0  0
   -0.2400   30.3370   -7.7570 O   0  0  0  0  0
   -0.7370   28.3520   -8.6920 O   0  0  0  0  0
   -2.4960   29.7350   -8.5250 C   0  0  0  0  0
   -3.1430   29.9510   -7.5210 O   0  0  0  0  0
   -2.6970   30.8080   -9.6040 C   0  0  0  0  0
   -2.4780   30.1810  -10.9420 C   0  0  0  0  0
   -1.2300   30.3900  -11.5760 C   0  0  0  0  0
   -0.9480   29.8730  -12.8540 C   0  0  0  0  0
   -1.8960   29.1080  -13.5440 C   0  0  0  0  0
   -3.1430   28.8790  -12.9390 C   0  0  0  0  0
   -3.4090   29.4290  -11.6850 C   0  0  0  0  0
   -0.7369   31.1216   -7.5139 H   0  0  0  0  0
   -2.8969   28.7996   -8.9154 H   0  0  0  0  0
   -2.9816   29.2535   -6.8814 H   0  0  0  0  0
   -1.9891   31.6233   -9.4546 H   0  0  0  0  0
   -3.7074   31.2122   -9.5433 H   0  0  0  0  0
   -0.4645   30.9686  -11.0589 H   0  0  0  0  0
    0.0209   30.0707  -13.3126 H   0  0  0  0  0
   -1.6714   28.6990  -14.5291 H   0  0  0  0  0
   -3.8968   28.2762  -13.4455 H   0  0  0  0  0
   -4.3970   29.2671  -11.2540 H   0  0  0  0  0
  1  2  1  0  0  0
  1  3  2  0  0  0
  1  4  1  0  0  0
  4  5  1  0  0  0
  4  6  1  0  0  0
  6  7  1  0  0  0
  7  8  4  0  0  0
  7 12  4  0  0  0
  8  9  4  0  0  0
  9 10  4  0  0  0
 10 11  4  0  0  0
 11 12  4  0  0  0
  2 13  1  0  0  0
  4 14  1  0  0  0
  5 15  1  0  0  0
  6 16  1  0  0  0
  6 17  1  0  0  0
  8 18  1  0  0  0
  9 19  1  0  0  0
 10 20  1  0  0  0
 11 21  1  0  0  0
 12 22  1  0  0  0
M  END
$$$$
