3fuk_ligand
  -I-interpret- 

 41 43  0  0  0  0  0  0  0  0999 V2000
  -36.3690   -3.7590    2.5380 O   0  0  0  0  0
  -35.2230   -4.1670    2.2180 C   0  0  0  0  0
  -34.2970   -4.1950    3.0580 O   0  0  0  0  0
  -34.9630   -4.6440    0.7980 C   0  0  0  0  0
  -33.5030   -4.9300    0.4550 C   0  0  0  0  0
  -32.6090   -3.6810    0.3700 C   0  0  0  0  0
  -35.4290   -3.6440   -0.2550 C   0  0  0  0  0
  -34.5970   -2.3800   -0.4460 C   0  0  0  0  0
  -33.1890   -2.7230   -0.5620 N   0  3  0  0  0
  -32.3930   -2.0500   -1.5960 C   0  0  0  0  0
  -30.9030   -2.1940   -1.2620 C   0  0  0  0  0
  -30.0730   -1.1100   -1.7170 O   0  0  0  0  0
  -29.1020   -0.6670   -0.8350 C   0  0  0  0  0
  -29.4110    0.3420    0.0840 C   0  0  0  0  0
  -27.8150   -1.2230   -0.8090 C   0  0  0  0  0
  -26.8650   -0.7640    0.1190 C   0  0  0  0  0
  -25.5160   -1.2000    0.3110 C   0  0  0  0  0
  -25.0580   -0.4070    1.3500 C   0  0  0  0  0
  -26.0600    0.4320    1.7530 N   0  0  0  0  0
  -27.1860    0.2330    1.0140 C   0  0  0  0  0
  -28.4620    0.7970    1.0020 C   0  0  0  0  0
  -36.9491   -3.8066    1.7746 H   0  0  0  0  0
  -35.5328   -5.5730    0.7756 H   0  0  0  0  0
  -33.4930   -5.3962   -0.5302 H   0  0  0  0  0
  -33.1041   -5.5530    1.2556 H   0  0  0  0  0
  -31.6178   -3.9698    0.0204 H   0  0  0  0  0
  -32.5328   -3.2239    1.3566 H   0  0  0  0  0
  -36.4083   -3.3019    0.0796 H   0  0  0  0  0
  -35.3773   -4.1747   -1.2057 H   0  0  0  0  0
  -34.7366   -1.7258    0.4146 H   0  0  0  0  0
  -34.9185   -1.8737   -1.3562 H   0  0  0  0  0
  -32.5986   -3.4916   -0.8800 H   0  0  0  0  0
  -32.6587   -0.9935   -1.6312 H   0  0  0  0  0
  -32.5952   -2.5046   -2.5658 H   0  0  0  0  0
  -30.5518   -3.0939   -1.7669 H   0  0  0  0  0
  -30.8239   -2.2175   -0.1751 H   0  0  0  0  0
  -30.4091    0.7802    0.0833 H   0  0  0  0  0
  -27.5506   -2.0139   -1.5110 H   0  0  0  0  0
  -24.9754   -1.9746   -0.2329 H   0  0  0  0  0
  -24.0567   -0.4455    1.7789 H   0  0  0  0  0
  -28.7171    1.5892    1.7059 H   0  0  0  0  0
  1  2  1  0  0  0
  2  3  2  0  0  0
  2  4  1  0  0  0
  4  5  1  0  0  0
  4  7  1  0  0  0
  5  6  1  0  0  0
  6  9  1  0  0  0
  7  8  1  0  0  0
  8  9  1  0  0  0
  9 10  1  0  0  0
 10 11  1  0  0  0
 11 12  1  0  0  0
 12 13  1  0  0  0
 13 14  4  0  0  0
 13 15  4  0  0  0
 14 21  4  0  0  0
 15 16  4  0  0  0
 16 17  4  0  0  0
 16 20  4  0  0  0
 17 18  4  0  0  0
 18 19  4  0  0  0
 19 20  4  0  0  0
 20 21  4  0  0  0
  1 22  1  0  0  0
  4 23  1  0  0  0
  5 24  1  0  0  0
  5 25  1  0  0  0
  6 26  1  0  0  0
  6 27  1  0  0  0
  7 28  1  0  0  0
  7 29  1  0  0  0
  8 30  1  0  0  0
  8 31  1  0  0  0
  9 32  1  0  0  0
 10 33  1  0  0  0
 10 34  1  0  0  0
 11 35  1  0  0  0
 11 36  1  0  0  0
 14 37  1  0  0  0
 15 38  1  0  0  0
 17 39  1  0  0  0
 18 40  1  0  0  0
 21 41  1  0  0  0
M  END
$$$$
