### 
### Created by X-TOOL on Mon Sep 10 21:13:34 2018
### 

@<TRIPOS>MOLECULE
5llm_ligand
   54    58     1     0     0
SMALL
GAST_HUCK


@<TRIPOS>ATOM
      1 N1        -39.1590  451.8410    3.9240 N.1       1 6Z6        -0.2990
      2 C2        -37.3890  455.4010    0.3790 C.ar      1 6Z6        -0.0396
      3 O2        -40.0460  456.0090    5.9520 O.3       1 6Z6        -0.2054
      4 C4        -38.0010  455.6310    2.7070 C.ar      1 6Z6        -0.0422
      5 C5        -38.8320  456.6890    2.3560 C.ar      1 6Z6        -0.0676
      6 C6        -38.9530  457.1030    1.0400 C.ar      1 6Z6        -0.0396
      7 O1        -35.5000  456.6330    4.8710 O.2       1 6Z6        -0.4093
      8 C9        -36.5890  457.1340    5.1540 C.2       1 6Z6         0.0986
      9 C8        -37.8300  456.3470    5.1070 C.2       1 6Z6         0.0376
     10 C13       -38.8730  456.7290    5.8670 C.2       1 6Z6         0.1333
     11 C14       -40.1340  454.8080    5.2950 C.2       1 6Z6         0.2097
     12 N         -41.2620  454.1840    5.6440 N.2       1 6Z6        -0.3662
     13 C15       -39.1120  454.3270    4.5450 C.3       1 6Z6         0.1917
     14 C16       -39.1180  452.9550    4.1850 C.1       1 6Z6         0.1241
     15 C7        -37.9040  455.1630    4.1580 C.3       1 6Z6         0.0552
     16 C3        -37.2830  454.9960    1.7000 C.ar      1 6Z6        -0.0676
     17 C1        -38.2260  456.4630    0.0480 C.ar      1 6Z6         0.0835
     18 O         -38.4160  457.0750   -1.1660 O.3       1 6Z6        -0.3258
     19 C         -37.6260  456.6480   -2.2760 C.3       1 6Z6         0.0579
     20 C10       -36.6940  458.5810    5.5620 C.3       1 6Z6         0.0284
     21 C11       -37.5970  458.7110    6.7820 C.3       1 6Z6         0.0241
     22 C12       -38.9420  457.9910    6.6570 C.3       1 6Z6         0.0356
     23 C17       -37.6030  460.0620    7.4810 C.ar      1 6Z6        -0.0247
     24 C18       -36.7710  460.2710    8.5510 C.ar      1 6Z6        -0.0601
     25 C19       -36.8370  461.4240    9.3190 C.ar      1 6Z6        -0.0707
     26 C20       -37.7420  462.4010    9.0290 C.ar      1 6Z6        -0.0631
     27 C21       -38.6210  462.2640    7.9280 C.ar      1 6Z6        -0.0243
     28 C26       -38.5470  461.0850    7.1210 C.ar      1 6Z6        -0.0116
     29 C22       -39.5790  463.2610    7.6070 C.ar      1 6Z6        -0.0569
     30 C23       -40.4180  463.1080    6.5400 C.ar      1 6Z6        -0.0629
     31 C24       -40.3410  461.9790    5.7390 C.ar      1 6Z6        -0.0625
     32 C25       -39.4300  460.9910    6.0090 C.ar      1 6Z6        -0.0548
     33 H1        -36.8226  454.8931   -0.3932 H         1 6Z6         0.0525
     34 H2        -39.3963  457.1999    3.1277 H         1 6Z6         0.0530
     35 H3        -39.6136  457.9243    0.7865 H         1 6Z6         0.0525
     36 H4        -41.4823  453.2829    5.2495 H         1 6Z6         0.0702
     37 H5        -39.6325  454.6117    3.6187 H         1 6Z6         0.0944
     38 H6        -36.9944  454.5544    4.2689 H         1 6Z6         0.0559
     39 H7        -36.6287  454.1695    1.9526 H         1 6Z6         0.0530
     40 H8        -37.8985  457.2332   -3.1667 H         1 6Z6         0.0575
     41 H9        -37.8102  455.5807   -2.4682 H         1 6Z6         0.0575
     42 H10       -36.5608  456.8012   -2.0485 H         1 6Z6         0.0575
     43 H11       -37.1172  459.1646    4.7311 H         1 6Z6         0.0500
     44 H12       -35.6926  458.9646    5.8069 H         1 6Z6         0.0500
     45 H13       -37.0735  458.0853    7.5199 H         1 6Z6         0.0526
     46 H14       -39.3020  457.7491    7.6679 H         1 6Z6         0.0529
     47 H15       -39.6552  458.6697    6.1664 H         1 6Z6         0.0529
     48 H16       -36.0396  459.5120    8.8042 H         1 6Z6         0.0530
     49 H17       -36.1622  461.5493   10.1581 H         1 6Z6         0.0595
     50 H18       -37.7890  463.2905    9.6468 H         1 6Z6         0.0542
     51 H19       -39.6456  464.1551    8.2163 H         1 6Z6         0.0609
     52 H20       -41.1502  463.8758    6.3176 H         1 6Z6         0.0616
     53 H21       -41.0080  461.8766    4.8906 H         1 6Z6         0.0601
     54 H22       -39.3813  460.1217    5.3633 H         1 6Z6         0.0628
@<TRIPOS>BOND
     1   14    1 3  
     2   16    2 ar 
     3    2   17 ar 
     4    3   10 1  
     5   11    3 1  
     6    4    5 ar 
     7   15    4 1  
     8    4   16 ar 
     9    5    6 ar 
    10    6   17 ar 
    11    8    7 2  
    12    9    8 1  
    13    8   20 1  
    14   10    9 2  
    15    9   15 1  
    16   10   22 1  
    17   11   12 2  
    18   13   11 1  
    19   13   14 1  
    20   13   15 1  
    21   17   18 1  
    22   18   19 1  
    23   20   21 1  
    24   21   22 1  
    25   21   23 1  
    26   23   24 ar 
    27   23   28 ar 
    28   24   25 ar 
    29   25   26 ar 
    30   26   27 ar 
    31   27   28 ar 
    32   27   29 ar 
    33   28   32 ar 
    34   29   30 ar 
    35   30   31 ar 
    36   31   32 ar 
    37    2   33 1  
    38    5   34 1  
    39    6   35 1  
    40   12   36 1  
    41   13   37 1  
    42   15   38 1  
    43   16   39 1  
    44   19   40 1  
    45   19   41 1  
    46   19   42 1  
    47   20   43 1  
    48   20   44 1  
    49   21   45 1  
    50   22   46 1  
    51   22   47 1  
    52   24   48 1  
    53   25   49 1  
    54   26   50 1  
    55   29   51 1  
    56   30   52 1  
    57   31   53 1  
    58   32   54 1  
@<TRIPOS>SUBSTRUCTURE
     1 6Z6         1

