5llm_ligand
  -I-interpret- 

 54 58  0  0  0  0  0  0  0  0999 V2000
  -39.1590  451.8410    3.9240 N   0  0  0  0  0
  -37.3890  455.4010    0.3790 C   0  0  0  0  0
  -40.0460  456.0090    5.9520 O   0  0  0  0  0
  -38.0010  455.6310    2.7070 C   0  0  0  0  0
  -38.8320  456.6890    2.3560 C   0  0  0  0  0
  -38.9530  457.1030    1.0400 C   0  0  0  0  0
  -35.5000  456.6330    4.8710 O   0  0  0  0  0
  -36.5890  457.1340    5.1540 C   0  0  0  0  0
  -37.8300  456.3470    5.1070 C   0  0  0  0  0
  -38.8730  456.7290    5.8670 C   0  0  0  0  0
  -40.1340  454.8080    5.2950 C   0  0  0  0  0
  -41.2620  454.1840    5.6440 N   0  0  0  0  0
  -39.1120  454.3270    4.5450 C   0  0  0  0  0
  -39.1180  452.9550    4.1850 C   0  0  0  0  0
  -37.9040  455.1630    4.1580 C   0  0  0  0  0
  -37.2830  454.9960    1.7000 C   0  0  0  0  0
  -38.2260  456.4630    0.0480 C   0  0  0  0  0
  -38.4160  457.0750   -1.1660 O   0  0  0  0  0
  -37.6260  456.6480   -2.2760 C   0  0  0  0  0
  -36.6940  458.5810    5.5620 C   0  0  0  0  0
  -37.5970  458.7110    6.7820 C   0  0  0  0  0
  -38.9420  457.9910    6.6570 C   0  0  0  0  0
  -37.6030  460.0620    7.4810 C   0  0  0  0  0
  -36.7710  460.2710    8.5510 C   0  0  0  0  0
  -36.8370  461.4240    9.3190 C   0  0  0  0  0
  -37.7420  462.4010    9.0290 C   0  0  0  0  0
  -38.6210  462.2640    7.9280 C   0  0  0  0  0
  -38.5470  461.0850    7.1210 C   0  0  0  0  0
  -39.5790  463.2610    7.6070 C   0  0  0  0  0
  -40.4180  463.1080    6.5400 C   0  0  0  0  0
  -40.3410  461.9790    5.7390 C   0  0  0  0  0
  -39.4300  460.9910    6.0090 C   0  0  0  0  0
  -36.8195  454.8903   -0.3975 H   0  0  0  0  0
  -39.3995  457.2028    3.1320 H   0  0  0  0  0
  -39.6172  457.9288    0.7851 H   0  0  0  0  0
  -41.4306  453.2258    5.3376 H   0  0  0  0  0
  -39.5881  455.1237    3.9735 H   0  0  0  0  0
  -36.9971  454.5635    4.2368 H   0  0  0  0  0
  -36.6251  454.1649    1.9540 H   0  0  0  0  0
  -36.5708  456.8002   -2.0492 H   0  0  0  0  0
  -37.8094  455.5903   -2.4653 H   0  0  0  0  0
  -37.8969  457.2286   -3.1578 H   0  0  0  0  0
  -37.1165  459.1571    4.7388 H   0  0  0  0  0
  -35.7013  458.9585    5.8074 H   0  0  0  0  0
  -37.0800  458.1180    7.5364 H   0  0  0  0  0
  -39.2667  457.7286    7.6639 H   0  0  0  0  0
  -39.6255  458.6636    6.1388 H   0  0  0  0  0
  -36.0356  459.5078    8.8056 H   0  0  0  0  0
  -36.1585  461.5500   10.1627 H   0  0  0  0  0
  -37.7893  463.2954    9.6502 H   0  0  0  0  0
  -39.6460  464.1600    8.2197 H   0  0  0  0  0
  -41.1543  463.8800    6.3164 H   0  0  0  0  0
  -41.0117  461.8760    4.8859 H   0  0  0  0  0
  -39.3810  460.1169    5.3597 H   0  0  0  0  0
 14  1  3  0  0  0
 16  2  4  0  0  0
  2 17  4  0  0  0
  3 10  1  0  0  0
 11  3  1  0  0  0
  4  5  4  0  0  0
 15  4  1  0  0  0
  4 16  4  0  0  0
  5  6  4  0  0  0
  6 17  4  0  0  0
  8  7  2  0  0  0
  9  8  1  0  0  0
  8 20  1  0  0  0
 10  9  2  0  0  0
  9 15  1  0  0  0
 10 22  1  0  0  0
 11 12  2  0  0  0
 13 11  1  0  0  0
 13 14  1  0  0  0
 13 15  1  0  0  0
 17 18  1  0  0  0
 18 19  1  0  0  0
 20 21  1  0  0  0
 21 22  1  0  0  0
 21 23  1  0  0  0
 23 24  4  0  0  0
 23 28  4  0  0  0
 24 25  4  0  0  0
 25 26  4  0  0  0
 26 27  4  0  0  0
 27 28  4  0  0  0
 27 29  4  0  0  0
 28 32  4  0  0  0
 29 30  4  0  0  0
 30 31  4  0  0  0
 31 32  4  0  0  0
  2 33  1  0  0  0
  5 34  1  0  0  0
  6 35  1  0  0  0
 12 36  1  0  0  0
 13 37  1  0  0  0
 15 38  1  0  0  0
 16 39  1  0  0  0
 19 40  1  0  0  0
 19 41  1  0  0  0
 19 42  1  0  0  0
 20 43  1  0  0  0
 20 44  1  0  0  0
 21 45  1  0  0  0
 22 46  1  0  0  0
 22 47  1  0  0  0
 24 48  1  0  0  0
 25 49  1  0  0  0
 26 50  1  0  0  0
 29 51  1  0  0  0
 30 52  1  0  0  0
 31 53  1  0  0  0
 32 54  1  0  0  0
M  END
$$$$
