4r1y_ligand
  -I-interpret- 

 71 73  0  0  0  0  0  0  0  0999 V2000
  -20.1620   26.3890   99.1530 C   0  0  0  0  0
  -21.1390   25.6080   98.5380 C   0  0  0  0  0
  -20.4800   27.6920   99.5100 C   0  0  0  0  0
  -22.4090   26.1390   98.2930 C   0  0  0  0  0
  -21.7480   28.2220   99.2820 C   0  0  0  0  0
  -22.7170   27.4470   98.6590 C   0  0  0  0  0
  -16.4680   24.1890  100.0150 C   0  0  0  0  0
  -18.3380   24.9160   98.6320 N   0  0  0  0  0
  -17.9410   26.4230  100.5330 C   0  0  0  0  0
  -18.8000   25.8610   99.4080 C   0  0  0  0  0
  -19.6010   20.7230   97.2880 C   0  0  0  0  0
  -17.7370   19.6570   98.3620 C   0  0  0  0  0
  -18.8830   21.8990   97.2510 C   0  0  0  0  0
  -17.0280   20.8420   98.3060 C   0  0  0  0  0
  -17.5960   21.9720   97.7550 C   0  0  0  0  0
  -21.2510   30.4430  100.2980 C   0  0  0  0  0
  -23.0930   20.1370   96.2100 O   0  0  0  0  0
  -25.4120   19.9860   97.0220 C   0  0  0  0  0
  -25.9670   21.0030   96.0240 C   0  0  0  0  0
  -26.3960   23.3850   95.7500 C   0  0  0  0  0
  -27.3830   23.2130   94.5820 C   0  0  0  0  0
  -27.5930   22.1240   97.5060 C   0  0  0  0  0
  -27.6970   23.1950   98.5990 C   0  0  0  0  0
  -21.6530   18.6810   97.0830 O   0  0  0  0  0
  -21.8710   19.8040   96.7110 C   0  0  0  0  0
  -24.2040   19.2690   96.4230 C   0  0  0  0  0
  -26.3410   22.2600   96.7200 N   0  3  0  0  0
  -20.9200   20.8000   96.7750 N   0  0  0  0  0
  -19.0300   19.5920   97.8680 C   0  0  0  0  0
  -16.8590   23.3020   97.6660 C   0  0  0  0  0
  -17.0810   24.2780   98.7810 N   0  0  0  0  0
  -17.0850   25.0880  101.3790 S   0  0  0  0  0
  -15.5250   23.4390  100.1380 O   0  0  0  0  0
  -22.0910   29.4980   99.6360 O   0  0  0  0  0
  -23.9550   28.0100   98.4580 O   0  0  0  0  0
  -24.8120   27.7610   97.3480 C   0  0  0  0  0
  -20.9127   24.5820   98.2477 H   0  0  0  0  0
  -19.7194   28.3155   99.9800 H   0  0  0  0  0
  -23.1668   25.5221   97.8100 H   0  0  0  0  0
  -18.5796   26.9469  101.2442 H   0  0  0  0  0
  -17.2067   27.1109  100.1139 H   0  0  0  0  0
  -17.2770   18.7696   98.7967 H   0  0  0  0  0
  -19.3377   22.7891   96.8162 H   0  0  0  0  0
  -16.0126   20.8841   98.7001 H   0  0  0  0  0
  -20.9453   30.0413  101.2641 H   0  0  0  0  0
  -20.3689   30.6338   99.6868 H   0  0  0  0  0
  -21.7995   31.3731  100.4469 H   0  0  0  0  0
  -26.1849   19.2530   97.2532 H   0  0  0  0  0
  -25.1057   20.5059   97.9298 H   0  0  0  0  0
  -26.8529   20.5846   95.5463 H   0  0  0  0  0
  -25.2021   21.2235   95.2794 H   0  0  0  0  0
  -26.7301   24.2586   96.3098 H   0  0  0  0  0
  -25.4031   23.4582   95.3063 H   0  0  0  0  0
  -27.1132   22.3269   94.0075 H   0  0  0  0  0
  -28.3931   23.0989   94.9754 H   0  0  0  0  0
  -27.3394   24.0919   93.9387 H   0  0  0  0  0
  -28.4383   22.2425   96.8281 H   0  0  0  0  0
  -27.5931   21.1445   97.9843 H   0  0  0  0  0
  -26.8517   23.1000   99.2806 H   0  0  0  0  0
  -27.6857   24.1834   98.1396 H   0  0  0  0  0
  -28.6273   23.0600   99.1508 H   0  0  0  0  0
  -23.8929   18.4965   97.1263 H   0  0  0  0  0
  -24.5022   18.8662   95.4550 H   0  0  0  0  0
  -25.6143   22.4698   97.4044 H   0  0  0  0  0
  -21.2015   21.7083   96.4061 H   0  0  0  0  0
  -19.5963   18.6629   97.9326 H   0  0  0  0  0
  -17.2318   23.7893   96.7651 H   0  0  0  0  0
  -15.7973   23.0565   97.6921 H   0  0  0  0  0
  -24.3040   28.0470   96.4270 H   0  0  0  0  0
  -25.0603   26.7002   97.3131 H   0  0  0  0  0
  -25.7253   28.3458   97.4574 H   0  0  0  0  0
  1  2  4  0  0  0
  1  3  4  0  0  0
 10  1  1  0  0  0
  2  4  4  0  0  0
  3  5  4  0  0  0
  4  6  4  0  0  0
  5  6  4  0  0  0
  5 34  1  0  0  0
  6 35  1  0  0  0
 31  7  1  0  0  0
  7 32  1  0  0  0
  7 33  2  0  0  0
  8 10  2  0  0  0
 31  8  1  0  0  0
 10  9  1  0  0  0
 32  9  1  0  0  0
 13 11  4  0  0  0
 11 28  1  0  0  0
 11 29  4  0  0  0
 14 12  4  0  0  0
 12 29  4  0  0  0
 15 13  4  0  0  0
 15 14  4  0  0  0
 30 15  1  0  0  0
 34 16  1  0  0  0
 25 17  1  0  0  0
 17 26  1  0  0  0
 18 19  1  0  0  0
 26 18  1  0  0  0
 19 27  1  0  0  0
 20 21  1  0  0  0
 27 20  1  0  0  0
 22 23  1  0  0  0
 27 22  1  0  0  0
 25 24  2  0  0  0
 28 25  1  0  0  0
 30 31  1  0  0  0
 35 36  1  0  0  0
  2 37  1  0  0  0
  3 38  1  0  0  0
  4 39  1  0  0  0
  9 40  1  0  0  0
  9 41  1  0  0  0
 12 42  1  0  0  0
 13 43  1  0  0  0
 14 44  1  0  0  0
 16 45  1  0  0  0
 16 46  1  0  0  0
 16 47  1  0  0  0
 18 48  1  0  0  0
 18 49  1  0  0  0
 19 50  1  0  0  0
 19 51  1  0  0  0
 20 52  1  0  0  0
 20 53  1  0  0  0
 21 54  1  0  0  0
 21 55  1  0  0  0
 21 56  1  0  0  0
 22 57  1  0  0  0
 22 58  1  0  0  0
 23 59  1  0  0  0
 23 60  1  0  0  0
 23 61  1  0  0  0
 26 62  1  0  0  0
 26 63  1  0  0  0
 27 64  1  0  0  0
 28 65  1  0  0  0
 29 66  1  0  0  0
 30 67  1  0  0  0
 30 68  1  0  0  0
 36 69  1  0  0  0
 36 70  1  0  0  0
 36 71  1  0  0  0
M  END
$$$$
