4gki_ligand
  -I-interpret- 

 46 49  0  0  0  0  0  0  0  0999 V2000
   35.8280   13.0130   18.8720 N   0  0  0  0  0
   36.9640   12.2850   18.5260 C   0  0  0  0  0
   37.9860   12.9600   17.8570 N   0  0  0  0  0
   37.8560   14.2660   17.5620 C   0  0  0  0  0
   36.7510   14.9390   17.9080 C   0  0  0  0  0
   35.7560   14.3120   18.5540 C   0  0  0  0  0
   40.0280   13.6270   15.4720 C   0  0  0  0  0
   40.4410   16.0870   15.5090 C   0  0  0  0  0
   35.6980   18.0990   12.5450 C   0  0  0  0  0
   36.7770   18.0670   13.4180 C   0  0  0  0  0
   32.6590   17.3480   16.1960 C   0  0  0  0  0
   33.7330   17.3170   17.0780 C   0  0  0  0  0
   34.4080   17.9260   13.0260 C   0  0  0  0  0
   32.8900   17.5520   14.8440 C   0  0  0  0  0
   35.0380   17.4760   16.6270 C   0  0  0  0  0
   36.9730   16.1790   17.4600 C   0  0  0  0  0
   34.1900   17.7230   14.3820 C   0  0  0  0  0
   38.6810   15.1200   16.9360 N   0  0  0  0  0
   40.0390   14.8770   16.3530 C   0  0  0  0  0
   41.0630   14.6990   17.4770 C   0  0  0  0  0
   38.1720   16.2080   16.8820 N   0  0  0  0  0
   34.6800   15.0180   18.8810 N   0  0  0  0  0
   36.0780   17.4410   17.5620 C   0  0  0  0  0
   35.2660   17.6910   15.2650 C   0  0  0  0  0
   36.5560   17.8650   14.7730 C   0  0  0  0  0
   37.0516   11.2261   18.7690 H   0  0  0  0  0
   39.3116   13.7615   14.6616 H   0  0  0  0  0
   41.0231   13.4682   15.0564 H   0  0  0  0  0
   39.7416   12.7635   16.0723 H   0  0  0  0  0
   39.7155   16.2266   14.7076 H   0  0  0  0  0
   40.4641   16.9762   16.1389 H   0  0  0  0  0
   41.4290   15.9177   15.0809 H   0  0  0  0  0
   35.8645   18.2603   11.4799 H   0  0  0  0  0
   37.7913   18.1997   13.0415 H   0  0  0  0  0
   31.6422   17.2129   16.5646 H   0  0  0  0  0
   33.5485   17.1654   18.1415 H   0  0  0  0  0
   33.5635   17.9495   12.3373 H   0  0  0  0  0
   32.0541   17.5782   14.1450 H   0  0  0  0  0
   41.0894   15.6007   18.0889 H   0  0  0  0  0
   40.7781   13.8473   18.0948 H   0  0  0  0  0
   42.0480   14.5227   17.0448 H   0  0  0  0  0
   33.9074   14.5711   19.3748 H   0  0  0  0  0
   34.6260   16.0073   18.6384 H   0  0  0  0  0
   35.6231   17.4364   18.5525 H   0  0  0  0  0
   36.7140   18.3055   17.3717 H   0  0  0  0  0
   37.4023   17.8424   15.4596 H   0  0  0  0  0
  2  1  4  0  0  0
  6  1  4  0  0  0
  3  2  4  0  0  0
  4  3  4  0  0  0
  4  5  4  0  0  0
 18  4  4  0  0  0
  5  6  4  0  0  0
  5 16  4  0  0  0
  6 22  1  0  0  0
 19  7  1  0  0  0
 19  8  1  0  0  0
  9 10  4  0  0  0
 13  9  4  0  0  0
 10 25  4  0  0  0
 12 11  4  0  0  0
 11 14  4  0  0  0
 15 12  4  0  0  0
 17 13  4  0  0  0
 17 14  4  0  0  0
 23 15  1  0  0  0
 15 24  4  0  0  0
 16 21  4  0  0  0
 16 23  1  0  0  0
 24 17  4  0  0  0
 18 19  1  0  0  0
 18 21  4  0  0  0
 19 20  1  0  0  0
 24 25  4  0  0  0
  2 26  1  0  0  0
  7 27  1  0  0  0
  7 28  1  0  0  0
  7 29  1  0  0  0
  8 30  1  0  0  0
  8 31  1  0  0  0
  8 32  1  0  0  0
  9 33  1  0  0  0
 10 34  1  0  0  0
 11 35  1  0  0  0
 12 36  1  0  0  0
 13 37  1  0  0  0
 14 38  1  0  0  0
 20 39  1  0  0  0
 20 40  1  0  0  0
 20 41  1  0  0  0
 22 42  1  0  0  0
 22 43  1  0  0  0
 23 44  1  0  0  0
 23 45  1  0  0  0
 25 46  1  0  0  0
M  END
$$$$
