5y6d_ligand
  -I-interpret- 

 32 32  0  0  0  0  0  0  0  0999 V2000
  122.0700   38.5350  132.3730 C   0  0  0  0  0
  121.9340   37.0640  132.0040 C   0  0  0  0  0
  120.7240   36.4130  132.1670 C   0  0  0  0  0
  120.6220   35.0700  131.8480 C   0  0  0  0  0
  121.7390   34.3800  131.4040 C   0  0  0  0  0
  122.9540   35.0340  131.2590 C   0  0  0  0  0
  123.0570   36.3770  131.5590 C   0  0  0  0  0
  121.6100   33.0520  131.1090 F   0  0  0  0  0
  121.0140   39.4190  131.9710 N   0  0  0  0  0
  121.3910   40.6390  131.3360 C   0  0  0  0  0
  122.5370   40.9040  131.1260 O   0  0  0  0  0
  120.2850   41.5980  131.0020 C   0  0  0  0  0
  120.3440   42.6830  132.0750 C   0  0  0  0  0
  120.4270   41.9970  133.7600 S   0  0  0  0  0
  120.5720   42.2430  129.6610 C   0  0  0  0  0
  122.0720   38.5800  133.9070 C   0  0  0  0  0
  121.0310   38.8820  134.5410 O   0  0  0  0  0
  123.1150   38.2890  134.5520 O   0  0  0  0  0
  122.9640   38.8828  131.8555 H   0  0  0  0  0
  119.8565   36.9544  132.5443 H   0  0  0  0  0
  119.6656   34.5563  131.9457 H   0  0  0  0  0
  123.8284   34.4862  130.9076 H   0  0  0  0  0
  124.0101   36.8940  131.4480 H   0  0  0  0  0
  120.0345   39.1847  132.1326 H   0  0  0  0  0
  119.3169   41.0988  130.9616 H   0  0  0  0  0
  119.4346   43.2792  131.9998 H   0  0  0  0  0
  121.2458   43.2719  131.9076 H   0  0  0  0  0
  120.4758   42.9927  134.6404 H   0  0  0  0  0
  121.5191   42.7800  129.7128 H   0  0  0  0  0
  120.6319   41.4713  128.8935 H   0  0  0  0  0
  119.7707   42.9400  129.4156 H   0  0  0  0  0
  123.8227   38.0820  133.9373 H   0  0  0  0  0
  1  2  1  0  0  0
  1  9  1  0  0  0
  1 16  1  0  0  0
  2  3  4  0  0  0
  2  7  4  0  0  0
  3  4  4  0  0  0
  4  5  4  0  0  0
  5  6  4  0  0  0
  5  8  1  0  0  0
  6  7  4  0  0  0
  9 10  1  0  0  0
 10 11  2  0  0  0
 10 12  1  0  0  0
 12 13  1  0  0  0
 12 15  1  0  0  0
 13 14  1  0  0  0
 16 17  2  0  0  0
 16 18  1  0  0  0
  1 19  1  0  0  0
  3 20  1  0  0  0
  4 21  1  0  0  0
  6 22  1  0  0  0
  7 23  1  0  0  0
  9 24  1  0  0  0
 12 25  1  0  0  0
 13 26  1  0  0  0
 13 27  1  0  0  0
 14 28  1  0  0  0
 15 29  1  0  0  0
 15 30  1  0  0  0
 15 31  1  0  0  0
 18 32  1  0  0  0
M  END
$$$$
