1gpy_ligand
  -I-interpret- 

 29 29  0  0  0  0  0  0  0  0999 V2000
   23.9590    2.9920   52.6800 C   0  0  0  0  0
   23.6900    4.4090   52.4070 C   0  0  0  0  0
   24.4470    5.0010   51.3220 C   0  0  0  0  0
   25.8700    4.7550   51.3470 C   0  0  0  0  0
   26.1080    3.2840   51.4500 C   0  0  0  0  0
   27.6010    2.8340   51.3790 C   0  0  0  0  0
   23.1030    2.4170   51.6870 O   0  0  0  0  0
   22.3410    4.6640   51.9990 O   0  0  0  0  0
   24.3120    6.3730   51.4670 O   0  0  0  0  0
   26.2180    5.2660   50.0600 O   0  0  0  0  0
   25.4260    2.8050   52.6870 O   0  0  0  0  0
   28.6930    3.8090   51.5970 O   0  0  0  0  0
   30.2150    3.4000   51.0830 P   0  0  0  0  0
   30.1700    2.8320   49.6950 O   0  0  0  0  0
   30.8550    2.4670   52.0610 O   0  0  0  0  0
   30.9670    4.6770   51.0300 O   0  0  0  0  0
   23.7294    2.5157   53.6331 H   0  0  0  0  0
   23.9589    4.8401   53.3713 H   0  0  0  0  0
   24.0600    4.5660   50.4005 H   0  0  0  0  0
   26.4332    5.1967   52.1691 H   0  0  0  0  0
   25.6851    2.8170   50.5605 H   0  0  0  0  0
   27.7339    2.5098   50.3469 H   0  0  0  0  0
   27.7064    2.1260   52.2010 H   0  0  0  0  0
   22.1930    2.6623   51.8696 H   0  0  0  0  0
   21.7369    4.3089   52.6551 H   0  0  0  0  0
   23.3804    6.6044   51.4583 H   0  0  0  0  0
   26.0505    6.2110   50.0362 H   0  0  0  0  0
   29.6866    2.0027   49.7054 H   0  0  0  0  0
   30.3607    1.6444   52.0873 H   0  0  0  0  0
  1  2  1  0  0  0
  1  7  1  0  0  0
  1 11  1  0  0  0
  2  3  1  0  0  0
  2  8  1  0  0  0
  3  4  1  0  0  0
  3  9  1  0  0  0
  4  5  1  0  0  0
  4 10  1  0  0  0
  5  6  1  0  0  0
  5 11  1  0  0  0
  6 12  1  0  0  0
 12 13  1  0  0  0
 13 14  1  0  0  0
 13 15  1  0  0  0
 13 16  2  0  0  0
  1 17  1  0  0  0
  2 18  1  0  0  0
  3 19  1  0  0  0
  4 20  1  0  0  0
  5 21  1  0  0  0
  6 22  1  0  0  0
  6 23  1  0  0  0
  7 24  1  0  0  0
  8 25  1  0  0  0
  9 26  1  0  0  0
 10 27  1  0  0  0
 14 28  1  0  0  0
 15 29  1  0  0  0
M  END
$$$$
