### 
### Created by X-TOOL on Mon Sep 10 21:12:45 2018
### 

@<TRIPOS>MOLECULE
1gpy_ligand
   27    27     1     0     0
SMALL
GAST_HUCK


@<TRIPOS>ATOM
      1 C1         23.9590    2.9920   52.6800 C.3       1 G6P         0.1854
      2 C2         23.6900    4.4090   52.4070 C.3       1 G6P         0.1339
      3 C3         24.4470    5.0010   51.3220 C.3       1 G6P         0.1141
      4 C4         25.8700    4.7550   51.3470 C.3       1 G6P         0.1122
      5 C5         26.1080    3.2840   51.4500 C.3       1 G6P         0.1176
      6 C6         27.6010    2.8340   51.3790 C.3       1 G6P         0.1071
      7 O1         23.1030    2.4170   51.6870 O.3       1 G6P        -0.3649
      8 O2         22.3410    4.6640   51.9990 O.3       1 G6P        -0.3841
      9 O3         24.3120    6.3730   51.4670 O.3       1 G6P        -0.3864
     10 O4         26.2180    5.2660   50.0600 O.3       1 G6P        -0.3865
     11 O5         25.4260    2.8050   52.6870 O.3       1 G6P        -0.3404
     12 O6         28.6930    3.8090   51.5970 O.3       1 G6P        -0.2734
     13 P          30.2150    3.4000   51.0830 P.3       1 G6P         0.2008
     14 O1P        30.1700    2.8320   49.6950 O.co2     1 G6P        -0.5537
     15 O2P        30.8550    2.4670   52.0610 O.co2     1 G6P        -0.5537
     16 O3P        30.9670    4.6770   51.0300 O.co2     1 G6P        -0.5537
     17 H1         23.5941    2.6903   53.6729 H         1 G6P         0.0935
     18 H2         23.9042    4.9586   53.3355 H         1 G6P         0.0671
     19 H3         24.0341    4.6571   50.3622 H         1 G6P         0.0648
     20 H4         26.3843    5.2863   52.1614 H         1 G6P         0.0647
     21 H5         25.6074    2.8155   50.5898 H         1 G6P         0.0650
     22 H6         27.7542    2.4091   50.3760 H         1 G6P         0.0639
     23 H7         27.7281    2.0450   52.1349 H         1 G6P         0.0639
     24 H8         22.2025    2.6598   51.8677 H         1 G6P         0.2126
     25 H9         21.7432    4.3126   52.6483 H         1 G6P         0.2101
     26 H10        24.7550    6.8112   50.7499 H         1 G6P         0.2100
     27 H11        26.0523    6.2012   50.0364 H         1 G6P         0.2100
@<TRIPOS>BOND
     1    1    2 1  
     2    1    7 1  
     3    1   11 1  
     4    2    3 1  
     5    2    8 1  
     6    3    4 1  
     7    3    9 1  
     8    4    5 1  
     9    4   10 1  
    10    5    6 1  
    11    5   11 1  
    12    6   12 1  
    13   12   13 1  
    14   13   14 ar 
    15   13   15 ar 
    16   13   16 ar 
    17    1   17 1  
    18    2   18 1  
    19    3   19 1  
    20    4   20 1  
    21    5   21 1  
    22    6   22 1  
    23    6   23 1  
    24    7   24 1  
    25    8   25 1  
    26    9   26 1  
    27   10   27 1  
@<TRIPOS>SUBSTRUCTURE
     1 G6P         1

