### 
### Created by X-TOOL on Fri Nov 18 12:00:29 2016
### 

@<TRIPOS>MOLECULE
1csr_ligand
   86    88     1     0     0
SMALL
GAST_HUCK


@<TRIPOS>ATOM
      1 AN1        19.6050   -7.9490   13.3360 N.ar      1 FAM        -0.2698
      2 AC2        19.0720   -8.5130   14.4190 C.ar      1 FAM         0.0533
      3 AN3        18.2440   -9.5500   14.4930 N.ar      1 FAM        -0.2714
      4 AC4        17.9520  -10.0560   13.2720 C.ar      1 FAM         0.1613
      5 AC5        18.4210   -9.5850   12.0620 C.ar      1 FAM         0.1045
      6 AC6        19.2950   -8.4680   12.1170 C.ar      1 FAM         0.1298
      7 AN6        19.8000   -7.8590   11.0480 N.pl3     1 FAM        -0.3152
      8 AN7        17.8890  -10.3470   11.0160 N.2       1 FAM        -0.2958
      9 AC8        17.1450  -11.2670   11.6040 C.2       1 FAM         0.1123
     10 AN9        17.1730  -11.1650   12.9710 N.pl3     1 FAM        -0.1919
     11 AC1        16.3170  -12.0110   13.7940 C.3       1 FAM         0.2013
     12 AC2        14.8720  -11.7550   13.3480 C.3       1 FAM         0.1432
     13 AO2        14.3760  -10.4860   13.7530 O.3       1 FAM        -0.3832
     14 AC3        14.1910  -12.9500   13.9980 C.3       1 FAM         0.1487
     15 AO3        13.9050  -12.7370   15.3910 O.3       1 FAM        -0.2674
     16 AP3        12.4830  -13.1090   16.0610 P.3       1 FAM         0.2013
     17 AO7        11.3980  -12.7250   15.0980 O.co2     1 FAM        -0.5537
     18 AO8        12.4890  -12.5760   17.4470 O.co2     1 FAM        -0.5537
     19 AO9        12.5050  -14.5930   16.1880 O.co2     1 FAM        -0.5537
     20 AC4        15.2360  -14.0680   13.7700 C.3       1 FAM         0.1235
     21 AO4        16.5010  -13.3820   13.5500 O.3       1 FAM        -0.3360
     22 AC5        14.9700  -14.8570   12.5230 C.3       1 FAM         0.1131
     23 AO5        14.5080  -13.9370   11.5200 O.3       1 FAM        -0.2476
     24 AP1        14.7660  -14.3070    9.9820 P.3       1 FAM         0.2972
     25 AO1        13.9030  -15.4490    9.5380 O.co2     1 FAM        -0.6127
     26 AO2        16.2400  -14.4960    9.9100 O.co2     1 FAM        -0.6127
     27 AO3        14.4660  -12.9220    9.2460 O.3       1 FAM        -0.1319
     28 AP2        13.0980  -12.6540    8.4220 P.3       1 FAM         0.2971
     29 AO4        13.0840  -13.3720    7.1060 O.co2     1 FAM        -0.6127
     30 AO5        11.9240  -12.6590    9.3360 O.co2     1 FAM        -0.6127
     31 AO6        13.3770  -11.0970    8.1960 O.3       1 FAM        -0.2496
     32 PC11       14.7190   -9.1770    7.5000 C.3       1 FAM         0.0367
     33 PC12       14.2380  -10.5690    7.1340 C.3       1 FAM         0.0936
     34 PC13       15.3510   -8.4930    6.2700 C.3       1 FAM        -0.0528
     35 PC14       13.4750   -8.4040    7.9840 C.3       1 FAM        -0.0528
     36 PC10       15.7650   -9.3040    8.6280 C.3       1 FAM         0.1510
     37 PO10       16.8920  -10.1390    8.4580 O.3       1 FAM        -0.3708
     38 PC9        16.0700   -7.9860    9.3590 C.2       1 FAM         0.2057
     39 PO9        15.4040   -7.6430   10.3550 O.2       1 FAM        -0.3942
     40 PN8        17.0550   -7.2290    8.8640 N.am      1 FAM        -0.2826
     41 PC7        17.4170   -5.9320    9.4480 C.3       1 FAM         0.0477
     42 PC6        16.7440   -4.8190    8.6380 C.3       1 FAM         0.0574
     43 PC5        17.2220   -4.6520    7.1730 C.2       1 FAM         0.1779
     44 PO5        18.4110   -4.7740    6.9060 O.2       1 FAM        -0.3970
     45 PN4        16.3130   -4.3220    6.2310 N.am      1 FAM        -0.2867
     46 PC3        16.6340   -4.1100    4.8150 C.3       1 FAM         0.0356
     47 PC2        16.4180   -5.3910    3.9540 C.3       1 FAM         0.0161
     48 C1         16.6550   -5.1430    2.4270 C.3       1 FAM         0.1909
     49 F1         16.7120   -6.3280    1.7520 F         1 FAM        -0.2219
     50 C2         15.5450   -4.3660    1.8010 C.2       1 FAM         0.2080
     51 O2         14.4110   -4.8160    1.8120 O.2       1 FAM        -0.3941
     52 N2         15.9020   -3.1950    1.2700 N.am      1 FAM        -0.2985
     53 H1         19.3510   -8.0664   15.3665 H         1 FAM         0.0996
     54 H2         19.5919   -8.2171   10.1050 H         1 FAM         0.1820
     55 H3         20.3993   -7.0292   11.1631 H         1 FAM         0.1820
     56 H4         16.5741  -12.0210   11.0640 H         1 FAM         0.1349
     57 H5         16.4677  -11.7803   14.8589 H         1 FAM         0.0996
     58 H6         14.7859  -11.8145   12.2530 H         1 FAM         0.0680
     59 H7         13.4814  -10.3854   13.4496 H         1 FAM         0.2101
     60 H8         13.2496  -13.1878   13.4811 H         1 FAM         0.0704
     61 H9         15.2805  -14.7359   14.6429 H         1 FAM         0.0654
     62 H10        14.2002  -15.6184   12.7173 H         1 FAM         0.0648
     63 H11        15.8944  -15.3481   12.1849 H         1 FAM         0.0648
     64 H12        13.6695  -10.5224    6.1935 H         1 FAM         0.0628
     65 H13        15.1061  -11.2322    7.0053 H         1 FAM         0.0628
     66 H14        15.6955   -7.4858    6.5473 H         1 FAM         0.0238
     67 H15        14.6022   -8.4164    5.4679 H         1 FAM         0.0238
     68 H16        16.2059   -9.0889    5.9179 H         1 FAM         0.0238
     69 H17        13.0453   -8.9123    8.8598 H         1 FAM         0.0238
     70 H18        12.7281   -8.3692    7.1772 H         1 FAM         0.0238
     71 H19        13.7645   -7.3794    8.2602 H         1 FAM         0.0238
     72 H20        15.1955   -9.8651    9.3835 H         1 FAM         0.0844
     73 H21        17.4314  -10.1039    9.2392 H         1 FAM         0.2133
     74 H22        17.5628   -7.5582    8.0679 H         1 FAM         0.1853
     75 H23        18.5090   -5.8040    9.4153 H         1 FAM         0.0545
     76 H24        17.0737   -5.8882   10.4921 H         1 FAM         0.0545
     77 H25        16.9249   -3.8679    9.1602 H         1 FAM         0.0522
     78 H26        15.6639   -5.0260    8.6167 H         1 FAM         0.0522
     79 H27        15.3605   -4.2153    6.5163 H         1 FAM         0.1851
     80 H28        17.6877   -3.8047    4.7343 H         1 FAM         0.0522
     81 H29        15.9893   -3.3094    4.4235 H         1 FAM         0.0522
     82 H30        15.3848   -5.7404    4.0970 H         1 FAM         0.0338
     83 H31        17.1183   -6.1670    4.2967 H         1 FAM         0.0338
     84 H32        17.6014   -4.5964    2.3028 H         1 FAM         0.0897
     85 H33        15.2156   -2.6148    0.8315 H         1 FAM         0.1815
     86 H34        16.8559   -2.8976    1.3106 H         1 FAM         0.1815
@<TRIPOS>BOND
     1    1    2 ar 
     2    1    6 ar 
     3    2    3 ar 
     4    3    4 ar 
     5    4    5 ar 
     6    4   10 1  
     7    5    6 ar 
     8    5    8 1  
     9    6    7 1  
    10    8    9 2  
    11    9   10 1  
    12   10   11 1  
    13   11   12 1  
    14   11   21 1  
    15   12   13 1  
    16   12   14 1  
    17   14   15 1  
    18   14   20 1  
    19   15   16 1  
    20   16   17 ar 
    21   16   18 ar 
    22   16   19 ar 
    23   20   21 1  
    24   20   22 1  
    25   22   23 1  
    26   23   24 1  
    27   24   25 ar 
    28   24   26 ar 
    29   24   27 1  
    30   27   28 1  
    31   28   29 ar 
    32   28   30 ar 
    33   28   31 1  
    34   31   33 1  
    35   33   32 1  
    36   32   34 1  
    37   32   35 1  
    38   32   36 1  
    39   36   37 1  
    40   36   38 1  
    41   38   39 2  
    42   38   40 am 
    43   40   41 1  
    44   41   42 1  
    45   42   43 1  
    46   43   44 2  
    47   43   45 am 
    48   45   46 1  
    49   46   47 1  
    50   47   48 1  
    51   48   49 1  
    52   48   50 1  
    53   50   51 2  
    54   50   52 am 
    55    2   53 1  
    56    7   54 1  
    57    7   55 1  
    58    9   56 1  
    59   11   57 1  
    60   12   58 1  
    61   13   59 1  
    62   14   60 1  
    63   20   61 1  
    64   22   62 1  
    65   22   63 1  
    66   33   64 1  
    67   33   65 1  
    68   34   66 1  
    69   34   67 1  
    70   34   68 1  
    71   35   69 1  
    72   35   70 1  
    73   35   71 1  
    74   36   72 1  
    75   37   73 1  
    76   40   74 1  
    77   41   75 1  
    78   41   76 1  
    79   42   77 1  
    80   42   78 1  
    81   45   79 1  
    82   46   80 1  
    83   46   81 1  
    84   47   82 1  
    85   47   83 1  
    86   48   84 1  
    87   52   85 1  
    88   52   86 1  
@<TRIPOS>SUBSTRUCTURE
     1 FAM         1

