1csr_ligand
  -I-interpret- 

 90 92  0  0  0  0  0  0  0  0999 V2000
   19.6050   -7.9490   13.3360 N   0  0  0  0  0
   19.0720   -8.5130   14.4190 C   0  0  0  0  0
   18.2440   -9.5500   14.4930 N   0  0  0  0  0
   17.9520  -10.0560   13.2720 C   0  0  0  0  0
   18.4210   -9.5850   12.0620 C   0  0  0  0  0
   19.2950   -8.4680   12.1170 C   0  0  0  0  0
   19.8000   -7.8590   11.0480 N   0  0  0  0  0
   17.8890  -10.3470   11.0160 N   0  0  0  0  0
   17.1450  -11.2670   11.6040 C   0  0  0  0  0
   17.1730  -11.1650   12.9710 N   0  0  0  0  0
   16.3170  -12.0110   13.7940 C   0  0  0  0  0
   14.8720  -11.7550   13.3480 C   0  0  0  0  0
   14.3760  -10.4860   13.7530 O   0  0  0  0  0
   14.1910  -12.9500   13.9980 C   0  0  0  0  0
   13.9050  -12.7370   15.3910 O   0  0  0  0  0
   12.4830  -13.1090   16.0610 P   0  0  0  0  0
   11.3980  -12.7250   15.0980 O   0  0  0  0  0
   12.4890  -12.5760   17.4470 O   0  0  0  0  0
   12.5050  -14.5930   16.1880 O   0  0  0  0  0
   15.2360  -14.0680   13.7700 C   0  0  0  0  0
   16.5010  -13.3820   13.5500 O   0  0  0  0  0
   14.9700  -14.8570   12.5230 C   0  0  0  0  0
   14.5080  -13.9370   11.5200 O   0  0  0  0  0
   14.7660  -14.3070    9.9820 P   0  0  0  0  0
   13.9030  -15.4490    9.5380 O   0  0  0  0  0
   16.2400  -14.4960    9.9100 O   0  0  0  0  0
   14.4660  -12.9220    9.2460 O   0  0  0  0  0
   13.0980  -12.6540    8.4220 P   0  0  0  0  0
   13.0840  -13.3720    7.1060 O   0  0  0  0  0
   11.9240  -12.6590    9.3360 O   0  0  0  0  0
   13.3770  -11.0970    8.1960 O   0  0  0  0  0
   14.7190   -9.1770    7.5000 C   0  0  0  0  0
   14.2380  -10.5690    7.1340 C   0  0  0  0  0
   15.3510   -8.4930    6.2700 C   0  0  0  0  0
   13.4750   -8.4040    7.9840 C   0  0  0  0  0
   15.7650   -9.3040    8.6280 C   0  0  0  0  0
   16.8920  -10.1390    8.4580 O   0  0  0  0  0
   16.0700   -7.9860    9.3590 C   0  0  0  0  0
   15.4040   -7.6430   10.3550 O   0  0  0  0  0
   17.0550   -7.2290    8.8640 N   0  0  0  0  0
   17.4170   -5.9320    9.4480 C   0  0  0  0  0
   16.7440   -4.8190    8.6380 C   0  0  0  0  0
   17.2220   -4.6520    7.1730 C   0  0  0  0  0
   18.4110   -4.7740    6.9060 O   0  0  0  0  0
   16.3130   -4.3220    6.2310 N   0  0  0  0  0
   16.6340   -4.1100    4.8150 C   0  0  0  0  0
   16.4180   -5.3910    3.9540 C   0  0  0  0  0
   16.6550   -5.1430    2.4270 C   0  0  0  0  0
   16.7120   -6.3280    1.7520 F   0  0  0  0  0
   15.5450   -4.3660    1.8010 C   0  0  0  0  0
   14.4110   -4.8160    1.8120 O   0  0  0  0  0
   15.9020   -3.1950    1.2700 N   0  0  0  0  0
   19.3525   -8.0639   15.3717 H   0  0  0  0  0
   20.3934   -7.0373   11.1620 H   0  0  0  0  0
   19.5939   -8.2136   10.1141 H   0  0  0  0  0
   16.5736  -12.0217   11.0635 H   0  0  0  0  0
   16.5436  -11.7795   14.8347 H   0  0  0  0  0
   14.7158  -11.6910   12.2712 H   0  0  0  0  0
   13.4720  -10.3843   13.4464 H   0  0  0  0  0
   13.2098  -13.1741   13.5795 H   0  0  0  0  0
   11.5514  -13.1586   14.2554 H   0  0  0  0  0
   12.5020  -14.9880   15.3130 H   0  0  0  0  0
   15.2195  -14.7484   14.6214 H   0  0  0  0  0
   14.2195  -15.6249   12.7106 H   0  0  0  0  0
   15.8775  -15.3604   12.1895 H   0  0  0  0  0
   12.9791  -15.2057    9.6316 H   0  0  0  0  0
   13.9290  -13.2499    6.6671 H   0  0  0  0  0
   13.6714  -10.5197    6.2042 H   0  0  0  0  0
   15.0995  -11.2254    7.0111 H   0  0  0  0  0
   16.1979   -9.0845    5.9221 H   0  0  0  0  0
   14.6081   -8.4178    5.4760 H   0  0  0  0  0
   15.6920   -7.4952    6.5460 H   0  0  0  0  0
   12.7377   -8.3660    7.1821 H   0  0  0  0  0
   13.0473   -8.9113    8.8488 H   0  0  0  0  0
   13.7640   -7.3904    8.2619 H   0  0  0  0  0
   15.1898   -9.9336    9.3069 H   0  0  0  0  0
   17.4371  -10.1036    9.2474 H   0  0  0  0  0
   17.5730   -7.5648    8.0520 H   0  0  0  0  0
   18.4992   -5.8047    9.4215 H   0  0  0  0  0
   17.0824   -5.8879   10.4844 H   0  0  0  0  0
   16.9864   -3.8851    9.1451 H   0  0  0  0  0
   15.6867   -5.0786    8.5849 H   0  0  0  0  0
   15.3415   -4.2131    6.5220 H   0  0  0  0  0
   17.6861   -3.8333    4.7471 H   0  0  0  0  0
   15.9714   -3.3333    4.4332 H   0  0  0  0  0
   15.3837   -5.7097    4.0837 H   0  0  0  0  0
   17.1361   -6.1409    4.2856 H   0  0  0  0  0
   17.5907   -4.5881    2.3593 H   0  0  0  0  0
   15.2006   -2.5999    0.8292 H   0  0  0  0  0
   16.8763   -2.8950    1.3049 H   0  0  0  0  0
  1  2  4  0  0  0
  1  6  4  0  0  0
  2  3  4  0  0  0
  3  4  4  0  0  0
  4  5  4  0  0  0
  4 10  4  0  0  0
  5  6  4  0  0  0
  5  8  4  0  0  0
  6  7  1  0  0  0
  8  9  4  0  0  0
  9 10  4  0  0  0
 10 11  1  0  0  0
 11 12  1  0  0  0
 11 21  1  0  0  0
 12 13  1  0  0  0
 12 14  1  0  0  0
 14 15  1  0  0  0
 14 20  1  0  0  0
 15 16  1  0  0  0
 16 17  1  0  0  0
 16 18  2  0  0  0
 16 19  1  0  0  0
 20 21  1  0  0  0
 20 22  1  0  0  0
 22 23  1  0  0  0
 23 24  1  0  0  0
 24 25  1  0  0  0
 24 26  2  0  0  0
 24 27  1  0  0  0
 27 28  1  0  0  0
 28 29  1  0  0  0
 28 30  2  0  0  0
 28 31  1  0  0  0
 31 33  1  0  0  0
 33 32  1  0  0  0
 32 34  1  0  0  0
 32 35  1  0  0  0
 32 36  1  0  0  0
 36 37  1  0  0  0
 36 38  1  0  0  0
 38 39  2  0  0  0
 38 40  1  0  0  0
 40 41  1  0  0  0
 41 42  1  0  0  0
 42 43  1  0  0  0
 43 44  2  0  0  0
 43 45  1  0  0  0
 45 46  1  0  0  0
 46 47  1  0  0  0
 47 48  1  0  0  0
 48 49  1  0  0  0
 48 50  1  0  0  0
 50 51  2  0  0  0
 50 52  1  0  0  0
  2 53  1  0  0  0
  7 54  1  0  0  0
  7 55  1  0  0  0
  9 56  1  0  0  0
 11 57  1  0  0  0
 12 58  1  0  0  0
 13 59  1  0  0  0
 14 60  1  0  0  0
 17 61  1  0  0  0
 19 62  1  0  0  0
 20 63  1  0  0  0
 22 64  1  0  0  0
 22 65  1  0  0  0
 25 66  1  0  0  0
 29 67  1  0  0  0
 33 68  1  0  0  0
 33 69  1  0  0  0
 34 70  1  0  0  0
 34 71  1  0  0  0
 34 72  1  0  0  0
 35 73  1  0  0  0
 35 74  1  0  0  0
 35 75  1  0  0  0
 36 76  1  0  0  0
 37 77  1  0  0  0
 40 78  1  0  0  0
 41 79  1  0  0  0
 41 80  1  0  0  0
 42 81  1  0  0  0
 42 82  1  0  0  0
 45 83  1  0  0  0
 46 84  1  0  0  0
 46 85  1  0  0  0
 47 86  1  0  0  0
 47 87  1  0  0  0
 48 88  1  0  0  0
 52 89  1  0  0  0
 52 90  1  0  0  0
M  END
$$$$
