4xhv_ligand
  -I-interpret- 

177179  0  0  0  0  0  0  0  0999 V2000
    1.9390    2.8700   15.5710 N   0  3  0  0  0
    2.5450    2.3910   14.3240 C   0  0  0  0  0
    1.8040    3.0430   13.1700 C   0  0  0  0  0
    0.6340    3.3590   13.2940 O   0  0  0  0  0
    2.4290    0.8610   14.1960 C   0  0  0  0  0
    1.0840    0.3130   14.5880 C   0  0  0  0  0
    0.0560    1.0200   14.7980 O   0  0  0  0  0
    1.1180   -0.9010   14.7570 O   0  0  0  0  0
    2.4680    3.2100   12.0450 N   0  0  0  0  0
    1.8040    3.8460   10.9080 C   0  0  0  0  0
    0.6010    3.0680   10.4230 C   0  0  0  0  0
   -0.3680    3.6380    9.9340 O   0  0  0  0  0
    2.7800    4.0460    9.7380 C   0  0  0  0  0
    3.7840    4.9750   10.1170 O   0  0  0  0  0
    0.6640    1.7630   10.5640 N   0  0  0  0  0
   -0.3720    0.9010    9.9940 C   0  0  0  0  0
   -1.7920    1.3300   10.3530 C   0  0  0  0  0
   -2.6590    1.3370    9.4530 O   0  0  0  0  0
   -0.1480   -0.5560   10.4040 C   0  0  0  0  0
   -1.1240   -1.5320    9.7560 C   0  0  0  0  0
   -0.6470   -2.9590    9.7480 C   0  0  0  0  0
   -0.0640   -3.3470   11.0350 C   0  0  0  0  0
    0.1960   -4.8080   11.0940 N   0  3  0  0  0
   -2.0220    1.6640   11.6370 N   0  0  0  0  0
   -3.4020    1.9300   12.1410 C   0  0  0  0  0
   -3.7680    3.4230   12.1400 C   0  0  0  0  0
   -4.7920    3.7810   12.7070 O   0  0  0  0  0
   -3.6300    1.2910   13.5270 C   0  0  0  0  0
   -2.8730    1.9910   14.6480 C   0  0  0  0  0
   -2.0050    2.8320   14.3380 O   0  0  0  0  0
   -3.1520    1.7040   15.8330 O   0  0  0  0  0
   -2.9840    4.2770   11.5000 N   0  0  0  0  0
   -3.2800    5.7040   11.5250 C   0  0  0  0  0
   -4.5320    6.0250   10.7080 C   0  0  0  0  0
   -4.7210    5.4980    9.6160 O   0  0  0  0  0
   -2.0200    6.4820   11.0570 C   0  0  0  0  0
   -2.2940    7.9410   10.8170 C   0  0  0  0  0
   -0.9170    6.3040   12.1480 C   0  0  0  0  0
   -5.3780    6.9000   11.2410 N   0  0  0  0  0
   -6.5870    7.3000   10.5830 C   0  0  0  0  0
   -6.3290    8.1170    9.3340 C   0  0  0  0  0
   -5.4580    8.9750    9.3150 O   0  0  0  0  0
   -7.4830    8.1400   11.5070 C   0  0  0  0  0
   -8.0870    7.3230   12.6420 C   0  0  0  0  0
   -8.9150    8.2030   13.5530 C   0  0  0  0  0
   -9.6280    7.4580   14.6210 C   0  0  0  0  0
  -10.1640    8.3490   15.6920 N   0  3  0  0  0
   -7.1140    7.8690    8.2930 N   0  0  0  0  0
   -7.1270    8.7110    7.1090 C   0  0  0  0  0
   -7.7250   10.0640    7.3970 C   0  0  0  0  0
   -8.6110   10.1970    8.2730 O   0  0  0  0  0
   -7.9000    8.0040    5.9910 C   0  0  0  0  0
   -9.4180    7.8660    6.1810 C   0  0  0  0  0
   -9.9330    6.7920    7.1040 C   0  0  0  0  0
   -9.1210    6.0730    7.7150 O   0  0  0  0  0
  -11.1950    6.6820    7.1790 O   0  0  0  0  0
   -7.2570   11.0980    6.7100 N   0  0  0  0  0
   -7.7820   12.4380    6.8860 C   0  0  0  0  0
   -8.6430   12.8490    5.6940 C   0  0  0  0  0
   -8.2260   12.7620    4.5360 O   0  0  0  0  0
   -6.6800   13.4780    7.0540 C   0  0  0  0  0
   -5.9090   13.4530    8.3350 C   0  0  0  0  0
   -5.4850   12.3560    9.0190 C   0  0  0  0  0
   -5.4460   14.6010    9.1130 C   0  0  0  0  0
   -4.7910   12.7430   10.1600 N   0  0  0  0  0
   -4.7550   14.1110   10.2290 C   0  0  0  0  0
   -5.5930   15.9800    8.9830 C   0  0  0  0  0
   -4.1820   14.9570   11.1840 C   0  0  0  0  0
   -5.0400   16.8020    9.9220 C   0  0  0  0  0
   -4.3160   16.2950   10.9920 C   0  0  0  0  0
   -9.8590   13.3010    5.9860 N   0  0  0  0  0
  -10.8400   13.7260    4.9960 C   0  0  0  0  0
  -10.6370   15.1670    4.5530 C   0  0  0  0  0
  -10.3720   16.0560    5.3710 O   0  0  0  0  0
  -12.2840   13.5230    5.5640 C   0  0  0  0  0
  -12.6010   12.0670    5.7090 C   0  0  0  0  0
  -12.2450   11.3650    6.8380 C   0  0  0  0  0
  -13.1670   11.3630    4.6520 C   0  0  0  0  0
  -12.3990   10.0020    6.9170 C   0  0  0  0  0
  -13.3500   10.0080    4.7250 C   0  0  0  0  0
  -12.9350    9.3130    5.8410 C   0  0  0  0  0
  -13.0780    7.9430    5.8390 O   0  0  0  0  0
  -10.7110   15.3690    3.2300 N   0  0  0  0  0
  -10.4670   16.6650    2.5880 C   0  0  0  0  0
  -11.4730   16.9240    1.4780 C   0  0  0  0  0
  -11.4510   18.0480    0.9420 O   0  0  0  0  0
   -9.0170   16.7280    2.0290 C   0  0  0  0  0
   -7.9870   16.4310    3.1160 C   0  0  0  0  0
   -8.8310   15.7970    0.8990 C   0  0  0  0  0
  -12.2130   16.0100    1.0980 O   0  0  0  0  0
    2.0322    3.8843   15.6252 H   0  0  0  0  0
    0.9510    2.6168   15.5867 H   0  0  0  0  0
    2.4138    2.4408   16.3652 H   0  0  0  0  0
    3.6040    2.6489   14.3164 H   0  0  0  0  0
    3.1649    0.4239   14.8709 H   0  0  0  0  0
    2.5856    0.6121   13.1464 H   0  0  0  0  0
    0.2550    1.9383   14.6014 H   0  0  0  0  0
    3.4362    2.8987   11.9675 H   0  0  0  0  0
    1.4566    4.8144   11.2679 H   0  0  0  0  0
    2.2383    4.4276    8.8725 H   0  0  0  0  0
    3.2430    3.0929    9.4825 H   0  0  0  0  0
    4.3943    5.1006    9.3867 H   0  0  0  0  0
    1.4423    1.3471   11.0755 H   0  0  0  0  0
   -0.2799    1.0004    8.9125 H   0  0  0  0  0
   -0.2936   -0.6172   11.4825 H   0  0  0  0  0
    0.8549   -0.8351   10.0808 H   0  0  0  0  0
   -1.2458   -1.2258    8.7170 H   0  0  0  0  0
   -2.0454   -1.5021   10.3376 H   0  0  0  0  0
    0.1209   -3.0585    8.9809 H   0  0  0  0  0
   -1.5031   -3.6046    9.5519 H   0  0  0  0  0
   -0.7682   -3.0886   11.8258 H   0  0  0  0  0
    0.8831   -2.8217   11.1583 H   0  0  0  0  0
    0.6005   -5.0438   12.0002 H   0  0  0  0  0
   -0.6812   -5.3135   10.9699 H   0  0  0  0  0
    0.8467   -5.0666   10.3523 H   0  0  0  0  0
   -1.2343    1.7371   12.2809 H   0  0  0  0  0
   -4.0810    1.4521   11.4349 H   0  0  0  0  0
   -3.2690    0.2637   13.4785 H   0  0  0  0  0
   -4.6938    1.3660   13.7523 H   0  0  0  0  0
   -3.8432    1.0379   15.8455 H   0  0  0  0  0
   -2.1707    3.9352   10.9881 H   0  0  0  0  0
   -3.5130    6.0234   12.5408 H   0  0  0  0  0
   -1.6927    6.0771   10.0993 H   0  0  0  0  0
   -3.0564    8.0440   10.0448 H   0  0  0  0  0
   -2.6463    8.4000   11.7408 H   0  0  0  0  0
   -1.3772    8.4329   10.4920 H   0  0  0  0  0
   -1.2779    6.7025   13.0962 H   0  0  0  0  0
   -0.6877    5.2445   12.2615 H   0  0  0  0  0
   -0.0182    6.8412   11.8452 H   0  0  0  0  0
   -5.1589    7.3021   12.1524 H   0  0  0  0  0
   -7.0841    6.3689   10.3111 H   0  0  0  0  0
   -8.3023    8.5374   10.9079 H   0  0  0  0  0
   -6.8670    8.9229   11.9493 H   0  0  0  0  0
   -7.2800    6.8758   13.2223 H   0  0  0  0  0
   -8.7298    6.5518   12.2176 H   0  0  0  0  0
   -9.6708    8.6891   12.9360 H   0  0  0  0  0
   -8.2322    8.8978   14.0420 H   0  0  0  0  0
   -8.9156    6.7741   15.0824 H   0  0  0  0  0
  -10.4725    6.9443   14.1617 H   0  0  0  0  0
  -10.6413    7.7846   16.3949 H   0  0  0  0  0
   -9.3938    8.8565   16.1275 H   0  0  0  0  0
  -10.8218    9.0126   15.2829 H   0  0  0  0  0
   -7.7309    7.0574    8.3253 H   0  0  0  0  0
   -6.0978    8.8761    6.7903 H   0  0  0  0  0
   -7.5089    6.9873    5.9527 H   0  0  0  0  0
   -7.7638    8.6156    5.0991 H   0  0  0  0  0
   -9.8057    7.6051    5.1962 H   0  0  0  0  0
   -9.7350    8.8059    6.6329 H   0  0  0  0  0
  -11.6067    7.3451    6.6200 H   0  0  0  0  0
   -6.5052   10.9457    6.0377 H   0  0  0  0  0
   -8.3808   12.4068    7.7962 H   0  0  0  0  0
   -7.1795   14.4464    7.0273 H   0  0  0  0  0
   -5.9546   13.2713    6.2671 H   0  0  0  0  0
   -5.6634   11.3241    8.7166 H   0  0  0  0  0
   -6.1437   16.3983    8.1405 H   0  0  0  0  0
   -3.6494   14.5587   12.0476 H   0  0  0  0  0
   -5.1699   17.8803    9.8294 H   0  0  0  0  0
   -3.8453   16.9846   11.6927 H   0  0  0  0  0
  -10.1230   13.3538    6.9698 H   0  0  0  0  0
  -10.7032   13.1058    4.1101 H   0  0  0  0  0
  -12.9986   13.9703    4.8731 H   0  0  0  0  0
  -12.3444   13.9944    6.5450 H   0  0  0  0  0
  -11.8307   11.9035    7.6903 H   0  0  0  0  0
  -13.4696   11.8978    3.7517 H   0  0  0  0  0
  -12.1019    9.4670    7.8190 H   0  0  0  0  0
  -13.8246    9.4779    3.8993 H   0  0  0  0  0
  -13.4663    7.6641    5.0065 H   0  0  0  0  0
  -10.9508   14.5757    2.6354 H   0  0  0  0  0
  -10.5875   17.4430    3.3419 H   0  0  0  0  0
  -10.8088   18.6028    1.3908 H   0  0  0  0  0
   -8.8624   17.7454    1.6697 H   0  0  0  0  0
   -8.0822   17.1658    3.9155 H   0  0  0  0  0
   -8.1608   15.4321    3.5162 H   0  0  0  0  0
   -6.9852   16.4838    2.6897 H   0  0  0  0  0
   -9.0283   14.7783    1.2329 H   0  0  0  0  0
   -9.5217   16.0581    0.0973 H   0  0  0  0  0
   -7.8060   15.8694    0.5352 H   0  0  0  0  0
  1  2  1  0  0  0
  2  3  1  0  0  0
  2  5  1  0  0  0
  3  4  2  0  0  0
  3  9  1  0  0  0
  5  6  1  0  0  0
  6  7  1  0  0  0
  6  8  2  0  0  0
  9 10  1  0  0  0
 10 11  1  0  0  0
 10 13  1  0  0  0
 11 12  2  0  0  0
 11 15  1  0  0  0
 13 14  1  0  0  0
 15 16  1  0  0  0
 16 17  1  0  0  0
 16 19  1  0  0  0
 17 18  2  0  0  0
 17 24  1  0  0  0
 19 20  1  0  0  0
 20 21  1  0  0  0
 21 22  1  0  0  0
 22 23  1  0  0  0
 24 25  1  0  0  0
 25 26  1  0  0  0
 25 28  1  0  0  0
 26 27  2  0  0  0
 26 32  1  0  0  0
 28 29  1  0  0  0
 29 30  2  0  0  0
 29 31  1  0  0  0
 32 33  1  0  0  0
 33 34  1  0  0  0
 33 36  1  0  0  0
 34 35  2  0  0  0
 34 39  1  0  0  0
 36 37  1  0  0  0
 36 38  1  0  0  0
 39 40  1  0  0  0
 40 41  1  0  0  0
 40 43  1  0  0  0
 41 42  2  0  0  0
 41 48  1  0  0  0
 43 44  1  0  0  0
 44 45  1  0  0  0
 45 46  1  0  0  0
 46 47  1  0  0  0
 48 49  1  0  0  0
 49 50  1  0  0  0
 49 52  1  0  0  0
 50 51  2  0  0  0
 50 57  1  0  0  0
 52 53  1  0  0  0
 53 54  1  0  0  0
 54 55  2  0  0  0
 54 56  1  0  0  0
 57 58  1  0  0  0
 58 59  1  0  0  0
 58 61  1  0  0  0
 59 60  2  0  0  0
 59 71  1  0  0  0
 61 62  1  0  0  0
 62 63  4  0  0  0
 62 64  4  0  0  0
 63 65  4  0  0  0
 64 66  4  0  0  0
 64 67  4  0  0  0
 65 66  4  0  0  0
 66 68  4  0  0  0
 67 69  4  0  0  0
 68 70  4  0  0  0
 69 70  4  0  0  0
 71 72  1  0  0  0
 72 73  1  0  0  0
 72 75  1  0  0  0
 73 74  2  0  0  0
 73 83  1  0  0  0
 75 76  1  0  0  0
 76 77  4  0  0  0
 76 78  4  0  0  0
 77 79  4  0  0  0
 78 80  4  0  0  0
 79 81  4  0  0  0
 80 81  4  0  0  0
 81 82  1  0  0  0
 83 84  1  0  0  0
 84 85  1  0  0  0
 84 87  1  0  0  0
 85 86  1  0  0  0
 85 90  2  0  0  0
 87 88  1  0  0  0
 87 89  1  0  0  0
  1 91  1  0  0  0
  1 92  1  0  0  0
  1 93  1  0  0  0
  2 94  1  0  0  0
  5 95  1  0  0  0
  5 96  1  0  0  0
  7 97  1  0  0  0
  9 98  1  0  0  0
 10 99  1  0  0  0
 13100  1  0  0  0
 13101  1  0  0  0
 14102  1  0  0  0
 15103  1  0  0  0
 16104  1  0  0  0
 19105  1  0  0  0
 19106  1  0  0  0
 20107  1  0  0  0
 20108  1  0  0  0
 21109  1  0  0  0
 21110  1  0  0  0
 22111  1  0  0  0
 22112  1  0  0  0
 23113  1  0  0  0
 23114  1  0  0  0
 23115  1  0  0  0
 24116  1  0  0  0
 25117  1  0  0  0
 28118  1  0  0  0
 28119  1  0  0  0
 31120  1  0  0  0
 32121  1  0  0  0
 33122  1  0  0  0
 36123  1  0  0  0
 37124  1  0  0  0
 37125  1  0  0  0
 37126  1  0  0  0
 38127  1  0  0  0
 38128  1  0  0  0
 38129  1  0  0  0
 39130  1  0  0  0
 40131  1  0  0  0
 43132  1  0  0  0
 43133  1  0  0  0
 44134  1  0  0  0
 44135  1  0  0  0
 45136  1  0  0  0
 45137  1  0  0  0
 46138  1  0  0  0
 46139  1  0  0  0
 47140  1  0  0  0
 47141  1  0  0  0
 47142  1  0  0  0
 48143  1  0  0  0
 49144  1  0  0  0
 52145  1  0  0  0
 52146  1  0  0  0
 53147  1  0  0  0
 53148  1  0  0  0
 56149  1  0  0  0
 57150  1  0  0  0
 58151  1  0  0  0
 61152  1  0  0  0
 61153  1  0  0  0
 63154  1  0  0  0
 67155  1  0  0  0
 68156  1  0  0  0
 69157  1  0  0  0
 70158  1  0  0  0
 71159  1  0  0  0
 72160  1  0  0  0
 75161  1  0  0  0
 75162  1  0  0  0
 77163  1  0  0  0
 78164  1  0  0  0
 79165  1  0  0  0
 80166  1  0  0  0
 82167  1  0  0  0
 83168  1  0  0  0
 84169  1  0  0  0
 86170  1  0  0  0
 87171  1  0  0  0
 88172  1  0  0  0
 88173  1  0  0  0
 88174  1  0  0  0
 89175  1  0  0  0
 89176  1  0  0  0
 89177  1  0  0  0
M  END
$$$$
