### 
### Created by X-TOOL on Mon Sep 10 21:13:20 2018
### 

@<TRIPOS>MOLECULE
4xhv_ligand
  174   176     1     0     0
SMALL
GAST_HUCK


@<TRIPOS>ATOM
      1 N           1.9390    2.8700   15.5710 N.4       1 ASP         0.2391
      2 CA          2.5450    2.3910   14.3240 C.3       1 ASP         0.0764
      3 C           1.8040    3.0430   13.1700 C.2       1 ASP         0.2285
      4 O           0.6340    3.3590   13.2940 O.2       1 ASP        -0.3906
      5 CB          2.4290    0.8610   14.1960 C.3       1 ASP         0.0607
      6 CG          1.0840    0.3130   14.5880 C.2       1 ASP         0.0425
      7 OD1         0.0560    1.0200   14.7980 O.co2     1 ASP        -0.5686
      8 OD2         1.1180   -0.9010   14.7570 O.co2     1 ASP        -0.5686
      9 N           2.4680    3.2100   12.0450 N.am      1 SER        -0.2588
     10 CA          1.8040    3.8460   10.9080 C.3       1 SER         0.1540
     11 C           0.6010    3.0680   10.4230 C.2       1 SER         0.2062
     12 O          -0.3680    3.6380    9.9340 O.2       1 SER        -0.3943
     13 CB          2.7800    4.0460    9.7380 C.3       1 SER         0.0843
     14 OG          3.7840    4.9750   10.1170 O.3       1 SER        -0.3903
     15 N           0.6640    1.7630   10.5640 N.am      1 LYS        -0.2637
     16 CA         -0.3720    0.9010    9.9940 C.3       1 LYS         0.1310
     17 C          -1.7920    1.3300   10.3530 C.2       1 LYS         0.2040
     18 O          -2.6590    1.3370    9.4530 O.2       1 LYS        -0.3944
     19 CB         -0.1480   -0.5560   10.4040 C.3       1 LYS        -0.0122
     20 CG         -1.1240   -1.5320    9.7560 C.3       1 LYS        -0.0440
     21 CD         -0.6470   -2.9590    9.7480 C.3       1 LYS        -0.0124
     22 CE         -0.0640   -3.3470   11.0350 C.3       1 LYS        -0.0354
     23 NZ          0.1960   -4.8080   11.0940 N.4       1 LYS         0.2185
     24 N          -2.0220    1.6640   11.6370 N.am      1 ASP        -0.2622
     25 CA         -3.4020    1.9300   12.1410 C.3       1 ASP         0.1423
     26 C          -3.7680    3.4230   12.1400 C.2       1 ASP         0.2056
     27 O          -4.7920    3.7810   12.7070 O.2       1 ASP        -0.3943
     28 CB         -3.6300    1.2910   13.5270 C.3       1 ASP         0.0406
     29 CG         -2.8730    1.9910   14.6480 C.2       1 ASP         0.0393
     30 OD1        -2.0050    2.8320   14.3380 O.co2     1 ASP        -0.5688
     31 OD2        -3.1520    1.7040   15.8330 O.co2     1 ASP        -0.5688
     32 N          -2.9840    4.2770   11.5000 N.am      1 VAL        -0.2634
     33 CA         -3.2800    5.7040   11.5250 C.3       1 VAL         0.1333
     34 C          -4.5320    6.0250   10.7080 C.2       1 VAL         0.2041
     35 O          -4.7210    5.4980    9.6160 O.2       1 VAL        -0.3944
     36 CB         -2.0200    6.4820   11.0570 C.3       1 VAL        -0.0063
     37 CG1        -2.2940    7.9410   10.8170 C.3       1 VAL        -0.0584
     38 CG2        -0.9170    6.3040   12.1480 C.3       1 VAL        -0.0584
     39 N          -5.3780    6.9000   11.2410 N.am      1 LYS        -0.2637
     40 CA         -6.5870    7.3000   10.5830 C.3       1 LYS         0.1310
     41 C          -6.3290    8.1170    9.3340 C.2       1 LYS         0.2039
     42 O          -5.4580    8.9750    9.3150 O.2       1 LYS        -0.3944
     43 CB         -7.4830    8.1400   11.5070 C.3       1 LYS        -0.0122
     44 CG         -8.0870    7.3230   12.6420 C.3       1 LYS        -0.0440
     45 CD         -8.9150    8.2030   13.5530 C.3       1 LYS        -0.0124
     46 CE         -9.6280    7.4580   14.6210 C.3       1 LYS        -0.0354
     47 NZ        -10.1640    8.3490   15.6920 N.4       1 LYS         0.2185
     48 N          -7.1140    7.8690    8.2930 N.am      1 GLU        -0.2636
     49 CA         -7.1270    8.7110    7.1090 C.3       1 GLU         0.1325
     50 C          -7.7250   10.0640    7.3970 C.2       1 GLU         0.2041
     51 O          -8.6110   10.1970    8.2730 O.2       1 GLU        -0.3944
     52 CB         -7.9000    8.0040    5.9910 C.3       1 GLU        -0.0008
     53 CG         -9.4180    7.8660    6.1810 C.3       1 GLU         0.0044
     54 CD         -9.9330    6.7920    7.1040 C.2       1 GLU         0.0350
     55 OE1        -9.1210    6.0730    7.7150 O.co2     1 GLU        -0.5690
     56 OE2       -11.1950    6.6820    7.1790 O.co2     1 GLU        -0.5690
     57 N          -7.2570   11.0980    6.7100 N.am      1 TRP        -0.2627
     58 CA         -7.7820   12.4380    6.8860 C.3       1 TRP         0.1352
     59 C          -8.6430   12.8490    5.6940 C.2       1 TRP         0.2053
     60 O          -8.2260   12.7620    4.5360 O.2       1 TRP        -0.3942
     61 CB         -6.6800   13.4780    7.0540 C.3       1 TRP         0.0042
     62 CG         -5.9090   13.4530    8.3350 C.2       1 TRP        -0.0418
     63 CD1        -5.4850   12.3560    9.0190 C.2       1 TRP         0.0167
     64 CD2        -5.4460   14.6010    9.1130 C.ar      1 TRP        -0.0214
     65 NE1        -4.7910   12.7430   10.1600 N.pl3     1 TRP        -0.2890
     66 CE2        -4.7550   14.1110   10.2290 C.ar      1 TRP         0.0603
     67 CE3        -5.5930   15.9800    8.9830 C.ar      1 TRP        -0.0747
     68 CZ2        -4.1820   14.9570   11.1840 C.ar      1 TRP        -0.0443
     69 CZ3        -5.0400   16.8020    9.9220 C.ar      1 TRP        -0.0792
     70 CH2        -4.3160   16.2950   10.9920 C.ar      1 TRP        -0.0768
     71 N          -9.8590   13.3010    5.9860 N.am      1 TYR        -0.2620
     72 CA        -10.8400   13.7260    4.9960 C.3       1 TYR         0.1390
     73 C         -10.6370   15.1670    4.5530 C.2       1 TYR         0.2052
     74 O         -10.3720   16.0560    5.3710 O.2       1 TYR        -0.3943
     75 CB        -12.2840   13.5230    5.5640 C.3       1 TYR         0.0163
     76 CG        -12.6010   12.0670    5.7090 C.ar      1 TYR        -0.0493
     77 CD1       -12.2450   11.3650    6.8380 C.ar      1 TYR        -0.0685
     78 CD2       -13.1670   11.3630    4.6520 C.ar      1 TYR        -0.0685
     79 CE1       -12.3990   10.0020    6.9170 C.ar      1 TYR        -0.0398
     80 CE2       -13.3500   10.0080    4.7250 C.ar      1 TYR        -0.0398
     81 CZ        -12.9350    9.3130    5.8410 C.ar      1 TYR         0.0805
     82 OH        -13.0780    7.9430    5.8390 O.3       1 TYR        -0.3376
     83 N         -10.7110   15.3690    3.2300 N.am      1 VAL        -0.2691
     84 CA        -10.4670   16.6650    2.5880 C.3       1 VAL         0.0967
     85 C         -11.4730   16.9240    1.4780 C.2       1 VAL         0.0603
     86 O         -11.4510   18.0480    0.9420 O.co2     1 VAL        -0.5666
     87 CB         -9.0170   16.7280    2.0290 C.3       1 VAL        -0.0118
     88 CG1        -7.9870   16.4310    3.1160 C.3       1 VAL        -0.0590
     89 CG2        -8.8310   15.7970    0.8990 C.3       1 VAL        -0.0590
     90 OXT       -12.2130   16.0100    1.0980 O.co2     1 VAL        -0.5666
     91 H1          2.4124    2.4522   16.3567 H         1 ASP         0.2016
     92 H2          0.9643    2.6138   15.5910 H         1 ASP         0.2016
     93 H3          2.0239    3.8731   15.6222 H         1 ASP         0.2016
     94 H4          3.6068    2.6772   14.2981 H         1 ASP         0.1117
     95 H5          3.1912    0.4013   14.8423 H         1 ASP         0.0512
     96 H6          2.6222    0.5861   13.1486 H         1 ASP         0.0512
     97 H7          3.4172    2.9048   11.9691 H         1 SER         0.1885
     98 H8          1.4559    4.8356   11.2389 H         1 SER         0.0823
     99 H9          2.2330    4.4321    8.8653 H         1 SER         0.0606
    100 H10         3.2478    3.0841    9.4814 H         1 SER         0.0606
    101 H11         4.2552    4.6403   10.8709 H         1 SER         0.2097
    102 H12         1.4270    1.3552   11.0655 H         1 LYS         0.1883
    103 H13        -0.2788    0.9621    8.8997 H         1 LYS         0.0800
    104 H14        -0.2565   -0.6301   11.4961 H         1 LYS         0.0312
    105 H15         0.8738   -0.8445   10.1166 H         1 LYS         0.0312
    106 H16        -1.2890   -1.2166    8.7152 H         1 LYS         0.0269
    107 H17        -2.0747   -1.4881   10.3076 H         1 LYS         0.0269
    108 H18         0.1148   -3.0750    8.9630 H         1 LYS         0.0317
    109 H19        -1.5005   -3.6181    9.5310 H         1 LYS         0.0317
    110 H20        -0.7619   -3.0750   11.8406 H         1 LYS         0.0813
    111 H21         0.8851   -2.8088   11.1747 H         1 LYS         0.0813
    112 H22         0.5958   -5.0422   11.9892 H         1 LYS         0.1994
    113 H23         0.8390   -5.0647   10.3614 H         1 LYS         0.1994
    114 H24        -0.6702   -5.3087   10.9715 H         1 LYS         0.1994
    115 H25        -1.2498    1.7356   12.2683 H         1 ASP         0.1884
    116 H26        -4.0933    1.4360   11.4424 H         1 ASP         0.0819
    117 H27        -3.3006    0.2423   13.4859 H         1 ASP         0.0478
    118 H28        -4.7053    1.3290   13.7558 H         1 ASP         0.0478
    119 H29        -2.1866    3.9419   10.9981 H         1 VAL         0.1883
    120 H30        -3.4861    5.9941   12.5658 H         1 VAL         0.0802
    121 H31        -1.6659    6.0416   10.1133 H         1 VAL         0.0343
    122 H32        -1.3694    8.4386   10.4890 H         1 VAL         0.0234
    123 H33        -2.6496    8.4054   11.7486 H         1 VAL         0.0234
    124 H34        -3.0633    8.0463   10.0378 H         1 VAL         0.0234
    125 H35        -0.7307    5.2320   12.3095 H         1 VAL         0.0234
    126 H36        -1.2544    6.7633   13.0889 H         1 VAL         0.0234
    127 H37         0.0110    6.7912   11.8142 H         1 VAL         0.0234
    128 H38        -5.1632    7.2942   12.1346 H         1 LYS         0.1883
    129 H39        -7.1307    6.3873   10.2976 H         1 LYS         0.0800
    130 H40        -8.3003    8.5697   10.9092 H         1 LYS         0.0312
    131 H41        -6.8795    8.9514   11.9400 H         1 LYS         0.0312
    132 H42        -7.2768    6.8609   13.2251 H         1 LYS         0.0269
    133 H43        -8.7289    6.5364   12.2188 H         1 LYS         0.0269
    134 H44        -9.6613    8.7306   12.9409 H         1 LYS         0.0317
    135 H45        -8.2466    8.9358   14.0286 H         1 LYS         0.0317
    136 H46        -8.9280    6.7427   15.0773 H         1 LYS         0.0813
    137 H47       -10.4673    6.9109   14.1670 H         1 LYS         0.0813
    138 H48       -10.6360    7.7923   16.3872 H         1 LYS         0.1994
    139 H49       -10.8143    9.0052   15.2889 H         1 LYS         0.1994
    140 H50        -9.4037    8.8511   16.1231 H         1 LYS         0.1994
    141 H51        -7.7188    7.0733    8.3247 H         1 GLU         0.1883
    142 H52        -6.0888    8.8593    6.7772 H         1 GLU         0.0801
    143 H53        -7.4839    6.9910    5.8873 H         1 GLU         0.0330
    144 H54        -7.7305    8.5670    5.0613 H         1 GLU         0.0330
    145 H55        -9.8535    7.6774    5.1887 H         1 GLU         0.0433
    146 H56        -9.7858    8.8285    6.5660 H         1 GLU         0.0433
    147 H57        -6.5199   10.9487    6.0509 H         1 TRP         0.1884
    148 H58        -8.4059   12.4411    7.7919 H         1 TRP         0.0815
    149 H59        -7.1453   14.4709    6.9668 H         1 TRP         0.0397
    150 H60        -5.9623   13.3359    6.2326 H         1 TRP         0.0397
    151 H61        -5.6632   11.3250    8.7169 H         1 TRP         0.0795
    152 H62        -4.3695   12.1012   10.8466 H         1 TRP         0.2216
    153 H63        -6.1407   16.3960    8.1451 H         1 TRP         0.0540
    154 H64        -3.6523   14.5609   12.0428 H         1 TRP         0.0541
    155 H65        -5.1692   17.8743    9.8299 H         1 TRP         0.0510
    156 H66        -3.8478   16.9808   11.6888 H         1 TRP         0.0530
    157 H67       -10.1178   13.3528    6.9506 H         1 TYR         0.1885
    158 H68       -10.7248   13.0846    4.1098 H         1 TYR         0.0821
    159 H69       -13.0094   13.9828    4.8767 H         1 TYR         0.0453
    160 H70       -12.3548   14.0069    6.5493 H         1 TYR         0.0453
    161 H71       -11.8330   11.9006    7.6856 H         1 TYR         0.0530
    162 H72       -13.4679   11.8949    3.7567 H         1 TYR         0.0530
    163 H73       -12.1035    9.4699    7.8140 H         1 TYR         0.0525
    164 H74       -13.8220    9.4808    3.9038 H         1 TYR         0.0525
    165 H75       -13.9961    7.7217    5.7366 H         1 TYR         0.2458
    166 H76       -10.9461   14.5913    2.6470 H         1 VAL         0.1876
    167 H77       -10.5810   17.4527    3.3473 H         1 VAL         0.0729
    168 H78        -8.8426   17.7502    1.6621 H         1 VAL         0.0336
    169 H79        -6.9755   16.4840    2.6869 H         1 VAL         0.0234
    170 H80        -8.1613   15.4231    3.5208 H         1 VAL         0.0234
    171 H81        -8.0820   17.1719    3.9235 H         1 VAL         0.0234
    172 H82        -9.5749   16.0145    0.1185 H         1 VAL         0.0234
    173 H83        -8.9604   14.7628    1.2508 H         1 VAL         0.0234
    174 H84        -7.8191   15.9198    0.4855 H         1 VAL         0.0234
@<TRIPOS>BOND
     1    1    2 1  
     2    2    3 1  
     3    2    5 1  
     4    3    4 2  
     5    3    9 am 
     6    5    6 1  
     7    6    7 ar 
     8    6    8 ar 
     9    9   10 1  
    10   10   11 1  
    11   10   13 1  
    12   11   12 2  
    13   11   15 am 
    14   13   14 1  
    15   15   16 1  
    16   16   17 1  
    17   16   19 1  
    18   17   18 2  
    19   17   24 am 
    20   19   20 1  
    21   20   21 1  
    22   21   22 1  
    23   22   23 1  
    24   24   25 1  
    25   25   26 1  
    26   25   28 1  
    27   26   27 2  
    28   26   32 am 
    29   28   29 1  
    30   29   30 ar 
    31   29   31 ar 
    32   32   33 1  
    33   33   34 1  
    34   33   36 1  
    35   34   35 2  
    36   34   39 am 
    37   36   37 1  
    38   36   38 1  
    39   39   40 1  
    40   40   41 1  
    41   40   43 1  
    42   41   42 2  
    43   41   48 am 
    44   43   44 1  
    45   44   45 1  
    46   45   46 1  
    47   46   47 1  
    48   48   49 1  
    49   49   50 1  
    50   49   52 1  
    51   50   51 2  
    52   50   57 am 
    53   52   53 1  
    54   53   54 1  
    55   54   55 ar 
    56   54   56 ar 
    57   57   58 1  
    58   58   59 1  
    59   58   61 1  
    60   59   60 2  
    61   59   71 am 
    62   61   62 1  
    63   62   63 2  
    64   62   64 1  
    65   63   65 1  
    66   64   66 ar 
    67   64   67 ar 
    68   65   66 1  
    69   66   68 ar 
    70   67   69 ar 
    71   68   70 ar 
    72   69   70 ar 
    73   71   72 1  
    74   72   73 1  
    75   72   75 1  
    76   73   74 2  
    77   73   83 am 
    78   75   76 1  
    79   76   77 ar 
    80   76   78 ar 
    81   77   79 ar 
    82   78   80 ar 
    83   79   81 ar 
    84   80   81 ar 
    85   81   82 1  
    86   83   84 1  
    87   84   85 1  
    88   84   87 1  
    89   85   86 ar 
    90   85   90 ar 
    91   87   88 1  
    92   87   89 1  
    93    1   91 1  
    94    1   92 1  
    95    1   93 1  
    96    2   94 1  
    97    5   95 1  
    98    5   96 1  
    99    9   97 1  
   100   10   98 1  
   101   13   99 1  
   102   13  100 1  
   103   14  101 1  
   104   15  102 1  
   105   16  103 1  
   106   19  104 1  
   107   19  105 1  
   108   20  106 1  
   109   20  107 1  
   110   21  108 1  
   111   21  109 1  
   112   22  110 1  
   113   22  111 1  
   114   23  112 1  
   115   23  113 1  
   116   23  114 1  
   117   24  115 1  
   118   25  116 1  
   119   28  117 1  
   120   28  118 1  
   121   32  119 1  
   122   33  120 1  
   123   36  121 1  
   124   37  122 1  
   125   37  123 1  
   126   37  124 1  
   127   38  125 1  
   128   38  126 1  
   129   38  127 1  
   130   39  128 1  
   131   40  129 1  
   132   43  130 1  
   133   43  131 1  
   134   44  132 1  
   135   44  133 1  
   136   45  134 1  
   137   45  135 1  
   138   46  136 1  
   139   46  137 1  
   140   47  138 1  
   141   47  139 1  
   142   47  140 1  
   143   48  141 1  
   144   49  142 1  
   145   52  143 1  
   146   52  144 1  
   147   53  145 1  
   148   53  146 1  
   149   57  147 1  
   150   58  148 1  
   151   61  149 1  
   152   61  150 1  
   153   63  151 1  
   154   65  152 1  
   155   67  153 1  
   156   68  154 1  
   157   69  155 1  
   158   70  156 1  
   159   71  157 1  
   160   72  158 1  
   161   75  159 1  
   162   75  160 1  
   163   77  161 1  
   164   78  162 1  
   165   79  163 1  
   166   80  164 1  
   167   82  165 1  
   168   83  166 1  
   169   84  167 1  
   170   87  168 1  
   171   88  169 1  
   172   88  170 1  
   173   88  171 1  
   174   89  172 1  
   175   89  173 1  
   176   89  174 1  
@<TRIPOS>SUBSTRUCTURE
     1 ASP         1

