2xog_ligand
  -I-interpret- 

 66 70  0  0  0  0  0  0  0  0999 V2000
   35.4910    6.8770   22.3960 N   0  0  0  0  0
   39.0070    6.6920   18.6440 C   0  0  0  0  0
   37.6050    0.4220   11.9550 C   0  0  0  0  0
   36.7840   -0.8110   12.2110 N   0  0  0  0  0
   39.2210    2.9020   14.3580 C   0  0  0  0  0
   41.6890    2.3800   14.9430 O   0  0  0  0  0
   35.8810    7.8370   21.5430 C   0  0  0  0  0
   40.4810    6.8950   18.9770 C   0  0  0  0  0
   40.6700    8.1940   19.5500 O   0  0  0  0  0
   37.5240    1.1850   13.2680 C   0  0  0  0  0
   36.5730    2.2510   13.1540 O   0  0  0  0  0
   35.6360   -0.8080   11.3160 C   0  0  0  0  0
   35.3180    0.1090   10.5540 O   0  0  0  0  0
   40.0440    1.5740   16.4080 O   0  0  0  0  0
   36.8240    7.5980   20.6160 N   0  0  0  0  0
   41.2140    6.7730   17.6560 C   0  0  0  0  0
   41.8830    7.9970   17.3420 O   0  0  0  0  0
   38.9560    1.6450   13.5510 C   0  0  0  0  0
   34.8720   -2.0040   11.3950 N   0  0  0  0  0
   40.5430    4.0130   16.3730 N   0  0  0  0  0
   37.4020    6.3730   20.5190 C   0  0  0  0  0
   40.1450    6.4620   16.6100 C   0  0  0  0  0
   38.9500    6.1190   17.3360 O   0  0  0  0  0
   39.8080    1.1820   12.3700 C   0  0  0  0  0
   38.9970    0.2510   11.6430 O   0  0  0  0  0
   35.1280   -3.1510   12.2440 C   0  0  0  0  0
   34.3810   -4.0930   12.1950 O   0  0  0  0  0
   37.0200    5.3630   21.3860 C   0  0  0  0  0
   40.5260    5.3040   15.6890 C   0  0  0  0  0
   41.8070    5.5660   15.1020 O   0  0  0  0  0
   41.0390    0.4180   12.8390 C   0  0  0  0  0
   40.6490   -0.5760   13.7980 O   0  0  0  0  0
   36.3030   -3.0630   13.1110 C   0  0  0  0  0
   36.0440    5.6400   22.3410 C   0  0  0  0  0
   35.6360    4.6870   23.2060 N   0  0  0  0  0
   37.0570   -1.9330   13.0600 C   0  0  0  0  0
   37.7440    4.2680   21.0730 N   0  0  0  0  0
   38.5570    4.5970   20.0370 C   0  0  0  0  0
   38.3410    5.8840   19.7050 N   0  0  0  0  0
   40.4050    2.6510   15.5270 S   0  0  0  0  0
   38.4512    7.6295   18.6267 H   0  0  0  0  0
   37.2012    0.9002   11.0626 H   0  0  0  0  0
   38.2973    3.1895   14.8602 H   0  0  0  0  0
   39.5682    3.6803   13.6784 H   0  0  0  0  0
   35.4259    8.8256   21.6031 H   0  0  0  0  0
   40.8493    6.1678   19.7006 H   0  0  0  0  0
   40.1973    8.2465   20.3839 H   0  0  0  0  0
   37.1649    0.5859   14.1048 H   0  0  0  0  0
   35.7033    1.8849   12.9774 H   0  0  0  0  0
   41.9750    5.9934   17.6909 H   0  0  0  0  0
   42.3418    7.9037   16.5039 H   0  0  0  0  0
   39.3801    1.1759   14.4388 H   0  0  0  0  0
   34.0543   -2.0616   10.7880 H   0  0  0  0  0
   40.6424    3.9750   17.3874 H   0  0  0  0  0
   40.0142    7.3320   15.9665 H   0  0  0  0  0
   40.1287    2.0451   11.7866 H   0  0  0  0  0
   39.7598    5.2373   14.9166 H   0  0  0  0  0
   41.7854    6.4156   14.6555 H   0  0  0  0  0
   41.7428    1.1110   13.3000 H   0  0  0  0  0
   41.5125   -0.0670   11.9854 H   0  0  0  0  0
   41.4259   -1.0568   14.0928 H   0  0  0  0  0
   36.5670   -3.8819   13.7802 H   0  0  0  0  0
   34.9155    4.8993   23.8961 H   0  0  0  0  0
   36.0483    3.7548   23.1694 H   0  0  0  0  0
   37.9301   -1.8763   13.7101 H   0  0  0  0  0
   39.2687    3.9284   19.5527 H   0  0  0  0  0
  7  1  4  0  0  0
  1 34  4  0  0  0
  2  8  1  0  0  0
 23  2  1  0  0  0
  2 39  1  0  0  0
  3  4  1  0  0  0
 10  3  1  0  0  0
  3 25  1  0  0  0
  4 12  1  0  0  0
  4 36  1  0  0  0
  5 18  1  0  0  0
 40  5  1  0  0  0
 40  6  2  0  0  0
 15  7  4  0  0  0
  8  9  1  0  0  0
 16  8  1  0  0  0
 10 11  1  0  0  0
 18 10  1  0  0  0
 12 13  2  0  0  0
 12 19  1  0  0  0
 40 14  2  0  0  0
 21 15  4  0  0  0
 16 17  1  0  0  0
 22 16  1  0  0  0
 18 24  1  0  0  0
 19 26  1  0  0  0
 29 20  1  0  0  0
 20 40  1  0  0  0
 21 28  4  0  0  0
 39 21  4  0  0  0
 22 23  1  0  0  0
 22 29  1  0  0  0
 24 25  1  0  0  0
 24 31  1  0  0  0
 26 27  2  0  0  0
 26 33  1  0  0  0
 28 34  4  0  0  0
 28 37  4  0  0  0
 29 30  1  0  0  0
 31 32  1  0  0  0
 33 36  2  0  0  0
 34 35  1  0  0  0
 37 38  4  0  0  0
 38 39  4  0  0  0
  2 41  1  0  0  0
  3 42  1  0  0  0
  5 43  1  0  0  0
  5 44  1  0  0  0
  7 45  1  0  0  0
  8 46  1  0  0  0
  9 47  1  0  0  0
 10 48  1  0  0  0
 11 49  1  0  0  0
 16 50  1  0  0  0
 17 51  1  0  0  0
 18 52  1  0  0  0
 19 53  1  0  0  0
 20 54  1  0  0  0
 22 55  1  0  0  0
 24 56  1  0  0  0
 29 57  1  0  0  0
 30 58  1  0  0  0
 31 59  1  0  0  0
 31 60  1  0  0  0
 32 61  1  0  0  0
 33 62  1  0  0  0
 35 63  1  0  0  0
 35 64  1  0  0  0
 36 65  1  0  0  0
 38 66  1  0  0  0
M  END
$$$$
