5in9_ligand
  -I-interpret- 

 43 45  0  0  0  0  0  0  0  0999 V2000
   58.7260 -116.4350  100.5540 C   0  0  0  0  0
   57.3850 -116.9540  100.6810 O   0  0  0  0  0
   57.0020 -117.9030  100.0670 C   0  0  0  0  0
   57.8610 -118.5510   99.1390 O   0  0  0  0  0
   55.4890 -118.4320  100.2260 C   0  0  0  0  0
   54.7670 -118.6690   99.0690 C   0  0  0  0  0
   55.3590 -118.4750   97.8700 O   0  0  0  0  0
   53.4850 -119.1000   99.1230 C   0  0  0  0  0
   52.8660 -119.3050  100.3720 C   0  0  0  0  0
   51.5240 -119.7650  100.4560 O   0  0  0  0  0
   53.5640 -119.0660  101.5300 C   0  0  0  0  0
   52.7490 -119.3380  103.0490 Cl  0  0  0  0  0
   54.8550 -118.6290  101.4940 C   0  0  0  0  0
   55.6230 -118.3780  102.8170 C   0  0  0  0  0
   55.0200 -117.3770  103.7910 C   0  0  0  0  0
   56.1580 -116.8760  104.6310 C   0  0  0  0  0
   57.3470 -116.5310  104.0760 N   0  0  0  0  0
   58.1900 -116.1200  105.0770 C   0  0  0  0  0
   57.4270 -116.2510  106.2770 C   0  0  0  0  0
   56.1720 -116.7320  105.9740 N   0  0  0  0  0
   55.1120 -117.0040  106.8660 C   0  0  0  0  0
   55.4800 -116.6430  108.3410 C   0  0  0  0  0
   56.7170 -116.4720  108.8060 O   0  0  0  0  0
   56.7500 -116.1570  110.1460 C   0  0  0  0  0
   58.2640 -115.8650  111.0580 Cl  0  0  0  0  0
   55.3720 -116.1210  110.6340 C   0  0  0  0  0
   54.5310 -116.4330  109.4800 C   0  0  0  0  0
   59.4413 -117.2068  100.8381 H   0  0  0  0  0
   58.9025 -116.1369   99.5205 H   0  0  0  0  0
   58.8432 -115.5708  101.2079 H   0  0  0  0  0
   54.7352 -118.6797   97.1696 H   0  0  0  0  0
   52.9327 -119.2881   98.2023 H   0  0  0  0  0
   51.2719 -119.8460  101.3787 H   0  0  0  0  0
   56.5878 -117.9630  102.5253 H   0  0  0  0  0
   55.6303 -119.3337  103.3411 H   0  0  0  0  0
   54.2505 -117.8418  104.4073 H   0  0  0  0  0
   54.5308 -116.5589  103.2624 H   0  0  0  0  0
   59.2175 -115.7700  104.9781 H   0  0  0  0  0
   57.7827 -116.0079  107.2783 H   0  0  0  0  0
   54.8941 -118.0710  106.8207 H   0  0  0  0  0
   54.2548 -116.3988  106.5710 H   0  0  0  0  0
   55.0402 -115.9057  111.6497 H   0  0  0  0  0
   53.4433 -116.4989  109.4540 H   0  0  0  0  0
  1  2  1  0  0  0
  2  3  1  0  0  0
  3  4  2  0  0  0
  3  5  1  0  0  0
  5  6  4  0  0  0
  5 13  4  0  0  0
  6  7  1  0  0  0
  6  8  4  0  0  0
  8  9  4  0  0  0
  9 10  1  0  0  0
  9 11  4  0  0  0
 11 12  1  0  0  0
 11 13  4  0  0  0
 13 14  1  0  0  0
 14 15  1  0  0  0
 15 16  1  0  0  0
 16 17  4  0  0  0
 16 20  4  0  0  0
 17 18  4  0  0  0
 18 19  4  0  0  0
 19 20  4  0  0  0
 20 21  1  0  0  0
 21 22  1  0  0  0
 22 23  4  0  0  0
 22 27  4  0  0  0
 23 24  4  0  0  0
 24 25  1  0  0  0
 24 26  4  0  0  0
 26 27  4  0  0  0
  1 28  1  0  0  0
  1 29  1  0  0  0
  1 30  1  0  0  0
  7 31  1  0  0  0
  8 32  1  0  0  0
 10 33  1  0  0  0
 14 34  1  0  0  0
 14 35  1  0  0  0
 15 36  1  0  0  0
 15 37  1  0  0  0
 18 38  1  0  0  0
 19 39  1  0  0  0
 21 40  1  0  0  0
 21 41  1  0  0  0
 26 42  1  0  0  0
 27 43  1  0  0  0
M  END
$$$$
