5nqr_ligand
  -I-interpret- 

 50 53  0  0  0  0  0  0  0  0999 V2000
   86.8240   14.9210  111.4750 C   0  0  0  0  0
   85.9580   15.4640  110.6120 C   0  0  0  0  0
   84.7720   15.8850  111.0840 C   0  0  0  0  0
   87.7590   14.9090  109.5460 C   0  0  0  0  0
   84.4740   15.7590  112.3880 N   0  0  0  0  0
   86.5300   14.7940  112.7740 N   0  0  0  0  0
   78.7740   15.0650  104.0420 C   0  0  0  0  0
   79.7400   15.8250  104.6880 C   0  0  0  0  0
   80.8250   15.2010  105.3010 C   0  0  0  0  0
   79.6090   17.2090  104.7210 C   0  0  0  0  0
   80.5640   17.9850  105.3600 C   0  0  0  0  0
   81.6460   17.3630  105.9650 C   0  0  0  0  0
   81.7860   15.9810  105.9320 C   0  0  0  0  0
   82.8490   15.4610  106.5390 C   0  0  0  0  0
   83.7570   16.1920  107.0020 O   0  0  0  0  0
   83.1730   14.1750  106.6920 N   0  0  0  0  0
   84.2930   14.1450  107.3040 N   0  0  0  0  0
   84.6390   15.4160  107.5050 C   0  0  0  0  0
   85.8970   16.0040  108.1420 C   0  0  0  0  0
   86.5190   15.4270  109.3850 N   0  0  0  0  0
   83.9230   16.3950  110.3540 O   0  0  0  0  0
   83.1620   16.2230  112.8940 C   0  0  0  0  0
   85.3520   15.2140  113.2360 C   0  0  0  0  0
   85.0790   15.0980  114.4300 O   0  0  0  0  0
   87.5180   14.1900  113.6970 C   0  0  0  0  0
   87.9170   14.5770  110.8170 N   0  0  0  0  0
   88.7680   14.6120  108.6940 N   0  0  0  0  0
   89.9910   14.0760  109.3080 C   0  0  0  0  0
   88.7200   14.8270  107.2340 C   0  0  0  0  0
   79.2395   14.4957  103.2374 H   0  0  0  0  0
   78.3154   14.3801  104.7553 H   0  0  0  0  0
   78.0114   15.7247  103.6280 H   0  0  0  0  0
   80.9184   14.1151  105.2856 H   0  0  0  0  0
   78.7529   17.6853  104.2431 H   0  0  0  0  0
   80.4656   19.0702  105.3865 H   0  0  0  0  0
   82.3973   17.9670  106.4737 H   0  0  0  0  0
   85.5793   16.9980  108.4570 H   0  0  0  0  0
   86.6617   15.8475  107.3812 H   0  0  0  0  0
   82.6252   15.3820  113.3330 H   0  0  0  0  0
   83.3172   16.9917  113.6511 H   0  0  0  0  0
   82.5812   16.6357  112.0691 H   0  0  0  0  0
   87.7811   14.9128  114.4692 H   0  0  0  0  0
   87.0858   13.3029  114.1600 H   0  0  0  0  0
   88.4117   13.9112  113.1388 H   0  0  0  0  0
   90.2088   13.0954  108.8848 H   0  0  0  0  0
   90.8225   14.7520  109.1086 H   0  0  0  0  0
   89.8456   13.9845  110.3844 H   0  0  0  0  0
   89.4974   15.5349  106.9465 H   0  0  0  0  0
   88.8837   13.8783  106.7228 H   0  0  0  0  0
   87.7437   15.2259  106.9587 H   0  0  0  0  0
  2  1  4  0  0  0
  1  6  1  0  0  0
 26  1  4  0  0  0
  2  3  1  0  0  0
 20  2  4  0  0  0
  3  5  1  0  0  0
  3 21  2  0  0  0
 20  4  4  0  0  0
  4 26  4  0  0  0
  4 27  1  0  0  0
  5 22  1  0  0  0
  5 23  1  0  0  0
  6 23  1  0  0  0
  6 25  1  0  0  0
  8  7  1  0  0  0
  9  8  4  0  0  0
  8 10  4  0  0  0
 13  9  4  0  0  0
 11 10  4  0  0  0
 12 11  4  0  0  0
 13 12  4  0  0  0
 14 13  1  0  0  0
 15 14  4  0  0  0
 16 14  4  0  0  0
 18 15  4  0  0  0
 17 16  4  0  0  0
 18 17  4  0  0  0
 19 18  1  0  0  0
 19 20  1  0  0  0
 23 24  2  0  0  0
 27 28  1  0  0  0
 27 29  1  0  0  0
  7 30  1  0  0  0
  7 31  1  0  0  0
  7 32  1  0  0  0
  9 33  1  0  0  0
 10 34  1  0  0  0
 11 35  1  0  0  0
 12 36  1  0  0  0
 19 37  1  0  0  0
 19 38  1  0  0  0
 22 39  1  0  0  0
 22 40  1  0  0  0
 22 41  1  0  0  0
 25 42  1  0  0  0
 25 43  1  0  0  0
 25 44  1  0  0  0
 28 45  1  0  0  0
 28 46  1  0  0  0
 28 47  1  0  0  0
 29 48  1  0  0  0
 29 49  1  0  0  0
 29 50  1  0  0  0
M  END
$$$$
