2fmb_ligand
  -I-interpret- 

116119  0  0  0  0  0  0  0  0999 V2000
    7.6740   20.7100    7.1540 C   0  0  0  0  0
    6.8630   20.9860    5.8950 C   0  0  0  0  0
    6.4560   22.1180    5.5970 O   0  0  0  0  0
    6.6140   19.8950    5.1700 N   0  0  0  0  0
    5.8180   20.0250    3.9420 C   0  0  0  0  0
    6.4750   19.4050    2.6940 C   0  0  0  0  0
    7.4980   20.2880    2.0530 C   0  0  0  0  0
    7.5410   21.6300    2.3680 C   0  0  0  0  0
    8.5120   22.4580    1.8120 C   0  0  0  0  0
    9.4590   21.9500    0.9340 C   0  0  0  0  0
    8.4410   19.7460    1.1820 C   0  0  0  0  0
    9.4340   20.5790    0.6100 C   0  0  0  0  0
    8.4410   18.3820    0.8770 C   0  0  0  0  0
   10.4010   20.0330   -0.2460 C   0  0  0  0  0
    9.3720   17.8780    0.0070 C   0  0  0  0  0
   10.3280   18.6960   -0.5390 C   0  0  0  0  0
    4.5450   19.1670    4.0620 C   0  0  0  0  0
    4.6510   18.0270    4.4700 O   0  0  0  0  0
    3.4730   19.7140    3.5870 N   0  0  0  0  0
    2.1690   19.1550    3.4580 C   0  0  0  0  0
    1.7000   19.4670    2.0310 C   0  0  0  0  0
    1.3100   20.5710    1.6550 O   0  0  0  0  0
    1.1300   19.6040    4.5190 C   0  0  0  0  0
   -0.2240   19.0020    4.1950 C   0  0  0  0  0
    1.4670   18.9830    5.8690 C   0  0  0  0  0
    1.7060   18.4370    1.2140 N   0  0  0  0  0
    1.3280   18.3930   -0.1660 C   0  0  0  0  0
    2.6030   18.0320   -0.9850 C   0  0  0  0  0
    3.8110   18.9590   -0.5770 C   0  0  0  0  0
    5.1070   18.3560   -0.9570 C   0  0  0  0  0
    3.5670   20.3300   -1.1350 C   0  0  0  0  0
    0.0550   17.5280   -0.4860 C   0  0  0  0  0
   -1.2610   18.2920   -0.2810 C   0  0  0  0  0
    0.0010   16.3610    0.3430 O   0  0  0  0  0
   -1.5450   19.3980   -1.3020 C   0  0  0  0  0
   -1.0760   20.5510   -1.3100 O   0  0  0  0  0
   -2.3620   18.9460   -2.2470 N   0  0  0  0  0
   -2.7650   19.6980   -3.4180 C   0  0  0  0  0
   -1.7690   19.3530   -4.5450 C   0  0  0  0  0
   -1.8700   20.1130   -5.8400 C   0  0  0  0  0
   -4.1710   19.3160   -3.8450 C   0  0  0  0  0
   -4.4650   18.1050   -3.8900 O   0  0  0  0  0
   -5.0460   20.3030   -4.0920 N   0  0  0  0  0
   -6.4140   20.0280   -4.4820 C   0  0  0  0  0
   -7.4860   20.2000   -3.3810 C   0  0  0  0  0
   -7.0710   21.2250   -2.3290 C   0  0  0  0  0
   -7.4750   22.5490   -2.4530 C   0  0  0  0  0
   -7.0850   23.5130   -1.5120 C   0  0  0  0  0
   -6.2670   23.1690   -0.4570 C   0  0  0  0  0
   -6.2350   20.8740   -1.2640 C   0  0  0  0  0
   -5.8260   21.8510   -0.3030 C   0  0  0  0  0
   -5.7880   19.5500   -1.1290 C   0  0  0  0  0
   -4.9800   21.4850    0.7510 C   0  0  0  0  0
   -4.9460   19.2110   -0.0810 C   0  0  0  0  0
   -4.5540   20.1660    0.8340 C   0  0  0  0  0
   -6.8080   20.6910   -5.7930 C   0  0  0  0  0
   -6.3140   21.7790   -6.1360 O   0  0  0  0  0
   -7.7080   20.1110   -6.5590 N   0  0  0  0  0
    8.5940   21.2940    7.1273 H   0  0  0  0  0
    7.0893   20.9906    8.0301 H   0  0  0  0  0
    7.9171   19.6486    7.2026 H   0  0  0  0  0
    6.9702   18.9853    5.4631 H   0  0  0  0  0
    5.6728   21.1000    3.8356 H   0  0  0  0  0
    5.6865   19.2338    1.9611 H   0  0  0  0  0
    6.9828   18.4941    3.0110 H   0  0  0  0  0
    6.8077   22.0462    3.0588 H   0  0  0  0  0
    8.5287   23.5171    2.0691 H   0  0  0  0  0
   10.2143   22.6048    0.4995 H   0  0  0  0  0
    7.7023   17.7208    1.3301 H   0  0  0  0  0
   11.1902   20.6556   -0.6675 H   0  0  0  0  0
    9.3527   16.8196   -0.2529 H   0  0  0  0  0
   11.0547   18.2682   -1.2297 H   0  0  0  0  0
    3.5753   20.6750    3.2609 H   0  0  0  0  0
    2.2417   18.0839    3.6464 H   0  0  0  0  0
    1.1318   20.6939    4.5305 H   0  0  0  0  0
   -0.5440   19.3399    3.2093 H   0  0  0  0  0
   -0.1475   17.9147    4.2007 H   0  0  0  0  0
   -0.9501   19.3203    4.9430 H   0  0  0  0  0
    1.4476   17.8966    5.7827 H   0  0  0  0  0
    2.4609   19.3065    6.1784 H   0  0  0  0  0
    0.7328   19.3032    6.6082 H   0  0  0  0  0
    2.0211   17.5540    1.6159 H   0  0  0  0  0
    0.9711   19.3761   -0.4731 H   0  0  0  0  0
    2.3923   18.1751   -2.0448 H   0  0  0  0  0
    2.8705   16.9954   -0.7803 H   0  0  0  0  0
    3.8753   19.0589    0.5065 H   0  0  0  0  0
    5.2214   17.3962   -0.4531 H   0  0  0  0  0
    5.1342   18.2067   -2.0364 H   0  0  0  0  0
    5.9171   19.0223   -0.6606 H   0  0  0  0  0
    3.4923   20.2709   -2.2208 H   0  0  0  0  0
    2.6376   20.7270   -0.7266 H   0  0  0  0  0
    4.3944   20.9847   -0.8616 H   0  0  0  0  0
    0.1526   17.2601   -1.5381 H   0  0  0  0  0
   -1.1904   18.7777    0.6922 H   0  0  0  0  0
   -2.0637   17.5616   -0.3822 H   0  0  0  0  0
   -0.7841   15.8525    0.1270 H   0  0  0  0  0
   -2.7322   18.0015   -2.1405 H   0  0  0  0  0
   -2.7624   20.7659   -3.1996 H   0  0  0  0  0
   -1.9761   18.3147   -4.8040 H   0  0  0  0  0
   -0.7852   19.5972   -4.1442 H   0  0  0  0  0
   -2.8561   19.9548   -6.2767 H   0  0  0  0  0
   -1.7223   21.1758   -5.6485 H   0  0  0  0  0
   -1.1045   19.7569   -6.5294 H   0  0  0  0  0
   -4.7401   21.2719   -4.0029 H   0  0  0  0  0
   -6.4022   18.9521   -4.6562 H   0  0  0  0  0
   -7.6200   19.2390   -2.8844 H   0  0  0  0  0
   -8.4041   20.5503   -3.8527 H   0  0  0  0  0
   -8.1039   22.8423   -3.2936 H   0  0  0  0  0
   -7.4311   24.5414   -1.6155 H   0  0  0  0  0
   -5.9620   23.9294    0.2619 H   0  0  0  0  0
   -6.1019   18.7911   -1.8457 H   0  0  0  0  0
   -4.6625   22.2199    1.4907 H   0  0  0  0  0
   -4.5921   18.1850    0.0204 H   0  0  0  0  0
   -3.8891   19.8762    1.6476 H   0  0  0  0  0
   -7.9978   20.5543   -7.4307 H   0  0  0  0  0
   -8.1155   19.2183   -6.2808 H   0  0  0  0  0
  1  2  1  0  0  0
  2  3  2  0  0  0
  2  4  1  0  0  0
  4  5  1  0  0  0
  5  6  1  0  0  0
  5 17  1  0  0  0
  6  7  1  0  0  0
  7  8  4  0  0  0
  7 11  4  0  0  0
  8  9  4  0  0  0
  9 10  4  0  0  0
 10 12  4  0  0  0
 11 12  4  0  0  0
 11 13  4  0  0  0
 12 14  4  0  0  0
 13 15  4  0  0  0
 14 16  4  0  0  0
 15 16  4  0  0  0
 17 18  2  0  0  0
 17 19  1  0  0  0
 19 20  1  0  0  0
 20 21  1  0  0  0
 20 23  1  0  0  0
 21 22  2  0  0  0
 21 26  1  0  0  0
 23 24  1  0  0  0
 23 25  1  0  0  0
 26 27  1  0  0  0
 27 28  1  0  0  0
 27 32  1  0  0  0
 28 29  1  0  0  0
 29 30  1  0  0  0
 29 31  1  0  0  0
 32 33  1  0  0  0
 32 34  1  0  0  0
 33 35  1  0  0  0
 35 36  2  0  0  0
 35 37  1  0  0  0
 37 38  1  0  0  0
 38 39  1  0  0  0
 38 41  1  0  0  0
 39 40  1  0  0  0
 41 42  2  0  0  0
 41 43  1  0  0  0
 43 44  1  0  0  0
 44 45  1  0  0  0
 44 56  1  0  0  0
 45 46  1  0  0  0
 46 47  4  0  0  0
 46 50  4  0  0  0
 47 48  4  0  0  0
 48 49  4  0  0  0
 49 51  4  0  0  0
 50 51  4  0  0  0
 50 52  4  0  0  0
 51 53  4  0  0  0
 52 54  4  0  0  0
 53 55  4  0  0  0
 54 55  4  0  0  0
 56 57  2  0  0  0
 56 58  1  0  0  0
  1 59  1  0  0  0
  1 60  1  0  0  0
  1 61  1  0  0  0
  4 62  1  0  0  0
  5 63  1  0  0  0
  6 64  1  0  0  0
  6 65  1  0  0  0
  8 66  1  0  0  0
  9 67  1  0  0  0
 10 68  1  0  0  0
 13 69  1  0  0  0
 14 70  1  0  0  0
 15 71  1  0  0  0
 16 72  1  0  0  0
 19 73  1  0  0  0
 20 74  1  0  0  0
 23 75  1  0  0  0
 24 76  1  0  0  0
 24 77  1  0  0  0
 24 78  1  0  0  0
 25 79  1  0  0  0
 25 80  1  0  0  0
 25 81  1  0  0  0
 26 82  1  0  0  0
 27 83  1  0  0  0
 28 84  1  0  0  0
 28 85  1  0  0  0
 29 86  1  0  0  0
 30 87  1  0  0  0
 30 88  1  0  0  0
 30 89  1  0  0  0
 31 90  1  0  0  0
 31 91  1  0  0  0
 31 92  1  0  0  0
 32 93  1  0  0  0
 33 94  1  0  0  0
 33 95  1  0  0  0
 34 96  1  0  0  0
 37 97  1  0  0  0
 38 98  1  0  0  0
 39 99  1  0  0  0
 39100  1  0  0  0
 40101  1  0  0  0
 40102  1  0  0  0
 40103  1  0  0  0
 43104  1  0  0  0
 44105  1  0  0  0
 45106  1  0  0  0
 45107  1  0  0  0
 47108  1  0  0  0
 48109  1  0  0  0
 49110  1  0  0  0
 52111  1  0  0  0
 53112  1  0  0  0
 54113  1  0  0  0
 55114  1  0  0  0
 58115  1  0  0  0
 58116  1  0  0  0
M  END
$$$$
