6qwi_ligand
  -I-interpret- 

 50 52  0  0  0  0  0  0  0  0999 V2000
   34.7690   -3.9830   56.1680 C   0  0  0  0  0
   35.0910   -7.3480   54.7350 C   0  0  0  0  0
   35.1530   -8.6110   51.1550 C   0  0  0  0  0
   38.9510   -1.4250   62.7070 C   0  0  0  0  0
   35.2550   -5.2840   56.0680 C   0  0  0  0  0
   36.3380   -5.7030   56.8840 C   0  0  0  0  0
   34.4420   -7.7880   53.3990 C   0  0  0  0  0
   34.9330  -10.1350   50.9140 C   0  0  0  0  0
   39.3260   -1.1370   61.2640 C   0  0  0  0  0
   37.8440   -0.4160   62.9230 N   0  3  0  0  0
   40.5960   -2.1220   64.5410 O   0  0  0  0  0
   35.3360   -3.0700   57.0700 C   0  0  0  0  0
   38.1810   -1.4060   60.2720 N   0  0  0  0  0
   38.7100   -1.6750   66.0340 O   0  0  0  0  0
   37.2820   -0.6570   64.2200 C   0  0  0  0  0
   37.1830   -0.7400   59.8000 N   0  0  0  0  0
   34.5460   -6.0770   55.0920 O   0  0  0  0  0
   38.7020   -0.7240   64.9690 C   0  0  0  0  0
   36.4260   -1.3060   58.9460 N   0  0  0  0  0
   35.4140   -8.3350   52.5220 O   0  0  0  0  0
   39.7720   -1.0610   63.9210 C   0  0  0  0  0
   36.9210   -4.8080   57.8060 C   0  0  0  0  0
   36.4110   -3.4680   57.9090 C   0  0  0  0  0
   36.9040   -2.5230   58.7510 C   0  0  0  0  0
   38.1450   -2.7480   59.6190 C   0  0  0  0  0
   33.9371   -3.6697   55.5372 H   0  0  0  0  0
   36.1728   -7.2761   54.6228 H   0  0  0  0  0
   34.8818   -8.0803   55.5148 H   0  0  0  0  0
   34.2474   -8.0801   50.8616 H   0  0  0  0  0
   36.0120   -8.2881   50.5667 H   0  0  0  0  0
   38.8923   -2.5134   62.7106 H   0  0  0  0  0
   36.7208   -6.7199   56.7981 H   0  0  0  0  0
   33.9910   -6.9168   52.9239 H   0  0  0  0  0
   33.6896   -8.5486   53.6077 H   0  0  0  0  0
   35.8273  -10.6817   51.2131 H   0  0  0  0  0
   34.0827  -10.4759   51.5046 H   0  0  0  0  0
   34.7357  -10.3095   49.8563 H   0  0  0  0  0
   40.1521   -1.7974   61.0003 H   0  0  0  0  0
   39.5802   -0.0793   61.1946 H   0  0  0  0  0
   37.1288   -0.5138   62.2023 H   0  0  0  0  0
   38.2128    0.5333   62.8666 H   0  0  0  0  0
   41.2916   -2.3820   63.9326 H   0  0  0  0  0
   34.9504   -2.0521   57.1271 H   0  0  0  0  0
   39.5750   -1.6801   66.4504 H   0  0  0  0  0
   36.6195   -1.5160   64.3263 H   0  0  0  0  0
   36.5541    0.0642   64.5916 H   0  0  0  0  0
   38.9093    0.2417   65.4301 H   0  0  0  0  0
   40.4820   -0.2940   63.6118 H   0  0  0  0  0
   37.7511   -5.1300   58.4348 H   0  0  0  0  0
   38.7969   -3.6150   59.7264 H   0  0  0  0  0
  1  5  4  0  0  0
 12  1  4  0  0  0
  2  7  1  0  0  0
 17  2  1  0  0  0
  3  8  1  0  0  0
 20  3  1  0  0  0
  9  4  1  0  0  0
  4 10  1  0  0  0
  4 21  1  0  0  0
  6  5  4  0  0  0
  5 17  1  0  0  0
 22  6  4  0  0  0
  7 20  1  0  0  0
 13  9  1  0  0  0
 10 15  1  0  0  0
 21 11  1  0  0  0
 23 12  4  0  0  0
 16 13  4  0  0  0
 13 25  4  0  0  0
 18 14  1  0  0  0
 18 15  1  0  0  0
 19 16  4  0  0  0
 21 18  1  0  0  0
 24 19  4  0  0  0
 23 22  4  0  0  0
 23 24  1  0  0  0
 24 25  4  0  0  0
  1 26  1  0  0  0
  2 27  1  0  0  0
  2 28  1  0  0  0
  3 29  1  0  0  0
  3 30  1  0  0  0
  4 31  1  0  0  0
  6 32  1  0  0  0
  7 33  1  0  0  0
  7 34  1  0  0  0
  8 35  1  0  0  0
  8 36  1  0  0  0
  8 37  1  0  0  0
  9 38  1  0  0  0
  9 39  1  0  0  0
 10 40  1  0  0  0
 10 41  1  0  0  0
 11 42  1  0  0  0
 12 43  1  0  0  0
 14 44  1  0  0  0
 15 45  1  0  0  0
 15 46  1  0  0  0
 18 47  1  0  0  0
 21 48  1  0  0  0
 22 49  1  0  0  0
 25 50  1  0  0  0
M  END
$$$$
