6h7n_ligand
  -I-interpret- 

 50 51  0  0  0  0  0  0  0  0999 V2000
  -17.3270  -34.0940    6.0430 C   0  0  0  0  0
  -15.2560  -33.7680    7.4740 C   0  0  0  0  0
  -15.1180  -32.0700    9.2160 C   0  0  0  0  0
  -17.3540  -34.1660    4.5350 C   0  0  0  0  0
  -15.5350  -35.7300    6.0030 C   0  0  0  0  0
  -15.5920  -35.6850    4.4980 C   0  0  0  0  0
  -14.0800  -34.0690    7.6670 O   0  0  0  0  0
  -19.6850  -32.9940   11.3470 O   0  0  0  0  0
  -18.2920  -31.0870   19.7690 O   0  0  0  0  0
  -18.3210  -33.2730   14.7050 O   0  0  0  0  0
  -16.9160  -35.4290    4.0480 O   0  0  0  0  0
  -16.0070  -34.4600    6.5490 N   0  0  0  0  0
  -15.8300  -32.8170    8.1870 N   0  0  0  0  0
  -16.0150  -31.6660   10.3690 C   0  0  0  0  0
  -17.0220  -32.6760   10.7040 N   0  3  0  0  0
  -17.4030  -32.6610   12.1170 C   0  0  0  0  0
  -18.7480  -33.3330   12.3600 C   0  0  0  0  0
  -19.2920  -32.9180   13.7100 C   0  0  0  0  0
  -18.3690  -32.6920   15.9480 C   0  0  0  0  0
  -17.3530  -33.0370   16.8290 C   0  0  0  0  0
  -17.3200  -32.5000   18.1080 C   0  0  0  0  0
  -18.3070  -31.6190   18.5190 C   0  0  0  0  0
  -19.3210  -31.2760   17.6430 C   0  0  0  0  0
  -19.3560  -31.8070   16.3650 C   0  0  0  0  0
  -18.0651  -34.7887    6.4439 H   0  0  0  0  0
  -17.5548  -33.0741    6.3529 H   0  0  0  0  0
  -14.7274  -31.1602    8.7602 H   0  0  0  0  0
  -14.3310  -32.7117    9.6122 H   0  0  0  0  0
  -16.6806  -33.4016    4.1474 H   0  0  0  0  0
  -18.3825  -34.0148    4.2071 H   0  0  0  0  0
  -14.5069  -35.9017    6.3217 H   0  0  0  0  0
  -16.1697  -36.5386    6.3656 H   0  0  0  0  0
  -15.2688  -36.6493    4.1060 H   0  0  0  0  0
  -14.9413  -34.8844    4.1463 H   0  0  0  0  0
  -20.5207  -33.4310   11.5265 H   0  0  0  0  0
  -19.0466  -30.5033   19.8762 H   0  0  0  0  0
  -16.8101  -32.5963    8.0109 H   0  0  0  0  0
  -16.5440  -30.7603   10.0722 H   0  0  0  0  0
  -15.3819  -31.5297   11.2458 H   0  0  0  0  0
  -16.6216  -33.5919   10.5008 H   0  0  0  0  0
  -17.8579  -32.4738   10.1556 H   0  0  0  0  0
  -17.4820  -31.6214   12.4350 H   0  0  0  0  0
  -16.6452  -33.2085   12.6775 H   0  0  0  0  0
  -18.5945  -34.4119   12.3379 H   0  0  0  0  0
  -19.4762  -31.8438   13.7287 H   0  0  0  0  0
  -20.2372  -33.4236   13.9077 H   0  0  0  0  0
  -16.5764  -33.7340   16.5140 H   0  0  0  0  0
  -16.5154  -32.7720   18.7912 H   0  0  0  0  0
  -20.0988  -30.5820   17.9615 H   0  0  0  0  0
  -20.1604  -31.5300   15.6836 H   0  0  0  0  0
  1  4  1  0  0  0
 12  1  1  0  0  0
  2  7  2  0  0  0
  2 12  1  0  0  0
 13  2  1  0  0  0
  3 13  1  0  0  0
 14  3  1  0  0  0
  4 11  1  0  0  0
  5  6  1  0  0  0
 12  5  1  0  0  0
  6 11  1  0  0  0
 17  8  1  0  0  0
 22  9  1  0  0  0
 10 18  1  0  0  0
 19 10  1  0  0  0
 15 14  1  0  0  0
 16 15  1  0  0  0
 17 16  1  0  0  0
 18 17  1  0  0  0
 20 19  4  0  0  0
 19 24  4  0  0  0
 21 20  4  0  0  0
 21 22  4  0  0  0
 22 23  4  0  0  0
 23 24  4  0  0  0
  1 25  1  0  0  0
  1 26  1  0  0  0
  3 27  1  0  0  0
  3 28  1  0  0  0
  4 29  1  0  0  0
  4 30  1  0  0  0
  5 31  1  0  0  0
  5 32  1  0  0  0
  6 33  1  0  0  0
  6 34  1  0  0  0
  8 35  1  0  0  0
  9 36  1  0  0  0
 13 37  1  0  0  0
 14 38  1  0  0  0
 14 39  1  0  0  0
 15 40  1  0  0  0
 15 41  1  0  0  0
 16 42  1  0  0  0
 16 43  1  0  0  0
 17 44  1  0  0  0
 18 45  1  0  0  0
 18 46  1  0  0  0
 20 47  1  0  0  0
 21 48  1  0  0  0
 23 49  1  0  0  0
 24 50  1  0  0  0
M  END
$$$$
