6q3y_ligand
  -I-interpret- 

 77 81  0  0  0  0  0  0  0  0999 V2000
   22.0800   12.4730   32.8170 O   0  0  0  0  0
   21.4840   11.7580   32.0210 C   0  0  0  0  0
   20.1050   11.7260   31.9560 N   0  0  0  0  0
   19.3730   12.5440   32.9190 C   0  0  0  0  0
   22.2420   10.7820   31.1370 C   0  0  0  0  0
   22.8210    9.6420   31.9770 C   0  0  0  0  0
   21.7430    8.7630   32.5850 C   0  0  0  0  0
   21.4650   10.2540   30.0070 N   0  0  0  0  0
   22.1840   10.0540   28.7440 C   0  0  0  0  0
   22.9460    8.7560   28.6280 C   0  0  0  0  0
   24.3330    8.7340   28.7070 C   0  0  0  0  0
   25.0340    7.5600   28.4950 C   0  0  0  0  0
   24.3620    6.3960   28.2010 C   0  0  0  0  0
   22.9840    6.4000   28.1400 C   0  0  0  0  0
   22.2800    7.5690   28.3570 C   0  0  0  0  0
   20.0740   10.1370   30.1000 C   0  0  0  0  0
   19.4010   10.7920   31.1600 C   0  0  0  0  0
   19.4420    9.3120   29.2440 N   0  0  0  0  0
   18.1260    9.1080   29.4830 C   0  0  0  0  0
   17.4050    9.6060   30.5080 N   0  0  0  0  0
   18.0610   10.4370   31.3330 C   0  0  0  0  0
   17.4680    8.4180   28.5030 N   0  0  0  0  0
   16.1120    8.2540   28.1990 C   0  0  0  0  0
   15.0980    8.9320   28.8710 C   0  0  0  0  0
   13.7920    8.8420   28.4230 C   0  0  0  0  0
   13.4610    8.0790   27.3110 C   0  0  0  0  0
   14.4620    7.3450   26.6750 C   0  0  0  0  0
   15.7790    7.4410   27.1120 C   0  0  0  0  0
   16.8500    6.8020   26.5360 O   0  0  0  0  0
   16.6100    5.6480   25.7110 C   0  0  0  0  0
   17.9600    5.1460   25.2180 C   0  0  0  0  0
   12.0710    8.1740   26.7090 C   0  0  0  0  0
   11.7450    9.5890   26.2180 C   0  0  0  0  0
   10.3350    9.6540   25.6370 C   0  0  0  0  0
    9.3390    9.2440   26.6250 N   0  3  0  0  0
    7.9830    9.4000   26.0890 C   0  0  0  0  0
    9.5840    7.8570   27.0180 C   0  0  0  0  0
   10.9650    7.7020   27.6620 C   0  0  0  0  0
   18.6295   13.1435   32.3937 H   0  0  0  0  0
   18.8753   11.8958   33.6403 H   0  0  0  0  0
   20.0697   13.2012   33.4394 H   0  0  0  0  0
   23.0505   11.3576   30.6863 H   0  0  0  0  0
   23.3952   10.0826   32.7920 H   0  0  0  0  0
   23.4334    9.0203   31.3239 H   0  0  0  0  0
   21.1054    9.3665   33.2309 H   0  0  0  0  0
   21.1429    8.3228   31.7886 H   0  0  0  0  0
   22.2094    7.9707   33.1705 H   0  0  0  0  0
   22.9215   10.8538   28.6769 H   0  0  0  0  0
   21.4305   10.0428   27.9565 H   0  0  0  0  0
   24.8746    9.6512   28.9384 H   0  0  0  0  0
   26.1220    7.5574   28.5611 H   0  0  0  0  0
   24.9157    5.4753   28.0172 H   0  0  0  0  0
   22.4480    5.4768   27.9196 H   0  0  0  0  0
   21.1909    7.5588   28.3149 H   0  0  0  0  0
   17.5204   10.8564   32.1815 H   0  0  0  0  0
   18.0911    7.9231   27.8649 H   0  0  0  0  0
   15.3331    9.5332   29.7493 H   0  0  0  0  0
   13.0071    9.3809   28.9537 H   0  0  0  0  0
   14.2122    6.6962   25.8355 H   0  0  0  0  0
   15.9706    5.9096   24.8679 H   0  0  0  0  0
   16.1010    4.8715   26.2820 H   0  0  0  0  0
   18.4496    5.9308   24.6414 H   0  0  0  0  0
   18.5816    4.8800   26.0730 H   0  0  0  0  0
   17.8120    4.2690   24.5879 H   0  0  0  0  0
   12.0926    7.4970   25.8550 H   0  0  0  0  0
   12.4573    9.8622   25.4395 H   0  0  0  0  0
   11.8077   10.2756   27.0622 H   0  0  0  0  0
   10.2781    8.9784   24.7835 H   0  0  0  0  0
   10.1278   10.6817   25.3388 H   0  0  0  0  0
    9.4196    9.8418   27.4475 H   0  0  0  0  0
    7.8140   10.4453   25.8302 H   0  0  0  0  0
    7.8723    8.7813   25.1984 H   0  0  0  0  0
    7.2583    9.0890   26.8414 H   0  0  0  0  0
    9.5420    7.2296   26.1277 H   0  0  0  0  0
    8.8259    7.5608   27.7430 H   0  0  0  0  0
   10.9996    8.3092   28.5665 H   0  0  0  0  0
   11.1275    6.6492   27.8928 H   0  0  0  0  0
  1  2  2  0  0  0
  2  3  1  0  0  0
  2  5  1  0  0  0
  3  4  1  0  0  0
  3 17  1  0  0  0
  5  6  1  0  0  0
  5  8  1  0  0  0
  6  7  1  0  0  0
  8  9  1  0  0  0
  8 16  1  0  0  0
  9 10  1  0  0  0
 10 11  4  0  0  0
 10 15  4  0  0  0
 11 12  4  0  0  0
 12 13  4  0  0  0
 13 14  4  0  0  0
 14 15  4  0  0  0
 16 17  4  0  0  0
 16 18  4  0  0  0
 17 21  4  0  0  0
 18 19  4  0  0  0
 19 20  4  0  0  0
 19 22  1  0  0  0
 20 21  4  0  0  0
 22 23  1  0  0  0
 23 24  4  0  0  0
 23 28  4  0  0  0
 24 25  4  0  0  0
 25 26  4  0  0  0
 26 27  4  0  0  0
 26 32  1  0  0  0
 27 28  4  0  0  0
 28 29  1  0  0  0
 29 30  1  0  0  0
 30 31  1  0  0  0
 32 33  1  0  0  0
 32 38  1  0  0  0
 33 34  1  0  0  0
 34 35  1  0  0  0
 35 36  1  0  0  0
 35 37  1  0  0  0
 37 38  1  0  0  0
  4 39  1  0  0  0
  4 40  1  0  0  0
  4 41  1  0  0  0
  5 42  1  0  0  0
  6 43  1  0  0  0
  6 44  1  0  0  0
  7 45  1  0  0  0
  7 46  1  0  0  0
  7 47  1  0  0  0
  9 48  1  0  0  0
  9 49  1  0  0  0
 11 50  1  0  0  0
 12 51  1  0  0  0
 13 52  1  0  0  0
 14 53  1  0  0  0
 15 54  1  0  0  0
 21 55  1  0  0  0
 22 56  1  0  0  0
 24 57  1  0  0  0
 25 58  1  0  0  0
 27 59  1  0  0  0
 30 60  1  0  0  0
 30 61  1  0  0  0
 31 62  1  0  0  0
 31 63  1  0  0  0
 31 64  1  0  0  0
 32 65  1  0  0  0
 33 66  1  0  0  0
 33 67  1  0  0  0
 34 68  1  0  0  0
 34 69  1  0  0  0
 35 70  1  0  0  0
 36 71  1  0  0  0
 36 72  1  0  0  0
 36 73  1  0  0  0
 37 74  1  0  0  0
 37 75  1  0  0  0
 38 76  1  0  0  0
 38 77  1  0  0  0
M  END
$$$$
