2jf4_ligand
  -I-interpret- 

 49 50  0  0  0  0  0  0  0  0999 V2000
   29.3480   51.1170   15.0070 O   0  0  0  0  0
   30.4530   51.0700   14.1080 C   0  0  0  0  0
   30.1730   52.1660   13.1190 C   0  0  0  0  0
   29.6470   51.8400   11.9170 C   0  0  0  0  0
   30.4060   53.5980   13.5600 C   0  0  0  0  0
   31.6810   53.8010   14.1500 O   0  0  0  0  0
   30.2820   54.5860   12.4220 C   0  0  0  0  0
   30.2030   55.8860   13.0200 O   0  0  0  0  0
   29.0530   54.2270   11.5790 C   0  0  0  0  0
   28.7160   55.3020   10.6960 O   0  0  0  0  0
   29.3270   52.8890   10.8540 C   0  0  0  0  0
   30.4380   52.9570    9.8930 N   0  3  0  0  0
   31.1980   51.7480    9.5260 C   0  0  0  0  0
   32.6950   51.9990    9.3400 C   0  0  0  0  0
   33.2030   52.8780   10.3480 O   0  0  0  0  0
   30.5730   50.9450    8.3630 C   0  0  0  0  0
   31.0630   51.3040    6.9550 C   0  0  0  0  0
   30.5460   50.3000    5.9240 C   0  0  0  0  0
   29.1050   50.2800    5.9320 O   0  0  0  0  0
   32.5910   51.4640    6.9100 C   0  0  0  0  0
   33.0270   51.8160    5.5890 O   0  0  0  0  0
   33.0170   52.5180    7.9340 C   0  0  0  0  0
   34.4160   52.7770    7.7980 O   0  0  0  0  0
   29.4536   50.4384   15.6778 H   0  0  0  0  0
   30.5493   50.0970   13.6263 H   0  0  0  0  0
   31.4049   51.2120   14.6197 H   0  0  0  0  0
   29.4441   50.7915   11.6988 H   0  0  0  0  0
   29.6250   53.7724   14.3000 H   0  0  0  0  0
   31.7958   53.1881   14.8799 H   0  0  0  0  0
   31.1329   54.5645   11.7412 H   0  0  0  0  0
   30.9983   56.0503   13.5320 H   0  0  0  0  0
   28.1762   54.0856   12.2109 H   0  0  0  0  0
   27.9455   55.0591   10.1774 H   0  0  0  0  0
   28.4378   52.6353   10.2769 H   0  0  0  0  0
   31.1268   53.5527   10.3524 H   0  0  0  0  0
   29.9940   53.2448    9.0210 H   0  0  0  0  0
   31.1157   51.0999   10.3985 H   0  0  0  0  0
   33.1987   51.0387    9.4508 H   0  0  0  0  0
   34.1423   53.0168   10.2061 H   0  0  0  0  0
   29.5055   51.1645    8.3797 H   0  0  0  0  0
   30.8514   49.9040    8.5268 H   0  0  0  0  0
   30.6472   52.2760    6.6897 H   0  0  0  0  0
   30.9190   49.3067    6.1735 H   0  0  0  0  0
   30.8943   50.5928    4.9335 H   0  0  0  0  0
   28.7913   49.6471    5.2819 H   0  0  0  0  0
   33.0621   50.5145    7.1640 H   0  0  0  0  0
   33.9823   51.9108    5.5832 H   0  0  0  0  0
   32.4771   53.4498    7.7658 H   0  0  0  0  0
   34.5958   53.1005    6.9122 H   0  0  0  0  0
  1  2  1  0  0  0
  2  3  1  0  0  0
  3  4  2  0  0  0
  3  5  1  0  0  0
  4 11  1  0  0  0
  5  6  1  0  0  0
  5  7  1  0  0  0
  7  8  1  0  0  0
  7  9  1  0  0  0
  9 10  1  0  0  0
  9 11  1  0  0  0
 11 12  1  0  0  0
 12 13  1  0  0  0
 13 14  1  0  0  0
 13 16  1  0  0  0
 14 15  1  0  0  0
 14 22  1  0  0  0
 16 17  1  0  0  0
 17 18  1  0  0  0
 17 20  1  0  0  0
 18 19  1  0  0  0
 20 21  1  0  0  0
 20 22  1  0  0  0
 22 23  1  0  0  0
  1 24  1  0  0  0
  2 25  1  0  0  0
  2 26  1  0  0  0
  4 27  1  0  0  0
  5 28  1  0  0  0
  6 29  1  0  0  0
  7 30  1  0  0  0
  8 31  1  0  0  0
  9 32  1  0  0  0
 10 33  1  0  0  0
 11 34  1  0  0  0
 12 35  1  0  0  0
 12 36  1  0  0  0
 13 37  1  0  0  0
 14 38  1  0  0  0
 15 39  1  0  0  0
 16 40  1  0  0  0
 16 41  1  0  0  0
 17 42  1  0  0  0
 18 43  1  0  0  0
 18 44  1  0  0  0
 19 45  1  0  0  0
 20 46  1  0  0  0
 21 47  1  0  0  0
 22 48  1  0  0  0
 23 49  1  0  0  0
M  END
$$$$
