6m87_ligand
  -I-interpret- 

 42 45  0  0  0  0  0  0  0  0999 V2000
   37.7130  -30.9880  -23.0590 O   0  0  0  0  0
   36.6910  -31.5230  -23.9310 S   0  0  0  0  0
   35.4930  -30.6620  -23.9900 O   0  0  0  0  0
   36.3570  -32.9140  -23.7170 O   0  0  0  0  0
   37.2780  -31.3850  -25.5960 C   0  0  0  0  0
   37.2440  -32.5260  -26.3690 C   0  0  0  0  0
   37.7010  -32.5150  -27.6710 C   0  0  0  0  0
   37.5910  -34.0320  -28.5680 S   0  0  0  0  0
   38.9310  -34.4610  -28.9000 O   0  0  0  0  0
   36.8230  -33.6100  -29.7730 O   0  0  0  0  0
   36.8230  -34.9220  -27.7290 O   0  0  0  0  0
   38.2280  -31.3180  -28.2510 C   0  0  0  0  0
   38.7250  -31.2550  -29.5800 C   0  0  0  0  0
   39.2220  -30.1110  -30.1000 C   0  0  0  0  0
   37.7830  -30.1560  -26.1270 C   0  0  0  0  0
   38.2620  -30.1370  -27.4660 C   0  0  0  0  0
   38.7850  -28.9310  -28.0160 C   0  0  0  0  0
   39.2740  -28.9090  -29.3480 C   0  0  0  0  0
   37.8340  -28.9510  -25.3780 C   0  0  0  0  0
   38.3290  -27.8080  -25.9030 C   0  0  0  0  0
   38.8250  -27.7570  -27.2320 C   0  0  0  0  0
   39.3680  -26.5700  -27.7980 C   0  0  0  0  0
   39.3940  -25.5020  -26.9570 O   0  0  0  0  0
   39.9830  -24.2940  -27.4310 C   0  0  0  0  0
   39.8420  -26.5450  -29.0890 C   0  0  0  0  0
   39.8040  -27.6860  -29.8650 C   0  0  0  0  0
   40.4380  -27.5710  -31.5120 S   0  0  0  0  0
   41.5440  -28.4960  -31.6190 O   0  0  0  0  0
   39.3390  -27.8040  -32.4220 O   0  0  0  0  0
   40.8960  -26.1580  -31.5500 O   0  0  0  0  0
   34.8454  -31.0566  -24.5786 H   0  0  0  0  0
   36.8505  -33.4501  -25.9456 H   0  0  0  0  0
   35.9423  -33.3338  -29.5092 H   0  0  0  0  0
   38.7050  -32.1534  -30.1970 H   0  0  0  0  0
   39.5930  -30.1117  -31.1249 H   0  0  0  0  0
   37.4643  -28.9475  -24.3526 H   0  0  0  0  0
   38.3477  -26.9054  -25.2922 H   0  0  0  0  0
   41.0256  -24.4772  -27.6910 H   0  0  0  0  0
   39.4425  -23.9493  -28.3126 H   0  0  0  0  0
   39.9298  -23.5348  -26.6507 H   0  0  0  0  0
   40.2489  -25.6213  -29.5006 H   0  0  0  0  0
   40.1370  -25.5747  -31.4768 H   0  0  0  0  0
  1  2  2  0  0  0
  2  3  1  0  0  0
  2  4  2  0  0  0
  2  5  1  0  0  0
  5  6  4  0  0  0
  5 15  4  0  0  0
  6  7  4  0  0  0
  7  8  1  0  0  0
  7 12  4  0  0  0
  8  9  2  0  0  0
  8 10  1  0  0  0
  8 11  2  0  0  0
 12 13  4  0  0  0
 12 16  4  0  0  0
 13 14  4  0  0  0
 14 18  4  0  0  0
 15 16  4  0  0  0
 15 19  4  0  0  0
 16 17  4  0  0  0
 17 18  4  0  0  0
 17 21  4  0  0  0
 18 26  4  0  0  0
 19 20  4  0  0  0
 20 21  4  0  0  0
 21 22  4  0  0  0
 22 23  1  0  0  0
 22 25  4  0  0  0
 23 24  1  0  0  0
 25 26  4  0  0  0
 26 27  1  0  0  0
 27 28  2  0  0  0
 27 29  2  0  0  0
 27 30  1  0  0  0
  3 31  1  0  0  0
  6 32  1  0  0  0
 10 33  1  0  0  0
 13 34  1  0  0  0
 14 35  1  0  0  0
 19 36  1  0  0  0
 20 37  1  0  0  0
 24 38  1  0  0  0
 24 39  1  0  0  0
 24 40  1  0  0  0
 25 41  1  0  0  0
 30 42  1  0  0  0
M  END
$$$$
