2ieh_ligand
  -I-interpret- 

 42 44  0  0  0  0  0  0  0  0999 V2000
   14.6600   14.6660  109.5560 S   0  0  0  0  0
   21.2020   13.7110  109.2170 O   0  0  0  0  0
   16.6150   12.0640  114.3700 O   0  0  0  0  0
   17.0780   13.5100  109.5230 N   0  0  0  0  0
   17.0260   15.8300  109.9770 N   0  0  0  0  0
   16.3040   14.7030  109.6980 C   0  0  0  0  0
   18.3760   16.0070  109.4770 C   0  0  0  0  0
   19.1320   14.8240  109.3080 C   0  0  0  0  0
   18.5210   13.5690  110.0080 C   0  0  0  0  0
   16.3840   16.9090  110.7740 C   0  0  0  0  0
   18.7650   17.4390  109.1780 C   0  0  0  0  0
   20.5210   14.6170  108.7450 C   0  0  0  0  0
   21.0490   15.4470  107.5960 C   0  0  0  0  0
   22.4350   15.7570  107.5530 C   0  0  0  0  0
   22.9460   16.5510  106.4750 C   0  0  0  0  0
   22.0600   17.0210  105.4450 C   0  0  0  0  0
   20.7170   16.7080  105.5030 C   0  0  0  0  0
   20.1940   15.9260  106.5540 C   0  0  0  0  0
   18.5630   13.6270  111.5970 C   0  0  0  0  0
   17.5950   12.8310  112.2970 C   0  0  0  0  0
   17.5560   12.8310  113.7220 C   0  0  0  0  0
   18.4720   13.6180  114.4650 C   0  0  0  0  0
   19.4210   14.3940  113.7940 C   0  0  0  0  0
   19.4770   14.4090  112.3710 C   0  0  0  0  0
   16.7161   12.1695  115.3188 H   0  0  0  0  0
   16.6856   12.6698  109.0982 H   0  0  0  0  0
   19.1050   12.6851  109.7517 H   0  0  0  0  0
   16.9759   17.0989  111.6694 H   0  0  0  0  0
   16.3280   17.8176  110.1744 H   0  0  0  0  0
   15.3791   16.5986  111.0603 H   0  0  0  0  0
   19.6386   17.7083  109.7716 H   0  0  0  0  0
   19.0002   17.5365  108.1181 H   0  0  0  0  0
   17.9354   18.0996  109.4297 H   0  0  0  0  0
   23.1039   15.3940  108.3333 H   0  0  0  0  0
   24.0068   16.7987  106.4360 H   0  0  0  0  0
   22.4471   17.6218  104.6220 H   0  0  0  0  0
   20.0485   17.0716  104.7226 H   0  0  0  0  0
   19.1311   15.6851  106.5723 H   0  0  0  0  0
   16.8856   12.2230  111.7356 H   0  0  0  0  0
   18.4361   13.6177  115.5544 H   0  0  0  0  0
   20.1271   14.9952  114.3668 H   0  0  0  0  0
   20.2237   15.0224  111.8668 H   0  0  0  0  0
  6  1  2  0  0  0
 12  2  2  0  0  0
 21  3  1  0  0  0
  4  6  1  0  0  0
  9  4  1  0  0  0
  6  5  1  0  0  0
  7  5  1  0  0  0
  5 10  1  0  0  0
  8  7  2  0  0  0
  7 11  1  0  0  0
  9  8  1  0  0  0
  8 12  1  0  0  0
 19  9  1  0  0  0
 12 13  1  0  0  0
 13 14  4  0  0  0
 13 18  4  0  0  0
 14 15  4  0  0  0
 15 16  4  0  0  0
 17 16  4  0  0  0
 18 17  4  0  0  0
 20 19  4  0  0  0
 19 24  4  0  0  0
 20 21  4  0  0  0
 21 22  4  0  0  0
 22 23  4  0  0  0
 23 24  4  0  0  0
  3 25  1  0  0  0
  4 26  1  0  0  0
  9 27  1  0  0  0
 10 28  1  0  0  0
 10 29  1  0  0  0
 10 30  1  0  0  0
 11 31  1  0  0  0
 11 32  1  0  0  0
 11 33  1  0  0  0
 14 34  1  0  0  0
 15 35  1  0  0  0
 16 36  1  0  0  0
 17 37  1  0  0  0
 18 38  1  0  0  0
 20 39  1  0  0  0
 22 40  1  0  0  0
 23 41  1  0  0  0
 24 42  1  0  0  0
M  END
$$$$
