1r1h_ligand
  -I-interpret- 

 57 58  0  0  0  0  0  0  0  0999 V2000
   27.8590   41.3560   29.9450 C   0  0  0  0  0
   27.7080   42.3620   31.0920 C   0  0  0  0  0
   26.4000   42.9990   31.0150 N   0  3  0  0  0
   29.0160   43.5020   31.0260 P   0  0  0  0  0
   30.2300   42.6500   31.2230 O   0  0  0  0  0
   28.9360   44.3150   29.7670 O   0  0  0  0  0
   28.8610   44.5560   32.3940 C   0  0  0  0  0
   30.1480   44.7420   33.2110 C   0  0  0  0  0
   30.3750   43.5780   34.1410 C   0  0  0  0  0
   31.5010   43.1770   34.3910 O   0  0  0  0  0
   29.3100   42.9860   34.6650 N   0  0  0  0  0
   29.5280   41.9220   35.6310 C   0  0  0  0  0
   29.4470   42.4720   37.0530 C   0  0  0  0  0
   28.5250   40.8350   35.4610 C   0  0  0  0  0
   27.6000   40.9770   34.6580 O   0  0  0  0  0
   28.6470   39.8160   36.1230 O   0  0  0  0  0
   30.0520   46.0510   34.0090 C   0  0  0  0  0
   31.3280   46.3400   34.7470 C   0  0  0  0  0
   31.3180   46.4890   36.1320 C   0  0  0  0  0
   32.5010   46.7400   36.8190 C   0  0  0  0  0
   33.7170   46.8410   36.1310 C   0  0  0  0  0
   33.7170   46.6950   34.7390 C   0  0  0  0  0
   32.5330   46.4480   34.0540 C   0  0  0  0  0
   34.9700   47.0860   36.8550 C   0  0  0  0  0
   36.1210   46.3480   36.5520 C   0  0  0  0  0
   37.3100   46.5740   37.2400 C   0  0  0  0  0
   37.3650   47.5440   38.2380 C   0  0  0  0  0
   36.2260   48.2850   38.5470 C   0  0  0  0  0
   35.0370   48.0560   37.8620 C   0  0  0  0  0
   27.8357   41.8862   28.9929 H   0  0  0  0  0
   28.8087   40.8308   30.0467 H   0  0  0  0  0
   27.0396   40.6382   29.9827 H   0  0  0  0  0
   27.7609   41.8585   32.0573 H   0  0  0  0  0
   25.6725   42.2853   31.0581 H   0  0  0  0  0
   26.2911   43.6449   31.7969 H   0  0  0  0  0
   26.3238   43.5112   30.1362 H   0  0  0  0  0
   28.1156   44.8136   29.7610 H   0  0  0  0  0
   28.1253   44.1050   33.0599 H   0  0  0  0  0
   28.5858   45.5376   32.0082 H   0  0  0  0  0
   30.9958   44.7887   32.5275 H   0  0  0  0  0
   28.3670   43.2687   34.3983 H   0  0  0  0  0
   30.5227   41.5112   35.4579 H   0  0  0  0  0
   30.2101   43.2384   37.1888 H   0  0  0  0  0
   28.4609   42.9062   37.2176 H   0  0  0  0  0
   29.6124   41.6627   37.7642 H   0  0  0  0  0
   27.6725   41.8366   34.2368 H   0  0  0  0  0
   29.2464   45.9536   34.7368 H   0  0  0  0  0
   29.8635   46.8675   33.3120 H   0  0  0  0  0
   30.3790   46.4085   36.6797 H   0  0  0  0  0
   32.4817   46.8592   37.9023 H   0  0  0  0  0
   34.6536   46.7757   34.1873 H   0  0  0  0  0
   32.5467   46.3382   32.9696 H   0  0  0  0  0
   36.0856   45.5894   35.7701 H   0  0  0  0  0
   38.1987   45.9913   36.9974 H   0  0  0  0  0
   38.2961   47.7230   38.7757 H   0  0  0  0  0
   36.2667   49.0454   39.3269 H   0  0  0  0  0
   34.1494   48.6373   38.1117 H   0  0  0  0  0
  1  2  1  0  0  0
  2  3  1  0  0  0
  2  4  1  0  0  0
  4  5  2  0  0  0
  4  6  1  0  0  0
  4  7  1  0  0  0
  7  8  1  0  0  0
  8  9  1  0  0  0
  8 17  1  0  0  0
  9 10  2  0  0  0
  9 11  1  0  0  0
 11 12  1  0  0  0
 12 13  1  0  0  0
 12 14  1  0  0  0
 14 15  1  0  0  0
 14 16  2  0  0  0
 17 18  1  0  0  0
 18 19  4  0  0  0
 18 23  4  0  0  0
 19 20  4  0  0  0
 20 21  4  0  0  0
 21 22  4  0  0  0
 21 24  1  0  0  0
 22 23  4  0  0  0
 24 25  4  0  0  0
 24 29  4  0  0  0
 25 26  4  0  0  0
 26 27  4  0  0  0
 27 28  4  0  0  0
 28 29  4  0  0  0
  1 30  1  0  0  0
  1 31  1  0  0  0
  1 32  1  0  0  0
  2 33  1  0  0  0
  3 34  1  0  0  0
  3 35  1  0  0  0
  3 36  1  0  0  0
  6 37  1  0  0  0
  7 38  1  0  0  0
  7 39  1  0  0  0
  8 40  1  0  0  0
 11 41  1  0  0  0
 12 42  1  0  0  0
 13 43  1  0  0  0
 13 44  1  0  0  0
 13 45  1  0  0  0
 15 46  1  0  0  0
 17 47  1  0  0  0
 17 48  1  0  0  0
 19 49  1  0  0  0
 20 50  1  0  0  0
 22 51  1  0  0  0
 23 52  1  0  0  0
 25 53  1  0  0  0
 26 54  1  0  0  0
 27 55  1  0  0  0
 28 56  1  0  0  0
 29 57  1  0  0  0
M  END
$$$$
