6j1l_ligand
  -I-interpret- 

 58 60  0  0  0  0  0  0  0  0999 V2000
   28.9030   -1.8210   -4.3040 C   0  0  0  0  0
   29.6550   -0.8030   -3.7320 C   0  0  0  0  0
   30.2240   -0.9830   -2.4850 C   0  0  0  0  0
   30.0630   -2.1690   -1.7870 C   0  0  0  0  0
   29.3030   -3.1840   -2.3620 C   0  0  0  0  0
   28.7210   -2.9930   -3.6050 C   0  0  0  0  0
   27.9200   -4.1040   -4.2520 C   0  0  0  0  0
   29.0060   -5.1150   -4.6130 C   0  0  0  0  0
   30.2650   -7.1890   -3.8020 C   0  0  0  0  0
   30.5130   -7.9700   -2.6900 C   0  0  0  0  0
   31.4250   -9.0120   -2.7570 C   0  0  0  0  0
   32.0710   -9.2430   -3.9540 C   0  0  0  0  0
   31.8350   -8.4610   -5.0740 C   0  0  0  0  0
   30.9090   -7.4280   -5.0110 C   0  0  0  0  0
   33.0900  -10.3540   -4.1210 C   0  0  0  0  0
   34.3430  -10.3110   -3.5430 C   0  0  0  0  0
   35.2300  -11.3690   -3.7710 C   0  0  0  0  0
   34.8440  -12.4150   -4.6060 C   0  0  0  0  0
   33.5960  -12.4140   -5.1800 C   0  0  0  0  0
   32.7210  -11.3760   -4.9470 C   0  0  0  0  0
   35.7430  -13.6100   -4.9440 C   0  0  0  0  0
   35.9220  -14.4830   -3.7230 C   0  0  0  0  0
   37.0220  -13.1200   -5.6170 C   0  0  0  0  0
   32.7940    0.4930   -2.6780 C   0  0  0  0  0
   33.4790   -0.8730   -2.5840 C   0  0  0  0  0
   34.6840   -9.2650   -2.7290 F   0  0  0  0  0
   37.8000  -14.2200   -5.8420 F   0  0  0  0  0
   37.7080  -12.1920   -4.8830 F   0  0  0  0  0
   36.6510  -12.5490   -6.8120 F   0  0  0  0  0
   36.4270  -13.7730   -2.6840 F   0  0  0  0  0
   36.7840  -15.4660   -4.0540 F   0  0  0  0  0
   34.6980  -15.0190   -3.4210 F   0  0  0  0  0
   29.2820   -6.1390   -3.6320 N   0  0  0  0  0
   35.1550  -14.4430   -5.9140 O   0  0  0  0  0
   31.5440    0.1410   -0.2500 O   0  0  0  0  0
   30.3550    1.7660   -2.1200 O   0  0  0  0  0
   29.6150   -5.0160   -5.6230 O   0  0  0  0  0
   31.1960    0.3900   -1.8290 S   0  0  0  0  0
   28.4629   -1.6937   -5.2930 H   0  0  0  0  0
   29.7964    0.1368   -4.2657 H   0  0  0  0  0
   30.5220   -2.3046   -0.8077 H   0  0  0  0  0
   29.1659   -4.1281   -1.8348 H   0  0  0  0  0
   27.3391   -3.7710   -5.1121 H   0  0  0  0  0
   27.1493   -4.5148   -3.5998 H   0  0  0  0  0
   29.9895   -7.7662   -1.7559 H   0  0  0  0  0
   31.6268   -9.6339   -1.8849 H   0  0  0  0  0
   32.3744   -8.6562   -6.0009 H   0  0  0  0  0
   30.6921   -6.8189   -5.8885 H   0  0  0  0  0
   36.2130  -11.3746   -3.3000 H   0  0  0  0  0
   33.2960  -13.2404   -5.8244 H   0  0  0  0  0
   31.7389  -11.3708   -5.4199 H   0  0  0  0  0
   32.6447    0.7646   -3.7230 H   0  0  0  0  0
   33.4166    1.2558   -2.2105 H   0  0  0  0  0
   33.6286   -1.1316   -1.5358 H   0  0  0  0  0
   32.8510   -1.6264   -3.0594 H   0  0  0  0  0
   34.4434   -0.8300   -3.0901 H   0  0  0  0  0
   28.7494   -6.1213   -2.7623 H   0  0  0  0  0
   35.7428  -15.1786   -6.1013 H   0  0  0  0  0
  2  1  4  0  0  0
  1  6  4  0  0  0
  3  2  4  0  0  0
  3  4  4  0  0  0
 38  3  1  0  0  0
  4  5  4  0  0  0
  5  6  4  0  0  0
  6  7  1  0  0  0
  7  8  1  0  0  0
  8 33  1  0  0  0
  8 37  2  0  0  0
  9 10  4  0  0  0
  9 14  4  0  0  0
 33  9  1  0  0  0
 10 11  4  0  0  0
 11 12  4  0  0  0
 13 12  4  0  0  0
 12 15  1  0  0  0
 14 13  4  0  0  0
 15 16  4  0  0  0
 15 20  4  0  0  0
 16 17  4  0  0  0
 16 26  1  0  0  0
 17 18  4  0  0  0
 19 18  4  0  0  0
 18 21  1  0  0  0
 20 19  4  0  0  0
 21 22  1  0  0  0
 21 23  1  0  0  0
 21 34  1  0  0  0
 22 30  1  0  0  0
 22 31  1  0  0  0
 22 32  1  0  0  0
 23 27  1  0  0  0
 23 28  1  0  0  0
 23 29  1  0  0  0
 24 25  1  0  0  0
 24 38  1  0  0  0
 38 35  2  0  0  0
 38 36  2  0  0  0
  1 39  1  0  0  0
  2 40  1  0  0  0
  4 41  1  0  0  0
  5 42  1  0  0  0
  7 43  1  0  0  0
  7 44  1  0  0  0
 10 45  1  0  0  0
 11 46  1  0  0  0
 13 47  1  0  0  0
 14 48  1  0  0  0
 17 49  1  0  0  0
 19 50  1  0  0  0
 20 51  1  0  0  0
 24 52  1  0  0  0
 24 53  1  0  0  0
 25 54  1  0  0  0
 25 55  1  0  0  0
 25 56  1  0  0  0
 33 57  1  0  0  0
 34 58  1  0  0  0
M  END
$$$$
