6db3_ligand
  -I-interpret- 

 36 39  0  0  0  0  0  0  0  0999 V2000
    1.4540   12.1120   -3.5750 N   0  0  0  0  0
   -3.0020   17.6710   -5.4660 C   0  0  0  0  0
    2.6500   14.1490   -3.0120 N   0  0  0  0  0
   -4.1740   18.2840   -6.1940 C   0  0  0  0  0
   -1.6130   15.7120   -5.4680 C   0  0  0  0  0
   -3.6280   16.0350   -7.1280 C   0  0  0  0  0
    1.5740   13.4630   -3.4570 C   0  0  0  0  0
   -4.3320   17.4040   -7.4570 C   0  0  0  0  0
   -4.0120   12.7550   -5.9180 N   0  0  0  0  0
   -0.5070   12.9380   -4.2590 C   0  0  0  0  0
   -0.8230   16.2300   -4.4390 C   0  0  0  0  0
   -1.1470   17.4880   -3.9360 C   0  0  0  0  0
   -2.2210   18.2000   -4.4400 C   0  0  0  0  0
   -2.6970   16.4190   -5.9880 C   0  0  0  0  0
   -2.8430   15.5180   -8.3380 C   0  0  0  0  0
    0.3190   15.4450   -3.8970 C   0  0  0  0  0
    1.3830   16.1450   -3.4690 N   0  0  0  0  0
    2.4590   15.4690   -3.0490 C   0  0  0  0  0
    0.3250   14.0470   -3.9000 C   0  0  0  0  0
    0.2100   11.8040   -4.0530 C   0  0  0  0  0
   -4.6700   15.0750   -6.6600 N   0  0  0  0  0
   -4.3600   13.8120   -6.2440 C   0  0  0  0  0
   -4.0053   19.3325   -6.4395 H   0  0  0  0  0
   -5.0775   18.2979   -5.5845 H   0  0  0  0  0
   -1.3760   14.7292   -5.8754 H   0  0  0  0  0
   -3.8796   17.8798   -8.3270 H   0  0  0  0  0
   -5.3832   17.2562   -7.7044 H   0  0  0  0  0
   -1.5303   12.9943   -4.6303 H   0  0  0  0  0
   -0.5461   17.9174   -3.1343 H   0  0  0  0  0
   -2.4581   19.1823   -4.0314 H   0  0  0  0  0
   -3.5249   15.3693   -9.1753 H   0  0  0  0  0
   -2.0808   16.2469   -8.6135 H   0  0  0  0  0
   -2.3668   14.5712   -8.0830 H   0  0  0  0  0
    3.2891   16.0772   -2.6896 H   0  0  0  0  0
   -0.1532   10.7937   -4.2413 H   0  0  0  0  0
   -5.6458   15.3720   -6.6505 H   0  0  0  0  0
  7  1  4  0  0  0
 20  1  4  0  0  0
  2  4  1  0  0  0
  2 13  4  0  0  0
 14  2  4  0  0  0
  7  3  4  0  0  0
 18  3  4  0  0  0
  8  4  1  0  0  0
  5 11  4  0  0  0
 14  5  4  0  0  0
  6  8  1  0  0  0
  6 14  1  0  0  0
  6 15  1  0  0  0
 21  6  1  0  0  0
 19  7  4  0  0  0
 22  9  3  0  0  0
 19 10  4  0  0  0
 10 20  4  0  0  0
 11 12  4  0  0  0
 11 16  1  0  0  0
 13 12  4  0  0  0
 16 17  4  0  0  0
 16 19  4  0  0  0
 17 18  4  0  0  0
 21 22  1  0  0  0
  4 23  1  0  0  0
  4 24  1  0  0  0
  5 25  1  0  0  0
  8 26  1  0  0  0
  8 27  1  0  0  0
 10 28  1  0  0  0
 12 29  1  0  0  0
 13 30  1  0  0  0
 15 31  1  0  0  0
 15 32  1  0  0  0
 15 33  1  0  0  0
 18 34  1  0  0  0
 20 35  1  0  0  0
 21 36  1  0  0  0
M  END
$$$$
