4kip_ligand
  -I-interpret- 

 44 47  0  0  0  0  0  0  0  0999 V2000
   38.8660    2.7110   32.6030 C   0  0  0  0  0
   37.5410    3.1540   32.8340 C   0  0  0  0  0
   36.4800    2.6370   32.0910 C   0  0  0  0  0
   36.6950    1.6380   31.1450 C   0  0  0  0  0
   37.9920    1.1720   30.9360 C   0  0  0  0  0
   39.0520    1.7070   31.6480 C   0  0  0  0  0
   40.0490    3.3300   33.3080 C   0  0  0  0  0
   35.4970    1.1610   30.3850 C   0  0  0  0  0
   35.7000    0.1740   29.4940 N   0  0  0  0  0
   34.3980    1.6850   30.5560 O   0  0  0  0  0
   34.6210   -0.4600   28.7360 C   0  0  0  0  0
   34.8920   -0.8590   27.3460 C   0  0  0  0  0
   34.0070    0.2860   27.6270 C   0  0  0  0  0
   36.6610    3.7220   35.0750 C   0  0  0  0  0
   36.4170    4.8480   36.0080 C   0  0  0  0  0
   36.6250    6.1950   35.9590 C   0  0  0  0  0
   36.2510    6.9120   37.0650 N   0  0  0  0  0
   35.7350    6.1090   38.0010 C   0  0  0  0  0
   35.6890    4.4300   37.5280 S   0  0  0  0  0
   35.2810    6.5950   39.3110 C   0  0  0  0  0
   36.2210    7.0060   40.2590 C   0  0  0  0  0
   35.8230    7.3840   41.5350 C   0  0  0  0  0
   34.4880    7.3590   41.8830 C   0  0  0  0  0
   33.5340    6.9660   40.9590 C   0  0  0  0  0
   33.9350    6.6010   39.6780 C   0  0  0  0  0
   37.2630    4.0460   33.9020 N   0  0  0  0  0
   36.2810    2.5820   35.3520 O   0  0  0  0  0
   32.7060    6.2040   38.5230 Cl  0  0  0  0  0
   35.4719    3.0189   32.2525 H   0  0  0  0  0
   38.1728    0.3816   30.2076 H   0  0  0  0  0
   40.0591    1.3353   31.4588 H   0  0  0  0  0
   40.1000    4.3915   33.0658 H   0  0  0  0  0
   39.9338    3.2068   34.3849 H   0  0  0  0  0
   40.9643    2.8370   32.9804 H   0  0  0  0  0
   36.6550   -0.1490   29.3388 H   0  0  0  0  0
   34.2414   -0.9639   29.6249 H   0  0  0  0  0
   35.3855   -1.5182   26.6318 H   0  0  0  0  0
   33.3667    1.0937   27.2726 H   0  0  0  0  0
   37.0657    6.6759   35.0857 H   0  0  0  0  0
   37.2782    7.0304   39.9946 H   0  0  0  0  0
   36.5682    7.7016   42.2643 H   0  0  0  0  0
   34.1832    7.6495   42.8884 H   0  0  0  0  0
   32.4792    6.9430   41.2329 H   0  0  0  0  0
   37.5408    5.0195   33.7770 H   0  0  0  0  0
  2  1  4  0  0  0
  1  6  4  0  0  0
  1  7  1  0  0  0
  2  3  4  0  0  0
 26  2  1  0  0  0
  3  4  4  0  0  0
  4  5  4  0  0  0
  4  8  1  0  0  0
  6  5  4  0  0  0
  8  9  1  0  0  0
  8 10  2  0  0  0
  9 11  1  0  0  0
 11 12  1  0  0  0
 11 13  1  0  0  0
 13 12  2  0  0  0
 14 15  1  0  0  0
 14 26  1  0  0  0
 14 27  2  0  0  0
 15 16  4  0  0  0
 15 19  4  0  0  0
 16 17  4  0  0  0
 17 18  4  0  0  0
 18 19  4  0  0  0
 18 20  1  0  0  0
 20 21  4  0  0  0
 20 25  4  0  0  0
 21 22  4  0  0  0
 22 23  4  0  0  0
 23 24  4  0  0  0
 24 25  4  0  0  0
 25 28  1  0  0  0
  3 29  1  0  0  0
  5 30  1  0  0  0
  6 31  1  0  0  0
  7 32  1  0  0  0
  7 33  1  0  0  0
  7 34  1  0  0  0
  9 35  1  0  0  0
 11 36  1  0  0  0
 12 37  1  0  0  0
 13 38  1  0  0  0
 16 39  1  0  0  0
 21 40  1  0  0  0
 22 41  1  0  0  0
 23 42  1  0  0  0
 24 43  1  0  0  0
 26 44  1  0  0  0
M  END
$$$$
