1ai6_ligand
  -I-interpret- 

 19 19  0  0  0  0  0  0  0  0999 V2000
   12.9090   37.8640   35.4810 C   0  0  0  0  0
   13.4740   37.7640   36.5650 O   0  0  0  0  0
   12.1200   38.7990   35.2070 O   0  0  0  0  0
   13.1850   36.7680   34.4310 C   0  0  0  0  0
   11.9170   36.2180   33.8460 C   0  0  0  0  0
   11.2130   35.1610   34.4330 C   0  0  0  0  0
   10.0570   34.7350   33.8350 C   0  0  0  0  0
    9.6580   35.3310   32.6360 C   0  0  0  0  0
   10.3320   36.4010   32.0670 C   0  0  0  0  0
   11.4970   36.8260   32.6900 C   0  0  0  0  0
    8.5270   34.8270   32.0260 O   0  0  0  0  0
   11.7916   38.6871   34.3119 H   0  0  0  0  0
   13.7162   35.9522   34.9213 H   0  0  0  0  0
   13.7697   37.2089   33.6237 H   0  0  0  0  0
   11.5762   34.6876   35.3452 H   0  0  0  0  0
    9.4582   33.9442   34.2869 H   0  0  0  0  0
    9.9613   36.8892   31.1657 H   0  0  0  0  0
   12.0781   37.6424   32.2611 H   0  0  0  0  0
    8.3566   35.3151   31.2171 H   0  0  0  0  0
  1  2  2  0  0  0
  1  3  1  0  0  0
  1  4  1  0  0  0
  4  5  1  0  0  0
  5  6  4  0  0  0
  5 10  4  0  0  0
  6  7  4  0  0  0
  7  8  4  0  0  0
  8  9  4  0  0  0
  8 11  1  0  0  0
  9 10  4  0  0  0
  3 12  1  0  0  0
  4 13  1  0  0  0
  4 14  1  0  0  0
  6 15  1  0  0  0
  7 16  1  0  0  0
  9 17  1  0  0  0
 10 18  1  0  0  0
 11 19  1  0  0  0
M  END
$$$$
