3wpn_ligand
  -I-interpret- 

 30 31  0  0  0  0  0  0  0  0999 V2000
    6.9940   11.6270   37.4170 O   0  0  0  0  0
    6.4270   10.3020   37.5000 S   0  0  0  0  0
    6.7480    9.7530   38.8000 O   0  0  0  0  0
    7.0730    9.4120   36.3410 N   0  0  0  0  0
    4.8270   10.3640   37.2830 C   0  0  0  0  0
    4.1030   11.5340   37.5340 C   0  0  0  0  0
    2.7190   11.5710   37.3270 C   0  0  0  0  0
    4.1400    9.2370   36.8410 C   0  0  0  0  0
    2.7610    9.2650   36.6400 C   0  0  0  0  0
    2.0460   10.4360   36.8920 C   0  0  0  0  0
    0.5830   10.4720   36.6700 C   0  0  0  0  0
   -0.0020   11.6510   36.1740 C   0  0  0  0  0
   -1.3690   11.6200   35.9560 C   0  0  0  0  0
   -2.0590   12.6480   35.5080 F   0  0  0  0  0
   -0.1810    9.3100   36.9190 C   0  0  0  0  0
   -1.5550    9.2650   36.7070 C   0  0  0  0  0
   -2.1680   10.4180   36.2310 C   0  0  0  0  0
   -3.6350   10.5750   35.9680 C   0  0  0  0  0
   -4.2030    9.3650   35.8610 F   0  0  0  0  0
   -3.7440   11.2490   34.8170 F   0  0  0  0  0
   -4.1330   11.3300   36.9870 F   0  0  0  0  0
    7.7610    9.8200   35.7081 H   0  0  0  0  0
    6.7974    8.4358   36.2340 H   0  0  0  0  0
    4.6202   12.4236   37.8935 H   0  0  0  0  0
    2.1674   12.4936   37.5077 H   0  0  0  0  0
    4.6903    8.3160   36.6486 H   0  0  0  0  0
    2.2424    8.3738   36.2867 H   0  0  0  0  0
    0.5904   12.5433   35.9716 H   0  0  0  0  0
    0.3237    8.4180   37.2900 H   0  0  0  0  0
   -2.1290    8.3601   36.9065 H   0  0  0  0  0
  1  2  2  0  0  0
  2  3  2  0  0  0
  2  4  1  0  0  0
  2  5  1  0  0  0
  5  6  4  0  0  0
  5  8  4  0  0  0
  6  7  4  0  0  0
  7 10  4  0  0  0
  8  9  4  0  0  0
  9 10  4  0  0  0
 10 11  1  0  0  0
 11 12  4  0  0  0
 11 15  4  0  0  0
 12 13  4  0  0  0
 13 14  1  0  0  0
 13 17  4  0  0  0
 15 16  4  0  0  0
 16 17  4  0  0  0
 17 18  1  0  0  0
 18 19  1  0  0  0
 18 20  1  0  0  0
 18 21  1  0  0  0
  4 22  1  0  0  0
  4 23  1  0  0  0
  6 24  1  0  0  0
  7 25  1  0  0  0
  8 26  1  0  0  0
  9 27  1  0  0  0
 12 28  1  0  0  0
 15 29  1  0  0  0
 16 30  1  0  0  0
M  END
$$$$
