6el5_ligand
  -I-interpret- 

 50 52  0  0  0  0  0  0  0  0999 V2000
    2.2390   31.7810   24.8120 Cl  0  0  0  0  0
    3.7780   32.5970   24.8890 C   0  0  0  0  0
    4.8990   31.9510   24.3320 C   0  0  0  0  0
    4.7380   30.8560   23.5230 O   0  0  0  0  0
    4.8740   29.5380   24.0000 C   0  0  0  0  0
    6.1510   32.5790   24.3590 C   0  0  0  0  0
    7.2630   31.9610   23.8480 O   0  0  0  0  0
    7.4940   31.8830   22.4340 C   0  0  0  0  0
    6.3110   33.7850   25.0450 C   0  0  0  0  0
    7.5700   34.3150   25.1280 O   0  0  0  0  0
    7.7960   35.4490   25.9820 C   0  0  0  0  0
    5.1960   34.4130   25.6190 C   0  0  0  0  0
    3.9340   33.8310   25.5540 C   0  0  0  0  0
    2.8050   34.5730   26.2490 C   0  0  0  0  0
    1.6680   34.8760   25.2980 C   0  0  0  0  0
    0.4500   34.4990   25.5270 N   0  0  0  0  0
   -0.3260   34.8510   24.4940 C   0  0  0  0  0
   -1.6800   34.6860   24.1920 C   0  0  0  0  0
   -2.5320   34.1060   25.1110 N   0  0  0  0  0
    0.4980   35.5240   23.5860 C   0  0  0  0  0
   -0.0110   35.9710   22.4590 N   0  0  0  0  0
   -1.2610   35.7390   22.1700 C   0  0  0  0  0
   -2.1110   35.1440   23.0100 N   0  0  0  0  0
    1.7500   35.5520   24.1150 N   0  0  0  0  0
    2.9140   36.2090   23.4860 C   0  0  0  0  0
    2.8750   37.7330   23.6810 C   0  0  0  0  0
    2.9620   38.1330   25.1540 C   0  0  0  0  0
    4.3350   38.0650   25.7120 C   0  0  0  0  0
    5.4100   38.0330   26.2000 C   0  0  0  0  0
   -1.6560   36.1950   20.9810 F   0  0  0  0  0
    5.8801   29.3981   24.3954 H   0  0  0  0  0
    4.1440   29.3617   24.7900 H   0  0  0  0  0
    4.7028   28.8376   23.1825 H   0  0  0  0  0
    6.6713   31.3460   21.9618 H   0  0  0  0  0
    7.5567   32.8899   22.0213 H   0  0  0  0  0
    8.4288   31.3541   22.2485 H   0  0  0  0  0
    7.1710   36.2796   25.6539 H   0  0  0  0  0
    7.5424   35.1853   27.0088 H   0  0  0  0  0
    8.8454   35.7390   25.9286 H   0  0  0  0  0
    5.3200   35.3712   26.1235 H   0  0  0  0  0
    3.1963   35.5166   26.6292 H   0  0  0  0  0
    2.4229   33.9434   27.0526 H   0  0  0  0  0
   -2.1734   33.7962   26.0142 H   0  0  0  0  0
   -3.5199   33.9874   24.8866 H   0  0  0  0  0
    2.8936   35.9974   22.4169 H   0  0  0  0  0
    3.8210   35.8246   23.9526 H   0  0  0  0  0
    1.9273   38.0998   23.2868 H   0  0  0  0  0
    3.7330   38.1618   23.1633 H   0  0  0  0  0
    2.3464   37.4324   25.7183 H   0  0  0  0  0
    2.6309   39.1687   25.2300 H   0  0  0  0  0
  1  2  1  0  0  0
  2  3  4  0  0  0
  2 13  4  0  0  0
  3  4  1  0  0  0
  3  6  4  0  0  0
  4  5  1  0  0  0
  6  7  1  0  0  0
  6  9  4  0  0  0
  7  8  1  0  0  0
  9 10  1  0  0  0
  9 12  4  0  0  0
 10 11  1  0  0  0
 12 13  4  0  0  0
 13 14  1  0  0  0
 14 15  1  0  0  0
 15 16  4  0  0  0
 15 24  4  0  0  0
 16 17  4  0  0  0
 17 18  4  0  0  0
 17 20  4  0  0  0
 18 19  1  0  0  0
 18 23  4  0  0  0
 20 21  4  0  0  0
 20 24  4  0  0  0
 21 22  4  0  0  0
 22 23  4  0  0  0
 22 30  1  0  0  0
 24 25  1  0  0  0
 25 26  1  0  0  0
 26 27  1  0  0  0
 27 28  1  0  0  0
 28 29  3  0  0  0
  5 31  1  0  0  0
  5 32  1  0  0  0
  5 33  1  0  0  0
  8 34  1  0  0  0
  8 35  1  0  0  0
  8 36  1  0  0  0
 11 37  1  0  0  0
 11 38  1  0  0  0
 11 39  1  0  0  0
 12 40  1  0  0  0
 14 41  1  0  0  0
 14 42  1  0  0  0
 19 43  1  0  0  0
 19 44  1  0  0  0
 25 45  1  0  0  0
 25 46  1  0  0  0
 26 47  1  0  0  0
 26 48  1  0  0  0
 27 49  1  0  0  0
 27 50  1  0  0  0
M  END
$$$$
