3d0e_ligand
  -I-interpret- 

 59 62  0  0  0  0  0  0  0  0999 V2000
   23.4950  -17.2510    5.4310 C   0  0  0  0  0
   22.3560  -18.5990    9.7030 N   0  0  0  0  0
   22.8530  -16.8290    8.3640 N   0  0  0  0  0
   23.2300  -18.1920    6.2720 C   0  0  0  0  0
   22.3080  -21.4340    8.7240 O   0  0  0  0  0
   23.2120  -19.4600    5.8090 N   0  0  0  0  0
   22.9190  -17.9470    7.6130 C   0  0  0  0  0
   22.3620  -14.2920    9.3140 N   0  0  0  0  0
   22.3130  -14.8950   10.5380 C   0  0  0  0  0
   22.1870  -14.2090   11.6860 N   0  0  0  0  0
   22.1900  -15.2830   12.6420 O   0  0  0  0  0
   22.3110  -16.5930   12.0410 N   0  0  0  0  0
   22.3560  -16.2720   10.7260 C   0  0  0  0  0
   22.5090  -17.2610    9.5990 C   0  0  0  0  0
   21.9730  -19.3950   10.8850 C   0  0  0  0  0
   23.1600  -19.9980   11.5980 C   0  0  0  0  0
   23.7580  -16.5350    4.5080 C   0  0  0  0  0
   23.8360  -15.6260    3.3430 C   0  0  0  0  0
   23.0250  -14.3660    3.6270 C   0  0  0  0  0
   25.2950  -15.2760    3.0820 C   0  0  0  0  0
   23.3240  -16.2800    2.1780 O   0  0  0  0  0
   22.6150  -19.0290    8.4490 C   0  0  0  0  0
   22.6090  -20.3370    7.9460 C   0  0  0  0  0
   22.9220  -20.5070    6.5930 C   0  0  0  0  0
   22.0360  -22.7210    8.1490 C   0  0  0  0  0
   21.4890  -23.6990    9.1840 C   0  0  0  0  0
   20.1950  -23.1780    9.7950 C   0  0  0  0  0
   19.7470  -24.0150   10.9020 N   0  3  0  0  0
   20.6670  -24.6070   11.8580 C   0  0  0  0  0
   22.0000  -25.0130   11.2320 C   0  0  0  0  0
   22.5070  -23.9270   10.2930 C   0  0  0  0  0
   22.3021  -13.2762    9.2431 H   0  0  0  0  0
   22.4585  -14.8573    8.4705 H   0  0  0  0  0
   21.3389  -20.2133   10.5438 H   0  0  0  0  0
   21.4675  -18.7295   11.5847 H   0  0  0  0  0
   23.6973  -20.6554   10.9144 H   0  0  0  0  0
   23.8233  -19.2012   11.9345 H   0  0  0  0  0
   22.8131  -20.5711   12.4578 H   0  0  0  0  0
   21.9851  -14.6379    3.8078 H   0  0  0  0  0
   23.4294  -13.8658    4.5070 H   0  0  0  0  0
   23.0829  -13.6970    2.7684 H   0  0  0  0  0
   25.7121  -14.7840    3.9607 H   0  0  0  0  0
   25.8546  -16.1881    2.8747 H   0  0  0  0  0
   25.3588  -14.6062    2.2244 H   0  0  0  0  0
   23.3784  -15.6836    1.4277 H   0  0  0  0  0
   22.9301  -21.5109    6.1685 H   0  0  0  0  0
   22.9688  -23.1247    7.7553 H   0  0  0  0  0
   21.2875  -22.5957    7.3666 H   0  0  0  0  0
   21.2883  -24.6412    8.6741 H   0  0  0  0  0
   19.4238  -23.1851    9.0247 H   0  0  0  0  0
   20.3748  -22.1724   10.1752 H   0  0  0  0  0
   19.3400  -24.8251   10.4346 H   0  0  0  0  0
   19.1948  -23.3747   11.4725 H   0  0  0  0  0
   20.1988  -25.5077   12.2550 H   0  0  0  0  0
   20.8742  -23.8607   12.6249 H   0  0  0  0  0
   21.8567  -25.9317   10.6632 H   0  0  0  0  0
   22.7315  -25.1615   12.0264 H   0  0  0  0  0
   22.6496  -23.0017   10.8511 H   0  0  0  0  0
   23.4561  -24.2381    9.8566 H   0  0  0  0  0
  4  1  1  0  0  0
  1 17  3  0  0  0
  2 14  4  0  0  0
  2 15  1  0  0  0
 22  2  4  0  0  0
  7  3  4  0  0  0
  3 14  4  0  0  0
  4  6  4  0  0  0
  7  4  4  0  0  0
 23  5  1  0  0  0
  5 25  1  0  0  0
  6 24  4  0  0  0
 22  7  4  0  0  0
  9  8  1  0  0  0
  9 10  4  0  0  0
 13  9  4  0  0  0
 11 10  4  0  0  0
 12 11  4  0  0  0
 13 12  4  0  0  0
 14 13  1  0  0  0
 15 16  1  0  0  0
 17 18  1  0  0  0
 18 19  1  0  0  0
 18 20  1  0  0  0
 18 21  1  0  0  0
 22 23  4  0  0  0
 23 24  4  0  0  0
 25 26  1  0  0  0
 26 27  1  0  0  0
 26 31  1  0  0  0
 27 28  1  0  0  0
 28 29  1  0  0  0
 29 30  1  0  0  0
 30 31  1  0  0  0
  8 32  1  0  0  0
  8 33  1  0  0  0
 15 34  1  0  0  0
 15 35  1  0  0  0
 16 36  1  0  0  0
 16 37  1  0  0  0
 16 38  1  0  0  0
 19 39  1  0  0  0
 19 40  1  0  0  0
 19 41  1  0  0  0
 20 42  1  0  0  0
 20 43  1  0  0  0
 20 44  1  0  0  0
 21 45  1  0  0  0
 24 46  1  0  0  0
 25 47  1  0  0  0
 25 48  1  0  0  0
 26 49  1  0  0  0
 27 50  1  0  0  0
 27 51  1  0  0  0
 28 52  1  0  0  0
 28 53  1  0  0  0
 29 54  1  0  0  0
 29 55  1  0  0  0
 30 56  1  0  0  0
 30 57  1  0  0  0
 31 58  1  0  0  0
 31 59  1  0  0  0
M  END
$$$$
