4o78_ligand
  -I-interpret- 

 51 54  0  0  0  0  0  0  0  0999 V2000
  119.7320   -6.9520    3.0590 N   0  0  0  0  0
  117.0850   -9.7690    0.4750 N   0  0  0  0  0
  120.8560   -6.9170    2.2940 C   0  0  0  0  0
  118.6030   -7.6590    2.9430 C   0  0  0  0  0
  116.5420   -8.4200    3.8220 C   0  0  0  0  0
  116.3040   -9.1350    2.6460 C   0  0  0  0  0
  117.2780   -9.0930    1.6230 C   0  0  0  0  0
  118.3630   -8.5040   -1.1550 C   0  0  0  0  0
  120.2930   -9.9980   -4.0800 C   0  0  0  0  0
  119.0420  -10.8860   -2.4650 C   0  0  0  0  0
  121.7460   -5.8730    2.5880 C   0  0  0  0  0
  123.2900   -6.6620    0.9430 C   0  0  0  0  0
  125.5270   -7.3740    0.7220 C   0  0  0  0  0
  122.0810   -9.7620   -0.5550 C   0  0  0  0  0
  122.8290   -8.5640   -0.3300 O   0  0  0  0  0
  122.4160   -7.7120    0.6380 C   0  0  0  0  0
  121.2100   -7.8510    1.3140 C   0  0  0  0  0
  117.6890   -7.7070    3.9380 N   0  0  0  0  0
  117.8900   -9.7450   -0.6450 C   0  0  0  0  0
  119.1750   -8.4700   -2.3150 C   0  0  0  0  0
  119.5140   -9.6750   -2.9590 C   0  0  0  0  0
  121.0320   -9.1160   -5.0030 C   0  0  0  0  0
  120.2540  -11.3400   -4.1780 N   0  0  0  0  0
  119.5010  -11.8800   -3.2560 N   0  0  0  0  0
  118.2310  -10.9360   -1.3180 C   0  0  0  0  0
  118.3970   -8.3550    1.8010 N   0  0  0  0  0
  122.9650   -5.7290    1.9170 C   0  0  0  0  0
  123.8630   -4.7320    2.1460 O   0  0  0  0  0
  123.4920   -3.6410    3.0060 C   0  0  0  0  0
  124.4720   -6.5280    0.2540 O   0  0  0  0  0
  119.7542   -6.3274    3.8651 H   0  0  0  0  0
  116.2560  -10.3615    0.4284 H   0  0  0  0  0
  115.8159   -8.4351    4.6348 H   0  0  0  0  0
  115.3880   -9.7122    2.5202 H   0  0  0  0  0
  118.0991   -7.5745   -0.6504 H   0  0  0  0  0
  121.4798   -5.1530    3.3619 H   0  0  0  0  0
  125.7387   -7.1446    1.7663 H   0  0  0  0  0
  125.2219   -8.4166    0.6323 H   0  0  0  0  0
  126.4212   -7.2029    0.1226 H   0  0  0  0  0
  122.0731  -10.3604    0.3560 H   0  0  0  0  0
  121.0585   -9.5040   -0.8306 H   0  0  0  0  0
  122.5433  -10.3315   -1.3613 H   0  0  0  0  0
  120.5440   -8.6822    1.0824 H   0  0  0  0  0
  119.5346   -7.5182   -2.7060 H   0  0  0  0  0
  120.3354   -8.4277   -5.4816 H   0  0  0  0  0
  121.7775   -8.5503   -4.4442 H   0  0  0  0  0
  121.5272   -9.7206   -5.7628 H   0  0  0  0  0
  117.8661  -11.8946   -0.9492 H   0  0  0  0  0
  122.6204   -3.1339    2.5921 H   0  0  0  0  0
  123.2530   -4.0264    3.9972 H   0  0  0  0  0
  124.3223   -2.9385    3.0784 H   0  0  0  0  0
  1  3  1  0  0  0
  4  1  1  0  0  0
  2  7  1  0  0  0
 19  2  1  0  0  0
  3 11  4  0  0  0
  3 17  4  0  0  0
  4 18  4  0  0  0
 26  4  4  0  0  0
  6  5  4  0  0  0
  5 18  4  0  0  0
  7  6  4  0  0  0
  7 26  4  0  0  0
 19  8  4  0  0  0
  8 20  4  0  0  0
 21  9  4  0  0  0
  9 22  1  0  0  0
  9 23  4  0  0  0
 10 21  4  0  0  0
 10 24  4  0  0  0
 25 10  4  0  0  0
 11 27  4  0  0  0
 16 12  4  0  0  0
 27 12  4  0  0  0
 12 30  1  0  0  0
 30 13  1  0  0  0
 15 14  1  0  0  0
 16 15  1  0  0  0
 17 16  4  0  0  0
 19 25  4  0  0  0
 20 21  4  0  0  0
 23 24  4  0  0  0
 27 28  1  0  0  0
 28 29  1  0  0  0
  1 31  1  0  0  0
  2 32  1  0  0  0
  5 33  1  0  0  0
  6 34  1  0  0  0
  8 35  1  0  0  0
 11 36  1  0  0  0
 13 37  1  0  0  0
 13 38  1  0  0  0
 13 39  1  0  0  0
 14 40  1  0  0  0
 14 41  1  0  0  0
 14 42  1  0  0  0
 17 43  1  0  0  0
 20 44  1  0  0  0
 22 45  1  0  0  0
 22 46  1  0  0  0
 22 47  1  0  0  0
 25 48  1  0  0  0
 29 49  1  0  0  0
 29 50  1  0  0  0
 29 51  1  0  0  0
M  END
$$$$
