5wqj_ligand
  -I-interpret- 

 36 38  0  0  0  0  0  0  0  0999 V2000
    9.9710    0.3590   27.7200 O   0  0  0  0  0
    9.8940    1.4940   27.2550 C   0  0  0  0  0
    9.2970    1.6550   25.9250 C   0  0  0  0  0
    8.8130    0.6390   25.0800 C   0  0  0  0  0
    8.2910    0.9350   23.8290 C   0  0  0  0  0
    8.3030    2.2380   23.3990 C   0  0  0  0  0
    8.7330    3.2770   24.1680 C   0  0  0  0  0
    9.2690    3.0290   25.4030 C   0  0  0  0  0
   10.2930    2.5820   27.8800 N   0  0  0  0  0
   10.2570    3.7970   27.3420 C   0  0  0  0  0
    9.7160    4.0750   26.1460 N   0  0  0  0  0
   10.7540    5.1000   28.3800 S   0  0  0  0  0
   10.9380    6.4250   27.2380 C   0  0  0  0  0
   12.2940    6.4430   26.5490 C   0  0  0  0  0
   13.3260    6.0790   27.0750 O   0  0  0  0  0
   12.2890    6.9130   25.3110 N   0  0  0  0  0
   13.4610    7.0850   24.6580 C   0  0  0  0  0
   15.0700    6.7180   25.1460 S   0  0  0  0  0
   15.7280    7.3910   23.6790 C   0  0  0  0  0
   14.7750    7.9160   22.8170 C   0  0  0  0  0
   13.4950    7.7810   23.3550 C   0  0  0  0  0
   12.2470    8.2500   22.7280 C   0  0  0  0  0
   11.1830    8.1650   23.3070 O   0  0  0  0  0
   12.3180    8.8930   21.5590 N   0  0  0  0  0
    8.8488   -0.3980   25.4139 H   0  0  0  0  0
    7.8788    0.1467   23.1991 H   0  0  0  0  0
    7.9503    2.4528   22.3902 H   0  0  0  0  0
    8.6507    4.3004   23.8019 H   0  0  0  0  0
    9.6431    5.0345   25.8077 H   0  0  0  0  0
   10.8400    7.3562   27.7959 H   0  0  0  0  0
   10.1783    6.3020   26.4661 H   0  0  0  0  0
   11.4073    7.1438   24.8529 H   0  0  0  0  0
   16.7953    7.3989   23.4577 H   0  0  0  0  0
   14.9965    8.3714   21.8518 H   0  0  0  0  0
   11.4798    9.3109   21.1551 H   0  0  0  0  0
   13.2104    8.9659   21.0704 H   0  0  0  0  0
  1  2  2  0  0  0
  2  3  1  0  0  0
  2  9  1  0  0  0
  3  4  4  0  0  0
  3  8  4  0  0  0
  4  5  4  0  0  0
  5  6  4  0  0  0
  6  7  4  0  0  0
  7  8  4  0  0  0
  8 11  1  0  0  0
  9 10  2  0  0  0
 10 11  1  0  0  0
 10 12  1  0  0  0
 12 13  1  0  0  0
 13 14  1  0  0  0
 14 15  2  0  0  0
 14 16  1  0  0  0
 16 17  1  0  0  0
 17 18  4  0  0  0
 17 21  4  0  0  0
 18 19  4  0  0  0
 19 20  4  0  0  0
 20 21  4  0  0  0
 21 22  1  0  0  0
 22 23  2  0  0  0
 22 24  1  0  0  0
  4 25  1  0  0  0
  5 26  1  0  0  0
  6 27  1  0  0  0
  7 28  1  0  0  0
 11 29  1  0  0  0
 13 30  1  0  0  0
 13 31  1  0  0  0
 16 32  1  0  0  0
 19 33  1  0  0  0
 20 34  1  0  0  0
 24 35  1  0  0  0
 24 36  1  0  0  0
M  END
$$$$
