5jr2_ligand
  -I-interpret- 

185190  0  0  0  0  0  0  0  0999 V2000
  -13.2870  -17.0370  153.5120 N   0  3  0  0  0
  -14.1610  -17.8560  152.6890 C   0  0  0  0  0
  -13.5100  -18.7160  151.5730 C   0  0  0  0  0
  -11.9980  -18.7530  151.5150 C   0  0  0  0  0
  -11.3460  -18.6670  152.5520 O   0  0  0  0  0
  -11.3790  -18.9150  150.3310 N   0  0  0  0  0
  -12.1240  -19.0230  149.0980 C   0  0  0  0  0
  -12.8380  -20.3640  148.9900 C   0  0  0  0  0
  -12.2410  -21.4150  149.2140 O   0  0  0  0  0
  -11.0820  -18.9050  147.9810 C   0  0  0  0  0
   -9.8120  -19.3630  148.5990 C   0  0  0  0  0
   -9.9460  -19.0460  150.0650 C   0  0  0  0  0
  -14.1100  -20.3080  148.6570 N   0  0  0  0  0
  -14.8710  -21.4890  148.4070 C   0  0  0  0  0
  -14.3190  -22.2620  147.2090 C   0  0  0  0  0
  -14.2080  -23.4850  147.2590 O   0  0  0  0  0
  -16.3340  -21.1000  148.2230 C   0  0  0  0  0
  -17.2400  -22.2770  148.1020 C   0  0  0  0  0
  -17.2690  -23.2850  149.0660 C   0  0  0  0  0
  -18.0830  -22.3790  147.0400 C   0  0  0  0  0
  -18.1220  -24.3740  148.9170 C   0  0  0  0  0
  -18.9380  -23.4480  146.8860 C   0  0  0  0  0
  -18.9580  -24.4410  147.8140 C   0  0  0  0  0
  -19.8470  -25.4790  147.6390 O   0  0  0  0  0
  -13.9640  -21.5420  146.1460 N   0  0  0  0  0
  -13.3610  -22.1340  144.9500 C   0  0  0  0  0
  -12.1310  -21.3440  144.5640 C   0  0  0  0  0
  -12.0350  -20.1770  144.8810 O   0  0  0  0  0
  -14.2610  -22.0640  143.7300 C   0  0  0  0  0
  -15.9560  -22.5330  143.9880 S   0  0  0  0  0
  -11.2350  -21.9910  143.8320 N   0  0  0  0  0
  -10.0560  -21.3570  143.2710 C   0  0  0  0  0
   -9.9430  -21.7510  141.8000 C   0  0  0  0  0
  -10.2400  -22.8890  141.4200 O   0  0  0  0  0
   -8.7650  -21.7650  144.0200 C   0  0  0  0  0
   -7.5660  -21.0250  143.4570 C   0  0  0  0  0
   -8.8780  -21.4440  145.4960 C   0  0  0  0  0
   -9.5670  -20.7890  140.9710 N   0  0  0  0  0
   -9.4470  -21.0070  139.5330 C   0  0  0  0  0
   -8.0310  -21.3490  139.2050 C   0  0  0  0  0
   -7.1180  -20.5870  139.4910 O   0  0  0  0  0
   -9.8560  -19.7360  138.7390 C   0  0  0  0  0
   -9.7590  -19.9520  137.2420 C   0  0  0  0  0
  -10.6240  -20.8110  136.5830 C   0  0  0  0  0
   -8.7720  -19.3350  136.5010 C   0  0  0  0  0
  -10.5330  -21.0290  135.2200 C   0  0  0  0  0
   -8.6730  -19.5330  135.1220 C   0  0  0  0  0
   -9.5470  -20.3900  134.4860 C   0  0  0  0  0
   -9.4680  -20.6290  133.1320 O   0  0  0  0  0
   -7.8480  -22.5420  138.6130 N   0  0  0  0  0
   -6.5480  -23.1060  138.3790 C   0  0  0  0  0
   -6.2050  -23.3050  136.9150 C   0  0  0  0  0
   -5.1990  -23.9540  136.6060 O   0  0  0  0  0
   -6.4890  -24.4750  139.0670 C   0  0  0  0  0
   -6.8490  -24.4460  140.5250 C   0  0  0  0  0
   -5.7320  -23.8520  141.3140 C   0  0  0  0  0
   -5.8630  -24.1180  142.7530 N   0  0  0  0  0
   -5.0640  -23.6060  143.6840 C   0  0  0  0  0
   -4.0300  -22.8150  143.3530 N   0  0  0  0  0
   -5.2960  -23.8900  144.9710 N   0  0  0  0  0
   -7.0390  -22.8090  136.0430 N   0  0  0  0  0
   -6.8590  -22.9240  134.6020 C   0  0  0  0  0
   -7.3910  -24.2550  134.1260 C   0  0  0  0  0
   -8.8780  -24.3250  134.3440 C   0  0  0  0  0
   -9.6160  -23.8290  133.5520 O   0  0  0  0  0
   -9.2950  -24.8980  135.4720 N   0  0  0  0  0
  -10.7000  -24.9930  135.8510 C   0  0  0  0  0
  -10.8730  -24.4680  137.2260 C   0  0  0  0  0
   -9.9390  -24.4500  138.0200 O   0  0  0  0  0
  -11.1580  -26.4500  135.8580 C   0  0  0  0  0
  -11.0030  -27.0300  134.5940 O   0  0  0  0  0
  -12.1110  -24.0970  137.5370 N   0  0  0  0  0
  -12.4910  -23.8230  138.8990 C   0  0  0  0  0
  -12.4930  -25.1410  139.6940 C   0  0  0  0  0
  -12.9090  -26.1640  139.1840 O   0  0  0  0  0
  -13.8810  -23.2380  138.9050 C   0  0  0  0  0
  -13.8930  -21.8030  138.5150 C   0  0  0  0  0
  -14.2590  -21.2870  137.3220 C   0  0  0  0  0
  -13.5170  -20.7260  139.3330 C   0  0  0  0  0
  -14.1650  -19.9100  137.3590 N   0  0  0  0  0
  -13.7070  -19.5490  138.5900 C   0  0  0  0  0
  -13.0480  -20.6240  140.6490 C   0  0  0  0  0
  -13.4330  -18.2940  139.1060 C   0  0  0  0  0
  -12.8030  -19.3570  141.1650 C   0  0  0  0  0
  -13.0060  -18.2150  140.3890 C   0  0  0  0  0
  -12.0210  -25.1130  140.9250 N   0  0  0  0  0
  -12.3060  -26.2140  141.8430 C   0  0  0  0  0
  -12.7460  -25.6620  143.1870 C   0  0  0  0  0
  -12.1570  -24.6910  143.7210 O   0  0  0  0  0
  -11.1480  -27.1980  141.9550 C   0  0  0  0  0
  -10.0200  -26.5750  142.4820 O   0  0  0  0  0
  -13.8220  -26.2750  143.6950 N   0  0  0  0  0
  -14.5730  -25.7780  144.8350 C   0  0  0  0  0
  -14.5790  -26.7440  146.0010 C   0  0  0  0  0
  -14.7730  -27.9250  145.7920 O   0  0  0  0  0
  -16.0030  -25.5410  144.4120 C   0  0  0  0  0
  -16.1260  -24.3540  143.0530 S   0  0  0  0  0
  -14.3770  -26.2740  147.2380 N   0  0  0  0  0
  -13.8454  -16.5296  154.1984 H   0  0  0  0  0
  -12.6160  -17.6357  153.9934 H   0  0  0  0  0
  -12.7883  -16.3729  152.9198 H   0  0  0  0  0
  -14.8139  -17.1537  152.1708 H   0  0  0  0  0
  -14.6208  -18.5686  153.3737 H   0  0  0  0  0
  -13.8297  -18.2680  150.6321 H   0  0  0  0  0
  -13.8220  -19.7413  151.7719 H   0  0  0  0  0
  -12.8928  -18.2524  149.0414 H   0  0  0  0  0
  -11.0054  -17.8856  147.6029 H   0  0  0  0  0
  -11.3496  -19.5043  147.1107 H   0  0  0  0  0
   -8.9488  -18.8644  148.1581 H   0  0  0  0  0
   -9.6459  -20.4273  148.4324 H   0  0  0  0  0
   -9.5053  -19.8331  150.6769 H   0  0  0  0  0
   -9.4163  -18.1271  150.3161 H   0  0  0  0  0
  -14.5632  -19.3978  148.5756 H   0  0  0  0  0
  -14.7950  -22.1639  149.2596 H   0  0  0  0  0
  -16.4109  -20.5260  147.2995 H   0  0  0  0  0
  -16.6401  -20.5350  149.1034 H   0  0  0  0  0
  -16.6206  -23.2191  149.9397 H   0  0  0  0  0
  -18.0822  -21.5906  146.2873 H   0  0  0  0  0
  -18.1326  -25.1689  149.6627 H   0  0  0  0  0
  -19.5983  -23.4976  146.0202 H   0  0  0  0  0
  -20.3334  -25.3479  146.8218 H   0  0  0  0  0
  -14.1190  -20.5340  146.1660 H   0  0  0  0  0
  -13.1567  -23.1729  145.2089 H   0  0  0  0  0
  -13.8536  -22.7706  143.0069 H   0  0  0  0  0
  -14.2754  -21.0195  143.4186 H   0  0  0  0  0
  -11.3815  -22.9846  143.6540 H   0  0  0  0  0
  -10.1642  -20.2774  143.3754 H   0  0  0  0  0
   -8.6327  -22.8387  143.8870 H   0  0  0  0  0
   -7.4542  -21.2678  142.4003 H   0  0  0  0  0
   -7.7171  -19.9515  143.5705 H   0  0  0  0  0
   -6.6684  -21.3260  143.9972 H   0  0  0  0  0
   -9.0358  -20.3729  145.6225 H   0  0  0  0  0
   -9.7202  -21.9894  145.9217 H   0  0  0  0  0
   -7.9590  -21.7394  146.0022 H   0  0  0  0  0
   -9.3545  -19.8661  141.3498 H   0  0  0  0  0
  -10.1129  -21.8228  139.2518 H   0  0  0  0  0
   -9.1779  -18.9278  139.0132 H   0  0  0  0  0
  -10.8908  -19.4970  138.9843 H   0  0  0  0  0
  -11.3958  -21.3281  137.1532 H   0  0  0  0  0
   -8.0569  -18.6815  137.0007 H   0  0  0  0  0
  -11.2344  -21.7010  134.7254 H   0  0  0  0  0
   -7.9063  -19.0112  134.5493 H   0  0  0  0  0
   -8.7429  -20.1214  132.7604 H   0  0  0  0  0
   -8.6688  -23.0701  138.3168 H   0  0  0  0  0
   -5.8256  -22.3939  138.7778 H   0  0  0  0  0
   -5.4598  -24.8268  138.9963 H   0  0  0  0  0
   -7.2150  -25.1174  138.5687 H   0  0  0  0  0
   -7.0302  -25.4639  140.8701 H   0  0  0  0  0
   -7.7456  -23.8413  140.6612 H   0  0  0  0  0
   -5.7506  -22.7722  141.1666 H   0  0  0  0  0
   -4.7996  -24.3002  140.9707 H   0  0  0  0  0
   -6.6157  -24.7354  143.0574 H   0  0  0  0  0
   -3.4259  -22.4338  144.0812 H   0  0  0  0  0
   -3.8489  -22.5955  142.3735 H   0  0  0  0  0
   -6.0780  -24.4926  145.2274 H   0  0  0  0  0
   -7.8612  -22.3141  136.3887 H   0  0  0  0  0
   -5.7976  -22.8536  134.3641 H   0  0  0  0  0
   -7.4018  -22.1198  134.1052 H   0  0  0  0  0
   -6.9089  -25.0548  134.6882 H   0  0  0  0  0
   -7.1797  -24.3651  133.0624 H   0  0  0  0  0
   -8.5960  -25.2903  136.1028 H   0  0  0  0  0
  -11.2853  -24.4208  135.1312 H   0  0  0  0  0
  -12.2126  -26.4839  136.1316 H   0  0  0  0  0
  -10.5510  -27.0041  136.5740 H   0  0  0  0  0
  -11.2970  -27.9434  134.6241 H   0  0  0  0  0
  -12.8059  -24.0045  136.7961 H   0  0  0  0  0
  -11.7895  -23.1221  139.3515 H   0  0  0  0  0
  -14.2755  -23.3157  139.9181 H   0  0  0  0  0
  -14.4823  -23.7893  138.1821 H   0  0  0  0  0
  -14.5805  -21.8702  136.4591 H   0  0  0  0  0
  -12.8795  -21.5156  141.2529 H   0  0  0  0  0
  -13.5570  -17.3974  138.4988 H   0  0  0  0  0
  -12.4473  -19.2538  142.1902 H   0  0  0  0  0
  -12.8162  -17.2348  140.8264 H   0  0  0  0  0
  -11.4567  -24.3225  141.2367 H   0  0  0  0  0
  -13.1302  -26.7978  141.4332 H   0  0  0  0  0
  -10.9093  -27.5750  140.9605 H   0  0  0  0  0
  -11.4415  -28.0127  142.6170 H   0  0  0  0  0
   -9.3039  -27.2114  142.5439 H   0  0  0  0  0
  -14.1328  -27.1417  143.2561 H   0  0  0  0  0
  -14.0883  -24.8589  145.1642 H   0  0  0  0  0
  -16.5465  -25.1364  145.2658 H   0  0  0  0  0
  -16.4177  -26.4899  144.0719 H   0  0  0  0  0
  -14.3836  -26.9124  148.0335 H   0  0  0  0  0
  -14.2165  -25.2775  147.3851 H   0  0  0  0  0
  1  2  1  0  0  0
  2  3  1  0  0  0
  3  4  1  0  0  0
  4  5  2  0  0  0
  4  6  1  0  0  0
  6  7  1  0  0  0
  6 12  1  0  0  0
  7  8  1  0  0  0
  7 10  1  0  0  0
  8  9  2  0  0  0
  8 13  1  0  0  0
 10 11  1  0  0  0
 11 12  1  0  0  0
 13 14  1  0  0  0
 14 15  1  0  0  0
 14 17  1  0  0  0
 15 16  2  0  0  0
 15 25  1  0  0  0
 17 18  1  0  0  0
 18 19  4  0  0  0
 18 20  4  0  0  0
 19 21  4  0  0  0
 20 22  4  0  0  0
 21 23  4  0  0  0
 22 23  4  0  0  0
 23 24  1  0  0  0
 25 26  1  0  0  0
 26 27  1  0  0  0
 26 29  1  0  0  0
 27 28  2  0  0  0
 27 31  1  0  0  0
 29 30  1  0  0  0
 30 97  1  0  0  0
 31 32  1  0  0  0
 32 33  1  0  0  0
 32 35  1  0  0  0
 33 34  2  0  0  0
 33 38  1  0  0  0
 35 36  1  0  0  0
 35 37  1  0  0  0
 38 39  1  0  0  0
 39 40  1  0  0  0
 39 42  1  0  0  0
 40 41  2  0  0  0
 40 50  1  0  0  0
 42 43  1  0  0  0
 43 44  4  0  0  0
 43 45  4  0  0  0
 44 46  4  0  0  0
 45 47  4  0  0  0
 46 48  4  0  0  0
 47 48  4  0  0  0
 48 49  1  0  0  0
 50 51  1  0  0  0
 51 52  1  0  0  0
 51 54  1  0  0  0
 52 53  2  0  0  0
 52 61  1  0  0  0
 54 55  1  0  0  0
 55 56  1  0  0  0
 56 57  1  0  0  0
 57 58  1  0  0  0
 58 59  1  0  0  0
 58 60  2  0  0  0
 61 62  1  0  0  0
 62 63  1  0  0  0
 63 64  1  0  0  0
 64 65  2  0  0  0
 64 66  1  0  0  0
 66 67  1  0  0  0
 67 68  1  0  0  0
 67 70  1  0  0  0
 68 69  2  0  0  0
 68 72  1  0  0  0
 70 71  1  0  0  0
 72 73  1  0  0  0
 73 74  1  0  0  0
 73 76  1  0  0  0
 74 75  2  0  0  0
 74 86  1  0  0  0
 76 77  1  0  0  0
 77 78  4  0  0  0
 77 79  4  0  0  0
 78 80  4  0  0  0
 79 81  4  0  0  0
 79 82  4  0  0  0
 80 81  4  0  0  0
 81 83  4  0  0  0
 82 84  4  0  0  0
 83 85  4  0  0  0
 84 85  4  0  0  0
 86 87  1  0  0  0
 87 88  1  0  0  0
 87 90  1  0  0  0
 88 89  2  0  0  0
 88 92  1  0  0  0
 90 91  1  0  0  0
 92 93  1  0  0  0
 93 94  1  0  0  0
 93 96  1  0  0  0
 94 95  2  0  0  0
 94 98  1  0  0  0
 96 97  1  0  0  0
  1 99  1  0  0  0
  1100  1  0  0  0
  1101  1  0  0  0
  2102  1  0  0  0
  2103  1  0  0  0
  3104  1  0  0  0
  3105  1  0  0  0
  7106  1  0  0  0
 10107  1  0  0  0
 10108  1  0  0  0
 11109  1  0  0  0
 11110  1  0  0  0
 12111  1  0  0  0
 12112  1  0  0  0
 13113  1  0  0  0
 14114  1  0  0  0
 17115  1  0  0  0
 17116  1  0  0  0
 19117  1  0  0  0
 20118  1  0  0  0
 21119  1  0  0  0
 22120  1  0  0  0
 24121  1  0  0  0
 25122  1  0  0  0
 26123  1  0  0  0
 29124  1  0  0  0
 29125  1  0  0  0
 31126  1  0  0  0
 32127  1  0  0  0
 35128  1  0  0  0
 36129  1  0  0  0
 36130  1  0  0  0
 36131  1  0  0  0
 37132  1  0  0  0
 37133  1  0  0  0
 37134  1  0  0  0
 38135  1  0  0  0
 39136  1  0  0  0
 42137  1  0  0  0
 42138  1  0  0  0
 44139  1  0  0  0
 45140  1  0  0  0
 46141  1  0  0  0
 47142  1  0  0  0
 49143  1  0  0  0
 50144  1  0  0  0
 51145  1  0  0  0
 54146  1  0  0  0
 54147  1  0  0  0
 55148  1  0  0  0
 55149  1  0  0  0
 56150  1  0  0  0
 56151  1  0  0  0
 57152  1  0  0  0
 59153  1  0  0  0
 59154  1  0  0  0
 60155  1  0  0  0
 61156  1  0  0  0
 62157  1  0  0  0
 62158  1  0  0  0
 63159  1  0  0  0
 63160  1  0  0  0
 66161  1  0  0  0
 67162  1  0  0  0
 70163  1  0  0  0
 70164  1  0  0  0
 71165  1  0  0  0
 72166  1  0  0  0
 73167  1  0  0  0
 76168  1  0  0  0
 76169  1  0  0  0
 78170  1  0  0  0
 82171  1  0  0  0
 83172  1  0  0  0
 84173  1  0  0  0
 85174  1  0  0  0
 86175  1  0  0  0
 87176  1  0  0  0
 90177  1  0  0  0
 90178  1  0  0  0
 91179  1  0  0  0
 92180  1  0  0  0
 93181  1  0  0  0
 96182  1  0  0  0
 96183  1  0  0  0
 98184  1  0  0  0
 98185  1  0  0  0
M  END
$$$$
