### 
### Created by X-TOOL on Mon Sep 10 21:13:27 2018
### 

@<TRIPOS>MOLECULE
5jr2_ligand
  187   192     1     0     0
SMALL
GAST_HUCK


@<TRIPOS>ATOM
      1 N         -13.2870  -17.0370  153.5120 N.4       1 BAL         0.2202
      2 CB        -14.1610  -17.8560  152.6890 C.3       1 BAL        -0.0184
      3 CA        -13.5100  -18.7160  151.5730 C.3       1 BAL         0.0775
      4 C         -11.9980  -18.7530  151.5150 C.2       1 BAL         0.1859
      5 O         -11.3460  -18.6670  152.5520 O.2       1 BAL        -0.3965
      6 N         -11.3790  -18.9150  150.3310 N.am      1 PRO        -0.2516
      7 CA        -12.1240  -19.0230  149.0980 C.3       1 PRO         0.1337
      8 C         -12.8380  -20.3640  148.9900 C.2       1 PRO         0.2042
      9 O         -12.2410  -21.4150  149.2140 O.2       1 PRO        -0.3944
     10 CB        -11.0820  -18.9050  147.9810 C.3       1 PRO        -0.0104
     11 CG         -9.8120  -19.3630  148.5990 C.3       1 PRO        -0.0281
     12 CD         -9.9460  -19.0460  150.0650 C.3       1 PRO         0.0369
     13 N         -14.1100  -20.3080  148.6570 N.am      1 TYR        -0.2621
     14 CA        -14.8710  -21.4890  148.4070 C.3       1 TYR         0.1390
     15 C         -14.3190  -22.2620  147.2090 C.2       1 TYR         0.2058
     16 O         -14.2080  -23.4850  147.2590 O.2       1 TYR        -0.3942
     17 CB        -16.3340  -21.1000  148.2230 C.3       1 TYR         0.0163
     18 CG        -17.2400  -22.2770  148.1020 C.ar      1 TYR        -0.0493
     19 CD1       -17.2690  -23.2850  149.0660 C.ar      1 TYR        -0.0685
     20 CD2       -18.0830  -22.3790  147.0400 C.ar      1 TYR        -0.0685
     21 CE1       -18.1220  -24.3740  148.9170 C.ar      1 TYR        -0.0398
     22 CE2       -18.9380  -23.4480  146.8860 C.ar      1 TYR        -0.0398
     23 CZ        -18.9580  -24.4410  147.8140 C.ar      1 TYR         0.0805
     24 OH        -19.8470  -25.4790  147.6390 O.3       1 TYR        -0.3376
     25 N         -13.9640  -21.5420  146.1460 N.am      1 CYS        -0.2628
     26 CA        -13.3610  -22.1340  144.9500 C.3       1 CYS         0.1406
     27 C         -12.1310  -21.3440  144.5640 C.2       1 CYS         0.2047
     28 O         -12.0350  -20.1770  144.8810 O.2       1 CYS        -0.3944
     29 CB        -14.2610  -22.0640  143.7300 C.3       1 CYS         0.0443
     30 SG        -15.9560  -22.5330  143.9880 S.3       1 CYS        -0.0882
     31 N         -11.2350  -21.9910  143.8320 N.am      1 VAL        -0.2634
     32 CA        -10.0560  -21.3570  143.2710 C.3       1 VAL         0.1333
     33 C          -9.9430  -21.7510  141.8000 C.2       1 VAL         0.2043
     34 O         -10.2400  -22.8890  141.4200 O.2       1 VAL        -0.3944
     35 CB         -8.7650  -21.7650  144.0200 C.3       1 VAL        -0.0063
     36 CG1        -7.5660  -21.0250  143.4570 C.3       1 VAL        -0.0584
     37 CG2        -8.8780  -21.4440  145.4960 C.3       1 VAL        -0.0584
     38 N          -9.5670  -20.7890  140.9710 N.am      1 TYR        -0.2621
     39 CA         -9.4470  -21.0070  139.5330 C.3       1 TYR         0.1390
     40 C          -8.0310  -21.3490  139.2050 C.2       1 TYR         0.2057
     41 O          -7.1180  -20.5870  139.4910 O.2       1 TYR        -0.3942
     42 CB         -9.8560  -19.7360  138.7390 C.3       1 TYR         0.0163
     43 CG         -9.7590  -19.9520  137.2420 C.ar      1 TYR        -0.0493
     44 CD1       -10.6240  -20.8110  136.5830 C.ar      1 TYR        -0.0685
     45 CD2        -8.7720  -19.3350  136.5010 C.ar      1 TYR        -0.0685
     46 CE1       -10.5330  -21.0290  135.2200 C.ar      1 TYR        -0.0398
     47 CE2        -8.6730  -19.5330  135.1220 C.ar      1 TYR        -0.0398
     48 CZ         -9.5470  -20.3900  134.4860 C.ar      1 TYR         0.0805
     49 OH         -9.4680  -20.6290  133.1320 O.3       1 TYR        -0.3376
     50 N          -7.8480  -22.5420  138.6130 N.am      1 ARG        -0.2636
     51 CA         -6.5480  -23.1060  138.3790 C.3       1 ARG         0.1309
     52 C          -6.2050  -23.3050  136.9150 C.2       1 ARG         0.2018
     53 O          -5.1990  -23.9540  136.6060 O.2       1 ARG        -0.3945
     54 CB         -6.4890  -24.4750  139.0670 C.3       1 ARG        -0.0092
     55 CG         -6.8490  -24.4460  140.5250 C.3       1 ARG        -0.0156
     56 CD         -5.7320  -23.8520  141.3140 C.3       1 ARG         0.0627
     57 NE         -5.8630  -24.1180  142.7530 N.pl3     1 ARG        -0.2723
     58 CZ         -5.0640  -23.6060  143.6840 C.cat     1 ARG         0.2882
     59 NH1        -4.0300  -22.8150  143.3530 N.pl3     1 ARG        -0.2849
     60 NH2        -5.2960  -23.8900  144.9710 N.pl3     1 ARG        -0.2849
     61 N          -7.0390  -22.8090  136.0430 N.am      1 BAL        -0.2828
     62 CB         -6.8590  -22.9240  134.6020 C.3       1 BAL         0.0477
     63 CA         -7.3910  -24.2550  134.1260 C.3       1 BAL         0.0575
     64 C          -8.8780  -24.3250  134.3440 C.2       1 BAL         0.1802
     65 O          -9.6160  -23.8290  133.5520 O.2       1 BAL        -0.3969
     66 N          -9.2950  -24.8980  135.4720 N.am      1 SER        -0.2634
     67 CA        -10.7000  -24.9930  135.8510 C.3       1 SER         0.1538
     68 C         -10.8730  -24.4680  137.2260 C.2       1 SER         0.2063
     69 O          -9.9390  -24.4500  138.0200 O.2       1 SER        -0.3943
     70 CB        -11.1580  -26.4500  135.8580 C.3       1 SER         0.0843
     71 OG        -11.0030  -27.0300  134.5940 O.3       1 SER        -0.3903
     72 N         -12.1110  -24.0970  137.5370 N.am      1 TRP        -0.2626
     73 CA        -12.4910  -23.8230  138.8990 C.3       1 TRP         0.1352
     74 C         -12.4930  -25.1410  139.6940 C.2       1 TRP         0.2052
     75 O         -12.9090  -26.1640  139.1840 O.2       1 TRP        -0.3942
     76 CB        -13.8810  -23.2380  138.9050 C.3       1 TRP         0.0042
     77 CG        -13.8930  -21.8030  138.5150 C.2       1 TRP        -0.0418
     78 CD1       -14.2590  -21.2870  137.3220 C.2       1 TRP         0.0167
     79 CD2       -13.5170  -20.7260  139.3330 C.ar      1 TRP        -0.0214
     80 NE1       -14.1650  -19.9100  137.3590 N.pl3     1 TRP        -0.2890
     81 CE2       -13.7070  -19.5490  138.5900 C.ar      1 TRP         0.0603
     82 CE3       -13.0480  -20.6240  140.6490 C.ar      1 TRP        -0.0747
     83 CZ2       -13.4330  -18.2940  139.1060 C.ar      1 TRP        -0.0443
     84 CZ3       -12.8030  -19.3570  141.1650 C.ar      1 TRP        -0.0792
     85 CH2       -13.0060  -18.2150  140.3890 C.ar      1 TRP        -0.0768
     86 N         -12.0210  -25.1130  140.9250 N.am      1 SER        -0.2615
     87 CA        -12.3060  -26.2140  141.8430 C.3       1 SER         0.1539
     88 C         -12.7460  -25.6620  143.1870 C.2       1 SER         0.2062
     89 O         -12.1570  -24.6910  143.7210 O.2       1 SER        -0.3943
     90 CB        -11.1480  -27.1980  141.9550 C.3       1 SER         0.0843
     91 OG        -10.0200  -26.5750  142.4820 O.3       1 SER        -0.3903
     92 N         -13.8220  -26.2750  143.6950 N.am      1 CYS        -0.2628
     93 CA        -14.5730  -25.7780  144.8350 C.3       1 CYS         0.1403
     94 C         -14.5790  -26.7440  146.0010 C.2       1 CYS         0.2000
     95 O         -14.7730  -27.9250  145.7920 O.2       1 CYS        -0.3947
     96 CB        -16.0030  -25.5410  144.4120 C.3       1 CYS         0.0443
     97 SG        -16.1260  -24.3540  143.0530 S.3       1 CYS        -0.0882
     98 N         -14.3770  -26.2740  147.2380 N.am      1 NH2        -0.2989
     99 H1        -13.8378  -16.5351  154.1908 H         1 BAL         0.1996
    100 H2        -12.7936  -16.3802  152.9278 H         1 BAL         0.1996
    101 H3        -12.6234  -17.6276  153.9883 H         1 BAL         0.1996
    102 H4        -14.8819  -17.1813  152.2043 H         1 BAL         0.0839
    103 H5        -14.6962  -18.5424  153.3616 H         1 BAL         0.0839
    104 H6        -13.8678  -18.3293  150.6074 H         1 BAL         0.0556
    105 H7        -13.8604  -19.7501  151.7065 H         1 BAL         0.0556
    106 H8        -12.8615  -18.2099  149.0272 H         1 PRO         0.0802
    107 H9        -10.9940  -17.8625  147.6414 H         1 PRO         0.0313
    108 H10       -11.3522  -19.5466  147.1293 H         1 PRO         0.0313
    109 H11        -8.9564  -18.8248  148.1652 H         1 PRO         0.0287
    110 H12        -9.6789  -20.4446  148.4494 H         1 PRO         0.0287
    111 H13        -9.5196  -19.8594  150.6704 H         1 PRO         0.0524
    112 H14        -9.4281  -18.1043  150.2993 H         1 PRO         0.0524
    113 H15       -14.5543  -19.4157  148.5772 H         1 TYR         0.1885
    114 H16       -14.7979  -22.1424  149.2888 H         1 TYR         0.0821
    115 H17       -16.4231  -20.4940  147.3093 H         1 TYR         0.0453
    116 H18       -16.6496  -20.5029  149.0912 H         1 TYR         0.0453
    117 H19       -16.6242  -23.2195  149.9349 H         1 TYR         0.0530
    118 H20       -18.0822  -21.5949  146.2915 H         1 TYR         0.0530
    119 H21       -18.1325  -25.1645  149.6586 H         1 TYR         0.0525
    120 H22       -19.5947  -23.4973  146.0250 H         1 TYR         0.0525
    121 H23       -20.7332  -25.1368  147.6266 H         1 TYR         0.2458
    122 H24       -14.1159  -20.5538  146.1656 H         1 CYS         0.1884
    123 H25       -13.0993  -23.1811  145.1624 H         1 CYS         0.0808
    124 H26       -13.8403  -22.7298  142.9621 H         1 CYS         0.0432
    125 H27       -14.2504  -21.0273  143.3623 H         1 CYS         0.0432
    126 H28       -11.3786  -22.9651  143.6575 H         1 VAL         0.1883
    127 H29       -10.1729  -20.2658  143.3453 H         1 VAL         0.0802
    128 H30        -8.6121  -22.8473  143.8969 H         1 VAL         0.0343
    129 H31        -6.6594  -21.3279  144.0014 H         1 VAL         0.0234
    130 H32        -7.7172  -19.9414  143.5709 H         1 VAL         0.0234
    131 H33        -7.4520  -21.2692  142.3905 H         1 VAL         0.0234
    132 H34        -9.7436  -21.9731  145.9211 H         1 VAL         0.0234
    133 H35        -9.0108  -20.3599  145.6264 H         1 VAL         0.0234
    134 H36        -7.9617  -21.7659  146.0125 H         1 VAL         0.0234
    135 H37        -9.3586  -19.8842  141.3423 H         1 TYR         0.1885
    136 H38       -10.1027  -21.8403  139.2404 H         1 TYR         0.0821
    137 H39        -9.1892  -18.9087  139.0233 H         1 TYR         0.0453
    138 H40       -10.8936  -19.4751  138.9945 H         1 TYR         0.0453
    139 H41       -11.3915  -21.3252  137.1501 H         1 TYR         0.0530
    140 H42        -8.0609  -18.6851  136.9980 H         1 TYR         0.0530
    141 H43       -11.2305  -21.6973  134.7281 H         1 TYR         0.0525
    142 H44        -7.9106  -19.0140  134.5524 H         1 TYR         0.0525
    143 H45       -10.1485  -21.2419  132.8795 H         1 TYR         0.2458
    144 H46        -8.6528  -23.0598  138.3227 H         1 ARG         0.1883
    145 H47        -5.7962  -22.4369  138.8231 H         1 ARG         0.0800
    146 H48        -5.4650  -24.8653  138.9720 H         1 ARG         0.0313
    147 H49        -7.1881  -25.1505  138.5522 H         1 ARG         0.0313
    148 H50        -7.0365  -25.4720  140.8745 H         1 ARG         0.0301
    149 H51        -7.7561  -23.8396  140.6643 H         1 ARG         0.0301
    150 H52        -5.7259  -22.7636  141.1546 H         1 ARG         0.0689
    151 H53        -4.7824  -24.2798  140.9602 H         1 ARG         0.0689
    152 H54        -6.6231  -24.7415  143.0604 H         1 ARG         0.2642
    153 H55        -3.4219  -22.4276  144.0885 H         1 ARG         0.2615
    154 H56        -3.8453  -22.5959  142.3637 H         1 ARG         0.2615
    155 H57        -6.0875  -24.4960  145.2301 H         1 ARG         0.2615
    156 H58        -4.6830  -23.5026  145.7025 H         1 ARG         0.2615
    157 H59        -7.8451  -22.3238  136.3820 H         1 BAL         0.1853
    158 H60        -5.7883  -22.8509  134.3605 H         1 BAL         0.0545
    159 H61        -7.4045  -22.1116  134.0996 H         1 BAL         0.0545
    160 H62        -6.9024  -25.0643  134.6883 H         1 BAL         0.0522
    161 H63        -7.1746  -24.3709  133.0538 H         1 BAL         0.0522
    162 H64        -8.6097  -25.2826  136.0904 H         1 SER         0.1883
    163 H65       -11.3110  -24.4124  135.1442 H         1 SER         0.0823
    164 H66       -12.2189  -26.4923  136.1456 H         1 SER         0.0606
    165 H67       -10.5574  -27.0125  136.5880 H         1 SER         0.0606
    166 H68       -11.2939  -27.9339  134.6237 H         1 SER         0.2097
    167 H69       -12.7923  -24.0063  136.8106 H         1 TRP         0.1884
    168 H70       -11.7829  -23.1135  139.3519 H         1 TRP         0.0815
    169 H71       -14.2998  -23.3324  139.9177 H         1 TRP         0.0397
    170 H72       -14.5049  -23.8021  138.1961 H         1 TRP         0.0397
    171 H73       -14.5802  -21.8697  136.4599 H         1 TRP         0.0795
    172 H74       -14.4004  -19.2673  136.5893 H         1 TRP         0.2216
    173 H75       -12.8804  -21.5107  141.2496 H         1 TRP         0.0540
    174 H76       -13.5563  -17.4023  138.5021 H         1 TRP         0.0541
    175 H77       -12.4493  -19.2544  142.1845 H         1 TRP         0.0510
    176 H78       -12.8172  -17.2402  140.8240 H         1 TRP         0.0530
    177 H79       -11.4678  -24.3380  141.2306 H         1 SER         0.1884
    178 H80       -13.1565  -26.7741  141.4272 H         1 SER         0.0823
    179 H81       -10.9096  -27.5900  140.9552 H         1 SER         0.0606
    180 H82       -11.4425  -28.0282  142.6138 H         1 SER         0.0606
    181 H83       -10.2210  -26.2377  143.3470 H         1 SER         0.2097
    182 H84       -14.1267  -27.1247  143.2647 H         1 CYS         0.1884
    183 H85       -14.1245  -24.8291  145.1643 H         1 CYS         0.0808
    184 H86       -16.5674  -25.1534  145.2729 H         1 CYS         0.0432
    185 H87       -16.4396  -26.4971  144.0877 H         1 CYS         0.0432
    186 H88       -14.3783  -26.9006  148.0174 H         1 NH2         0.1815
    187 H89       -14.2247  -25.2963  147.3827 H         1 NH2         0.1815
@<TRIPOS>BOND
     1    1    2 1  
     2    2    3 1  
     3    3    4 1  
     4    4    5 2  
     5    4    6 am 
     6    6    7 1  
     7    6   12 1  
     8    7    8 1  
     9    7   10 1  
    10    8    9 2  
    11    8   13 am 
    12   10   11 1  
    13   11   12 1  
    14   13   14 1  
    15   14   15 1  
    16   14   17 1  
    17   15   16 2  
    18   15   25 am 
    19   17   18 1  
    20   18   19 ar 
    21   18   20 ar 
    22   19   21 ar 
    23   20   22 ar 
    24   21   23 ar 
    25   22   23 ar 
    26   23   24 1  
    27   25   26 1  
    28   26   27 1  
    29   26   29 1  
    30   27   28 2  
    31   27   31 am 
    32   29   30 1  
    33   30   97 1  
    34   31   32 1  
    35   32   33 1  
    36   32   35 1  
    37   33   34 2  
    38   33   38 am 
    39   35   36 1  
    40   35   37 1  
    41   38   39 1  
    42   39   40 1  
    43   39   42 1  
    44   40   41 2  
    45   40   50 am 
    46   42   43 1  
    47   43   44 ar 
    48   43   45 ar 
    49   44   46 ar 
    50   45   47 ar 
    51   46   48 ar 
    52   47   48 ar 
    53   48   49 1  
    54   50   51 1  
    55   51   52 1  
    56   51   54 1  
    57   52   53 2  
    58   52   61 am 
    59   54   55 1  
    60   55   56 1  
    61   56   57 1  
    62   57   58 ar 
    63   58   59 ar 
    64   58   60 ar 
    65   61   62 1  
    66   62   63 1  
    67   63   64 1  
    68   64   65 2  
    69   64   66 am 
    70   66   67 1  
    71   67   68 1  
    72   67   70 1  
    73   68   69 2  
    74   68   72 am 
    75   70   71 1  
    76   72   73 1  
    77   73   74 1  
    78   73   76 1  
    79   74   75 2  
    80   74   86 am 
    81   76   77 1  
    82   77   78 2  
    83   77   79 1  
    84   78   80 1  
    85   79   81 ar 
    86   79   82 ar 
    87   80   81 1  
    88   81   83 ar 
    89   82   84 ar 
    90   83   85 ar 
    91   84   85 ar 
    92   86   87 1  
    93   87   88 1  
    94   87   90 1  
    95   88   89 2  
    96   88   92 am 
    97   90   91 1  
    98   92   93 1  
    99   93   94 1  
   100   93   96 1  
   101   94   95 2  
   102   94   98 am 
   103   96   97 1  
   104    1   99 1  
   105    1  100 1  
   106    1  101 1  
   107    2  102 1  
   108    2  103 1  
   109    3  104 1  
   110    3  105 1  
   111    7  106 1  
   112   10  107 1  
   113   10  108 1  
   114   11  109 1  
   115   11  110 1  
   116   12  111 1  
   117   12  112 1  
   118   13  113 1  
   119   14  114 1  
   120   17  115 1  
   121   17  116 1  
   122   19  117 1  
   123   20  118 1  
   124   21  119 1  
   125   22  120 1  
   126   24  121 1  
   127   25  122 1  
   128   26  123 1  
   129   29  124 1  
   130   29  125 1  
   131   31  126 1  
   132   32  127 1  
   133   35  128 1  
   134   36  129 1  
   135   36  130 1  
   136   36  131 1  
   137   37  132 1  
   138   37  133 1  
   139   37  134 1  
   140   38  135 1  
   141   39  136 1  
   142   42  137 1  
   143   42  138 1  
   144   44  139 1  
   145   45  140 1  
   146   46  141 1  
   147   47  142 1  
   148   49  143 1  
   149   50  144 1  
   150   51  145 1  
   151   54  146 1  
   152   54  147 1  
   153   55  148 1  
   154   55  149 1  
   155   56  150 1  
   156   56  151 1  
   157   57  152 1  
   158   59  153 1  
   159   59  154 1  
   160   60  155 1  
   161   60  156 1  
   162   61  157 1  
   163   62  158 1  
   164   62  159 1  
   165   63  160 1  
   166   63  161 1  
   167   66  162 1  
   168   67  163 1  
   169   70  164 1  
   170   70  165 1  
   171   71  166 1  
   172   72  167 1  
   173   73  168 1  
   174   76  169 1  
   175   76  170 1  
   176   78  171 1  
   177   80  172 1  
   178   82  173 1  
   179   83  174 1  
   180   84  175 1  
   181   85  176 1  
   182   86  177 1  
   183   87  178 1  
   184   90  179 1  
   185   90  180 1  
   186   91  181 1  
   187   92  182 1  
   188   93  183 1  
   189   96  184 1  
   190   96  185 1  
   191   98  186 1  
   192   98  187 1  
@<TRIPOS>SUBSTRUCTURE
     1 BAL         1

