4da5_ligand
  -I-interpret- 

 40 43  0  0  0  0  0  0  0  0999 V2000
  -10.2100  -12.7890    7.1080 O   0  0  0  0  0
  -10.8920  -13.9480    6.6050 C   0  0  0  0  0
  -10.8120  -14.0220    5.0430 C   0  0  0  0  0
  -11.2320  -12.6860    4.4020 C   0  0  0  0  0
  -10.1060  -12.1440    3.6070 N   0  3  0  0  0
   -8.9150  -11.9230    4.4600 C   0  0  0  0  0
   -8.3790  -13.2850    4.9510 C   0  0  0  0  0
   -9.3740  -14.3930    4.5360 C   0  0  0  0  0
   -9.3990  -14.4350    2.9930 C   0  0  0  0  0
   -9.7750  -13.0310    2.4680 C   0  0  0  0  0
  -10.3080  -15.1820    7.1840 C   0  0  0  0  0
  -10.5590  -16.4160    6.7440 C   0  0  0  0  0
   -9.9680  -17.4180    7.4730 C   0  0  0  0  0
   -9.3000  -17.0010    8.5380 C   0  0  0  0  0
   -8.4790  -18.0310    9.6440 Cl  0  0  0  0  0
   -9.3540  -15.2490    8.6460 S   0  0  0  0  0
  -12.3220  -13.9020    7.1000 C   0  0  0  0  0
  -12.7100  -13.4440    8.2990 C   0  0  0  0  0
  -14.0670  -13.5230    8.5470 C   0  0  0  0  0
  -14.7770  -14.1210    7.5830 C   0  0  0  0  0
  -16.5060  -14.3680    7.5850 Cl  0  0  0  0  0
  -13.7050  -14.5880    6.2740 S   0  0  0  0  0
  -10.5985  -11.9991    6.7249 H   0  0  0  0  0
  -11.5014  -14.8110    4.7425 H   0  0  0  0  0
  -11.4992  -11.9758    5.1845 H   0  0  0  0  0
  -12.0907  -12.8496    3.7509 H   0  0  0  0  0
  -10.4007  -11.2441    3.2280 H   0  0  0  0  0
   -9.1893  -11.3083    5.3174 H   0  0  0  0  0
   -8.1429  -11.4134    3.8836 H   0  0  0  0  0
   -8.2745  -13.2707    6.0359 H   0  0  0  0  0
   -7.4035  -13.4797    4.5054 H   0  0  0  0  0
   -9.0747  -15.3521    4.9586 H   0  0  0  0  0
  -10.1318  -15.1669    2.6533 H   0  0  0  0  0
   -8.4186  -14.7230    2.6135 H   0  0  0  0  0
   -8.9317  -12.6132    1.9180 H   0  0  0  0  0
  -10.6399  -13.1113    1.8095 H   0  0  0  0  0
  -11.1846  -16.6134    5.8735 H   0  0  0  0  0
  -10.0424  -18.4701    7.1980 H   0  0  0  0  0
  -12.0058  -13.0386    9.0256 H   0  0  0  0  0
  -14.5229  -13.1296    9.4555 H   0  0  0  0  0
  1  2  1  0  0  0
  2  3  1  0  0  0
  2 11  1  0  0  0
  2 17  1  0  0  0
  3  4  1  0  0  0
  3  8  1  0  0  0
  4  5  1  0  0  0
  5  6  1  0  0  0
  5 10  1  0  0  0
  6  7  1  0  0  0
  7  8  1  0  0  0
  8  9  1  0  0  0
  9 10  1  0  0  0
 11 12  4  0  0  0
 11 16  4  0  0  0
 12 13  4  0  0  0
 13 14  4  0  0  0
 14 15  1  0  0  0
 14 16  4  0  0  0
 17 18  4  0  0  0
 17 22  4  0  0  0
 18 19  4  0  0  0
 19 20  4  0  0  0
 20 21  1  0  0  0
 20 22  4  0  0  0
  1 23  1  0  0  0
  3 24  1  0  0  0
  4 25  1  0  0  0
  4 26  1  0  0  0
  5 27  1  0  0  0
  6 28  1  0  0  0
  6 29  1  0  0  0
  7 30  1  0  0  0
  7 31  1  0  0  0
  8 32  1  0  0  0
  9 33  1  0  0  0
  9 34  1  0  0  0
 10 35  1  0  0  0
 10 36  1  0  0  0
 12 37  1  0  0  0
 13 38  1  0  0  0
 18 39  1  0  0  0
 19 40  1  0  0  0
M  END
$$$$
