### 
### Created by X-TOOL on Mon Sep 10 21:13:14 2018
### 

@<TRIPOS>MOLECULE
4gv8_ligand
   40    41     1     0     0
SMALL
GAST_HUCK


@<TRIPOS>ATOM
      1 O4         35.0770   43.1540   -6.7290 O.2       1 DUP        -0.4124
      2 C4         36.1320   43.3510   -7.5810 C.2       1 DUP         0.1822
      3 C5         37.0280   44.3880   -7.3580 C.2       1 DUP         0.0062
      4 C6         38.1200   44.5570   -8.2350 C.2       1 DUP         0.0590
      5 N3         36.2920   42.5790   -8.7070 N.am      1 DUP        -0.1865
      6 C2         37.3630   42.7980   -9.5710 C.2       1 DUP         0.3327
      7 O2         37.4960   42.0200  -10.6600 O.2       1 DUP        -0.3815
      8 N1         38.2820   43.7530   -9.3240 N.am      1 DUP        -0.1618
      9 C1'        39.4190   43.9840  -10.2330 C.3       1 DUP         0.1800
     10 C2'        39.2790   45.2650  -11.0580 C.3       1 DUP         0.0316
     11 C3'        40.2040   46.2610  -10.3690 C.3       1 DUP         0.0890
     12 O3'        40.7660   47.2050  -11.2770 O.3       1 DUP        -0.3889
     13 O4'        40.6110   44.1350   -9.4240 O.3       1 DUP        -0.3386
     14 C4'        41.2720   45.3900   -9.7340 C.3       1 DUP         0.1166
     15 C5'        41.9550   46.0390   -8.5350 C.3       1 DUP         0.1132
     16 O5'        41.0220   46.5460   -7.5550 O.3       1 DUP        -0.2529
     17 PA         41.5830   46.9520   -6.1270 P.3       1 DUP         0.2362
     18 O1A        42.5440   48.0860   -6.4370 O.co2     1 DUP        -0.6036
     19 O2A        40.3170   47.1490   -5.3070 O.co2     1 DUP        -0.6036
     20 N3A        42.3620   45.5670   -5.5620 N.am      1 DUP        -0.1581
     21 PB         43.8420   45.5400   -4.7550 P.3       1 DUP         0.2871
     22 O1B        44.2550   46.9260   -4.3750 O.co2     1 DUP        -0.5685
     23 O2B        43.7210   44.5610   -3.6140 O.co2     1 DUP        -0.5685
     24 O3B        44.9130   45.0200   -5.8740 O.3       1 DUP        -0.1659
     25 PG         45.9570   45.8840   -6.8670 P.3       1 DUP         0.2047
     26 O2G        45.9280   44.9910   -8.0780 O.co2     1 DUP        -0.5893
     27 O1G        47.2350   45.9460   -6.0480 O.co2     1 DUP        -0.5893
     28 O3G        45.4150   47.2800   -7.0310 O.co2     1 DUP        -0.5893
     29 H1         36.8893   45.0636   -6.5152 H         1 DUP         0.0258
     30 H2         38.8467   45.3439   -8.0385 H         1 DUP         0.1178
     31 H3         35.6337   41.8535   -8.9079 H         1 DUP         0.2259
     32 H4         39.5207   43.1232  -10.9102 H         1 DUP         0.0970
     33 H5         38.2397   45.6252  -11.0447 H         1 DUP         0.0345
     34 H6         39.5950   45.0951  -12.0978 H         1 DUP         0.0345
     35 H7         39.6522   46.8108   -9.5923 H         1 DUP         0.0622
     36 H8         41.3325   47.8013  -10.8017 H         1 DUP         0.2099
     37 H9         42.0552   45.1962  -10.4816 H         1 DUP         0.0650
     38 H10        42.5730   46.8748   -8.8946 H         1 DUP         0.0651
     39 H11        42.5980   45.2894   -8.0507 H         1 DUP         0.0651
     40 H12        41.9087   44.6895   -5.7186 H         1 DUP         0.2175
@<TRIPOS>BOND
     1    1    2 2  
     2    2    3 1  
     3    2    5 am 
     4    3    4 2  
     5    4    8 am 
     6    5    6 am 
     7    6    7 2  
     8    6    8 am 
     9    8    9 1  
    10    9   10 1  
    11    9   13 1  
    12   10   11 1  
    13   11   12 1  
    14   11   14 1  
    15   13   14 1  
    16   14   15 1  
    17   15   16 1  
    18   16   17 1  
    19   17   18 ar 
    20   17   19 ar 
    21   17   20 am 
    22   20   21 1  
    23   21   22 ar 
    24   21   23 ar 
    25   21   24 1  
    26   24   25 1  
    27   25   26 ar 
    28   25   27 ar 
    29   25   28 ar 
    30    3   29 1  
    31    4   30 1  
    32    5   31 1  
    33    9   32 1  
    34   10   33 1  
    35   10   34 1  
    36   11   35 1  
    37   12   36 1  
    38   14   37 1  
    39   15   38 1  
    40   15   39 1  
    41   20   40 1  
@<TRIPOS>SUBSTRUCTURE
     1 DUP         1

