2xsb_ligand
  -I-interpret- 

 28 28  0  0  0  0  0  0  0  0999 V2000
    9.5700   17.0710   31.9520 C   0  0  0  0  0
    9.7290   15.7310   32.3730 C   0  0  0  0  0
    8.9860   14.6920   31.4790 C   0  0  0  0  0
    7.7650   15.2950   30.8310 C   0  0  0  0  0
    8.3220   16.3790   29.9270 C   0  0  0  0  0
    7.2440   17.0900   29.0960 C   0  0  0  0  0
   12.0270   15.6710   31.3730 C   0  0  0  0  0
   13.4570   15.1860   31.5780 C   0  0  0  0  0
   11.1750   15.3860   32.3920 N   0  0  0  0  0
    9.9870   17.9700   32.6770 O   0  0  0  0  0
    8.6740   13.4940   32.2220 O   0  0  0  0  0
    7.0830   14.2930   30.0340 O   0  0  0  0  0
    9.0250   17.3550   30.7200 O   0  0  0  0  0
    6.3730   17.8760   29.9300 O   0  0  0  0  0
   11.7260   16.2730   30.3380 O   0  0  0  0  0
    9.2849   15.6737   33.3668 H   0  0  0  0  0
    9.6591   14.4021   30.6721 H   0  0  0  0  0
    7.0477   15.6769   31.5574 H   0  0  0  0  0
    8.9952   15.8854   29.2261 H   0  0  0  0  0
    6.6463   16.3352   28.5850 H   0  0  0  0  0
    7.7361   17.7543   28.3856 H   0  0  0  0  0
   13.7220   14.4925   30.7799 H   0  0  0  0  0
   14.1349   16.0394   31.5596 H   0  0  0  0  0
   13.5334   14.6804   32.5406 H   0  0  0  0  0
   11.5471   14.9100   33.2138 H   0  0  0  0  0
    9.4768   13.1451   32.6161 H   0  0  0  0  0
    6.7331   13.6104   30.6112 H   0  0  0  0  0
    5.7117   18.3070   29.3836 H   0  0  0  0  0
  2  1  1  0  0  0
  1 10  2  0  0  0
  1 13  1  0  0  0
  2  3  1  0  0  0
  9  2  1  0  0  0
  3  4  1  0  0  0
  3 11  1  0  0  0
  4  5  1  0  0  0
  4 12  1  0  0  0
  5  6  1  0  0  0
 13  5  1  0  0  0
  6 14  1  0  0  0
  7  8  1  0  0  0
  7  9  1  0  0  0
  7 15  2  0  0  0
  2 16  1  0  0  0
  3 17  1  0  0  0
  4 18  1  0  0  0
  5 19  1  0  0  0
  6 20  1  0  0  0
  6 21  1  0  0  0
  8 22  1  0  0  0
  8 23  1  0  0  0
  8 24  1  0  0  0
  9 25  1  0  0  0
 11 26  1  0  0  0
 12 27  1  0  0  0
 14 28  1  0  0  0
M  END
$$$$
