6dug_ligand
  -I-interpret- 

 71 75  0  0  0  0  0  0  0  0999 V2000
   53.1820  -27.5150   38.3350 C   0  0  0  0  0
   51.7390  -27.0830   38.5920 C   0  0  0  0  0
   50.7910  -27.8790   39.2770 C   0  0  0  0  0
   49.4510  -27.5010   39.5240 C   0  0  0  0  0
   48.4500  -28.3300   40.2720 C   0  0  0  0  0
   47.5940  -27.9460   41.2410 C   0  0  0  0  0
   46.7760  -28.8990   41.8210 C   0  0  0  0  0
   49.0880  -26.2400   39.0450 C   0  0  0  0  0
   49.9710  -25.3950   38.3520 C   0  0  0  0  0
   49.4910  -24.0570   37.8630 C   0  0  0  0  0
   51.2960  -25.8150   38.1100 C   0  0  0  0  0
   52.5830  -25.1070   36.1690 C   0  0  0  0  0
   52.5610  -26.4050   34.2500 C   0  0  0  0  0
   51.0580  -28.4160   34.0830 C   0  0  0  0  0
   51.6000  -29.4020   35.0710 C   0  0  0  0  0
   50.6700  -30.5170   35.3510 C   0  0  0  0  0
   49.3740  -32.1990   34.6260 C   0  0  0  0  0
   50.1280  -33.4150   35.0630 C   0  0  0  0  0
   51.3840  -33.7010   34.4730 C   0  0  0  0  0
   52.1190  -34.8250   34.8560 C   0  0  0  0  0
   51.6980  -35.7630   35.8260 C   0  0  0  0  0
   50.4520  -35.4300   36.3690 C   0  0  0  0  0
   49.6860  -34.3150   36.0140 C   0  0  0  0  0
   49.4690  -30.2310   33.2120 C   0  0  0  0  0
   50.3170  -29.0230   32.8620 C   0  0  0  0  0
   53.9120  -24.5390   34.2700 C   0  0  0  0  0
   54.8670  -23.5650   33.7560 C   0  0  0  0  0
   55.1490  -22.5850   34.6490 C   0  0  0  0  0
   53.4980  -24.2360   35.5850 C   0  0  0  0  0
   46.0890  -29.7110   42.3350 N   0  0  0  0  0
   52.0890  -26.2070   35.5340 N   0  0  0  0  0
   52.1130  -27.5390   33.4870 N   0  0  0  0  0
   50.2460  -31.1600   34.0640 N   0  3  0  0  0
   52.9010  -38.0720   34.9160 N   0  0  0  0  0
   53.4610  -25.6150   33.5880 N   0  0  0  0  0
   52.1230  -24.8990   37.4380 O   0  0  0  0  0
   53.9290  -36.8010   36.7750 O   0  0  0  0  0
   51.8970  -37.9740   37.1930 O   0  0  0  0  0
   52.6460  -37.1760   36.2840 S   0  0  0  0  0
   54.2800  -22.7990   36.1180 S   0  0  0  0  0
   53.6816  -27.6933   39.2872 H   0  0  0  0  0
   53.1859  -28.4309   37.7441 H   0  0  0  0  0
   53.7042  -26.7279   37.7910 H   0  0  0  0  0
   51.1169  -28.8536   39.6404 H   0  0  0  0  0
   48.4087  -29.3836   39.9957 H   0  0  0  0  0
   47.5476  -26.9050   41.5609 H   0  0  0  0  0
   48.0688  -25.8943   39.2175 H   0  0  0  0  0
   48.6606  -24.2008   37.1717 H   0  0  0  0  0
   49.1594  -23.4590   38.7118 H   0  0  0  0  0
   50.3061  -23.5445   37.3521 H   0  0  0  0  0
   50.3560  -27.8645   34.7084 H   0  0  0  0  0
   51.7709  -28.8713   36.0076 H   0  0  0  0  0
   52.5091  -29.8286   34.6472 H   0  0  0  0  0
   49.7912  -30.1321   35.8683 H   0  0  0  0  0
   51.1714  -31.2565   35.9754 H   0  0  0  0  0
   48.8785  -31.7808   35.5022 H   0  0  0  0  0
   48.6728  -32.5026   33.8487 H   0  0  0  0  0
   51.7825  -33.0338   33.7088 H   0  0  0  0  0
   53.0827  -34.9902   34.3742 H   0  0  0  0  0
   50.0450  -36.0943   37.1314 H   0  0  0  0  0
   48.7222  -34.1528   36.4965 H   0  0  0  0  0
   49.1755  -30.7428   32.2955 H   0  0  0  0  0
   48.5812  -29.9034   33.7529 H   0  0  0  0  0
   51.0729  -29.3480   32.1471 H   0  0  0  0  0
   49.6500  -28.2563   32.4678 H   0  0  0  0  0
   55.3072  -23.6190   32.7603 H   0  0  0  0  0
   55.8402  -21.7637   34.4598 H   0  0  0  0  0
   52.5034  -27.7393   32.5662 H   0  0  0  0  0
   51.0047  -31.4762   33.4600 H   0  0  0  0  0
   53.8519  -38.2494   34.5924 H   0  0  0  0  0
   52.1072  -38.4468   34.3965 H   0  0  0  0  0
  2  1  1  0  0  0
  2  3  4  0  0  0
 11  2  4  0  0  0
  3  4  4  0  0  0
  4  5  1  0  0  0
  8  4  4  0  0  0
  5  6  2  0  0  0
  6  7  1  0  0  0
  7 30  3  0  0  0
  9  8  4  0  0  0
  9 10  1  0  0  0
 11  9  4  0  0  0
 36 11  1  0  0  0
 29 12  4  0  0  0
 12 31  4  0  0  0
 12 36  1  0  0  0
 31 13  4  0  0  0
 13 32  1  0  0  0
 13 35  4  0  0  0
 14 15  1  0  0  0
 14 25  1  0  0  0
 32 14  1  0  0  0
 15 16  1  0  0  0
 16 33  1  0  0  0
 17 18  1  0  0  0
 33 17  1  0  0  0
 18 19  4  0  0  0
 18 23  4  0  0  0
 19 20  4  0  0  0
 20 21  4  0  0  0
 22 21  4  0  0  0
 21 39  1  0  0  0
 23 22  4  0  0  0
 25 24  1  0  0  0
 24 33  1  0  0  0
 26 27  4  0  0  0
 26 29  4  0  0  0
 26 35  4  0  0  0
 27 28  4  0  0  0
 28 40  4  0  0  0
 29 40  4  0  0  0
 39 34  1  0  0  0
 39 37  2  0  0  0
 39 38  2  0  0  0
  1 41  1  0  0  0
  1 42  1  0  0  0
  1 43  1  0  0  0
  3 44  1  0  0  0
  5 45  1  0  0  0
  6 46  1  0  0  0
  8 47  1  0  0  0
 10 48  1  0  0  0
 10 49  1  0  0  0
 10 50  1  0  0  0
 14 51  1  0  0  0
 15 52  1  0  0  0
 15 53  1  0  0  0
 16 54  1  0  0  0
 16 55  1  0  0  0
 17 56  1  0  0  0
 17 57  1  0  0  0
 19 58  1  0  0  0
 20 59  1  0  0  0
 22 60  1  0  0  0
 23 61  1  0  0  0
 24 62  1  0  0  0
 24 63  1  0  0  0
 25 64  1  0  0  0
 25 65  1  0  0  0
 27 66  1  0  0  0
 28 67  1  0  0  0
 32 68  1  0  0  0
 33 69  1  0  0  0
 34 70  1  0  0  0
 34 71  1  0  0  0
M  END
$$$$
