6e22_ligand
  -I-interpret- 

 48 50  0  0  0  0  0  0  0  0999 V2000
   -2.4200   -3.3220   12.1590 N   0  0  0  0  0
   -0.6130   -3.5330    4.2810 N   0  0  0  0  0
   -0.4180   -3.2760   13.6550 C   0  0  0  0  0
   -1.7820   -2.7160   13.3210 C   0  0  0  0  0
   -2.6300   -2.6040   11.0510 C   0  0  0  0  0
   -3.2660   -3.3040    9.8870 C   0  0  0  0  0
   -3.8760   -4.5400   10.0270 C   0  0  0  0  0
   -4.3460   -4.5560    7.7060 C   0  0  0  0  0
   -1.4800   -2.8800    5.0270 C   0  0  0  0  0
    0.3380   -1.4850    4.9500 C   0  0  0  0  0
    0.4740   -3.6520   12.6530 C   0  0  0  0  0
    2.1060   -4.2710   14.3370 C   0  0  0  0  0
    0.7030   -3.4530   17.6200 C   0  0  0  0  0
   -3.7420   -3.3280    7.5160 C   0  0  0  0  0
   -3.6500   -2.6780    6.1550 C   0  0  0  0  0
    0.6230   -2.7640    4.1720 C   0  0  0  0  0
   -3.2010   -2.7080    8.6320 C   0  0  0  0  0
    1.7260   -4.1570   13.0060 C   0  0  0  0  0
    2.3250   -4.4100   10.6980 C   0  0  0  0  0
    1.2170   -3.8750   15.3240 C   0  0  0  0  0
   -0.0350   -3.3760   14.9870 C   0  0  0  0  0
   -4.4240   -5.1740    8.9270 C   0  0  0  0  0
   -4.8590   -5.1920    6.6310 F   0  0  0  0  0
   -2.6810   -3.3470    5.3010 N   0  0  0  0  0
   -1.0050   -1.7260    5.4520 N   0  0  0  0  0
    1.5870   -3.9870   16.6390 O   0  0  0  0  0
   -2.2880   -1.4280   10.9590 O   0  0  0  0  0
    2.6520   -4.5550   12.0770 O   0  0  0  0  0
   -2.7080   -4.3000   12.1914 H   0  0  0  0  0
   -2.4260   -2.9160   14.1774 H   0  0  0  0  0
   -1.6443   -1.6591   13.0928 H   0  0  0  0  0
   -3.9241   -5.0142   11.0073 H   0  0  0  0  0
    0.9768   -0.6135    5.0933 H   0  0  0  0  0
    0.1966   -3.5527   11.6036 H   0  0  0  0  0
    3.0872   -4.6654   14.6011 H   0  0  0  0  0
    0.5731   -2.3847   17.4471 H   0  0  0  0  0
   -0.2624   -3.9540   17.5485 H   0  0  0  0  0
    1.1243   -3.6131   18.6125 H   0  0  0  0  0
   -3.3316   -1.6443    6.2899 H   0  0  0  0  0
   -4.6282   -2.7415    5.6783 H   0  0  0  0  0
    1.5403   -3.0413    3.6527 H   0  0  0  0  0
   -2.7168   -1.7375    8.5240 H   0  0  0  0  0
    1.4317   -4.9932   10.4745 H   0  0  0  0  0
    2.1384   -3.3587   10.4787 H   0  0  0  0  0
    3.1556   -4.7676   10.0894 H   0  0  0  0  0
   -0.7215   -3.0608   15.7728 H   0  0  0  0  0
   -4.9081   -6.1453    9.0288 H   0  0  0  0  0
   -2.9499   -4.2390    4.8858 H   0  0  0  0  0
  4  1  1  0  0  0
  1  5  1  0  0  0
  9  2  4  0  0  0
  2 16  4  0  0  0
  3  4  1  0  0  0
  3 11  4  0  0  0
 21  3  4  0  0  0
  5  6  1  0  0  0
  5 27  2  0  0  0
  6  7  4  0  0  0
  6 17  4  0  0  0
  7 22  4  0  0  0
 14  8  4  0  0  0
 22  8  4  0  0  0
  8 23  1  0  0  0
 24  9  1  0  0  0
  9 25  4  0  0  0
 10 16  4  0  0  0
 25 10  4  0  0  0
 18 11  4  0  0  0
 12 18  4  0  0  0
 20 12  4  0  0  0
 26 13  1  0  0  0
 14 15  1  0  0  0
 17 14  4  0  0  0
 15 24  1  0  0  0
 18 28  1  0  0  0
 28 19  1  0  0  0
 20 21  4  0  0  0
 20 26  1  0  0  0
  1 29  1  0  0  0
  4 30  1  0  0  0
  4 31  1  0  0  0
  7 32  1  0  0  0
 10 33  1  0  0  0
 11 34  1  0  0  0
 12 35  1  0  0  0
 13 36  1  0  0  0
 13 37  1  0  0  0
 13 38  1  0  0  0
 15 39  1  0  0  0
 15 40  1  0  0  0
 16 41  1  0  0  0
 17 42  1  0  0  0
 19 43  1  0  0  0
 19 44  1  0  0  0
 19 45  1  0  0  0
 21 46  1  0  0  0
 22 47  1  0  0  0
 24 48  1  0  0  0
M  END
$$$$
