2aie_ligand
  -I-interpret- 

 31 31  0  0  0  0  0  0  0  0999 V2000
   23.8560   -5.2880    8.9670 C   0  0  0  0  0
   24.3230   -4.9200    7.7430 N   0  0  0  0  0
   25.4540   -4.1500    7.6150 C   0  0  0  0  0
   26.2000   -3.6970    8.7270 C   0  0  0  0  0
   25.7780   -4.0390   10.0210 C   0  0  0  0  0
   24.4910   -4.9140   10.1590 C   0  0  0  0  0
   22.6160   -6.1290    8.9880 C   0  0  0  0  0
   25.8630   -3.8130    6.2060 C   0  0  0  0  0
   26.8510   -4.8250    5.5960 C   0  0  0  0  0
   27.5010   -4.3330    4.2900 C   0  0  0  0  0
   28.8400   -3.8060    4.5590 N   0  3  0  0  0
   29.9280   -4.6730    4.5470 O   0  0  0  0  0
   29.0050   -2.4850    4.8130 C   0  0  0  0  0
   30.0810   -1.9490    5.0490 O   0  0  0  0  0
   27.0928   -3.0890    8.5811 H   0  0  0  0  0
   26.3295   -3.7055   10.9001 H   0  0  0  0  0
   24.1067   -5.2180   11.1326 H   0  0  0  0  0
   21.8013   -5.5847    8.5104 H   0  0  0  0  0
   22.7995   -7.0581    8.4483 H   0  0  0  0  0
   22.3484   -6.3538   10.0205 H   0  0  0  0  0
   26.3604   -2.8434    6.2317 H   0  0  0  0  0
   24.9626   -3.8224    5.5918 H   0  0  0  0  0
   26.2918   -5.7313    5.3638 H   0  0  0  0  0
   27.6492   -4.9832    6.3212 H   0  0  0  0  0
   26.8858   -3.5420    3.8612 H   0  0  0  0  0
   27.5794   -5.1681    3.5939 H   0  0  0  0  0
   29.5979   -3.2171    4.9042 H   0  0  0  0  0
   30.7297   -4.1813    4.7394 H   0  0  0  0  0
   28.4684   -2.3581    5.7532 H   0  0  0  0  0
   28.7169   -2.0264    3.8671 H   0  0  0  0  0
   29.9442   -1.0102    5.1960 H   0  0  0  0  0
  1  2  4  0  0  0
  1  6  4  0  0  0
  1  7  1  0  0  0
  2  3  4  0  0  0
  3  4  4  0  0  0
  3  8  1  0  0  0
  4  5  4  0  0  0
  5  6  4  0  0  0
  8  9  1  0  0  0
  9 10  1  0  0  0
 10 11  1  0  0  0
 11 12  1  0  0  0
 11 13  1  0  0  0
 13 14  1  0  0  0
  4 15  1  0  0  0
  5 16  1  0  0  0
  6 17  1  0  0  0
  7 18  1  0  0  0
  7 19  1  0  0  0
  7 20  1  0  0  0
  8 21  1  0  0  0
  8 22  1  0  0  0
  9 23  1  0  0  0
  9 24  1  0  0  0
 10 25  1  0  0  0
 10 26  1  0  0  0
 11 27  1  0  0  0
 12 28  1  0  0  0
 13 29  1  0  0  0
 13 30  1  0  0  0
 14 31  1  0  0  0
M  END
$$$$
