3qd0_ligand
  -I-interpret- 

 58 62  0  0  0  0  0  0  0  0999 V2000
  -52.8550   24.7130    9.1690 C   0  0  0  0  0
  -52.2490   23.8000    8.3290 C   0  0  0  0  0
  -52.1820   25.1640   10.2880 C   0  0  0  0  0
  -40.8020   16.4820   13.0440 C   0  0  0  0  0
  -42.0000   17.0910   12.7040 C   0  0  0  0  0
  -50.9790   23.3360    8.6110 C   0  0  0  0  0
  -50.9130   24.7030   10.5740 C   0  0  0  0  0
  -43.0190   15.0870   11.9110 C   0  0  0  0  0
  -44.5490   18.5190   12.0560 C   0  0  0  0  0
  -40.7190   15.1080   12.7980 C   0  0  0  0  0
  -43.1010   16.4520   12.1410 C   0  0  0  0  0
  -41.8260   14.4760   12.2570 C   0  0  0  0  0
  -50.3160   23.7840    9.7340 C   0  0  0  0  0
  -44.3320   17.1860   11.7520 C   0  0  0  0  0
  -45.7500   19.1170   11.6860 C   0  0  0  0  0
  -39.7370   14.0810   12.9550 C   0  0  0  0  0
  -46.4210   17.1120   10.7650 C   0  0  0  0  0
  -48.5250   23.1180   11.2570 C   0  0  0  0  0
  -46.3510   23.2490   12.3950 C   0  0  0  0  0
  -44.9820   22.6120   12.6350 C   0  0  0  0  0
  -47.3210   21.0520   11.8320 C   0  0  0  0  0
  -47.1510   22.4810   11.3360 C   0  0  0  0  0
  -45.0930   21.1290   12.9980 C   0  0  0  0  0
  -45.5760   20.9800   14.4180 C   0  0  0  0  0
  -45.2770   16.4850   11.1050 N   0  0  0  0  0
  -46.6810   18.4020   11.0390 N   0  0  0  0  0
  -40.2110   12.8990   12.5270 N   0  0  0  0  0
  -41.4590   13.1680   12.1200 N   0  0  0  0  0
  -45.9620   20.5170   11.9760 N   0  0  0  0  0
  -38.4790   14.2720   13.4660 N   0  0  0  0  0
  -47.4170   16.3900   10.0880 N   0  0  0  0  0
  -49.0260   23.2960    9.9890 N   0  0  0  0  0
  -49.1330   23.4090   12.2650 O   0  0  0  0  0
  -53.8592   25.0760    8.9504 H   0  0  0  0  0
  -52.7736   23.4449    7.4420 H   0  0  0  0  0
  -52.6565   25.8888   10.9495 H   0  0  0  0  0
  -39.9732   17.0415   13.4777 H   0  0  0  0  0
  -42.0872   18.1608   12.8936 H   0  0  0  0  0
  -50.5012   22.6162    7.9463 H   0  0  0  0  0
  -50.3853   25.0621   11.4575 H   0  0  0  0  0
  -43.8487   14.5257   11.4812 H   0  0  0  0  0
  -43.7863   19.0949   12.5803 H   0  0  0  0  0
  -46.1998   24.2687   12.0409 H   0  0  0  0  0
  -46.9095   23.2293   13.3308 H   0  0  0  0  0
  -44.5065   23.1312   13.4671 H   0  0  0  0  0
  -44.4025   22.6946   11.7155 H   0  0  0  0  0
  -47.9106   20.4568   11.1347 H   0  0  0  0  0
  -47.8625   21.0213   12.7775 H   0  0  0  0  0
  -46.6526   22.4990   10.3668 H   0  0  0  0  0
  -44.1353   20.6087   12.9844 H   0  0  0  0  0
  -44.8697   21.4630   15.0932 H   0  0  0  0  0
  -46.5551   21.4485   14.5184 H   0  0  0  0  0
  -45.6513   19.9212   14.6656 H   0  0  0  0  0
  -38.1865   15.2017   13.7669 H   0  0  0  0  0
  -37.8357   13.4844   13.5452 H   0  0  0  0  0
  -47.2689   15.4067    9.8610 H   0  0  0  0  0
  -48.2887   16.8488    9.8233 H   0  0  0  0  0
  -48.4303   23.0617    9.1948 H   0  0  0  0  0
  2  1  4  0  0  0
  3  1  4  0  0  0
  6  2  4  0  0  0
  7  3  4  0  0  0
  5  4  4  0  0  0
  4 10  4  0  0  0
 11  5  4  0  0  0
 13  6  4  0  0  0
 13  7  4  0  0  0
 11  8  4  0  0  0
  8 12  4  0  0  0
  9 14  4  0  0  0
 15  9  4  0  0  0
 12 10  4  0  0  0
 10 16  4  0  0  0
 14 11  1  0  0  0
 12 28  4  0  0  0
 32 13  1  0  0  0
 14 25  4  0  0  0
 15 26  4  0  0  0
 29 15  1  0  0  0
 16 27  4  0  0  0
 16 30  1  0  0  0
 17 25  4  0  0  0
 26 17  4  0  0  0
 17 31  1  0  0  0
 22 18  1  0  0  0
 18 32  1  0  0  0
 18 33  2  0  0  0
 19 20  1  0  0  0
 22 19  1  0  0  0
 20 23  1  0  0  0
 21 22  1  0  0  0
 21 29  1  0  0  0
 23 24  1  0  0  0
 23 29  1  0  0  0
 27 28  4  0  0  0
  1 34  1  0  0  0
  2 35  1  0  0  0
  3 36  1  0  0  0
  4 37  1  0  0  0
  5 38  1  0  0  0
  6 39  1  0  0  0
  7 40  1  0  0  0
  8 41  1  0  0  0
  9 42  1  0  0  0
 19 43  1  0  0  0
 19 44  1  0  0  0
 20 45  1  0  0  0
 20 46  1  0  0  0
 21 47  1  0  0  0
 21 48  1  0  0  0
 22 49  1  0  0  0
 23 50  1  0  0  0
 24 51  1  0  0  0
 24 52  1  0  0  0
 24 53  1  0  0  0
 30 54  1  0  0  0
 30 55  1  0  0  0
 31 56  1  0  0  0
 31 57  1  0  0  0
 32 58  1  0  0  0
M  END
$$$$
