2aeb_ligand
  -I-interpret- 

 27 26  0  0  0  0  0  0  0  0999 V2000
   65.4420    9.9290   31.1110 N   0  3  0  0  0
   65.5320   10.1090   29.6360 C   0  0  0  0  0
   66.9810    9.7210   29.2130 C   0  0  0  0  0
   67.3720    9.7130   28.0850 O   0  0  0  0  0
   67.7960    9.3450   30.1980 O   0  0  0  0  0
   65.2720   11.5760   29.2400 C   0  0  0  0  0
   66.2610   12.6640   29.5090 C   0  0  0  0  0
   65.8950   14.0800   29.1140 C   0  0  0  0  0
   66.9970   15.0470   29.5290 C   0  0  0  0  0
   66.6680   16.5410   29.8410 B   0  0  0  0  0
   67.8370   17.3760   30.0880 O   0  0  0  0  0
   65.8800   16.7080   31.0390 O   0  0  0  0  0
   65.6178    8.9518   31.3444 H   0  0  0  0  0
   66.1375   10.5192   31.5674 H   0  0  0  0  0
   64.5093   10.1931   31.4283 H   0  0  0  0  0
   64.7843    9.4882   29.1424 H   0  0  0  0  0
   67.3330    9.4080   31.0366 H   0  0  0  0  0
   64.4146   11.8557   29.8522 H   0  0  0  0  0
   65.2243   11.5402   28.1516 H   0  0  0  0  0
   67.1336   12.4142   28.9054 H   0  0  0  0  0
   66.3730   12.6884   30.5930 H   0  0  0  0  0
   64.9684   14.3607   29.6147 H   0  0  0  0  0
   65.7699   14.1264   28.0322 H   0  0  0  0  0
   67.6532   15.0935   28.6599 H   0  0  0  0  0
   67.3588   14.6492   30.4771 H   0  0  0  0  0
   67.5539   18.2748   30.2711 H   0  0  0  0  0
   65.7089   17.6420   31.1805 H   0  0  0  0  0
  1  2  1  0  0  0
  2  3  1  0  0  0
  2  6  1  0  0  0
  3  4  2  0  0  0
  3  5  1  0  0  0
  6  7  1  0  0  0
  7  8  1  0  0  0
  8  9  1  0  0  0
  9 10  1  0  0  0
 10 11  1  0  0  0
 10 12  1  0  0  0
  1 13  1  0  0  0
  1 14  1  0  0  0
  1 15  1  0  0  0
  2 16  1  0  0  0
  5 17  1  0  0  0
  6 18  1  0  0  0
  6 19  1  0  0  0
  7 20  1  0  0  0
  7 21  1  0  0  0
  8 22  1  0  0  0
  8 23  1  0  0  0
  9 24  1  0  0  0
  9 25  1  0  0  0
 11 26  1  0  0  0
 12 27  1  0  0  0
M  END
$$$$
