### 
### Created by X-TOOL on Mon Sep 10 21:12:52 2018
### 

@<TRIPOS>MOLECULE
2aeb_ligand
   26    25     1     0     0
SMALL
GAST_HUCK


@<TRIPOS>ATOM
      1 N          65.4420    9.9290   31.1110 N.4       1 ABH         0.2327
      2 CA         65.5320   10.1090   29.6360 C.3       1 ABH         0.0283
      3 C          66.9810    9.7210   29.2130 C.2       1 ABH         0.0844
      4 O          67.3720    9.7130   28.0850 O.co2     1 ABH        -0.5643
      5 OT         67.7960    9.3450   30.1980 O.co2     1 ABH        -0.5643
      6 CB         65.2720   11.5760   29.2400 C.3       1 ABH         0.0023
      7 CG         66.2610   12.6640   29.5090 C.3       1 ABH        -0.0474
      8 CD         65.8950   14.0800   29.1140 C.3       1 ABH        -0.0614
      9 CE         66.9970   15.0470   29.5290 C.3       1 ABH        -0.0429
     10 B          66.6680   16.5410   29.8410 B         1 ABH         0.6889
     11 O2         67.8370   17.3760   30.0880 O.3       1 ABH        -0.4978
     12 O1         65.8800   16.7080   31.0390 O.3       1 ABH        -0.4978
     13 H1         64.5147   10.1715   31.4231 H         1 ABH         0.2010
     14 H2         66.1159   10.5262   31.5641 H         1 ABH         0.2010
     15 H3         65.6344    8.9675   31.3445 H         1 ABH         0.2010
     16 H4         64.8008    9.4579   29.1347 H         1 ABH         0.1024
     17 H5         64.3445   11.8717   29.7522 H         1 ABH         0.0338
     18 H6         65.1061   11.5749   28.1526 H         1 ABH         0.0338
     19 H7         67.1851   12.4045   28.9718 H         1 ABH         0.0268
     20 H8         66.4550   12.6676   30.5917 H         1 ABH         0.0268
     21 H9         64.9563   14.3644   29.6120 H         1 ABH         0.0254
     22 H10        65.7610   14.1293   28.0233 H         1 ABH         0.0254
     23 H11        67.7354   15.0512   28.7137 H         1 ABH         0.0143
     24 H12        67.4561   14.6297   30.4373 H         1 ABH         0.0143
     25 H13        68.2875   17.0664   30.8650 H         1 ABH         0.1666
     26 H14        66.3825   16.4160   31.7905 H         1 ABH         0.1666
@<TRIPOS>BOND
     1    1    2 1  
     2    1   13 1  
     3    1   14 1  
     4    1   15 1  
     5    2    3 1  
     6    2    6 1  
     7    2   16 1  
     8    3    4 ar 
     9    3    5 ar 
    10    6    7 1  
    11    6   17 1  
    12    6   18 1  
    13    7    8 1  
    14    7   19 1  
    15    7   20 1  
    16    8    9 1  
    17    8   21 1  
    18    8   22 1  
    19    9   10 1  
    20    9   23 1  
    21    9   24 1  
    22   10   11 1  
    23   10   12 1  
    24   11   25 1  
    25   12   26 1  
@<TRIPOS>SUBSTRUCTURE
     1 ABH         1

