5h22_ligand
  -I-interpret- 

 51 54  0  0  0  0  0  0  0  0999 V2000
  -29.3620  -12.3500  -23.4840 C   0  0  0  0  0
  -27.1180  -12.9600  -23.5400 C   0  0  0  0  0
  -28.7360  -14.5480  -24.2940 C   0  0  0  0  0
  -29.4520   -8.1490  -27.5700 C   0  0  0  0  0
  -28.8060   -7.3890  -26.6030 C   0  0  0  0  0
  -27.4780   -7.0050  -26.8040 C   0  0  0  0  0
  -27.4600   -8.1370  -28.9170 C   0  0  0  0  0
  -31.1930  -13.9600  -24.2250 C   0  0  0  0  0
  -28.9010  -15.9870  -26.1770 C   0  0  0  0  0
  -34.1900   -9.1110  -27.7980 Cl  0  0  0  0  0
  -34.7650  -10.5510  -25.6630 N   0  0  0  0  0
  -34.5280  -11.2130  -24.5440 C   0  0  0  0  0
  -33.3120  -11.2970  -24.0120 N   0  0  0  0  0
  -32.2720  -10.6820  -24.6240 C   0  0  0  0  0
  -32.4650   -9.9830  -25.7830 C   0  0  0  0  0
  -33.7810   -9.9400  -26.2950 C   0  0  0  0  0
  -30.9530  -10.6340  -24.3090 N   0  0  0  0  0
  -30.2910   -9.8940  -25.1990 C   0  0  0  0  0
  -31.1850   -9.4630  -26.1780 C   0  0  0  0  0
  -35.6380  -11.8430  -23.8900 N   0  0  0  0  0
  -30.3960  -11.2700  -23.1190 C   0  0  0  0  0
  -28.0780  -12.0860  -23.2690 N   0  0  0  0  0
  -27.4100  -14.2140  -24.0550 C   0  0  0  0  0
  -29.7240  -13.6040  -23.9840 C   0  0  0  0  0
  -30.9120   -8.5950  -27.4190 C   0  0  0  0  0
  -26.8080   -7.3810  -27.9550 C   0  0  0  0  0
  -28.7820   -8.5110  -28.7200 C   0  0  0  0  0
  -29.0860  -15.8060  -24.7940 O   0  0  0  0  0
  -26.2750  -15.2040  -24.3360 C   0  0  0  0  0
  -26.0791  -12.6873  -23.3543 H   0  0  0  0  0
  -29.3313   -7.0946  -25.6944 H   0  0  0  0  0
  -26.9668   -6.4061  -26.0503 H   0  0  0  0  0
  -26.9363   -8.4366  -29.8248 H   0  0  0  0  0
  -31.7409  -13.8922  -23.2851 H   0  0  0  0  0
  -31.6204  -13.2643  -24.9471 H   0  0  0  0  0
  -31.2602  -14.9761  -24.6137 H   0  0  0  0  0
  -29.5066  -15.2623  -26.7212 H   0  0  0  0  0
  -27.8493  -15.8417  -26.4237 H   0  0  0  0  0
  -29.2043  -16.9967  -26.4538 H   0  0  0  0  0
  -29.2261   -9.6639  -25.1664 H   0  0  0  0  0
  -36.5734  -11.7717  -24.2905 H   0  0  0  0  0
  -35.4921  -12.3624  -23.0244 H   0  0  0  0  0
  -29.8990  -10.5059  -22.5213 H   0  0  0  0  0
  -31.2094  -11.7441  -22.5697 H   0  0  0  0  0
  -31.1541   -9.2001  -28.2927 H   0  0  0  0  0
  -31.5139   -7.6920  -27.3170 H   0  0  0  0  0
  -25.7702   -7.0835  -28.1049 H   0  0  0  0  0
  -29.2961   -9.0969  -29.4820 H   0  0  0  0  0
  -25.5883  -14.7706  -25.0631 H   0  0  0  0  0
  -25.7403  -15.4142  -23.4097 H   0  0  0  0  0
  -26.6918  -16.1290  -24.7344 H   0  0  0  0  0
 21  1  1  0  0  0
  1 22  4  0  0  0
  1 24  4  0  0  0
 22  2  4  0  0  0
  2 23  4  0  0  0
  3 23  4  0  0  0
 24  3  4  0  0  0
  3 28  1  0  0  0
  4  5  4  0  0  0
 25  4  1  0  0  0
  4 27  4  0  0  0
  5  6  4  0  0  0
  6 26  4  0  0  0
  7 26  4  0  0  0
 27  7  4  0  0  0
 24  8  1  0  0  0
 28  9  1  0  0  0
 16 10  1  0  0  0
 11 12  4  0  0  0
 16 11  4  0  0  0
 13 12  4  0  0  0
 12 20  1  0  0  0
 14 13  4  0  0  0
 15 14  4  0  0  0
 17 14  4  0  0  0
 15 16  4  0  0  0
 19 15  4  0  0  0
 18 17  4  0  0  0
 17 21  1  0  0  0
 19 18  4  0  0  0
 19 25  1  0  0  0
 23 29  1  0  0  0
  2 30  1  0  0  0
  5 31  1  0  0  0
  6 32  1  0  0  0
  7 33  1  0  0  0
  8 34  1  0  0  0
  8 35  1  0  0  0
  8 36  1  0  0  0
  9 37  1  0  0  0
  9 38  1  0  0  0
  9 39  1  0  0  0
 18 40  1  0  0  0
 20 41  1  0  0  0
 20 42  1  0  0  0
 21 43  1  0  0  0
 21 44  1  0  0  0
 25 45  1  0  0  0
 25 46  1  0  0  0
 26 47  1  0  0  0
 27 48  1  0  0  0
 29 49  1  0  0  0
 29 50  1  0  0  0
 29 51  1  0  0  0
M  END
$$$$
