3iqh_ligand
  -I-interpret- 

 57 57  0  0  0  0  0  0  0  0999 V2000
   20.2970    3.5360   44.1210 N   0  3  0  0  0
   19.4670    3.8070   42.9050 C   0  0  0  0  0
   18.4550    2.6850   42.6430 C   0  0  0  0  0
   18.6630    1.5370   43.0550 O   0  0  0  0  0
   20.3460    4.0420   41.6630 C   0  0  0  0  0
   21.3870    2.9590   41.4110 C   0  0  0  0  0
   21.0550    1.7850   40.7180 C   0  0  0  0  0
   22.7030    3.1060   41.8740 C   0  0  0  0  0
   22.0060    0.7920   40.4910 C   0  0  0  0  0
   23.6620    2.1130   41.6580 C   0  0  0  0  0
   23.3020    0.9620   40.9700 C   0  0  0  0  0
   24.2390   -0.0150   40.7480 O   0  0  0  0  0
   17.3650    3.0320   41.9510 N   0  0  0  0  0
   16.2510    2.1160   41.6940 C   0  0  0  0  0
   16.1090    1.8090   40.1970 C   0  0  0  0  0
   15.1830    2.3040   39.5500 O   0  0  0  0  0
   14.9300    2.6980   42.2520 C   0  0  0  0  0
   14.9950    3.0120   43.7620 C   0  0  0  0  0
   15.8830    3.7790   44.2040 O   0  0  0  0  0
   14.1310    2.5070   44.5090 O   0  0  0  0  0
   17.0040    0.9870   39.6510 N   0  0  0  0  0
   17.0230    0.7600   38.1940 C   0  0  0  0  0
   16.7090   -0.6810   37.7510 C   0  0  0  0  0
   17.4310   -1.6500   38.0150 O   0  0  0  0  0
   18.3100    1.3370   37.5140 C   0  0  0  0  0
   18.4460    2.8430   37.8420 C   0  0  0  0  0
   18.2650    1.1100   36.0000 C   0  0  0  0  0
   19.7770    3.5150   37.4440 C   0  0  0  0  0
   15.6870   -0.8870   37.0990 O   0  0  0  0  0
   19.6845    3.3854   44.9226 H   0  0  0  0  0
   20.8653    2.7035   43.9647 H   0  0  0  0  0
   20.9048    4.3351   44.3013 H   0  0  0  0  0
   18.9073    4.7210   43.1037 H   0  0  0  0  0
   20.8882    4.9731   41.8278 H   0  0  0  0  0
   19.6812    4.0522   40.7993 H   0  0  0  0  0
   20.0377    1.6476   40.3516 H   0  0  0  0  0
   22.9826    4.0116   42.4122 H   0  0  0  0  0
   21.7372   -0.1108   39.9426 H   0  0  0  0  0
   24.6804    2.2404   42.0252 H   0  0  0  0  0
   25.0752    0.2507   41.1377 H   0  0  0  0  0
   17.3061    3.9818   41.5837 H   0  0  0  0  0
   16.4680    1.1794   42.2076 H   0  0  0  0  0
   14.1504    1.9509   42.1029 H   0  0  0  0  0
   14.7333    3.6333   41.7279 H   0  0  0  0  0
   16.4486    4.0617   43.4817 H   0  0  0  0  0
   17.6819    0.5106   40.2458 H   0  0  0  0  0
   16.1769    1.3379   37.8221 H   0  0  0  0  0
   18.1891   -1.3535   38.5240 H   0  0  0  0  0
   19.1831    0.8148   37.9054 H   0  0  0  0  0
   18.3790    2.9235   38.9270 H   0  0  0  0  0
   17.6687    3.3487   37.2692 H   0  0  0  0  0
   18.2051    0.0410   35.7958 H   0  0  0  0  0
   17.3901    1.6101   35.5848 H   0  0  0  0  0
   19.1680    1.5179   35.5457 H   0  0  0  0  0
   20.6004    3.0209   37.9596 H   0  0  0  0  0
   19.9178    3.4295   36.3665 H   0  0  0  0  0
   19.7496    4.5676   37.7257 H   0  0  0  0  0
  1  2  1  0  0  0
  2  3  1  0  0  0
  2  5  1  0  0  0
  3  4  2  0  0  0
  3 13  1  0  0  0
  5  6  1  0  0  0
  6  7  4  0  0  0
  6  8  4  0  0  0
  7  9  4  0  0  0
  8 10  4  0  0  0
  9 11  4  0  0  0
 10 11  4  0  0  0
 11 12  1  0  0  0
 13 14  1  0  0  0
 14 15  1  0  0  0
 14 17  1  0  0  0
 15 16  2  0  0  0
 15 21  1  0  0  0
 17 18  1  0  0  0
 18 19  1  0  0  0
 18 20  2  0  0  0
 21 22  1  0  0  0
 22 23  1  0  0  0
 22 25  1  0  0  0
 23 24  1  0  0  0
 23 29  2  0  0  0
 25 26  1  0  0  0
 25 27  1  0  0  0
 26 28  1  0  0  0
  1 30  1  0  0  0
  1 31  1  0  0  0
  1 32  1  0  0  0
  2 33  1  0  0  0
  5 34  1  0  0  0
  5 35  1  0  0  0
  7 36  1  0  0  0
  8 37  1  0  0  0
  9 38  1  0  0  0
 10 39  1  0  0  0
 12 40  1  0  0  0
 13 41  1  0  0  0
 14 42  1  0  0  0
 17 43  1  0  0  0
 17 44  1  0  0  0
 19 45  1  0  0  0
 21 46  1  0  0  0
 22 47  1  0  0  0
 24 48  1  0  0  0
 25 49  1  0  0  0
 26 50  1  0  0  0
 26 51  1  0  0  0
 27 52  1  0  0  0
 27 53  1  0  0  0
 27 54  1  0  0  0
 28 55  1  0  0  0
 28 56  1  0  0  0
 28 57  1  0  0  0
M  END
$$$$
