2fes_ligand
  -I-interpret- 

 66 68  0  0  0  0  0  0  0  0999 V2000
   11.9870   22.1830   23.0070 C   0  0  0  0  0
   12.3400   20.9380   22.4630 C   0  0  0  0  0
   13.2930   21.0600   21.4330 C   0  0  0  0  0
   13.6540   22.4010   21.2050 C   0  0  0  0  0
   12.8240   23.4510   22.2520 S   0  0  0  0  0
   11.0020   22.3810   24.0950 C   0  0  0  0  0
   10.3540   21.3350   24.6170 N   0  0  0  0  0
   10.7540   23.6110   24.5520 N   0  0  0  0  0
   14.5280   22.8060   20.2700 C   0  0  0  0  0
   15.8550   22.6880   20.7500 N   0  0  0  0  0
   16.6420   21.6020   20.4500 C   0  0  0  0  0
   16.2130   20.6880   19.7550 O   0  0  0  0  0
   18.0490   21.5090   21.0050 C   0  0  0  0  0
   19.0900   21.6240   19.8540 C   0  0  0  0  0
   20.1650   20.5760   20.2440 C   0  0  0  0  0
   19.3350   19.4790   20.9150 C   0  0  0  0  0
   18.2390   20.1610   21.6210 N   0  0  0  0  0
   17.5080   19.6480   22.6620 C   0  0  0  0  0
   16.6170   20.3080   23.1680 O   0  0  0  0  0
   17.7870   18.2500   23.1910 C   0  0  0  0  0
   16.5380   17.4770   23.1680 N   0  3  0  0  0
   15.9690   17.0420   21.8790 C   0  0  0  0  0
   14.5150   16.6700   22.0490 C   0  0  0  0  0
   18.3360   18.3100   24.6380 C   0  0  0  0  0
   19.7330   18.9520   24.6680 C   0  0  0  0  0
   20.0560   19.4310   26.0940 C   0  0  0  0  0
   21.4420   20.1250   26.1110 C   0  0  0  0  0
   22.5430   19.1530   25.6190 C   0  0  0  0  0
   22.2030   18.6110   24.2080 C   0  0  0  0  0
   20.8070   17.9330   24.2120 C   0  0  0  0  0
   14.0980   16.3020   23.1370 O   0  0  0  0  0
   13.7530   16.7330   21.0900 O   0  0  0  0  0
   11.9250   19.9876   22.7986 H   0  0  0  0  0
   13.7024   20.2158   20.8782 H   0  0  0  0  0
    9.6723   21.4775   25.3622 H   0  0  0  0  0
   10.5412   20.3942   24.2701 H   0  0  0  0  0
   10.0717   23.7502   25.2973 H   0  0  0  0  0
   14.3299   23.8501   20.0275 H   0  0  0  0  0
   14.4143   22.1816   19.3838 H   0  0  0  0  0
   16.2378   23.4305   21.3353 H   0  0  0  0  0
   18.1874   22.3108   21.7302 H   0  0  0  0  0
   19.4988   22.6296   19.7552 H   0  0  0  0  0
   18.6549   21.4354   18.8726 H   0  0  0  0  0
   20.9394   20.9822   20.8947 H   0  0  0  0  0
   20.7371   20.2146   19.3895 H   0  0  0  0  0
   19.9431   18.8961   21.6068 H   0  0  0  0  0
   18.9477   18.7754   20.1781 H   0  0  0  0  0
   18.5373   17.7729   22.5606 H   0  0  0  0  0
   15.8381   18.1087   23.5572 H   0  0  0  0  0
   16.7642   16.6095   23.6544 H   0  0  0  0  0
   16.5201   16.1723   21.5213 H   0  0  0  0  0
   16.0466   17.8586   21.1612 H   0  0  0  0  0
   18.4081   17.2948   25.0282 H   0  0  0  0  0
   17.6601   18.9124   25.2449 H   0  0  0  0  0
   19.7388   19.8022   23.9859 H   0  0  0  0  0
   20.0727   18.5743   26.7677 H   0  0  0  0  0
   19.2935   20.1391   26.4186 H   0  0  0  0  0
   21.6714   20.4318   27.1315 H   0  0  0  0  0
   21.4124   20.9902   25.4487 H   0  0  0  0  0
   22.6089   18.3146   26.3124 H   0  0  0  0  0
   23.4911   19.6887   25.5720 H   0  0  0  0  0
   22.9542   17.8760   23.9191 H   0  0  0  0  0
   22.1930   19.4409   23.5014 H   0  0  0  0  0
   20.5713   17.5854   23.2062 H   0  0  0  0  0
   20.8179   17.0875   24.8998 H   0  0  0  0  0
   14.2361   17.0374   20.3183 H   0  0  0  0  0
  1  2  4  0  0  0
  1  5  4  0  0  0
  1  6  1  0  0  0
  2  3  4  0  0  0
  3  4  4  0  0  0
  4  5  4  0  0  0
  4  9  1  0  0  0
  6  7  1  0  0  0
  6  8  2  0  0  0
  9 10  1  0  0  0
 10 11  1  0  0  0
 11 12  2  0  0  0
 11 13  1  0  0  0
 13 14  1  0  0  0
 13 17  1  0  0  0
 14 15  1  0  0  0
 15 16  1  0  0  0
 16 17  1  0  0  0
 17 18  1  0  0  0
 18 19  2  0  0  0
 18 20  1  0  0  0
 20 21  1  0  0  0
 20 24  1  0  0  0
 21 22  1  0  0  0
 22 23  1  0  0  0
 23 31  2  0  0  0
 23 32  1  0  0  0
 24 25  1  0  0  0
 25 26  1  0  0  0
 25 30  1  0  0  0
 26 27  1  0  0  0
 27 28  1  0  0  0
 28 29  1  0  0  0
 29 30  1  0  0  0
  2 33  1  0  0  0
  3 34  1  0  0  0
  7 35  1  0  0  0
  7 36  1  0  0  0
  8 37  1  0  0  0
  9 38  1  0  0  0
  9 39  1  0  0  0
 10 40  1  0  0  0
 13 41  1  0  0  0
 14 42  1  0  0  0
 14 43  1  0  0  0
 15 44  1  0  0  0
 15 45  1  0  0  0
 16 46  1  0  0  0
 16 47  1  0  0  0
 20 48  1  0  0  0
 21 49  1  0  0  0
 21 50  1  0  0  0
 22 51  1  0  0  0
 22 52  1  0  0  0
 24 53  1  0  0  0
 24 54  1  0  0  0
 25 55  1  0  0  0
 26 56  1  0  0  0
 26 57  1  0  0  0
 27 58  1  0  0  0
 27 59  1  0  0  0
 28 60  1  0  0  0
 28 61  1  0  0  0
 29 62  1  0  0  0
 29 63  1  0  0  0
 30 64  1  0  0  0
 30 65  1  0  0  0
 32 66  1  0  0  0
M  END
$$$$
