3llm_ligand
  -I-interpret- 

 42 44  0  0  0  0  0  0  0  0999 V2000
   78.0760    7.5400   -1.9090 P   0  0  0  0  0
   78.0920    9.0020   -2.2510 O   0  0  0  0  0
   79.0340    7.1640   -0.8240 O   0  0  0  0  0
   76.6860    6.9850   -1.6990 O   0  0  0  0  0
   77.9650    6.0370   -4.2720 P   0  0  0  0  0
   76.7740    6.8690   -4.6350 O   0  0  0  0  0
   77.8480    4.6100   -3.8320 O   0  0  0  0  0
   78.7920    6.7860   -3.1280 O   0  0  0  0  0
   78.9300    6.0510   -5.5460 O   0  0  0  0  0
   80.3160    5.7990   -5.3030 C   0  0  0  0  0
   81.2150    5.8150   -6.5450 C   0  0  0  0  0
   80.8760    4.7840   -7.4840 O   0  0  0  0  0
   81.2090    7.1340   -7.3090 C   0  0  0  0  0
   82.1830    8.0630   -6.8130 O   0  0  0  0  0
   81.5360    6.6940   -8.7150 C   0  0  0  0  0
   82.9560    6.7430   -8.9170 O   0  0  0  0  0
   80.9800    5.2710   -8.8200 C   0  0  0  0  0
   79.6420    5.2860   -9.4870 N   0  0  0  0  0
   78.4560    5.4790   -8.8960 C   0  0  0  0  0
   77.4500    5.4510   -9.8040 N   0  0  0  0  0
   77.9920    5.2400  -11.0040 C   0  0  0  0  0
   77.4860    5.0950  -12.3880 C   0  0  0  0  0
   76.1500    5.1820  -12.6320 N   0  0  0  0  0
   78.3810    4.8820  -13.3880 N   0  0  0  0  0
   79.7050    4.8040  -13.1280 C   0  0  0  0  0
   80.2260    4.9300  -11.8820 N   0  0  0  0  0
   79.4340    5.1380  -10.7960 C   0  0  0  0  0
   77.4573    9.1728   -2.9507 H   0  0  0  0  0
   76.1202    7.2593   -2.4244 H   0  0  0  0  0
   78.7229    4.2604   -3.6478 H   0  0  0  0  0
   80.3810    4.7946   -4.8846 H   0  0  0  0  0
   80.6687    6.5999   -4.6532 H   0  0  0  0  0
   82.2092    5.6508   -6.1294 H   0  0  0  0  0
   80.2636    7.6692   -7.2200 H   0  0  0  0  0
   82.1396    8.8741   -7.3247 H   0  0  0  0  0
   81.1010    7.3348   -9.4820 H   0  0  0  0  0
   83.1606    6.4626   -9.8120 H   0  0  0  0  0
   81.6277    4.6309   -9.4191 H   0  0  0  0  0
   78.3179    5.6376   -7.8265 H   0  0  0  0  0
   75.5007    5.3466  -11.8627 H   0  0  0  0  0
   75.7979    5.0826  -13.5841 H   0  0  0  0  0
   80.3874    4.6314  -13.9602 H   0  0  0  0  0
  1  2  1  0  0  0
  1  3  2  0  0  0
  1  4  1  0  0  0
  8  1  1  0  0  0
  5  6  2  0  0  0
  5  7  1  0  0  0
  5  8  1  0  0  0
  5  9  1  0  0  0
  9 10  1  0  0  0
 10 11  1  0  0  0
 11 12  1  0  0  0
 11 13  1  0  0  0
 12 17  1  0  0  0
 13 14  1  0  0  0
 13 15  1  0  0  0
 15 16  1  0  0  0
 15 17  1  0  0  0
 17 18  1  0  0  0
 18 19  4  0  0  0
 18 27  4  0  0  0
 19 20  4  0  0  0
 20 21  4  0  0  0
 21 22  4  0  0  0
 21 27  4  0  0  0
 22 23  1  0  0  0
 22 24  4  0  0  0
 24 25  4  0  0  0
 25 26  4  0  0  0
 26 27  4  0  0  0
  2 28  1  0  0  0
  4 29  1  0  0  0
  7 30  1  0  0  0
 10 31  1  0  0  0
 10 32  1  0  0  0
 11 33  1  0  0  0
 13 34  1  0  0  0
 14 35  1  0  0  0
 15 36  1  0  0  0
 16 37  1  0  0  0
 17 38  1  0  0  0
 19 39  1  0  0  0
 23 40  1  0  0  0
 23 41  1  0  0  0
 25 42  1  0  0  0
M  END
$$$$
