### 
### Created by X-TOOL on Mon Sep 10 21:13:04 2018
### 

@<TRIPOS>MOLECULE
3llm_ligand
   39    41     1     0     0
SMALL
GAST_HUCK


@<TRIPOS>ATOM
      1 PB         78.0760    7.5400   -1.9090 P.3       1 ADP         0.2069
      2 O1B        78.0920    9.0020   -2.2510 O.co2     1 ADP        -0.5891
      3 O2B        79.0340    7.1640   -0.8240 O.co2     1 ADP        -0.5891
      4 O3B        76.6860    6.9850   -1.6990 O.co2     1 ADP        -0.5891
      5 PA         77.9650    6.0370   -4.2720 P.3       1 ADP         0.3276
      6 O1A        76.7740    6.8690   -4.6350 O.co2     1 ADP        -0.5556
      7 O2A        77.8480    4.6100   -3.8320 O.co2     1 ADP        -0.5556
      8 O3A        78.7920    6.7860   -3.1280 O.3       1 ADP        -0.1548
      9 O5'        78.9300    6.0510   -5.5460 O.3       1 ADP        -0.2436
     10 C5'        80.3160    5.7990   -5.3030 C.3       1 ADP         0.1132
     11 C4'        81.2150    5.8150   -6.5450 C.3       1 ADP         0.1189
     12 O4'        80.8760    4.7840   -7.4840 O.3       1 ADP        -0.3364
     13 C3'        81.2090    7.1340   -7.3090 C.3       1 ADP         0.1149
     14 O3'        82.1830    8.0630   -6.8130 O.3       1 ADP        -0.3864
     15 C2'        81.5360    6.6940   -8.7150 C.3       1 ADP         0.1385
     16 O2'        82.9560    6.7430   -8.9170 O.3       1 ADP        -0.3836
     17 C1'        80.9800    5.2710   -8.8200 C.3       1 ADP         0.2010
     18 N9         79.6420    5.2860   -9.4870 N.pl3     1 ADP        -0.1919
     19 C8         78.4560    5.4790   -8.8960 C.2       1 ADP         0.1123
     20 N7         77.4500    5.4510   -9.8040 N.2       1 ADP        -0.2958
     21 C5         77.9920    5.2400  -11.0040 C.ar      1 ADP         0.1045
     22 C6         77.4860    5.0950  -12.3880 C.ar      1 ADP         0.1298
     23 N6         76.1500    5.1820  -12.6320 N.pl3     1 ADP        -0.3152
     24 N1         78.3810    4.8820  -13.3880 N.ar      1 ADP        -0.2698
     25 C2         79.7050    4.8040  -13.1280 C.ar      1 ADP         0.0533
     26 N3         80.2260    4.9300  -11.8820 N.ar      1 ADP        -0.2714
     27 C4         79.4340    5.1380  -10.7960 C.ar      1 ADP         0.1613
     28 H          80.3810    4.7946   -4.8846 H         1 ADP         0.0648
     29 H          80.6687    6.5999   -4.6532 H         1 ADP         0.0648
     30 H          82.2092    5.6508   -6.1294 H         1 ADP         0.0651
     31 H          80.2636    7.6692   -7.2200 H         1 ADP         0.0648
     32 H          83.0593    7.6793   -6.8930 H         1 ADP         0.2100
     33 H          81.1010    7.3348   -9.4820 H         1 ADP         0.0676
     34 H          83.2663    7.6415   -8.7831 H         1 ADP         0.2101
     35 H          81.6277    4.6309   -9.4191 H         1 ADP         0.0996
     36 H          78.3179    5.6376   -7.8265 H         1 ADP         0.1349
     37 H          75.5007    5.3466  -11.8627 H         1 ADP         0.1820
     38 H          75.7979    5.0826  -13.5841 H         1 ADP         0.1820
     39 H          80.3874    4.6314  -13.9602 H         1 ADP         0.0996
@<TRIPOS>BOND
     1    1    2 ar 
     2    1    3 ar 
     3    1    4 ar 
     4    8    1 1  
     5    5    6 ar 
     6    5    7 ar 
     7    5    8 1  
     8    5    9 1  
     9    9   10 1  
    10   10   11 1  
    11   11   12 1  
    12   11   13 1  
    13   12   17 1  
    14   13   14 1  
    15   13   15 1  
    16   15   16 1  
    17   15   17 1  
    18   17   18 1  
    19   18   19 1  
    20   18   27 1  
    21   19   20 2  
    22   20   21 1  
    23   21   22 ar 
    24   21   27 ar 
    25   22   23 1  
    26   22   24 ar 
    27   24   25 ar 
    28   25   26 ar 
    29   26   27 ar 
    30   10   28 1  
    31   10   29 1  
    32   11   30 1  
    33   13   31 1  
    34   14   32 1  
    35   15   33 1  
    36   16   34 1  
    37   17   35 1  
    38   19   36 1  
    39   23   37 1  
    40   23   38 1  
    41   25   39 1  
@<TRIPOS>SUBSTRUCTURE
     1 ADP         1

