4nmr_ligand
  -I-interpret- 

165165  0  0  0  0  0  0  0  0999 V2000
   32.3710   31.2690   23.1440 N   0  3  0  0  0
   32.5630   29.8950   22.6760 C   0  0  0  0  0
   31.3610   29.4120   21.8620 C   0  0  0  0  0
   30.2190   29.7800   22.1500 O   0  0  0  0  0
   32.8100   28.9740   23.8520 C   0  0  0  0  0
   31.6100   28.5970   20.8390 N   0  0  0  0  0
   30.5050   28.0240   20.0780 C   0  0  0  0  0
   29.6890   27.0710   20.9470 C   0  0  0  0  0
   30.2210   26.4550   21.8710 O   0  0  0  0  0
   30.9950   27.3320   18.7950 C   0  0  0  0  0
   31.9420   26.1900   19.0700 C   0  0  0  0  0
   33.0240   26.3900   19.6230 O   0  0  0  0  0
   31.5520   24.9790   18.6610 N   0  0  0  0  0
   28.3960   26.9630   20.6590 N   0  0  0  0  0
   27.5130   26.1260   21.4640 C   0  0  0  0  0
   26.6970   25.1270   20.6440 C   0  0  0  0  0
   26.3890   25.3630   19.4750 O   0  0  0  0  0
   26.5810   27.0050   22.3020 C   0  0  0  0  0
   26.0850   28.0950   21.5440 O   0  0  0  0  0
   26.3530   24.0070   21.2700 N   0  0  0  0  0
   25.4390   23.0520   20.6610 C   0  0  0  0  0
   24.0720   23.6890   20.4600 C   0  0  0  0  0
   23.6630   24.5470   21.2490 O   0  0  0  0  0
   25.3150   21.8020   21.5290 C   0  0  0  0  0
   26.3030   20.7300   21.1420 C   0  0  0  0  0
   26.5660   20.8200   19.6500 C   0  0  0  0  0
   26.8490   19.5190   19.0610 N   0  0  0  0  0
   27.0290   19.3130   17.7610 C   0  0  0  0  0
   26.9570   20.3290   16.9080 N   0  0  0  0  0
   27.2830   18.0910   17.3130 N   0  0  0  0  0
   17.6430   23.0560   13.5560 O   0  0  0  0  0
   18.7590   23.5320   13.3400 C   0  0  0  0  0
   19.6230   22.9480   12.2140 C   0  0  0  0  0
   19.1140   24.8320   13.9070 N   0  0  0  0  0
   19.7200   24.9450   15.2610 C   0  0  0  0  0
   20.8770   23.9790   15.4330 C   0  0  0  0  0
   21.6960   24.3370   16.6570 C   0  0  0  0  0
   21.5130   23.3250   17.7770 C   0  0  0  0  0
   22.0440   23.8160   19.1260 C   0  0  0  0  0
   23.3720   23.2780   19.4040 N   0  0  0  0  0
   21.0650   23.4550   20.2310 C   0  0  0  0  0
   20.9710   22.2910   20.6280 O   0  0  0  0  0
   20.3410   24.4610   20.7420 N   0  0  0  0  0
   19.3140   24.2100   21.7550 C   0  0  0  0  0
   18.3420   23.1300   21.2870 C   0  0  0  0  0
   17.8450   23.1830   20.1600 O   0  0  0  0  0
   18.5990   25.5580   21.8650 C   0  0  0  0  0
   19.6570   26.5540   21.5270 C   0  0  0  0  0
   20.5100   25.9000   20.4690 C   0  0  0  0  0
   18.0920   22.1520   22.1510 N   0  0  0  0  0
   17.1830   21.0560   21.8460 C   0  0  0  0  0
   16.1580   20.9630   22.9640 C   0  0  0  0  0
   16.5150   21.0180   24.1400 O   0  0  0  0  0
   17.9310   19.7090   21.7660 C   0  0  0  0  0
   18.9550   19.7780   20.7650 O   0  0  0  0  0
   16.9720   18.5880   21.4260 C   0  0  0  0  0
   14.8880   20.8430   22.5960 N   0  0  0  0  0
   13.8220   20.6700   23.5730 C   0  0  0  0  0
   13.0730   19.3700   23.3370 C   0  0  0  0  0
   12.8810   18.9550   22.1920 O   0  0  0  0  0
   12.8160   21.8190   23.4810 C   0  0  0  0  0
   13.4280   23.0650   23.7350 O   0  0  0  0  0
   12.6330   18.7400   24.4220 N   0  0  0  0  0
   11.7540   17.5810   24.3160 C   0  0  0  0  0
   10.3040   18.0240   24.4850 C   0  0  0  0  0
    9.9960   18.8890   25.3090 O   0  0  0  0  0
   12.0840   16.4960   25.3480 C   0  0  0  0  0
   11.9870   17.0620   26.7680 C   0  0  0  0  0
   13.4660   15.8970   25.0760 C   0  0  0  0  0
   12.1540   16.0110   27.8570 C   0  0  0  0  0
    9.4170   17.4330   23.6930 N   0  0  0  0  0
    7.9940   17.7600   23.7430 C   0  0  0  0  0
    7.1550   16.4930   23.6240 C   0  0  0  0  0
    7.6830   15.4220   23.3060 O   0  0  0  0  0
    7.5840   18.7750   22.6440 C   0  0  0  0  0
    7.9100   18.2390   21.2480 C   0  0  0  0  0
    8.2680   20.1110   22.8780 C   0  0  0  0  0
    7.5910   19.2000   20.1230 C   0  0  0  0  0
    5.9430   16.5200   23.8490 O   0  0  0  0  0
   32.2056   31.8795   22.3438 H   0  0  0  0  0
   31.5677   31.3040   23.7716 H   0  0  0  0  0
   33.2064   31.5773   23.6415 H   0  0  0  0  0
   33.4354   29.8783   22.0227 H   0  0  0  0  0
   31.9287   28.9614   24.4933 H   0  0  0  0  0
   33.0099   27.9665   23.4871 H   0  0  0  0  0
   33.6686   29.3334   24.4192 H   0  0  0  0  0
   32.5729   28.3734   20.5875 H   0  0  0  0  0
   29.8548   28.8427   19.7696 H   0  0  0  0  0
   31.5298   28.0726   18.2003 H   0  0  0  0  0
   30.1234   26.9259   18.2817 H   0  0  0  0  0
   32.1602   24.1725   18.8027 H   0  0  0  0  0
   30.6462   24.8612   18.2072 H   0  0  0  0  0
   28.0150   27.4735   19.8624 H   0  0  0  0  0
   28.1576   25.5330   22.1128 H   0  0  0  0  0
   27.1424   27.3978   23.1497 H   0  0  0  0  0
   25.7374   26.3998   22.6339 H   0  0  0  0  0
   25.5051   28.6276   22.0932 H   0  0  0  0  0
   26.7366   23.8126   22.1949 H   0  0  0  0  0
   25.8387   22.7609   19.6896 H   0  0  0  0  0
   24.3113   21.3983   21.3959 H   0  0  0  0  0
   25.5162   22.0880   22.5614 H   0  0  0  0  0
   25.8965   19.7485   21.3861 H   0  0  0  0  0
   27.2346   20.8721   21.6898 H   0  0  0  0  0
   27.4368   21.4576   19.4974 H   0  0  0  0  0
   25.6722   21.2211   19.1721 H   0  0  0  0  0
   26.9131   18.7152   19.6857 H   0  0  0  0  0
   27.0970   20.1683   15.9105 H   0  0  0  0  0
   26.7617   21.2697   17.2506 H   0  0  0  0  0
   27.3401   17.3099   17.9664 H   0  0  0  0  0
   19.8135   21.8935   12.4136 H   0  0  0  0  0
   19.0977   23.0502   11.2644 H   0  0  0  0  0
   20.5693   23.4870   12.1671 H   0  0  0  0  0
   18.9428   25.6781   13.3636 H   0  0  0  0  0
   18.9573   24.7065   16.0022 H   0  0  0  0  0
   20.0954   25.9604   15.3882 H   0  0  0  0  0
   21.5167   24.0348   14.5522 H   0  0  0  0  0
   20.4796   22.9716   15.5571 H   0  0  0  0  0
   21.3638   25.3103   17.0180 H   0  0  0  0  0
   22.7484   24.3466   16.3734 H   0  0  0  0  0
   22.0730   22.4295   17.5077 H   0  0  0  0  0
   20.4437   23.1454   17.8885 H   0  0  0  0  0
   22.1391   24.9010   19.0836 H   0  0  0  0  0
   23.7702   22.5764   18.7799 H   0  0  0  0  0
   19.7252   23.8577   22.7010 H   0  0  0  0  0
   18.1768   25.7229   22.8563 H   0  0  0  0  0
   17.7388   25.6258   21.1990 H   0  0  0  0  0
   20.2466   26.8209   22.4041 H   0  0  0  0  0
   19.2240   27.4875   21.1676 H   0  0  0  0  0
   20.2095   26.1743   19.4578 H   0  0  0  0  0
   21.5519   26.2169   20.5138 H   0  0  0  0  0
   18.5534   22.1696   23.0605 H   0  0  0  0  0
   16.7140   21.2520   20.8818 H   0  0  0  0  0
   18.3818   19.5074   22.7377 H   0  0  0  0  0
   19.4155   18.9368   20.7214 H   0  0  0  0  0
   16.2045   18.5218   22.1971 H   0  0  0  0  0
   16.5044   18.7913   20.4626 H   0  0  0  0  0
   17.5191   17.6467   21.3743 H   0  0  0  0  0
   14.6530   20.8727   21.6039 H   0  0  0  0  0
   14.2875   20.6546   24.5585 H   0  0  0  0  0
   12.0389   21.6577   24.2281 H   0  0  0  0  0
   12.4037   21.8365   22.4721 H   0  0  0  0  0
   12.7712   23.7621   23.6695 H   0  0  0  0  0
   12.9149   19.0728   25.3440 H   0  0  0  0  0
   11.9069   17.1458   23.3284 H   0  0  0  0  0
   11.3526   15.6927   25.2586 H   0  0  0  0  0
   10.9922   17.4932   26.8803 H   0  0  0  0  0
   12.7932   17.7859   26.8866 H   0  0  0  0  0
   13.4790   15.4539   24.0802 H   0  0  0  0  0
   14.2192   16.6827   25.1353 H   0  0  0  0  0
   13.6806   15.1293   25.8195 H   0  0  0  0  0
   11.3751   15.2555   27.7536 H   0  0  0  0  0
   13.1328   15.5412   27.7598 H   0  0  0  0  0
   12.0733   16.4865   28.8345 H   0  0  0  0  0
    9.7392   16.7288   23.0291 H   0  0  0  0  0
    7.8067   18.2311   24.7079 H   0  0  0  0  0
    8.6225   15.5593   23.1644 H   0  0  0  0  0
    6.5053   18.9204   22.7017 H   0  0  0  0  0
    7.2981   17.3501   21.0943 H   0  0  0  0  0
    8.9838   18.0541   21.2177 H   0  0  0  0  0
    7.9743   20.5024   23.8520 H   0  0  0  0  0
    9.3490   19.9739   22.8510 H   0  0  0  0  0
    7.9698   20.8119   22.0983 H   0  0  0  0  0
    6.5261   19.4320   20.1361 H   0  0  0  0  0
    8.1655   20.1167   20.2560 H   0  0  0  0  0
    7.8525   18.7409   19.1696 H   0  0  0  0  0
  2  1  1  0  0  0
  3  2  1  0  0  0
  2  5  1  0  0  0
  3  4  2  0  0  0
  6  3  1  0  0  0
  7  6  1  0  0  0
  8  7  1  0  0  0
  7 10  1  0  0  0
  8  9  2  0  0  0
 14  8  1  0  0  0
 10 11  1  0  0  0
 11 12  2  0  0  0
 11 13  1  0  0  0
 15 14  1  0  0  0
 16 15  1  0  0  0
 15 18  1  0  0  0
 16 17  2  0  0  0
 20 16  1  0  0  0
 18 19  1  0  0  0
 21 20  1  0  0  0
 22 21  1  0  0  0
 21 24  1  0  0  0
 22 23  2  0  0  0
 40 22  1  0  0  0
 24 25  1  0  0  0
 25 26  1  0  0  0
 26 27  1  0  0  0
 27 28  1  0  0  0
 28 29  1  0  0  0
 28 30  2  0  0  0
 32 31  2  0  0  0
 32 33  1  0  0  0
 34 32  1  0  0  0
 35 34  1  0  0  0
 36 35  1  0  0  0
 37 36  1  0  0  0
 38 37  1  0  0  0
 39 38  1  0  0  0
 39 40  1  0  0  0
 39 41  1  0  0  0
 41 42  2  0  0  0
 41 43  1  0  0  0
 43 44  1  0  0  0
 43 49  1  0  0  0
 44 45  1  0  0  0
 44 47  1  0  0  0
 45 46  2  0  0  0
 45 50  1  0  0  0
 47 48  1  0  0  0
 48 49  1  0  0  0
 50 51  1  0  0  0
 51 52  1  0  0  0
 51 54  1  0  0  0
 52 53  2  0  0  0
 52 57  1  0  0  0
 54 55  1  0  0  0
 54 56  1  0  0  0
 57 58  1  0  0  0
 58 59  1  0  0  0
 58 61  1  0  0  0
 59 60  2  0  0  0
 59 63  1  0  0  0
 61 62  1  0  0  0
 63 64  1  0  0  0
 64 65  1  0  0  0
 64 67  1  0  0  0
 65 66  2  0  0  0
 65 71  1  0  0  0
 67 68  1  0  0  0
 67 69  1  0  0  0
 68 70  1  0  0  0
 71 72  1  0  0  0
 72 73  1  0  0  0
 72 75  1  0  0  0
 73 74  1  0  0  0
 73 79  2  0  0  0
 75 76  1  0  0  0
 75 77  1  0  0  0
 76 78  1  0  0  0
  1 80  1  0  0  0
  1 81  1  0  0  0
  1 82  1  0  0  0
  2 83  1  0  0  0
  5 84  1  0  0  0
  5 85  1  0  0  0
  5 86  1  0  0  0
  6 87  1  0  0  0
  7 88  1  0  0  0
 10 89  1  0  0  0
 10 90  1  0  0  0
 13 91  1  0  0  0
 13 92  1  0  0  0
 14 93  1  0  0  0
 15 94  1  0  0  0
 18 95  1  0  0  0
 18 96  1  0  0  0
 19 97  1  0  0  0
 20 98  1  0  0  0
 21 99  1  0  0  0
 24100  1  0  0  0
 24101  1  0  0  0
 25102  1  0  0  0
 25103  1  0  0  0
 26104  1  0  0  0
 26105  1  0  0  0
 27106  1  0  0  0
 29107  1  0  0  0
 29108  1  0  0  0
 30109  1  0  0  0
 33110  1  0  0  0
 33111  1  0  0  0
 33112  1  0  0  0
 34113  1  0  0  0
 35114  1  0  0  0
 35115  1  0  0  0
 36116  1  0  0  0
 36117  1  0  0  0
 37118  1  0  0  0
 37119  1  0  0  0
 38120  1  0  0  0
 38121  1  0  0  0
 39122  1  0  0  0
 40123  1  0  0  0
 44124  1  0  0  0
 47125  1  0  0  0
 47126  1  0  0  0
 48127  1  0  0  0
 48128  1  0  0  0
 49129  1  0  0  0
 49130  1  0  0  0
 50131  1  0  0  0
 51132  1  0  0  0
 54133  1  0  0  0
 55134  1  0  0  0
 56135  1  0  0  0
 56136  1  0  0  0
 56137  1  0  0  0
 57138  1  0  0  0
 58139  1  0  0  0
 61140  1  0  0  0
 61141  1  0  0  0
 62142  1  0  0  0
 63143  1  0  0  0
 64144  1  0  0  0
 67145  1  0  0  0
 68146  1  0  0  0
 68147  1  0  0  0
 69148  1  0  0  0
 69149  1  0  0  0
 69150  1  0  0  0
 70151  1  0  0  0
 70152  1  0  0  0
 70153  1  0  0  0
 71154  1  0  0  0
 72155  1  0  0  0
 74156  1  0  0  0
 75157  1  0  0  0
 76158  1  0  0  0
 76159  1  0  0  0
 77160  1  0  0  0
 77161  1  0  0  0
 77162  1  0  0  0
 78163  1  0  0  0
 78164  1  0  0  0
 78165  1  0  0  0
M  END
$$$$
