### 
### Created by X-TOOL on Mon Sep 10 21:13:18 2018
### 

@<TRIPOS>MOLECULE
4nmr_ligand
  165   165     1     0     0
SMALL
GAST_HUCK


@<TRIPOS>ATOM
      1 N          32.3710   31.2690   23.1440 N.4       1 ALA         0.2377
      2 CA         32.5630   29.8950   22.6760 C.3       1 ALA         0.0621
      3 C          31.3610   29.4120   21.8620 C.2       1 ALA         0.2265
      4 O          30.2190   29.7800   22.1500 O.2       1 ALA        -0.3907
      5 CB         32.8100   28.9740   23.8520 C.3       1 ALA        -0.0040
      6 N          31.6100   28.5970   20.8390 N.am      1 ASN        -0.2589
      7 CA         30.5050   28.0240   20.0780 C.3       1 ASN         0.1477
      8 C          29.6890   27.0710   20.9470 C.2       1 ASN         0.2063
      9 O          30.2210   26.4550   21.8710 O.2       1 ASN        -0.3942
     10 CB         30.9950   27.3320   18.7950 C.3       1 ASN         0.0773
     11 CG         31.9420   26.1900   19.0700 C.2       1 ASN         0.1780
     12 OD1        33.0240   26.3900   19.6230 O.2       1 ASN        -0.3970
     13 ND2        31.5520   24.9790   18.6610 N.am      1 ASN        -0.3007
     14 N          28.3960   26.9630   20.6590 N.am      1 SER        -0.2614
     15 CA         27.5130   26.1260   21.4640 C.3       1 SER         0.1539
     16 C          26.6970   25.1270   20.6440 C.2       1 SER         0.2062
     17 O          26.3890   25.3630   19.4750 O.2       1 SER        -0.3943
     18 CB         26.5810   27.0050   22.3020 C.3       1 SER         0.0843
     19 OG         26.0850   28.0950   21.5440 O.3       1 SER        -0.3903
     20 N          26.3530   24.0070   21.2700 N.am      1 ARG        -0.2637
     21 CA         25.4390   23.0520   20.6610 C.3       1 ARG         0.1311
     22 C          24.0720   23.6890   20.4600 C.2       1 ARG         0.2039
     23 O          23.6630   24.5470   21.2490 O.2       1 ARG        -0.3944
     24 CB         25.3150   21.8020   21.5290 C.3       1 ARG        -0.0092
     25 CG         26.3030   20.7300   21.1420 C.3       1 ARG        -0.0156
     26 CD         26.5660   20.8200   19.6500 C.3       1 ARG         0.0627
     27 NE         26.8490   19.5190   19.0610 N.pl3     1 ARG        -0.2723
     28 CZ         27.0290   19.3130   17.7610 C.cat     1 ARG         0.2882
     29 NH1        26.9570   20.3290   16.9080 N.pl3     1 ARG        -0.2849
     30 NH2        27.2830   18.0910   17.3130 N.pl3     1 ARG        -0.2849
     31 OH         17.6430   23.0560   13.5560 O.2       1 ALY        -0.3974
     32 CH         18.7590   23.5320   13.3400 C.2       1 ALY         0.1729
     33 CH3        19.6230   22.9480   12.2140 C.3       1 ALY         0.0256
     34 NZ         19.1140   24.8320   13.9070 N.am      1 ALY        -0.2872
     35 CE         19.7200   24.9450   15.2610 C.3       1 ALY         0.0309
     36 CD         20.8770   23.9790   15.4330 C.3       1 ALY        -0.0325
     37 CG         21.6960   24.3370   16.6570 C.3       1 ALY        -0.0470
     38 CB         21.5130   23.3250   17.7770 C.3       1 ALY        -0.0123
     39 CA         22.0440   23.8160   19.1260 C.3       1 ALY         0.1312
     40 N          23.3720   23.2780   19.4040 N.am      1 ALY        -0.2637
     41 C          21.0650   23.4550   20.2310 C.2       1 ALY         0.2064
     42 O          20.9710   22.2910   20.6280 O.2       1 ALY        -0.3942
     43 N          20.3410   24.4610   20.7420 N.am      1 PRO        -0.2498
     44 CA         19.3140   24.2100   21.7550 C.3       1 PRO         0.1338
     45 C          18.3420   23.1300   21.2870 C.2       1 PRO         0.2042
     46 O          17.8450   23.1830   20.1600 O.2       1 PRO        -0.3944
     47 CB         18.5990   25.5580   21.8650 C.3       1 PRO        -0.0104
     48 CG         19.6570   26.5540   21.5270 C.3       1 PRO        -0.0281
     49 CD         20.5100   25.9000   20.4690 C.3       1 PRO         0.0369
     50 N          18.0920   22.1520   22.1510 N.am      1 THR        -0.2613
     51 CA         17.1830   21.0560   21.8460 C.3       1 THR         0.1565
     52 C          16.1580   20.9630   22.9640 C.2       1 THR         0.2065
     53 O          16.5150   21.0180   24.1400 O.2       1 THR        -0.3943
     54 CB         17.9310   19.7090   21.7660 C.3       1 THR         0.0924
     55 OG1        18.9550   19.7780   20.7650 O.3       1 THR        -0.3874
     56 CG2        16.9720   18.5880   21.4260 C.3       1 THR        -0.0346
     57 N          14.8880   20.8430   22.5960 N.am      1 SER        -0.2615
     58 CA         13.8220   20.6700   23.5730 C.3       1 SER         0.1539
     59 C          13.0730   19.3700   23.3370 C.2       1 SER         0.2062
     60 O          12.8810   18.9550   22.1920 O.2       1 SER        -0.3943
     61 CB         12.8160   21.8190   23.4810 C.3       1 SER         0.0843
     62 OG         13.4280   23.0650   23.7350 O.3       1 SER        -0.3903
     63 N          12.6330   18.7400   24.4220 N.am      1 ILE        -0.2634
     64 CA         11.7540   17.5810   24.3160 C.3       1 ILE         0.1335
     65 C          10.3040   18.0240   24.4850 C.2       1 ILE         0.2036
     66 O           9.9960   18.8890   25.3090 O.2       1 ILE        -0.3944
     67 CB         12.0840   16.4960   25.3480 C.3       1 ILE        -0.0037
     68 CG1        11.9870   17.0620   26.7680 C.3       1 ILE        -0.0491
     69 CG2        13.4660   15.8970   25.0760 C.3       1 ILE        -0.0582
     70 CD1        12.1540   16.0110   27.8570 C.3       1 ILE        -0.0648
     71 N           9.4170   17.4330   23.6930 N.am      1 ILE        -0.2692
     72 CA          7.9940   17.7600   23.7430 C.3       1 ILE         0.0969
     73 C           7.1550   16.4930   23.6240 C.2       1 ILE         0.0604
     74 O           7.6830   15.4220   23.3060 O.co2     1 ILE        -0.5666
     75 CB          7.5840   18.7750   22.6440 C.3       1 ILE        -0.0092
     76 CG1         7.9100   18.2390   21.2480 C.3       1 ILE        -0.0497
     77 CG2         8.2680   20.1110   22.8780 C.3       1 ILE        -0.0588
     78 CD1         7.5910   19.2000   20.1230 C.3       1 ILE        -0.0649
     79 OXT         5.9430   16.5200   23.8490 O.co2     1 ILE        -0.5666
     80 H          33.1770   31.5585   23.6757 H         1 ALA         0.2015
     81 H          31.5501   31.3137   23.7272 H         1 ALA         0.2015
     82 H          32.2539   31.8807   22.3514 H         1 ALA         0.2015
     83 H          33.4496   29.8733   22.0252 H         1 ALA         0.1095
     84 H          32.9527   27.9456   23.4886 H         1 ALA         0.0310
     85 H          31.9452   29.0063   24.5310 H         1 ALA         0.0310
     86 H          33.7116   29.3009   24.3907 H         1 ALA         0.0310
     87 H          32.5540   28.3777   20.5924 H         1 ASN         0.1886
     88 H          29.8444   28.8502   19.7763 H         1 ASN         0.0826
     89 H          31.5130   28.0752   18.1710 H         1 ASN         0.0551
     90 H          30.1222   26.9412   18.2515 H         1 ASN         0.0551
     91 H          32.1400   24.1853   18.8168 H         1 ASN         0.1814
     92 H          30.6722   24.8666   18.1991 H         1 ASN         0.1814
     93 H          28.0224   27.4635   19.8780 H         1 SER         0.1884
     94 H          28.1462   25.5464   22.1518 H         1 SER         0.0823
     95 H          27.1369   27.3938   23.1679 H         1 SER         0.0606
     96 H          25.7340   26.3972   22.6529 H         1 SER         0.0606
     97 H          25.5111   28.6221   22.0875 H         1 SER         0.2097
     98 H          26.7291   23.8164   22.1768 H         1 ARG         0.1883
     99 H          25.8394   22.7595   19.6791 H         1 ARG         0.0800
    100 H          24.2972   21.3985   21.4231 H         1 ARG         0.0313
    101 H          25.4912   22.0820   22.5781 H         1 ARG         0.0313
    102 H          25.8884   19.7405   21.3849 H         1 ARG         0.0301
    103 H          27.2437   20.8786   21.6924 H         1 ARG         0.0301
    104 H          27.4297   21.4801   19.4819 H         1 ARG         0.0689
    105 H          25.6783   21.2453   19.1590 H         1 ARG         0.0689
    106 H          26.9137   18.7073   19.6918 H         1 ARG         0.2642
    107 H          27.0970   20.1665   15.9006 H         1 ARG         0.2615
    108 H          26.7612   21.2791   17.2541 H         1 ARG         0.2615
    109 H          27.3392   17.3020   17.9727 H         1 ARG         0.2615
    110 H          27.4241   17.9309   16.3053 H         1 ARG         0.2615
    111 H          20.5783   23.4911   12.1656 H         1 ALY         0.0467
    112 H          19.0940   23.0506   11.2550 H         1 ALY         0.0467
    113 H          19.8160   21.8838   12.4143 H         1 ALY         0.0467
    114 H          18.9462   25.6615   13.3743 H         1 ALY         0.1850
    115 H          18.9522   24.7216   16.0164 H         1 ALY         0.0520
    116 H          20.0872   25.9720   15.4040 H         1 ALY         0.0520
    117 H          21.5206   24.0240   14.5421 H         1 ALY         0.0285
    118 H          20.4817   22.9590   15.5487 H         1 ALY         0.0285
    119 H          21.3820   25.3275   17.0179 H         1 ALY         0.0268
    120 H          22.7592   24.3689   16.3767 H         1 ALY         0.0268
    121 H          22.0475   22.4027   17.5057 H         1 ALY         0.0312
    122 H          20.4394   23.1094   17.8814 H         1 ALY         0.0312
    123 H          22.1252   24.9122   19.0836 H         1 ALY         0.0800
    124 H          23.7624   22.5901   18.7921 H         1 ALY         0.1883
    125 H          19.7641   23.9160   22.7147 H         1 PRO         0.0802
    126 H          18.2219   25.7189   22.8857 H         1 PRO         0.0313
    127 H          17.7636   25.6173   21.1518 H         1 PRO         0.0313
    128 H          20.2611   26.7884   22.4158 H         1 PRO         0.0287
    129 H          19.2040   27.4776   21.1375 H         1 PRO         0.0287
    130 H          20.1520   26.1549   19.4606 H         1 PRO         0.0524
    131 H          21.5634   26.1998   20.5708 H         1 PRO         0.0524
    132 H          18.5443   22.1692   23.0427 H         1 THR         0.1884
    133 H          16.6802   21.2532   20.8877 H         1 THR         0.0826
    134 H          18.3942   19.5004   22.7417 H         1 THR         0.0639
    135 H          19.4107   18.9455   20.7218 H         1 THR         0.2101
    136 H          17.5230   17.6374   21.3735 H         1 THR         0.0257
    137 H          16.4994   18.7919   20.4539 H         1 THR         0.0257
    138 H          16.1969   18.5201   22.2035 H         1 THR         0.0257
    139 H          14.6576   20.8721   21.6233 H         1 SER         0.1884
    140 H          14.2652   20.6548   24.5796 H         1 SER         0.0823
    141 H          12.0183   21.6555   24.2205 H         1 SER         0.0606
    142 H          12.3818   21.8337   22.4704 H         1 SER         0.0606
    143 H          14.1153   23.2150   23.0966 H         1 SER         0.2097
    144 H          12.9094   19.0663   25.3260 H         1 ILE         0.1883
    145 H          11.8769   17.1479   23.3123 H         1 ILE         0.0803
    146 H          11.3401   15.6916   25.2507 H         1 ILE         0.0345
    147 H          11.0001   17.5328   26.8878 H         1 ILE         0.0267
    148 H          12.7731   17.8210   26.8941 H         1 ILE         0.0267
    149 H          13.4987   15.5015   24.0501 H         1 ILE         0.0235
    150 H          13.6594   15.0823   25.7893 H         1 ILE         0.0235
    151 H          14.2331   16.6767   25.1930 H         1 ILE         0.0235
    152 H          12.0727   16.4897   28.8441 H         1 ILE         0.0230
    153 H          13.1415   15.5362   27.7600 H         1 ILE         0.0230
    154 H          11.3684   15.2480   27.7538 H         1 ILE         0.0230
    155 H           9.7329   16.7427   23.0421 H         1 ILE         0.1875
    156 H           7.7881   18.2196   24.7209 H         1 ILE         0.0729
    157 H           6.4965   18.9283   22.7065 H         1 ILE         0.0338
    158 H           7.3310   17.3174   21.0887 H         1 ILE         0.0267
    159 H           8.9848   18.0081   21.2097 H         1 ILE         0.0267
    160 H           8.0211   20.4779   23.8852 H         1 ILE         0.0234
    161 H           7.9209   20.8370   22.1280 H         1 ILE         0.0234
    162 H           9.3573   19.9856   22.7904 H         1 ILE         0.0234
    163 H           7.8545   18.7378   19.1602 H         1 ILE         0.0230
    164 H           8.1703   20.1256   20.2561 H         1 ILE         0.0230
    165 H           6.5165   19.4349   20.1350 H         1 ILE         0.0230
@<TRIPOS>BOND
     1    2    1 1  
     2    3    2 1  
     3    2    5 1  
     4    3    4 2  
     5    6    3 am 
     6    7    6 1  
     7    8    7 1  
     8    7   10 1  
     9    8    9 2  
    10   14    8 am 
    11   10   11 1  
    12   11   12 2  
    13   11   13 am 
    14   15   14 1  
    15   16   15 1  
    16   15   18 1  
    17   16   17 2  
    18   20   16 am 
    19   18   19 1  
    20   21   20 1  
    21   22   21 1  
    22   21   24 1  
    23   22   23 2  
    24   40   22 am 
    25   24   25 1  
    26   25   26 1  
    27   26   27 1  
    28   27   28 ar 
    29   28   29 ar 
    30   28   30 ar 
    31   32   31 2  
    32   32   33 1  
    33   34   32 am 
    34   35   34 1  
    35   36   35 1  
    36   37   36 1  
    37   38   37 1  
    38   39   38 1  
    39   39   40 1  
    40   39   41 1  
    41   41   42 2  
    42   41   43 am 
    43   43   44 1  
    44   43   49 1  
    45   44   45 1  
    46   44   47 1  
    47   45   46 2  
    48   45   50 am 
    49   47   48 1  
    50   48   49 1  
    51   50   51 1  
    52   51   52 1  
    53   51   54 1  
    54   52   53 2  
    55   52   57 am 
    56   54   55 1  
    57   54   56 1  
    58   57   58 1  
    59   58   59 1  
    60   58   61 1  
    61   59   60 2  
    62   59   63 am 
    63   61   62 1  
    64   63   64 1  
    65   64   65 1  
    66   64   67 1  
    67   65   66 2  
    68   65   71 am 
    69   67   68 1  
    70   67   69 1  
    71   68   70 1  
    72   71   72 1  
    73   72   73 1  
    74   72   75 1  
    75   73   74 ar 
    76   73   79 ar 
    77   75   76 1  
    78   75   77 1  
    79   76   78 1  
    80    1   80 1  
    81    1   81 1  
    82    1   82 1  
    83    2   83 1  
    84    5   84 1  
    85    5   85 1  
    86    5   86 1  
    87    6   87 1  
    88    7   88 1  
    89   10   89 1  
    90   10   90 1  
    91   13   91 1  
    92   13   92 1  
    93   14   93 1  
    94   15   94 1  
    95   18   95 1  
    96   18   96 1  
    97   19   97 1  
    98   20   98 1  
    99   21   99 1  
   100   24  100 1  
   101   24  101 1  
   102   25  102 1  
   103   25  103 1  
   104   26  104 1  
   105   26  105 1  
   106   27  106 1  
   107   29  107 1  
   108   29  108 1  
   109   30  109 1  
   110   30  110 1  
   111   33  111 1  
   112   33  112 1  
   113   33  113 1  
   114   34  114 1  
   115   35  115 1  
   116   35  116 1  
   117   36  117 1  
   118   36  118 1  
   119   37  119 1  
   120   37  120 1  
   121   38  121 1  
   122   38  122 1  
   123   39  123 1  
   124   40  124 1  
   125   44  125 1  
   126   47  126 1  
   127   47  127 1  
   128   48  128 1  
   129   48  129 1  
   130   49  130 1  
   131   49  131 1  
   132   50  132 1  
   133   51  133 1  
   134   54  134 1  
   135   55  135 1  
   136   56  136 1  
   137   56  137 1  
   138   56  138 1  
   139   57  139 1  
   140   58  140 1  
   141   61  141 1  
   142   61  142 1  
   143   62  143 1  
   144   63  144 1  
   145   64  145 1  
   146   67  146 1  
   147   68  147 1  
   148   68  148 1  
   149   69  149 1  
   150   69  150 1  
   151   69  151 1  
   152   70  152 1  
   153   70  153 1  
   154   70  154 1  
   155   71  155 1  
   156   72  156 1  
   157   75  157 1  
   158   76  158 1  
   159   76  159 1  
   160   77  160 1  
   161   77  161 1  
   162   77  162 1  
   163   78  163 1  
   164   78  164 1  
   165   78  165 1  
@<TRIPOS>SUBSTRUCTURE
     1 ALA         1

