4ok5_ligand
  -I-interpret- 

 36 38  0  0  0  0  0  0  0  0999 V2000
  -16.9170  -30.5230   36.6120 O   0  0  0  0  0
  -16.8000  -30.8670   35.4620 C   0  0  0  0  0
  -16.0540  -31.9270   35.1630 O   0  0  0  0  0
  -17.5110  -30.1330   34.3530 C   0  0  0  0  0
  -18.2840  -31.1360   33.5390 C   0  0  0  0  0
  -19.2790  -32.0960   34.0390 C   0  0  0  0  0
  -19.8040  -32.4020   35.2960 C   0  0  0  0  0
  -20.7480  -33.3810   35.4310 C   0  0  0  0  0
  -21.2000  -34.0850   34.3140 C   0  0  0  0  0
  -20.6850  -33.7950   33.0640 C   0  0  0  0  0
  -19.7270  -32.8050   32.9180 C   0  0  0  0  0
  -19.0550  -32.3080   31.8210 N   0  0  0  0  0
  -18.1970  -31.3120   32.2140 C   0  0  0  0  0
  -19.2600  -32.8330   30.4620 C   0  0  0  0  0
  -19.2040  -31.8390   29.3310 C   0  0  0  0  0
  -20.2410  -30.9230   29.1220 C   0  0  0  0  0
  -20.1690  -30.0410   28.0340 C   0  0  0  0  0
  -21.2260  -29.0870   27.8360 C   0  0  0  0  0
  -22.0800  -28.3150   27.5500 C   0  0  0  0  0
  -19.0710  -30.0810   27.1790 C   0  0  0  0  0
  -18.0870  -30.9920   27.3810 C   0  0  0  0  0
  -18.1290  -31.8790   28.4390 C   0  0  0  0  0
  -16.0641  -32.0664   34.2132 H   0  0  0  0  0
  -16.7865  -29.6189   33.7214 H   0  0  0  0  0
  -18.1897  -29.3903   34.7724 H   0  0  0  0  0
  -19.4590  -31.8570   36.1747 H   0  0  0  0  0
  -21.1503  -33.6134   36.4170 H   0  0  0  0  0
  -21.9569  -34.8613   34.4267 H   0  0  0  0  0
  -21.0337  -34.3468   32.1911 H   0  0  0  0  0
  -17.5431  -30.7488   31.5482 H   0  0  0  0  0
  -20.2702  -33.2423   30.4496 H   0  0  0  0  0
  -18.4422  -33.5318   30.2857 H   0  0  0  0  0
  -21.0958  -30.8953   29.7978 H   0  0  0  0  0
  -19.0023  -29.3800   26.3471 H   0  0  0  0  0
  -17.2429  -31.0251   26.6921 H   0  0  0  0  0
  -17.3285  -32.6058   28.5773 H   0  0  0  0  0
  1  2  2  0  0  0
  2  3  1  0  0  0
  2  4  1  0  0  0
  4  5  1  0  0  0
  5  6  4  0  0  0
  5 13  4  0  0  0
  6  7  4  0  0  0
  6 11  4  0  0  0
  7  8  4  0  0  0
  8  9  4  0  0  0
  9 10  4  0  0  0
 10 11  4  0  0  0
 11 12  4  0  0  0
 12 13  4  0  0  0
 12 14  1  0  0  0
 14 15  1  0  0  0
 15 16  4  0  0  0
 15 22  4  0  0  0
 16 17  4  0  0  0
 17 18  1  0  0  0
 17 20  4  0  0  0
 18 19  3  0  0  0
 20 21  4  0  0  0
 21 22  4  0  0  0
  3 23  1  0  0  0
  4 24  1  0  0  0
  4 25  1  0  0  0
  7 26  1  0  0  0
  8 27  1  0  0  0
  9 28  1  0  0  0
 10 29  1  0  0  0
 13 30  1  0  0  0
 14 31  1  0  0  0
 14 32  1  0  0  0
 16 33  1  0  0  0
 20 34  1  0  0  0
 21 35  1  0  0  0
 22 36  1  0  0  0
M  END
$$$$
