4nbk_ligand
  -I-interpret- 

 30 31  0  0  0  0  0  0  0  0999 V2000
   25.2740   29.5800    8.7750 C   0  0  0  0  0
   24.5710   29.2510    6.6070 C   0  0  0  0  0
   22.1730   29.3490    5.9310 C   0  0  0  0  0
   23.5900   29.1100    5.6870 N   0  0  0  0  0
   21.7080   30.7740    5.7740 C   0  0  0  0  0
   21.1420   31.2350    4.5840 C   0  0  0  0  0
   20.6030   32.5040    4.4930 C   0  0  0  0  0
   20.6420   33.3500    5.5750 C   0  0  0  0  0
   21.2340   32.9420    6.7520 C   0  0  0  0  0
   21.7700   31.6570    6.8570 C   0  0  0  0  0
   22.3500   31.2670    8.0080 O   0  0  0  0  0
   25.9170   28.9230    6.2000 C   0  0  0  0  0
   26.2810   28.5770    4.7840 C   0  0  0  0  0
   24.2900   29.5910    7.8690 N   0  0  0  0  0
   26.5590   29.2630    8.4940 C   0  0  0  0  0
   26.8820   28.9410    7.1910 C   0  0  0  0  0
   25.0253   29.8426    9.8032 H   0  0  0  0  0
   21.9915   29.0802    6.9716 H   0  0  0  0  0
   21.6311   28.7659    5.1864 H   0  0  0  0  0
   23.8627   28.8135    4.7499 H   0  0  0  0  0
   21.1250   30.5823    3.7112 H   0  0  0  0  0
   20.1457   32.8348    3.5605 H   0  0  0  0  0
   20.2042   34.3456    5.5030 H   0  0  0  0  0
   21.2835   33.6235    7.6012 H   0  0  0  0  0
   22.3096   31.9845    8.6445 H   0  0  0  0  0
   25.7201   27.6964    4.4709 H   0  0  0  0  0
   26.0367   29.4157    4.1321 H   0  0  0  0  0
   27.3493   28.3688    4.7254 H   0  0  0  0  0
   27.3188   29.2619    9.2755 H   0  0  0  0  0
   27.9140   28.6970    6.9390 H   0  0  0  0  0
 14  1  4  0  0  0
  1 15  4  0  0  0
  2  4  1  0  0  0
  2 12  4  0  0  0
  2 14  4  0  0  0
  4  3  1  0  0  0
  3  5  1  0  0  0
  5  6  4  0  0  0
  5 10  4  0  0  0
  6  7  4  0  0  0
  7  8  4  0  0  0
  8  9  4  0  0  0
  9 10  4  0  0  0
 10 11  1  0  0  0
 12 13  1  0  0  0
 12 16  4  0  0  0
 15 16  4  0  0  0
  1 17  1  0  0  0
  3 18  1  0  0  0
  3 19  1  0  0  0
  4 20  1  0  0  0
  6 21  1  0  0  0
  7 22  1  0  0  0
  8 23  1  0  0  0
  9 24  1  0  0  0
 11 25  1  0  0  0
 13 26  1  0  0  0
 13 27  1  0  0  0
 13 28  1  0  0  0
 15 29  1  0  0  0
 16 30  1  0  0  0
M  END
$$$$
