4lbo_ligand
  -I-interpret- 

 82 84  0  0  0  0  0  0  0  0999 V2000
   24.8400  -10.1060    0.3290 C   0  0  0  0  0
   23.3260  -10.1770    0.4970 C   0  0  0  0  0
   22.6040   -9.8380   -0.8060 C   0  0  0  0  0
   23.1650  -10.6930   -1.9450 C   0  0  0  0  0
   22.5270  -10.3990   -3.3000 C   0  0  0  0  0
   25.2860  -10.9050   -0.8900 C   0  0  0  0  0
   26.6900  -10.7150   -1.1010 O   0  0  0  0  0
   25.4830  -10.6300    1.4990 O   0  0  0  0  0
   22.9290   -9.2860    1.5500 O   0  0  0  0  0
   21.2030  -10.1000   -0.6480 O   0  0  0  0  0
   24.5680  -10.4610   -2.0430 O   0  0  0  0  0
   22.7410   -9.0300   -3.6660 O   0  0  0  0  0
   20.3820   -9.0160   -1.1110 C   0  0  0  0  0
   18.9320   -9.4890   -1.0720 C   0  0  0  0  0
   17.9700   -8.3650   -1.4350 C   0  0  0  0  0
   18.2960   -7.0980   -0.6550 C   0  0  0  0  0
   19.7880   -6.7580   -0.7390 C   0  0  0  0  0
   20.1850   -5.5460    0.1090 C   0  0  0  0  0
   18.7770  -10.5560   -1.9840 O   0  0  0  0  0
   16.6140   -8.7360   -1.1920 O   0  0  0  0  0
   17.8910   -7.3320    0.6740 O   0  0  0  0  0
   20.5570   -7.8640   -0.3110 O   0  0  0  0  0
   21.5840   -5.3410    0.0070 O   0  0  0  0  0
   15.6760   -7.5520   -3.1430 C   0  0  0  0  0
   15.9400   -8.8860   -2.4630 C   0  0  0  0  0
   14.6860   -9.3690   -1.7270 C   0  0  0  0  0
   13.5740   -9.7310   -2.7060 C   0  0  0  0  0
   14.0670  -10.7220   -3.7530 C   0  0  0  0  0
   15.4040  -10.2990   -4.3730 C   0  0  0  0  0
   16.0120  -11.4290   -5.2090 C   0  0  0  0  0
   17.3510  -11.0180   -5.8370 C   0  0  0  0  0
   18.5270  -11.8780   -5.3720 C   0  0  0  0  0
   12.1360  -11.8190   -4.8020 C   0  0  0  0  0
   11.1840  -11.7800   -5.9620 C   0  0  0  0  0
   13.0580  -10.8530   -4.7930 N   0  0  0  0  0
   16.2630   -7.2900   -4.2160 O   0  0  0  0  0
   14.8840   -6.7470   -2.6020 O   0  0  0  0  0
   12.4760  -10.3060   -1.9860 O   0  0  0  0  0
   16.3600   -9.9040   -3.3760 O   0  0  0  0  0
   16.1740  -12.5990   -4.3950 O   0  0  0  0  0
   17.2500  -11.1060   -7.2640 O   0  0  0  0  0
   18.3610  -13.2280   -5.8220 O   0  0  0  0  0
   12.0570  -12.6800   -3.9400 O   0  0  0  0  0
   25.1208   -9.0622    0.1883 H   0  0  0  0  0
   23.0465  -11.1971    0.7602 H   0  0  0  0  0
   22.7547   -8.7853   -1.0453 H   0  0  0  0  0
   22.9380  -11.7314   -1.7036 H   0  0  0  0  0
   21.4551  -10.5861   -3.2360 H   0  0  0  0  0
   22.9805  -11.0431   -4.0534 H   0  0  0  0  0
   25.0837  -11.9627   -0.7212 H   0  0  0  0  0
   27.1721  -11.0133   -0.3263 H   0  0  0  0  0
   25.2035  -10.1282    2.2682 H   0  0  0  0  0
   23.3948   -9.5182    2.3567 H   0  0  0  0  0
   22.3346   -8.8607   -4.5191 H   0  0  0  0  0
   20.6653   -8.7387   -2.1263 H   0  0  0  0  0
   18.6990   -9.8147   -0.0583 H   0  0  0  0  0
   18.0915   -8.1727   -2.5010 H   0  0  0  0  0
   17.7727   -6.2377   -1.0722 H   0  0  0  0  0
   19.9831   -6.5139   -1.7833 H   0  0  0  0  0
   19.9175   -5.7258    1.1503 H   0  0  0  0  0
   19.6594   -4.6613   -0.2503 H   0  0  0  0  0
   17.8668  -10.8607   -1.9666 H   0  0  0  0  0
   18.0783   -6.5551    1.2059 H   0  0  0  0  0
   21.8345   -4.5815    0.5381 H   0  0  0  0  0
   14.3317   -8.5657   -1.0810 H   0  0  0  0  0
   14.9429  -10.2572   -1.1497 H   0  0  0  0  0
   13.2541   -8.8224   -3.2160 H   0  0  0  0  0
   14.2330  -11.6791   -3.2586 H   0  0  0  0  0
   15.1836   -9.4441   -5.0123 H   0  0  0  0  0
   15.3277  -11.6500   -6.0282 H   0  0  0  0  0
   17.5502   -9.9964   -5.5133 H   0  0  0  0  0
   18.5681  -11.8674   -4.2828 H   0  0  0  0  0
   19.4504  -11.4744   -5.7874 H   0  0  0  0  0
   11.2655  -12.7076   -6.5286 H   0  0  0  0  0
   10.1653  -11.6678   -5.5908 H   0  0  0  0  0
   11.4324  -10.9364   -6.6060 H   0  0  0  0  0
   13.0547  -10.1730   -5.5532 H   0  0  0  0  0
   14.5407   -7.1326   -1.7926 H   0  0  0  0  0
   11.7756  -10.5342   -2.6016 H   0  0  0  0  0
   16.5552  -13.3044   -4.9229 H   0  0  0  0  0
   18.0864  -10.8494   -7.6593 H   0  0  0  0  0
   19.1046  -13.7571   -5.5242 H   0  0  0  0  0
  2  1  1  0  0  0
  1  6  1  0  0  0
  1  8  1  0  0  0
  3  2  1  0  0  0
  2  9  1  0  0  0
  3  4  1  0  0  0
 10  3  1  0  0  0
  4  5  1  0  0  0
  4 11  1  0  0  0
  5 12  1  0  0  0
  6  7  1  0  0  0
 11  6  1  0  0  0
 13 10  1  0  0  0
 14 13  1  0  0  0
 13 22  1  0  0  0
 15 14  1  0  0  0
 14 19  1  0  0  0
 15 16  1  0  0  0
 20 15  1  0  0  0
 16 17  1  0  0  0
 16 21  1  0  0  0
 17 18  1  0  0  0
 17 22  1  0  0  0
 18 23  1  0  0  0
 25 20  1  0  0  0
 25 24  1  0  0  0
 24 36  2  0  0  0
 24 37  1  0  0  0
 26 25  1  0  0  0
 39 25  1  0  0  0
 27 26  1  0  0  0
 28 27  1  0  0  0
 27 38  1  0  0  0
 28 29  1  0  0  0
 35 28  1  0  0  0
 29 30  1  0  0  0
 29 39  1  0  0  0
 30 31  1  0  0  0
 30 40  1  0  0  0
 31 32  1  0  0  0
 31 41  1  0  0  0
 32 42  1  0  0  0
 33 34  1  0  0  0
 33 35  1  0  0  0
 33 43  2  0  0  0
  1 44  1  0  0  0
  2 45  1  0  0  0
  3 46  1  0  0  0
  4 47  1  0  0  0
  5 48  1  0  0  0
  5 49  1  0  0  0
  6 50  1  0  0  0
  7 51  1  0  0  0
  8 52  1  0  0  0
  9 53  1  0  0  0
 12 54  1  0  0  0
 13 55  1  0  0  0
 14 56  1  0  0  0
 15 57  1  0  0  0
 16 58  1  0  0  0
 17 59  1  0  0  0
 18 60  1  0  0  0
 18 61  1  0  0  0
 19 62  1  0  0  0
 21 63  1  0  0  0
 23 64  1  0  0  0
 26 65  1  0  0  0
 26 66  1  0  0  0
 27 67  1  0  0  0
 28 68  1  0  0  0
 29 69  1  0  0  0
 30 70  1  0  0  0
 31 71  1  0  0  0
 32 72  1  0  0  0
 32 73  1  0  0  0
 34 74  1  0  0  0
 34 75  1  0  0  0
 34 76  1  0  0  0
 35 77  1  0  0  0
 37 78  1  0  0  0
 38 79  1  0  0  0
 40 80  1  0  0  0
 41 81  1  0  0  0
 42 82  1  0  0  0
M  END
$$$$
