4igk_ligand
  -I-interpret- 

 99100  0  0  0  0  0  0  0  0999 V2000
    3.7090   -8.6010   12.6950 N   0  3  0  0  0
    4.0000   -8.7140   14.1750 C   0  0  0  0  0
    5.5210   -8.7690   14.5420 C   0  0  0  0  0
    6.1410   -7.7730   14.9340 O   0  0  0  0  0
    3.3100   -9.9520   14.6750 C   0  0  0  0  0
    6.0810   -9.9680   14.4220 N   0  0  0  0  0
    7.4870  -10.2460   14.5880 C   0  0  0  0  0
    7.9550  -10.9400   13.2840 C   0  0  0  0  0
    7.2900  -11.8220   12.8100 O   0  0  0  0  0
    7.6410  -11.2540   15.6820 C   0  0  0  0  0
    9.3600  -11.7470   15.9260 S   0  0  0  0  0
    9.0950  -10.5620   12.7310 N   0  0  0  0  0
    9.4650  -11.1870   11.4350 C   0  0  0  0  0
   10.5770  -10.3680   10.7180 C   0  0  0  0  0
   10.0170   -9.0990   10.4250 O   0  0  0  0  0
   10.1140  -12.5510   11.7300 C   0  0  0  0  0
   11.0820  -12.6550   12.5450 O   0  0  0  0  0
   11.0330   -7.8600   10.0510 P   0  0  0  0  0
   10.0760   -6.8530    9.4940 O   0  0  0  0  0
   11.7110   -7.4290   11.3030 O   0  0  0  0  0
   12.0450   -8.4100    9.0490 O   0  0  0  0  0
    9.7050  -13.5490   10.9970 N   0  0  0  0  0
   10.2530  -14.8960   11.2360 C   0  0  0  0  0
   11.6970  -14.9600   10.8260 C   0  0  0  0  0
   12.1260  -14.1770    9.9410 O   0  0  0  0  0
    9.3730  -15.7930   10.3620 C   0  0  0  0  0
    8.2550  -15.0240    9.8910 C   0  0  0  0  0
    8.5460  -13.5820   10.0970 C   0  0  0  0  0
   12.4570  -15.7800   11.5300 N   0  0  0  0  0
   13.8880  -16.0620   11.2550 C   0  0  0  0  0
   14.0420  -17.4880   10.6550 C   0  0  0  0  0
   13.2720  -18.4160   10.9690 O   0  0  0  0  0
   14.7460  -15.9160   12.5020 C   0  0  0  0  0
   14.6340  -14.5410   13.1850 C   0  0  0  0  0
   15.3600  -14.4800   14.4740 C   0  0  0  0  0
   15.4430  -15.4890   15.1940 O   0  0  0  0  0
   15.8980  -13.3310   14.8010 N   0  0  0  0  0
   15.0530  -17.6580    9.8140 N   0  0  0  0  0
   15.2860  -18.9240    9.0760 C   0  0  0  0  0
   16.6460  -19.4750    9.4910 C   0  0  0  0  0
   17.7510  -19.0380    9.0940 O   0  0  0  0  0
   15.1040  -18.7290    7.5640 C   0  0  0  0  0
   13.7550  -18.2760    7.1950 C   0  0  0  0  0
   13.4020  -16.8970    7.2110 C   0  0  0  0  0
   12.7730  -19.1690    6.8870 C   0  0  0  0  0
   12.1270  -16.4840    6.9590 C   0  0  0  0  0
   11.4700  -18.7670    6.6040 C   0  0  0  0  0
   11.1420  -17.4050    6.6080 C   0  0  0  0  0
   16.5710  -20.4110   10.4660 N   0  0  0  0  0
   17.7650  -21.0140   10.9310 C   0  0  0  0  0
   18.0350  -22.2070    9.9990 C   0  0  0  0  0
   19.0480  -22.8968   10.2916 O   0  0  0  0  0
   17.2966  -22.4753    9.0139 O   0  0  0  0  0
    4.1646   -7.7678   12.3228 H   0  0  0  0  0
    4.0654   -9.4277   12.2155 H   0  0  0  0  0
    2.7014   -8.5316   12.5521 H   0  0  0  0  0
    3.6295   -7.8062   14.6512 H   0  0  0  0  0
    3.7613  -10.8298   14.2125 H   0  0  0  0  0
    3.4179  -10.0143   15.7579 H   0  0  0  0  0
    2.2522   -9.9066   14.4160 H   0  0  0  0  0
    5.4697  -10.7524   14.1950 H   0  0  0  0  0
    8.0448   -9.3359   14.8085 H   0  0  0  0  0
    7.0716  -12.1414   15.4056 H   0  0  0  0  0
    7.2845  -10.8035   16.6083 H   0  0  0  0  0
    9.4280  -12.6410   16.9084 H   0  0  0  0  0
    9.6964   -9.8689   13.1764 H   0  0  0  0  0
    8.5651  -11.2486   10.8231 H   0  0  0  0  0
   10.9051  -10.8693    9.8075 H   0  0  0  0  0
   11.4584  -10.2687   11.3516 H   0  0  0  0  0
    9.6797   -7.1997    8.6913 H   0  0  0  0  0
   11.5873   -8.6817    8.2501 H   0  0  0  0  0
   10.2381  -15.1934   12.2845 H   0  0  0  0  0
    9.0182  -16.6435   10.9441 H   0  0  0  0  0
    9.9496  -16.1648    9.5150 H   0  0  0  0  0
    7.3566  -15.3022   10.4420 H   0  0  0  0  0
    8.0914  -15.2204    8.8314 H   0  0  0  0  0
    8.7535  -13.0747    9.1548 H   0  0  0  0  0
    7.6913  -13.0557   10.5220 H   0  0  0  0  0
   12.0273  -16.2558   12.3234 H   0  0  0  0  0
   14.2391  -15.3255   10.5322 H   0  0  0  0  0
   15.7845  -16.0398   12.1950 H   0  0  0  0  0
   14.4018  -16.6612   13.2192 H   0  0  0  0  0
   13.5794  -14.3532   13.3866 H   0  0  0  0  0
   15.0749  -13.8000   12.5181 H   0  0  0  0  0
   16.4104  -13.2390   15.6782 H   0  0  0  0  0
   15.8045  -12.5285   14.1784 H   0  0  0  0  0
   15.7000  -16.8832    9.6677 H   0  0  0  0  0
   14.5392  -19.6739    9.3369 H   0  0  0  0  0
   15.2704  -19.6938    7.0848 H   0  0  0  0  0
   15.8086  -17.9617    7.2434 H   0  0  0  0  0
   14.1688  -16.1538    7.4298 H   0  0  0  0  0
   13.0149  -20.2315    6.8613 H   0  0  0  0  0
   11.8766  -15.4257    7.0327 H   0  0  0  0  0
   10.7061  -19.5114    6.3796 H   0  0  0  0  0
   10.1383  -17.0730    6.3424 H   0  0  0  0  0
   15.6686  -20.6778   10.8596 H   0  0  0  0  0
   17.6632  -21.3395   11.9663 H   0  0  0  0  0
   18.5944  -20.3070   10.9143 H   0  0  0  0  0
   16.5843  -21.8335    8.9651 H   0  0  0  0  0
  1  2  1  0  0  0
  2  3  1  0  0  0
  2  5  1  0  0  0
  3  4  2  0  0  0
  3  6  1  0  0  0
  6  7  1  0  0  0
  7  8  1  0  0  0
  7 10  1  0  0  0
  8  9  2  0  0  0
  8 12  1  0  0  0
 10 11  1  0  0  0
 12 13  1  0  0  0
 13 14  1  0  0  0
 13 16  1  0  0  0
 14 15  1  0  0  0
 15 18  1  0  0  0
 16 17  2  0  0  0
 16 22  1  0  0  0
 18 19  1  0  0  0
 18 20  2  0  0  0
 18 21  1  0  0  0
 22 23  1  0  0  0
 22 28  1  0  0  0
 23 24  1  0  0  0
 23 26  1  0  0  0
 24 25  2  0  0  0
 24 29  1  0  0  0
 26 27  1  0  0  0
 27 28  1  0  0  0
 29 30  1  0  0  0
 30 31  1  0  0  0
 30 33  1  0  0  0
 31 32  2  0  0  0
 31 38  1  0  0  0
 33 34  1  0  0  0
 34 35  1  0  0  0
 35 36  2  0  0  0
 35 37  1  0  0  0
 38 39  1  0  0  0
 39 40  1  0  0  0
 39 42  1  0  0  0
 40 41  2  0  0  0
 40 49  1  0  0  0
 42 43  1  0  0  0
 43 44  4  0  0  0
 43 45  4  0  0  0
 44 46  4  0  0  0
 45 47  4  0  0  0
 46 48  4  0  0  0
 47 48  4  0  0  0
 49 50  1  0  0  0
 50 51  1  0  0  0
 51 52  2  0  0  0
 51 53  1  0  0  0
  1 54  1  0  0  0
  1 55  1  0  0  0
  1 56  1  0  0  0
  2 57  1  0  0  0
  5 58  1  0  0  0
  5 59  1  0  0  0
  5 60  1  0  0  0
  6 61  1  0  0  0
  7 62  1  0  0  0
 10 63  1  0  0  0
 10 64  1  0  0  0
 11 65  1  0  0  0
 12 66  1  0  0  0
 13 67  1  0  0  0
 14 68  1  0  0  0
 14 69  1  0  0  0
 19 70  1  0  0  0
 21 71  1  0  0  0
 23 72  1  0  0  0
 26 73  1  0  0  0
 26 74  1  0  0  0
 27 75  1  0  0  0
 27 76  1  0  0  0
 28 77  1  0  0  0
 28 78  1  0  0  0
 29 79  1  0  0  0
 30 80  1  0  0  0
 33 81  1  0  0  0
 33 82  1  0  0  0
 34 83  1  0  0  0
 34 84  1  0  0  0
 37 85  1  0  0  0
 37 86  1  0  0  0
 38 87  1  0  0  0
 39 88  1  0  0  0
 42 89  1  0  0  0
 42 90  1  0  0  0
 44 91  1  0  0  0
 45 92  1  0  0  0
 46 93  1  0  0  0
 47 94  1  0  0  0
 48 95  1  0  0  0
 49 96  1  0  0  0
 50 97  1  0  0  0
 50 98  1  0  0  0
 53 99  1  0  0  0
M  END
$$$$
