### 
### Created by X-TOOL on Mon Sep 10 21:13:12 2018
### 

@<TRIPOS>MOLECULE
4igk_ligand
   96    97     1     0     0
SMALL
GAST_HUCK


@<TRIPOS>ATOM
      1 N           3.7090   -8.6010   12.6950 N.4       1 ALA         0.2377
      2 CA          4.0000   -8.7140   14.1750 C.3       1 ALA         0.0621
      3 C           5.5210   -8.7690   14.5420 C.2       1 ALA         0.2264
      4 O           6.1410   -7.7730   14.9340 O.2       1 ALA        -0.3907
      5 CB          3.3100   -9.9520   14.6750 C.3       1 ALA        -0.0040
      6 N           6.0810   -9.9680   14.4220 N.am      1 CYS        -0.2602
      7 CA          7.4870  -10.2460   14.5880 C.3       1 CYS         0.1397
      8 C           7.9550  -10.9400   13.2840 C.2       1 CYS         0.2048
      9 O           7.2900  -11.8220   12.8100 O.2       1 CYS        -0.3944
     10 CB          7.6410  -11.2540   15.6820 C.3       1 CYS         0.0311
     11 SG          9.3600  -11.7470   15.9260 S.3       1 CYS        -0.1735
     12 N           9.0950  -10.5620   12.7310 N.am      1 SEP        -0.2613
     13 CA          9.4650  -11.1870   11.4350 C.3       1 SEP         0.1588
     14 CB         10.5770  -10.3680   10.7180 C.3       1 SEP         0.1184
     15 OG         10.0170   -9.0990   10.4250 O.3       1 SEP        -0.2714
     16 C          10.1140  -12.5510   11.7300 C.2       1 SEP         0.2090
     17 O          11.0820  -12.6550   12.5450 O.2       1 SEP        -0.3941
     18 P          11.0330   -7.8600   10.0510 P.3       1 SEP         0.2010
     19 O1P        10.0760   -6.8530    9.4940 O.co2     1 SEP        -0.5537
     20 O2P        11.7110   -7.4290   11.3030 O.co2     1 SEP        -0.5537
     21 O3P        12.0450   -8.4100    9.0490 O.co2     1 SEP        -0.5537
     22 N           9.7050  -13.5490   10.9970 N.am      1 PRO        -0.2498
     23 CA         10.2530  -14.8960   11.2360 C.3       1 PRO         0.1338
     24 C          11.6970  -14.9600   10.8260 C.2       1 PRO         0.2041
     25 O          12.1260  -14.1770    9.9410 O.2       1 PRO        -0.3944
     26 CB          9.3730  -15.7930   10.3620 C.3       1 PRO        -0.0104
     27 CG          8.2550  -15.0240    9.8910 C.3       1 PRO        -0.0281
     28 CD          8.5460  -13.5820   10.0970 C.3       1 PRO         0.0369
     29 N          12.4570  -15.7800   11.5300 N.am      1 GLN        -0.2636
     30 CA         13.8880  -16.0620   11.2550 C.3       1 GLN         0.1330
     31 C          14.0420  -17.4880   10.6550 C.2       1 GLN         0.2042
     32 O          13.2720  -18.4160   10.9690 O.2       1 GLN        -0.3944
     33 CB         14.7460  -15.9160   12.5020 C.3       1 GLN         0.0045
     34 CG         14.6340  -14.5410   13.1850 C.3       1 GLN         0.0412
     35 CD         15.3600  -14.4800   14.4740 C.2       1 GLN         0.1737
     36 OE1        15.4430  -15.4890   15.1940 O.2       1 GLN        -0.3973
     37 NE2        15.8980  -13.3310   14.8010 N.am      1 GLN        -0.3009
     38 N          15.0530  -17.6580    9.8140 N.am      1 PHE        -0.2619
     39 CA         15.2860  -18.9240    9.0760 C.3       1 PHE         0.1404
     40 C          16.6460  -19.4750    9.4910 C.2       1 PHE         0.2052
     41 O          17.7510  -19.0380    9.0940 O.2       1 PHE        -0.3942
     42 CB         15.1040  -18.7290    7.5640 C.3       1 PHE         0.0214
     43 CG         13.7550  -18.2760    7.1950 C.ar      1 PHE        -0.0386
     44 CD1        13.4020  -16.8970    7.2110 C.ar      1 PHE        -0.0601
     45 CD2        12.7730  -19.1690    6.8870 C.ar      1 PHE        -0.0601
     46 CE1        12.1270  -16.4840    6.9590 C.ar      1 PHE        -0.0686
     47 CE2        11.4700  -18.7670    6.6040 C.ar      1 PHE        -0.0686
     48 CZ         11.1420  -17.4050    6.6080 C.ar      1 PHE        -0.0687
     49 N          16.5710  -20.4110   10.4660 N.am      1 GLY        -0.2720
     50 CA         17.7650  -21.0140   10.9310 C.3       1 GLY         0.0833
     51 C          18.0350  -22.2070    9.9990 C.2       1 GLY         0.0570
     52 O          19.0480  -22.8968   10.2916 O.co2     1 GLY        -0.5669
     53 O          17.2966  -22.4753    9.0139 O.co2     1 GLY        -0.5669
     54 H1          2.7119   -8.5719   12.5499 H         1 ALA         0.2015
     55 H2          4.0952   -9.3986   12.2147 H         1 ALA         0.2015
     56 H3          4.1258   -7.7572   12.3341 H         1 ALA         0.2015
     57 H4          3.5685   -7.8348   14.6758 H         1 ALA         0.1095
     58 H5          3.4998  -10.0678   15.7523 H         1 ALA         0.0310
     59 H6          3.6978  -10.8302   14.1380 H         1 ALA         0.0310
     60 H7          2.2274   -9.8642   14.5008 H         1 ALA         0.0310
     61 H8          5.4817  -10.7370   14.1995 H         1 CYS         0.1885
     62 H9          8.0597   -9.3303   14.7964 H         1 CYS         0.0808
     63 H10         7.0506  -12.1461   15.4261 H         1 CYS         0.0422
     64 H11         7.2618  -10.8195   16.6187 H         1 CYS         0.0422
     65 H12         9.4115  -12.4245   16.6705 H         1 CYS         0.1019
     66 H13         9.6846   -9.8825   13.1677 H         1 SEP         0.1884
     67 H14         8.5772  -11.2913   10.7940 H         1 SEP         0.0827
     68 H15        10.8814  -10.8725    9.7892 H         1 SEP         0.0662
     69 H16        11.4504  -10.2548   11.3771 H         1 SEP         0.0662
     70 H17        10.1632  -15.1758   12.2960 H         1 PRO         0.0802
     71 H18         9.0117  -16.6468   10.9540 H         1 PRO         0.0313
     72 H19         9.9560  -16.1614    9.5050 H         1 PRO         0.0313
     73 H20         7.3514  -15.3028   10.4528 H         1 PRO         0.0287
     74 H21         8.0961  -15.2199    8.8203 H         1 PRO         0.0287
     75 H22         8.7867  -13.0964    9.1398 H         1 PRO         0.0524
     76 H23         7.6847  -13.0766   10.5582 H         1 PRO         0.0524
     77 H24        12.0358  -16.2464   12.3078 H         1 GLN         0.1883
     78 H25        14.2427  -15.3329   10.5117 H         1 GLN         0.0801
     79 H26        15.7968  -16.0764   12.2190 H         1 GLN         0.0337
     80 H27        14.4391  -16.6865   13.2246 H         1 GLN         0.0337
     81 H28        13.5712  -14.3258   13.3697 H         1 GLN         0.0504
     82 H29        15.0507  -13.7785   12.5105 H         1 GLN         0.0504
     83 H30        16.3985  -13.2402   15.6620 H         1 GLN         0.1814
     84 H31        15.8081  -12.5448   14.1896 H         1 GLN         0.1814
     85 H32        15.6873  -16.8984    9.6706 H         1 PHE         0.1885
     86 H33        14.5253  -19.6511    9.3964 H         1 PHE         0.0823
     87 H34        15.2998  -19.6880    7.0621 H         1 PHE         0.0474
     88 H35        15.8309  -17.9791    7.2185 H         1 PHE         0.0474
     89 H36        14.1645  -16.1579    7.4286 H         1 PHE         0.0557
     90 H37        13.0136  -20.2257    6.8614 H         1 PHE         0.0557
     91 H38        11.8780  -15.4315    7.0323 H         1 PHE         0.0599
     92 H39        10.7103  -19.5073    6.3808 H         1 PHE         0.0599
     93 H40        10.1439  -17.0749    6.3438 H         1 PHE         0.0559
     94 H41        15.6863  -20.6726   10.8519 H         1 GLY         0.1873
     95 H42        17.6385  -21.3608   11.9672 H         1 GLY         0.0689
     96 H43        18.5978  -20.2970   10.8834 H         1 GLY         0.0689
@<TRIPOS>BOND
     1    1    2 1  
     2    2    3 1  
     3    2    5 1  
     4    3    4 2  
     5    3    6 am 
     6    6    7 1  
     7    7    8 1  
     8    7   10 1  
     9    8    9 2  
    10    8   12 am 
    11   10   11 1  
    12   12   13 1  
    13   13   14 1  
    14   13   16 1  
    15   14   15 1  
    16   15   18 1  
    17   16   17 2  
    18   16   22 am 
    19   18   19 ar 
    20   18   20 ar 
    21   18   21 ar 
    22   22   23 1  
    23   22   28 1  
    24   23   24 1  
    25   23   26 1  
    26   24   25 2  
    27   24   29 am 
    28   26   27 1  
    29   27   28 1  
    30   29   30 1  
    31   30   31 1  
    32   30   33 1  
    33   31   32 2  
    34   31   38 am 
    35   33   34 1  
    36   34   35 1  
    37   35   36 2  
    38   35   37 am 
    39   38   39 1  
    40   39   40 1  
    41   39   42 1  
    42   40   41 2  
    43   40   49 am 
    44   42   43 1  
    45   43   44 ar 
    46   43   45 ar 
    47   44   46 ar 
    48   45   47 ar 
    49   46   48 ar 
    50   47   48 ar 
    51   49   50 1  
    52   50   51 1  
    53   51   52 ar 
    54   51   53 ar 
    55    1   54 1  
    56    1   55 1  
    57    1   56 1  
    58    2   57 1  
    59    5   58 1  
    60    5   59 1  
    61    5   60 1  
    62    6   61 1  
    63    7   62 1  
    64   10   63 1  
    65   10   64 1  
    66   11   65 1  
    67   12   66 1  
    68   13   67 1  
    69   14   68 1  
    70   14   69 1  
    71   23   70 1  
    72   26   71 1  
    73   26   72 1  
    74   27   73 1  
    75   27   74 1  
    76   28   75 1  
    77   28   76 1  
    78   29   77 1  
    79   30   78 1  
    80   33   79 1  
    81   33   80 1  
    82   34   81 1  
    83   34   82 1  
    84   37   83 1  
    85   37   84 1  
    86   38   85 1  
    87   39   86 1  
    88   42   87 1  
    89   42   88 1  
    90   44   89 1  
    91   45   90 1  
    92   46   91 1  
    93   47   92 1  
    94   48   93 1  
    95   49   94 1  
    96   50   95 1  
    97   50   96 1  
@<TRIPOS>SUBSTRUCTURE
     1 ALA         1

