5y2f_ligand
  -I-interpret- 

 48 50  0  0  0  0  0  0  0  0999 V2000
   -2.3590  126.8210  157.8540 C   0  0  0  0  0
   -1.2950  126.6630  158.7380 C   0  0  0  0  0
   -0.5970  125.4480  158.7910 C   0  0  0  0  0
   -0.9510  124.3590  157.9610 C   0  0  0  0  0
   -2.0220  124.5080  157.0490 C   0  0  0  0  0
   -2.7080  125.7400  157.0130 C   0  0  0  0  0
   -2.5160  123.4720  156.1070 C   0  0  0  0  0
   -5.9560  129.4550  153.6530 C   0  0  0  0  0
   -6.6880  129.9280  154.7480 C   0  0  0  0  0
   -6.3330  129.5380  156.0490 C   0  0  0  0  0
   -5.2360  128.6790  156.2320 C   0  0  0  0  0
   -4.5040  128.2080  155.1280 C   0  0  0  0  0
   -4.8720  128.6000  153.8430 C   0  0  0  0  0
   -3.9880  128.0320  152.4740 Cl  0  0  0  0  0
   -8.0210  130.9880  154.4650 Cl  0  0  0  0  0
   -4.7880  128.1790  157.8750 S   0  0  0  0  0
   -3.0890  128.0600  157.7750 N   0  0  0  0  0
   -5.3850  126.8730  158.0880 O   0  0  0  0  0
   -5.1400  129.2640  158.7740 O   0  0  0  0  0
   -3.4000  122.6470  156.7310 O   0  0  0  0  0
   -2.1750  123.3890  154.9400 O   0  0  0  0  0
    0.0040  122.8570  158.0630 S   0  0  0  0  0
    0.2620  122.5710  156.6730 O   0  0  0  0  0
    1.1640  123.1030  158.8850 O   0  0  0  0  0
   -0.9660  121.6240  158.7910 N   0  0  0  0  0
   -1.1570  121.5120  160.2220 C   0  0  0  0  0
   -2.0740  122.3940  160.8170 C   0  0  0  0  0
   -2.3090  122.3420  162.1970 C   0  0  0  0  0
   -1.6440  121.4140  163.0060 C   0  0  0  0  0
   -0.7340  120.5270  162.4320 C   0  0  0  0  0
   -0.4800  120.5570  161.0430 C   0  0  0  0  0
    0.5110  119.5710  160.5130 C   0  0  0  0  0
   -1.8560  121.3520  164.3330 F   0  0  0  0  0
   -3.5520  123.5460  162.9380 Br  0  0  0  0  0
   -1.0038  127.4860  159.3906 H   0  0  0  0  0
    0.2356  125.3406  159.4862 H   0  0  0  0  0
   -3.5348  125.8624  156.3133 H   0  0  0  0  0
   -6.2358  129.7576  152.6439 H   0  0  0  0  0
   -6.9014  129.8972  156.9069 H   0  0  0  0  0
   -3.6548  127.5410  155.2765 H   0  0  0  0  0
   -2.5564  128.9211  157.6514 H   0  0  0  0  0
   -3.4996  122.9199  157.6460 H   0  0  0  0  0
   -1.4247  120.9443  158.1843 H   0  0  0  0  0
   -2.6046  123.1215  160.2028 H   0  0  0  0  0
   -0.2141  119.8042  163.0608 H   0  0  0  0  0
    0.0277  118.9348  159.7716 H   0  0  0  0  0
    1.3408  120.1049  160.0499 H   0  0  0  0  0
    0.8845  118.9569  161.3325 H   0  0  0  0  0
  1  2  4  0  0  0
  1  6  4  0  0  0
 17  1  1  0  0  0
  2  3  4  0  0  0
  3  4  4  0  0  0
  5  4  4  0  0  0
  4 22  1  0  0  0
  6  5  4  0  0  0
  5  7  1  0  0  0
  7 20  1  0  0  0
  7 21  2  0  0  0
  9  8  4  0  0  0
 13  8  4  0  0  0
 10  9  4  0  0  0
  9 15  1  0  0  0
 11 10  4  0  0  0
 11 12  4  0  0  0
 16 11  1  0  0  0
 12 13  4  0  0  0
 13 14  1  0  0  0
 16 17  1  0  0  0
 16 18  2  0  0  0
 16 19  2  0  0  0
 22 23  2  0  0  0
 22 24  2  0  0  0
 22 25  1  0  0  0
 25 26  1  0  0  0
 26 27  4  0  0  0
 26 31  4  0  0  0
 27 28  4  0  0  0
 28 29  4  0  0  0
 28 34  1  0  0  0
 29 30  4  0  0  0
 29 33  1  0  0  0
 30 31  4  0  0  0
 31 32  1  0  0  0
  2 35  1  0  0  0
  3 36  1  0  0  0
  6 37  1  0  0  0
  8 38  1  0  0  0
 10 39  1  0  0  0
 12 40  1  0  0  0
 17 41  1  0  0  0
 20 42  1  0  0  0
 25 43  1  0  0  0
 27 44  1  0  0  0
 30 45  1  0  0  0
 32 46  1  0  0  0
 32 47  1  0  0  0
 32 48  1  0  0  0
M  END
$$$$
