6fzm_ligand
  -I-interpret- 

 42 44  0  0  0  0  0  0  0  0999 V2000
  -16.9670  -13.5030    2.7540 C   0  0  0  0  0
  -15.9010  -13.5140    1.6830 C   0  0  0  0  0
  -14.9730  -13.6150    0.7980 C   0  0  0  0  0
  -13.8750  -13.7370   -0.2490 C   0  0  0  0  0
  -13.3750  -15.0660   -0.4890 C   0  0  0  0  0
  -13.8870  -16.1510    0.2520 C   0  0  0  0  0
  -12.3230  -15.3300   -1.4360 C   0  0  0  0  0
  -11.9040  -16.6240   -1.5800 N   0  0  0  0  0
  -13.2640  -12.6620   -1.0260 C   0  0  0  0  0
  -12.2140  -12.9220   -1.9990 C   0  0  0  0  0
  -11.7250  -14.2610   -2.2000 C   0  0  0  0  0
  -10.6720  -14.6260   -3.1010 C   0  0  0  0  0
  -10.0540  -13.8490   -3.7990 O   0  0  0  0  0
  -10.2700  -15.9680   -3.1980 N   0  0  0  0  0
  -10.9120  -16.9630   -2.4150 C   0  0  0  0  0
  -10.5340  -18.2980   -2.4620 C   0  0  0  0  0
   -9.0610  -18.5670   -1.3860 S   0  0  0  0  0
   -9.5830  -18.7610    0.3020 C   0  0  0  0  0
  -10.8900  -18.4560    0.7610 C   0  0  0  0  0
  -11.2680  -18.6200    2.1170 C   0  0  0  0  0
  -10.3160  -19.1060    3.0400 C   0  0  0  0  0
  -10.6490  -19.2770    4.3820 C   0  0  0  0  0
  -11.8110  -18.9900    4.7690 O   0  0  0  0  0
   -9.7720  -19.7140    5.1890 O   0  0  0  0  0
   -9.0060  -19.4180    2.5910 C   0  0  0  0  0
   -8.6450  -19.2400    1.2380 C   0  0  0  0  0
  -17.6946  -14.2882    2.5487 H   0  0  0  0  0
  -16.5057  -13.6785    3.7258 H   0  0  0  0  0
  -17.4669  -12.5344    2.7573 H   0  0  0  0  0
  -13.7019  -15.9842    1.3131 H   0  0  0  0  0
  -14.9597  -16.2343    0.0777 H   0  0  0  0  0
  -13.3938  -17.0702   -0.0641 H   0  0  0  0  0
  -13.6036  -11.6376   -0.8729 H   0  0  0  0  0
  -11.7956  -12.0991   -2.5785 H   0  0  0  0  0
   -9.5150  -16.2284   -3.8325 H   0  0  0  0  0
  -10.2847  -18.5664   -3.4886 H   0  0  0  0  0
  -11.3573  -18.9187   -2.1084 H   0  0  0  0  0
  -11.6265  -18.0840    0.0487 H   0  0  0  0  0
  -12.2788  -18.3746    2.4428 H   0  0  0  0  0
   -8.9536  -19.8755    4.7138 H   0  0  0  0  0
   -8.2704  -19.7994    3.2991 H   0  0  0  0  0
   -7.6311  -19.4753    0.9143 H   0  0  0  0  0
  1  2  1  0  0  0
  2  3  3  0  0  0
  3  4  1  0  0  0
  4  5  4  0  0  0
  4  9  4  0  0  0
  5  6  1  0  0  0
  5  7  4  0  0  0
  7  8  1  0  0  0
  7 11  4  0  0  0
  8 15  2  0  0  0
  9 10  4  0  0  0
 10 11  4  0  0  0
 11 12  1  0  0  0
 12 13  2  0  0  0
 12 14  1  0  0  0
 14 15  1  0  0  0
 15 16  1  0  0  0
 16 17  1  0  0  0
 17 18  1  0  0  0
 18 19  4  0  0  0
 18 26  4  0  0  0
 19 20  4  0  0  0
 20 21  4  0  0  0
 21 22  1  0  0  0
 21 25  4  0  0  0
 22 23  2  0  0  0
 22 24  1  0  0  0
 25 26  4  0  0  0
  1 27  1  0  0  0
  1 28  1  0  0  0
  1 29  1  0  0  0
  6 30  1  0  0  0
  6 31  1  0  0  0
  6 32  1  0  0  0
  9 33  1  0  0  0
 10 34  1  0  0  0
 14 35  1  0  0  0
 16 36  1  0  0  0
 16 37  1  0  0  0
 19 38  1  0  0  0
 20 39  1  0  0  0
 24 40  1  0  0  0
 25 41  1  0  0  0
 26 42  1  0  0  0
M  END
$$$$
