2os9_ligand
  -I-interpret- 

 24 24  0  0  0  0  0  0  0  0999 V2000
   27.6770  -13.6400   11.2180 C   0  0  0  0  0
   27.6530  -14.7060   10.0560 C   0  0  0  0  0
   28.6950  -14.3490    8.9630 C   0  0  0  0  0
   30.0880  -14.0470    9.5230 C   0  0  0  0  0
   30.0520  -12.9170   10.6150 C   0  0  0  0  0
   29.1190  -13.3710   11.7880 C   0  0  0  0  0
   26.8030  -14.0810   12.3460 O   0  0  0  0  0
   27.8970  -16.0700   10.4990 O   0  0  0  0  0
   28.8190  -15.4510    8.0370 O   0  0  0  0  0
   30.9250  -13.7080    8.4080 O   0  0  0  0  0
   31.3680  -12.6770   11.1430 O   0  0  0  0  0
   29.0640  -12.3490   12.8320 O   0  0  0  0  0
   27.3110  -12.7128   10.7770 H   0  0  0  0  0
   26.6396  -14.6685    9.6564 H   0  0  0  0  0
   28.3273  -13.4459    8.4759 H   0  0  0  0  0
   30.4898  -14.9192   10.0386 H   0  0  0  0  0
   29.6796  -12.0009   10.1565 H   0  0  0  0  0
   29.5185  -14.2833   12.2309 H   0  0  0  0  0
   25.9175  -14.2500   12.0160 H   0  0  0  0  0
   27.2584  -16.3043   11.1764 H   0  0  0  0  0
   27.9560  -15.6593    7.6718 H   0  0  0  0  0
   30.9142  -14.4263    7.7712 H   0  0  0  0  0
   31.9504  -12.3976   10.4328 H   0  0  0  0  0
   28.4880  -12.6469   13.5398 H   0  0  0  0  0
  1  2  1  0  0  0
  1  6  1  0  0  0
  1  7  1  0  0  0
  2  3  1  0  0  0
  2  8  1  0  0  0
  3  4  1  0  0  0
  3  9  1  0  0  0
  4  5  1  0  0  0
  4 10  1  0  0  0
  5  6  1  0  0  0
  5 11  1  0  0  0
  6 12  1  0  0  0
  1 13  1  0  0  0
  2 14  1  0  0  0
  3 15  1  0  0  0
  4 16  1  0  0  0
  5 17  1  0  0  0
  6 18  1  0  0  0
  7 19  1  0  0  0
  8 20  1  0  0  0
  9 21  1  0  0  0
 10 22  1  0  0  0
 11 23  1  0  0  0
 12 24  1  0  0  0
M  END
$$$$
