1yys_ligand
  -I-interpret- 

 41 41  0  0  0  0  0  0  0  0999 V2000
   51.8580   13.2410   63.5180 C   0  0  0  0  0
   52.3200   11.7900   63.1370 C   0  0  0  0  0
   53.1240   14.0850   63.9750 C   0  0  0  0  0
   53.5110   11.7130   62.1440 C   0  0  0  0  0
   54.4710   13.7030   63.3540 C   0  0  0  0  0
   52.7490   15.4700   60.5080 C   0  0  0  0  0
   51.4550   15.9920   61.0730 C   0  0  0  0  0
   50.9810   15.2650   62.3420 C   0  0  0  0  0
   52.9920   14.9620   59.2880 C   0  0  0  0  0
   51.9800   14.7950   58.1710 C   0  0  0  0  0
   54.3790   14.5010   58.9300 C   0  0  0  0  0
   54.6580   12.6380   62.5290 C   0  0  0  0  0
   56.0030   12.2960   61.9430 C   0  0  0  0  0
   51.1250   13.8130   62.4020 N   0  3  0  0  0
   49.7750   13.2690   62.1450 C   0  0  0  0  0
   51.1715   13.2402   64.3646 H   0  0  0  0  0
   51.4727   11.3112   62.6462 H   0  0  0  0  0
   52.6520   11.3153   64.0604 H   0  0  0  0  0
   53.2285   13.9108   65.0459 H   0  0  0  0  0
   52.9295   15.1101   63.6596 H   0  0  0  0  0
   53.1489   12.0195   61.1627 H   0  0  0  0  0
   53.8884   10.6904   62.1527 H   0  0  0  0  0
   55.3352   14.3246   63.5883 H   0  0  0  0  0
   53.6059   15.5095   61.1805 H   0  0  0  0  0
   50.6889   15.8424   60.3122 H   0  0  0  0  0
   51.6202   17.0350   61.3432 H   0  0  0  0  0
   49.9080   15.4492   62.3942 H   0  0  0  0  0
   51.6105   15.6491   63.1447 H   0  0  0  0  0
   51.1760   14.1396   58.5059 H   0  0  0  0  0
   51.5696   15.7693   57.9057 H   0  0  0  0  0
   52.4696   14.3565   57.3014 H   0  0  0  0  0
   55.0712   15.3391   59.0109 H   0  0  0  0  0
   54.6846   13.7084   59.6129 H   0  0  0  0  0
   54.3823   14.1228   57.9077 H   0  0  0  0  0
   56.3582   13.1316   61.3399 H   0  0  0  0  0
   56.7103   12.1016   62.7492 H   0  0  0  0  0
   55.9102   11.4082   61.3174 H   0  0  0  0  0
   51.7835   13.5113   61.6838 H   0  0  0  0  0
   49.0869   13.6324   62.9082 H   0  0  0  0  0
   49.4345   13.5947   61.1621 H   0  0  0  0  0
   49.8116   12.1800   62.1758 H   0  0  0  0  0
  1  2  1  0  0  0
  1  3  1  0  0  0
 14  1  1  0  0  0
  2  4  1  0  0  0
  3  5  1  0  0  0
  4 12  1  0  0  0
  5 12  2  0  0  0
  7  6  1  0  0  0
  6  9  2  0  0  0
  8  7  1  0  0  0
  8 14  1  0  0  0
  9 10  1  0  0  0
  9 11  1  0  0  0
 12 13  1  0  0  0
 14 15  1  0  0  0
  1 16  1  0  0  0
  2 17  1  0  0  0
  2 18  1  0  0  0
  3 19  1  0  0  0
  3 20  1  0  0  0
  4 21  1  0  0  0
  4 22  1  0  0  0
  5 23  1  0  0  0
  6 24  1  0  0  0
  7 25  1  0  0  0
  7 26  1  0  0  0
  8 27  1  0  0  0
  8 28  1  0  0  0
 10 29  1  0  0  0
 10 30  1  0  0  0
 10 31  1  0  0  0
 11 32  1  0  0  0
 11 33  1  0  0  0
 11 34  1  0  0  0
 13 35  1  0  0  0
 13 36  1  0  0  0
 13 37  1  0  0  0
 14 38  1  0  0  0
 15 39  1  0  0  0
 15 40  1  0  0  0
 15 41  1  0  0  0
M  END
$$$$
