### 
### Created by X-TOOL on Mon Sep 10 21:13:24 2018
### 

@<TRIPOS>MOLECULE
5cs2_ligand
  156   161     1     0     0
SMALL
GAST_HUCK


@<TRIPOS>ATOM
      1 CA         31.6960  -33.7090   -2.5490 C.3       1 54C         0.3177
      2 CB         32.4850  -33.3850   -3.8410 C.3       1 54C         0.1359
      3 CG         32.5780  -34.5100   -4.8430 C.2       1 54C        -0.0139
      4 N          31.8070  -32.5340   -1.6840 N.am      1 54C        -0.0991
      5 C          32.1230  -35.0100   -1.9000 C.2       1 54C         0.2656
      6 O          33.2090  -34.9460   -1.3670 O.2       1 54C        -0.3385
      7 CD1        31.8530  -34.6580   -5.9530 C.2       1 54C         0.0223
      8 NE2        32.2780  -35.6820   -6.6600 N.pl3     1 54C        -0.2673
      9 C1         31.6240  -36.1160   -7.9130 C.3       1 54C         0.0932
     10 C2         30.5450  -35.0980   -8.3930 C.3       1 54C        -0.0309
     11 C3         31.0680  -37.5550   -7.7290 C.3       1 54C        -0.0309
     12 CE2        33.3830  -36.2240   -6.0880 C.ar      1 54C         0.0633
     13 CD2        33.6660  -35.5490   -4.9080 C.ar      1 54C        -0.0190
     14 CE3        34.7680  -35.8300   -4.1030 C.ar      1 54C        -0.0746
     15 CZ3        35.5700  -36.9130   -4.4900 C.ar      1 54C        -0.0792
     16 C70        35.2810  -37.6390   -5.6520 C.ar      1 54C        -0.0768
     17 CH2        34.1860  -37.3100   -6.4620 C.ar      1 54C        -0.0441
     18 OB         31.9750  -32.1740   -4.4230 O.3       1 54C        -0.3816
     19 C4         32.6980  -36.0660   -9.0400 C.3       1 54C         0.1129
     20 C5         33.1610  -34.6080   -9.4510 C.3       1 54C         0.0775
     21 O6         32.3990  -35.4620  -10.2680 O.3       1 54C        -0.3684
     22 N          31.3770  -36.1550   -1.8720 N.am      1 WLU        -0.2496
     23 CN         31.9330  -37.3450   -1.2170 C.3       1 WLU         0.0256
     24 CA         30.0660  -36.2560   -2.5460 C.3       1 WLU         0.1340
     25 CB         29.9640  -37.2420   -3.7570 C.3       1 WLU        -0.0074
     26 CG         28.5330  -37.5610   -4.3040 C.3       1 WLU        -0.0164
     27 CG1        28.5570  -38.8560   -5.1750 C.3       1 WLU         0.0470
     28 O4         27.3000  -38.9980   -5.8660 O.3       1 WLU        -0.3947
     29 CG2        27.9480  -36.3990   -5.1600 C.3       1 WLU        -0.0601
     30 C          29.0530  -36.6340   -1.4870 C.2       1 WLU         0.2042
     31 O          28.6070  -37.7680   -1.5020 O.2       1 WLU        -0.3944
     32 N          28.6490  -35.7390   -0.5570 N.am      1 ALA        -0.2640
     33 CA         27.6760  -36.1930    0.4400 C.3       1 ALA         0.1282
     34 C          26.6910  -35.1110    0.8310 C.2       1 ALA         0.2038
     35 O          25.6750  -35.4800    1.3980 O.2       1 ALA        -0.3944
     36 CB         28.4060  -36.6950    1.7140 C.3       1 ALA        -0.0244
     37 N          27.0030  -33.8130    0.5520 N.am      1 WPA        -0.2597
     38 CA         26.1380  -32.6720    0.8950 C.3       1 WPA         0.1669
     39 C          26.4350  -31.5170   -0.0420 C.2       1 WPA         0.2086
     40 CB         26.3030  -32.1630    2.3590 C.3       1 WPA         0.1321
     41 OB         27.6320  -31.6210    2.5060 O.3       1 WPA        -0.3626
     42 CB1        27.6950  -30.5280    3.4410 C.3       1 WPA         0.0397
     43 CG         26.0360  -33.2380    3.4170 C.ar      1 WPA        -0.0100
     44 CD1        27.0860  -34.0410    3.8830 C.ar      1 WPA        -0.0576
     45 CE1        26.8570  -35.0120    4.8620 C.ar      1 WPA        -0.0685
     46 CZ         25.5700  -35.1800    5.3760 C.ar      1 WPA        -0.0687
     47 CE2        24.5210  -34.3730    4.9200 C.ar      1 WPA        -0.0685
     48 CD2        24.7520  -33.4000    3.9450 C.ar      1 WPA        -0.0576
     49 O          27.3400  -31.6270   -0.8560 O.2       1 WPA        -0.3941
     50 N          25.6970  -30.3880    0.0890 N.am      1 VAL        -0.2632
     51 CA         25.9350  -29.1990   -0.7400 C.3       1 VAL         0.1334
     52 C          26.7480  -28.2450    0.1240 C.2       1 VAL         0.2064
     53 O          26.1680  -27.8820    1.1300 O.2       1 VAL        -0.3942
     54 CB         24.6310  -28.5460   -1.3080 C.3       1 VAL        -0.0062
     55 CG1        24.9380  -27.2330   -2.0860 C.3       1 VAL        -0.0584
     56 CG2        23.8330  -29.5210   -2.2240 C.3       1 VAL        -0.0584
     57 N          28.0390  -27.8960   -0.1550 N.am      1 MLE        -0.2529
     58 CN         28.7700  -27.0080    0.7530 C.3       1 MLE         0.0254
     59 CA         28.7220  -28.3790   -1.3700 C.3       1 MLE         0.1336
     60 CB         28.9260  -27.5350   -2.6740 C.3       1 MLE        -0.0099
     61 CG         29.3980  -28.3300   -3.9300 C.3       1 MLE        -0.0425
     62 CD1        28.3090  -29.3490   -4.3640 C.3       1 MLE        -0.0625
     63 CD2        29.7650  -27.4140   -5.1210 C.3       1 MLE        -0.0625
     64 C          30.0440  -29.0260   -0.9770 C.2       1 MLE         0.2042
     65 O          31.1020  -28.4610   -1.2170 O.2       1 MLE        -0.3944
     66 C          30.9960  -32.2850   -0.6340 C.2       1 WVL         0.2307
     67 CA         31.1660  -30.9660    0.0870 C.3       1 WVL         0.1382
     68 O          30.0790  -33.0210   -0.2910 O.2       1 WVL        -0.3941
     69 CB         31.2440  -31.1600    1.6290 C.3       1 WVL         0.0025
     70 CG2        31.3760  -29.7890    2.3510 C.3       1 WVL        -0.0549
     71 CG1        32.4340  -32.0000    2.0550 C.2       1 WVL        -0.1020
     72 CD         32.3500  -33.2630    2.5000 C.2       1 WVL        -0.0866
     73 CE1        31.0260  -33.9930    2.5810 C.3       1 WVL        -0.0406
     74 CE2        33.5750  -34.0410    2.9330 C.3       1 WVL        -0.0406
     75 N          29.9810  -30.2130   -0.3330 N.am      1 WVL        -0.2624
     76 OXT        31.7820  -32.5630   -1.5310 O.3       1 WVL        -0.2078
     77 H1         33.5190  -33.1784   -3.5276 H         1 54C         0.0718
     78 H2         31.0200  -34.0161   -6.2360 H         1 54C         0.0798
     79 H3         30.0870  -35.4613   -9.3248 H         1 54C         0.0262
     80 H4         31.0171  -34.1209   -8.5732 H         1 54C         0.0262
     81 H5         29.7696  -34.9936   -7.6198 H         1 54C         0.0262
     82 H6         30.5805  -37.8815   -8.6595 H         1 54C         0.0262
     83 H7         30.3350  -37.5628   -6.9088 H         1 54C         0.0262
     84 H8         31.8947  -38.2396   -7.4885 H         1 54C         0.0262
     85 H9         34.9940  -35.2408   -3.2216 H         1 54C         0.0540
     86 H10        36.4236  -37.1915   -3.8827 H         1 54C         0.0510
     87 H11        35.9168  -38.4717   -5.9303 H         1 54C         0.0530
     88 H12        33.9653  -37.8816   -7.3562 H         1 54C         0.0541
     89 H13        31.9344  -31.4970   -3.7578 H         1 54C         0.2118
     90 H14        33.3876  -36.9205   -8.9752 H         1 54C         0.0651
     91 H15        34.2150  -34.3982   -9.6859 H         1 54C         0.0587
     92 H16        32.7056  -33.7215   -8.9855 H         1 54C         0.0587
     93 H17        32.9062  -37.0958   -0.7688 H         1 WLU         0.0490
     94 H18        32.0658  -38.1446   -1.9607 H         1 WLU         0.0490
     95 H19        31.2438  -37.6864   -0.4306 H         1 WLU         0.0490
     96 H20        29.8182  -35.2556   -2.9305 H         1 WLU         0.0804
     97 H21        30.4191  -38.1943   -3.4471 H         1 WLU         0.0316
     98 H22        30.5454  -36.8100   -4.5848 H         1 WLU         0.0316
     99 H23        27.8688  -37.7255   -3.4427 H         1 WLU         0.0322
    100 H24        28.7191  -39.7300   -4.5270 H         1 WLU         0.0560
    101 H25        29.3728  -38.7879   -5.9097 H         1 WLU         0.0560
    102 H26        27.3181  -39.7869   -6.3950 H         1 WLU         0.2094
    103 H27        27.9242  -35.4775   -4.5598 H         1 WLU         0.0233
    104 H28        26.9268  -36.6559   -5.4780 H         1 WLU         0.0233
    105 H29        28.5798  -36.2427   -6.0468 H         1 WLU         0.0233
    106 H30        29.0010  -34.8030   -0.5501 H         1 ALA         0.1883
    107 H31        27.1110  -37.0305    0.0049 H         1 ALA         0.0797
    108 H32        27.6641  -37.0323    2.4528 H         1 ALA         0.0277
    109 H33        29.0028  -35.8758    2.1414 H         1 ALA         0.0277
    110 H34        29.0685  -37.5328    1.4509 H         1 ALA         0.0277
    111 H35        27.8687  -33.6255    0.0879 H         1 WPA         0.1886
    112 H36        25.0930  -32.9871    0.7581 H         1 WPA         0.0851
    113 H37        25.5759  -31.3534    2.5199 H         1 WPA         0.0810
    114 H38        28.7300  -30.1614    3.5072 H         1 WPA         0.0526
    115 H39        27.3643  -30.8733    4.4316 H         1 WPA         0.0526
    116 H40        27.0390  -29.7142    3.0985 H         1 WPA         0.0526
    117 H41        28.0838  -33.9079    3.4809 H         1 WPA         0.0557
    118 H42        27.6727  -35.6300    5.2195 H         1 WPA         0.0599
    119 H43        25.3827  -35.9365    6.1294 H         1 WPA         0.0559
    120 H44        23.5243  -34.5039    5.3257 H         1 WPA         0.0599
    121 H45        23.9384  -32.7727    3.5990 H         1 WPA         0.0557
    122 H46        24.9670  -30.3636    0.7720 H         1 VAL         0.1883
    123 H47        26.5472  -29.4968   -1.6040 H         1 VAL         0.0803
    124 H48        23.9909  -28.2900   -0.4508 H         1 VAL         0.0343
    125 H49        23.9994  -26.8055   -2.4684 H         1 VAL         0.0234
    126 H50        25.6100  -27.4544   -2.9282 H         1 VAL         0.0234
    127 H51        25.4214  -26.5113   -1.4111 H         1 VAL         0.0234
    128 H52        23.6170  -30.4480   -1.6726 H         1 VAL         0.0234
    129 H53        24.4302  -29.7564   -3.1173 H         1 VAL         0.0234
    130 H54        22.8883  -29.0472   -2.5289 H         1 VAL         0.0234
    131 H55        28.1249  -26.7411    1.6030 H         1 MLE         0.0488
    132 H56        29.0640  -26.0947    0.2150 H         1 MLE         0.0488
    133 H57        29.6698  -27.5216    1.1227 H         1 MLE         0.0488
    134 H58        28.0718  -29.1994   -1.7079 H         1 MLE         0.0802
    135 H59        29.6790  -26.7619   -2.4613 H         1 MLE         0.0315
    136 H60        27.9670  -27.0552   -2.9190 H         1 MLE         0.0315
    137 H61        30.3015  -28.8909   -3.6487 H         1 MLE         0.0298
    138 H62        28.6559  -29.9013   -5.2498 H         1 MLE         0.0232
    139 H63        27.3804  -28.8119   -4.6073 H         1 MLE         0.0232
    140 H64        28.1196  -30.0554   -3.5424 H         1 MLE         0.0232
    141 H65        30.5362  -26.6953   -4.8068 H         1 MLE         0.0232
    142 H66        28.8695  -26.8687   -5.4538 H         1 MLE         0.0232
    143 H67        30.1504  -28.0264   -5.9495 H         1 MLE         0.0232
    144 H68        32.0812  -30.4567   -0.2491 H         1 WVL         0.0817
    145 H69        30.3202  -31.6575    1.9591 H         1 WVL         0.0419
    146 H70        31.4293  -29.9506    3.4378 H         1 WVL         0.0249
    147 H71        30.5013  -29.1649    2.1156 H         1 WVL         0.0249
    148 H72        32.2907  -29.2818    2.0104 H         1 WVL         0.0249
    149 H73        33.4226  -31.5472    1.9955 H         1 WVL         0.0247
    150 H74        31.1904  -35.0084    2.9708 H         1 WVL         0.0375
    151 H75        30.5786  -34.0534    1.5779 H         1 WVL         0.0375
    152 H76        30.3471  -33.4477    3.2532 H         1 WVL         0.0375
    153 H77        34.4678  -33.4069    2.8288 H         1 WVL         0.0375
    154 H78        33.6842  -34.9346    2.3009 H         1 WVL         0.0375
    155 H79        33.4629  -34.3465    3.9837 H         1 WVL         0.0375
    156 H80        29.0795  -30.5969   -0.1330 H         1 WVL         0.1884
@<TRIPOS>BOND
     1    1    2 1  
     2    1    4 1  
     3    1    5 1  
     4    1   76 1  
     5    2    3 1  
     6    2   18 1  
     7    3    7 2  
     8    3   13 1  
     9    4   66 am 
    10    4   76 1  
    11    5    6 2  
    12    5   22 am 
    13    7    8 1  
    14    8    9 1  
    15    8   12 1  
    16    9   10 1  
    17    9   11 1  
    18    9   19 1  
    19   12   13 ar 
    20   12   17 ar 
    21   13   14 ar 
    22   14   15 ar 
    23   15   16 ar 
    24   16   17 ar 
    25   19   20 1  
    26   19   21 1  
    27   20   21 1  
    28   22   23 1  
    29   22   24 1  
    30   24   25 1  
    31   24   30 1  
    32   25   26 1  
    33   26   27 1  
    34   26   29 1  
    35   27   28 1  
    36   30   31 2  
    37   30   32 am 
    38   32   33 1  
    39   33   34 1  
    40   33   36 1  
    41   34   35 2  
    42   34   37 am 
    43   37   38 1  
    44   38   39 1  
    45   38   40 1  
    46   39   49 2  
    47   39   50 am 
    48   40   41 1  
    49   40   43 1  
    50   41   42 1  
    51   43   44 ar 
    52   43   48 ar 
    53   44   45 ar 
    54   45   46 ar 
    55   46   47 ar 
    56   47   48 ar 
    57   50   51 1  
    58   51   52 1  
    59   51   54 1  
    60   52   53 2  
    61   52   57 am 
    62   54   55 1  
    63   54   56 1  
    64   57   58 1  
    65   57   59 1  
    66   59   60 1  
    67   59   64 1  
    68   60   61 1  
    69   61   62 1  
    70   61   63 1  
    71   64   65 2  
    72   64   75 am 
    73   66   67 1  
    74   66   68 2  
    75   67   69 1  
    76   67   75 1  
    77   69   70 1  
    78   69   71 1  
    79   71   72 2  
    80   72   73 1  
    81   72   74 1  
    82    2   77 1  
    83    7   78 1  
    84   10   79 1  
    85   10   80 1  
    86   10   81 1  
    87   11   82 1  
    88   11   83 1  
    89   11   84 1  
    90   14   85 1  
    91   15   86 1  
    92   16   87 1  
    93   17   88 1  
    94   18   89 1  
    95   19   90 1  
    96   20   91 1  
    97   20   92 1  
    98   23   93 1  
    99   23   94 1  
   100   23   95 1  
   101   24   96 1  
   102   25   97 1  
   103   25   98 1  
   104   26   99 1  
   105   27  100 1  
   106   27  101 1  
   107   28  102 1  
   108   29  103 1  
   109   29  104 1  
   110   29  105 1  
   111   32  106 1  
   112   33  107 1  
   113   36  108 1  
   114   36  109 1  
   115   36  110 1  
   116   37  111 1  
   117   38  112 1  
   118   40  113 1  
   119   42  114 1  
   120   42  115 1  
   121   42  116 1  
   122   44  117 1  
   123   45  118 1  
   124   46  119 1  
   125   47  120 1  
   126   48  121 1  
   127   50  122 1  
   128   51  123 1  
   129   54  124 1  
   130   55  125 1  
   131   55  126 1  
   132   55  127 1  
   133   56  128 1  
   134   56  129 1  
   135   56  130 1  
   136   58  131 1  
   137   58  132 1  
   138   58  133 1  
   139   59  134 1  
   140   60  135 1  
   141   60  136 1  
   142   61  137 1  
   143   62  138 1  
   144   62  139 1  
   145   62  140 1  
   146   63  141 1  
   147   63  142 1  
   148   63  143 1  
   149   67  144 1  
   150   69  145 1  
   151   70  146 1  
   152   70  147 1  
   153   70  148 1  
   154   71  149 1  
   155   73  150 1  
   156   73  151 1  
   157   73  152 1  
   158   74  153 1  
   159   74  154 1  
   160   74  155 1  
   161   75  156 1  
@<TRIPOS>SUBSTRUCTURE
     1 54C         1

