5cs2_ligand
  -I-interpret- 

156161  0  0  0  0  0  0  0  0999 V2000
   31.6960  -33.7090   -2.5490 C   0  0  0  0  0
   32.4850  -33.3850   -3.8410 C   0  0  0  0  0
   32.5780  -34.5100   -4.8430 C   0  0  0  0  0
   31.8070  -32.5340   -1.6840 N   0  0  0  0  0
   32.1230  -35.0100   -1.9000 C   0  0  0  0  0
   33.2090  -34.9460   -1.3670 O   0  0  0  0  0
   31.8530  -34.6580   -5.9530 C   0  0  0  0  0
   32.2780  -35.6820   -6.6600 N   0  0  0  0  0
   31.6240  -36.1160   -7.9130 C   0  0  0  0  0
   30.5450  -35.0980   -8.3930 C   0  0  0  0  0
   31.0680  -37.5550   -7.7290 C   0  0  0  0  0
   33.3830  -36.2240   -6.0880 C   0  0  0  0  0
   33.6660  -35.5490   -4.9080 C   0  0  0  0  0
   34.7680  -35.8300   -4.1030 C   0  0  0  0  0
   35.5700  -36.9130   -4.4900 C   0  0  0  0  0
   35.2810  -37.6390   -5.6520 C   0  0  0  0  0
   34.1860  -37.3100   -6.4620 C   0  0  0  0  0
   31.9750  -32.1740   -4.4230 O   0  0  0  0  0
   32.6980  -36.0660   -9.0400 C   0  0  0  0  0
   33.1610  -34.6080   -9.4510 C   0  0  0  0  0
   32.3990  -35.4620  -10.2680 O   0  0  0  0  0
   31.3770  -36.1550   -1.8720 N   0  0  0  0  0
   31.9330  -37.3450   -1.2170 C   0  0  0  0  0
   30.0660  -36.2560   -2.5460 C   0  0  0  0  0
   29.9640  -37.2420   -3.7570 C   0  0  0  0  0
   28.5330  -37.5610   -4.3040 C   0  0  0  0  0
   28.5570  -38.8560   -5.1750 C   0  0  0  0  0
   27.3000  -38.9980   -5.8660 O   0  0  0  0  0
   27.9480  -36.3990   -5.1600 C   0  0  0  0  0
   29.0530  -36.6340   -1.4870 C   0  0  0  0  0
   28.6070  -37.7680   -1.5020 O   0  0  0  0  0
   28.6490  -35.7390   -0.5570 N   0  0  0  0  0
   27.6760  -36.1930    0.4400 C   0  0  0  0  0
   26.6910  -35.1110    0.8310 C   0  0  0  0  0
   25.6750  -35.4800    1.3980 O   0  0  0  0  0
   28.4060  -36.6950    1.7140 C   0  0  0  0  0
   27.0030  -33.8130    0.5520 N   0  0  0  0  0
   26.1380  -32.6720    0.8950 C   0  0  0  0  0
   26.4350  -31.5170   -0.0420 C   0  0  0  0  0
   26.3030  -32.1630    2.3590 C   0  0  0  0  0
   27.6320  -31.6210    2.5060 O   0  0  0  0  0
   27.6950  -30.5280    3.4410 C   0  0  0  0  0
   26.0360  -33.2380    3.4170 C   0  0  0  0  0
   27.0860  -34.0410    3.8830 C   0  0  0  0  0
   26.8570  -35.0120    4.8620 C   0  0  0  0  0
   25.5700  -35.1800    5.3760 C   0  0  0  0  0
   24.5210  -34.3730    4.9200 C   0  0  0  0  0
   24.7520  -33.4000    3.9450 C   0  0  0  0  0
   27.3400  -31.6270   -0.8560 O   0  0  0  0  0
   25.6970  -30.3880    0.0890 N   0  0  0  0  0
   25.9350  -29.1990   -0.7400 C   0  0  0  0  0
   26.7480  -28.2450    0.1240 C   0  0  0  0  0
   26.1680  -27.8820    1.1300 O   0  0  0  0  0
   24.6310  -28.5460   -1.3080 C   0  0  0  0  0
   24.9380  -27.2330   -2.0860 C   0  0  0  0  0
   23.8330  -29.5210   -2.2240 C   0  0  0  0  0
   28.0390  -27.8960   -0.1550 N   0  0  0  0  0
   28.7700  -27.0080    0.7530 C   0  0  0  0  0
   28.7220  -28.3790   -1.3700 C   0  0  0  0  0
   28.9260  -27.5350   -2.6740 C   0  0  0  0  0
   29.3980  -28.3300   -3.9300 C   0  0  0  0  0
   28.3090  -29.3490   -4.3640 C   0  0  0  0  0
   29.7650  -27.4140   -5.1210 C   0  0  0  0  0
   30.0440  -29.0260   -0.9770 C   0  0  0  0  0
   31.1020  -28.4610   -1.2170 O   0  0  0  0  0
   30.9960  -32.2850   -0.6340 C   0  0  0  0  0
   31.1660  -30.9660    0.0870 C   0  0  0  0  0
   30.0790  -33.0210   -0.2910 O   0  0  0  0  0
   31.2440  -31.1600    1.6290 C   0  0  0  0  0
   31.3760  -29.7890    2.3510 C   0  0  0  0  0
   32.4340  -32.0000    2.0550 C   0  0  0  0  0
   32.3500  -33.2630    2.5000 C   0  0  0  0  0
   31.0260  -33.9930    2.5810 C   0  0  0  0  0
   33.5750  -34.0410    2.9330 C   0  0  0  0  0
   29.9810  -30.2130   -0.3330 N   0  0  0  0  0
   31.7820  -32.5630   -1.5310 O   0  0  0  0  0
   33.5221  -33.2404   -3.5384 H   0  0  0  0  0
   31.0192  -34.0156   -6.2362 H   0  0  0  0  0
   29.7774  -34.9955   -7.6260 H   0  0  0  0  0
   31.0140  -34.1303   -8.5711 H   0  0  0  0  0
   30.0919  -35.4590   -9.3163 H   0  0  0  0  0
   31.8881  -38.2323   -7.4907 H   0  0  0  0  0
   30.3419  -37.5614   -6.9161 H   0  0  0  0  0
   30.5853  -37.8773   -8.6516 H   0  0  0  0  0
   34.9952  -35.2375   -3.2167 H   0  0  0  0  0
   36.4283  -37.1930   -3.8793 H   0  0  0  0  0
   35.9203  -38.4763   -5.9318 H   0  0  0  0  0
   33.9641  -37.8848   -7.3612 H   0  0  0  0  0
   31.9339  -31.4898   -3.7508 H   0  0  0  0  0
   33.1384  -37.0176   -8.7425 H   0  0  0  0  0
   34.0420  -33.9665   -9.4736 H   0  0  0  0  0
   33.1893  -33.5842   -9.0779 H   0  0  0  0  0
   31.2492  -37.6823   -0.4380 H   0  0  0  0  0
   32.0640  -38.1365   -1.9549 H   0  0  0  0  0
   32.8972  -37.0969   -0.7733 H   0  0  0  0  0
   29.8830  -35.2838   -3.0037 H   0  0  0  0  0
   30.3614  -38.1916   -3.3987 H   0  0  0  0  0
   30.4923  -36.7569   -4.5778 H   0  0  0  0  0
   27.8950  -37.6995   -3.4312 H   0  0  0  0  0
   28.7165  -39.7217   -4.5322 H   0  0  0  0  0
   29.3648  -38.7873   -5.9036 H   0  0  0  0  0
   27.3182  -39.7952   -6.4005 H   0  0  0  0  0
   27.8813  -35.4981   -4.5501 H   0  0  0  0  0
   28.6003  -36.2141   -6.0135 H   0  0  0  0  0
   26.9544  -36.6744   -5.5135 H   0  0  0  0  0
   29.0080  -34.7843   -0.5499 H   0  0  0  0  0
   27.1149  -37.0052   -0.0221 H   0  0  0  0  0
   29.0621  -37.5251    1.4520 H   0  0  0  0  0
   28.9970  -35.8824    2.1365 H   0  0  0  0  0
   27.6699  -37.0289    2.4452 H   0  0  0  0  0
   27.8861  -33.6218    0.0787 H   0  0  0  0  0
   25.1144  -33.0325    0.7932 H   0  0  0  0  0
   25.5489  -31.3951    2.5315 H   0  0  0  0  0
   27.0446  -29.7223    3.1005 H   0  0  0  0  0
   27.3670  -30.8715    4.4221 H   0  0  0  0  0
   28.7210  -30.1656    3.5058 H   0  0  0  0  0
   28.0893  -33.9072    3.4787 H   0  0  0  0  0
   27.6772  -35.6334    5.2214 H   0  0  0  0  0
   25.3816  -35.9407    6.1336 H   0  0  0  0  0
   23.5188  -34.5046    5.3279 H   0  0  0  0  0
   23.9339  -32.7693    3.5971 H   0  0  0  0  0
   24.9524  -30.3631    0.7856 H   0  0  0  0  0
   26.4774  -29.4747   -1.6444 H   0  0  0  0  0
   24.0125  -28.3076   -0.4427 H   0  0  0  0  0
   25.4170  -26.5188   -1.4162 H   0  0  0  0  0
   25.6039  -27.4537   -2.9202 H   0  0  0  0  0
   24.0073  -26.8103   -2.4644 H   0  0  0  0  0
   24.4571  -29.8187   -3.0666 H   0  0  0  0  0
   23.5478  -30.4037   -1.6517 H   0  0  0  0  0
   22.9376  -29.0204   -2.5925 H   0  0  0  0  0
   28.2478  -26.0539    0.8246 H   0  0  0  0  0
   28.8276  -27.4671    1.7399 H   0  0  0  0  0
   29.7764  -26.8448    0.3675 H   0  0  0  0  0
   27.9308  -29.0318   -1.7387 H   0  0  0  0  0
   29.7121  -26.8128   -2.4535 H   0  0  0  0  0
   27.9520  -27.1144   -2.9240 H   0  0  0  0  0
   30.3063  -28.8585   -3.6407 H   0  0  0  0  0
   28.1222  -30.0483   -3.5491 H   0  0  0  0  0
   27.3894  -28.8156   -4.6047 H   0  0  0  0  0
   28.6539  -29.8956   -5.2417 H   0  0  0  0  0
   28.8929  -26.8266   -5.4082 H   0  0  0  0  0
   30.5744  -26.7455   -4.8276 H   0  0  0  0  0
   30.0855  -28.0267   -5.9636 H   0  0  0  0  0
   32.0953  -30.4508   -0.1560 H   0  0  0  0  0
   30.3214  -31.6701    1.9061 H   0  0  0  0  0
   32.2827  -29.2874    2.0126 H   0  0  0  0  0
   30.5088  -29.1716    2.1170 H   0  0  0  0  0
   31.4288  -29.9504    3.4277 H   0  0  0  0  0
   33.4235  -31.5468    1.9954 H   0  0  0  0  0
   30.3543  -33.4517    3.2472 H   0  0  0  0  0
   30.5837  -34.0521    1.5865 H   0  0  0  0  0
   31.1902  -34.9989    2.9673 H   0  0  0  0  0
   34.2677  -34.1214    2.0952 H   0  0  0  0  0
   34.0606  -33.5214    3.7590 H   0  0  0  0  0
   33.2753  -35.0382    3.2553 H   0  0  0  0  0
   29.0615  -30.6046   -0.1290 H   0  0  0  0  0
  1  2  1  0  0  0
  1  4  1  0  0  0
  1  5  1  0  0  0
  1 76  1  0  0  0
  2  3  1  0  0  0
  2 18  1  0  0  0
  3  7  4  0  0  0
  3 13  4  0  0  0
  4 66  1  0  0  0
  4 76  1  0  0  0
  5  6  2  0  0  0
  5 22  1  0  0  0
  7  8  4  0  0  0
  8  9  1  0  0  0
  8 12  4  0  0  0
  9 10  1  0  0  0
  9 11  1  0  0  0
  9 19  1  0  0  0
 12 13  4  0  0  0
 12 17  4  0  0  0
 13 14  4  0  0  0
 14 15  4  0  0  0
 15 16  4  0  0  0
 16 17  4  0  0  0
 19 20  1  0  0  0
 19 21  1  0  0  0
 20 21  1  0  0  0
 22 23  1  0  0  0
 22 24  1  0  0  0
 24 25  1  0  0  0
 24 30  1  0  0  0
 25 26  1  0  0  0
 26 27  1  0  0  0
 26 29  1  0  0  0
 27 28  1  0  0  0
 30 31  2  0  0  0
 30 32  1  0  0  0
 32 33  1  0  0  0
 33 34  1  0  0  0
 33 36  1  0  0  0
 34 35  2  0  0  0
 34 37  1  0  0  0
 37 38  1  0  0  0
 38 39  1  0  0  0
 38 40  1  0  0  0
 39 49  2  0  0  0
 39 50  1  0  0  0
 40 41  1  0  0  0
 40 43  1  0  0  0
 41 42  1  0  0  0
 43 44  4  0  0  0
 43 48  4  0  0  0
 44 45  4  0  0  0
 45 46  4  0  0  0
 46 47  4  0  0  0
 47 48  4  0  0  0
 50 51  1  0  0  0
 51 52  1  0  0  0
 51 54  1  0  0  0
 52 53  2  0  0  0
 52 57  1  0  0  0
 54 55  1  0  0  0
 54 56  1  0  0  0
 57 58  1  0  0  0
 57 59  1  0  0  0
 59 60  1  0  0  0
 59 64  1  0  0  0
 60 61  1  0  0  0
 61 62  1  0  0  0
 61 63  1  0  0  0
 64 65  2  0  0  0
 64 75  1  0  0  0
 66 67  1  0  0  0
 66 68  2  0  0  0
 67 69  1  0  0  0
 67 75  1  0  0  0
 69 70  1  0  0  0
 69 71  1  0  0  0
 71 72  2  0  0  0
 72 73  1  0  0  0
 72 74  1  0  0  0
  2 77  1  0  0  0
  7 78  1  0  0  0
 10 79  1  0  0  0
 10 80  1  0  0  0
 10 81  1  0  0  0
 11 82  1  0  0  0
 11 83  1  0  0  0
 11 84  1  0  0  0
 14 85  1  0  0  0
 15 86  1  0  0  0
 16 87  1  0  0  0
 17 88  1  0  0  0
 18 89  1  0  0  0
 19 90  1  0  0  0
 20 91  1  0  0  0
 20 92  1  0  0  0
 23 93  1  0  0  0
 23 94  1  0  0  0
 23 95  1  0  0  0
 24 96  1  0  0  0
 25 97  1  0  0  0
 25 98  1  0  0  0
 26 99  1  0  0  0
 27100  1  0  0  0
 27101  1  0  0  0
 28102  1  0  0  0
 29103  1  0  0  0
 29104  1  0  0  0
 29105  1  0  0  0
 32106  1  0  0  0
 33107  1  0  0  0
 36108  1  0  0  0
 36109  1  0  0  0
 36110  1  0  0  0
 37111  1  0  0  0
 38112  1  0  0  0
 40113  1  0  0  0
 42114  1  0  0  0
 42115  1  0  0  0
 42116  1  0  0  0
 44117  1  0  0  0
 45118  1  0  0  0
 46119  1  0  0  0
 47120  1  0  0  0
 48121  1  0  0  0
 50122  1  0  0  0
 51123  1  0  0  0
 54124  1  0  0  0
 55125  1  0  0  0
 55126  1  0  0  0
 55127  1  0  0  0
 56128  1  0  0  0
 56129  1  0  0  0
 56130  1  0  0  0
 58131  1  0  0  0
 58132  1  0  0  0
 58133  1  0  0  0
 59134  1  0  0  0
 60135  1  0  0  0
 60136  1  0  0  0
 61137  1  0  0  0
 62138  1  0  0  0
 62139  1  0  0  0
 62140  1  0  0  0
 63141  1  0  0  0
 63142  1  0  0  0
 63143  1  0  0  0
 67144  1  0  0  0
 69145  1  0  0  0
 70146  1  0  0  0
 70147  1  0  0  0
 70148  1  0  0  0
 71149  1  0  0  0
 73150  1  0  0  0
 73151  1  0  0  0
 73152  1  0  0  0
 74153  1  0  0  0
 74154  1  0  0  0
 74155  1  0  0  0
 75156  1  0  0  0
M  END
$$$$
