5vgy_ligand
  -I-interpret- 

 33 34  0  0  0  0  0  0  0  0999 V2000
    1.1890    4.9920   83.5930 C   0  0  0  0  0
    1.4910    6.3520   83.7040 C   0  0  0  0  0
   -0.6570    6.7960   84.6080 C   0  0  0  0  0
   -0.0580    4.5640   83.9860 C   0  0  0  0  0
    0.5810    7.2270   84.2000 C   0  0  0  0  0
   -0.9970    5.4850   84.4650 C   0  0  0  0  0
   -0.8790    0.8990   84.7990 C   0  0  0  0  0
   -2.2970    1.7000   86.2680 C   0  0  0  0  0
   -0.4460    2.2650   85.0710 C   0  0  0  0  0
    2.0890    9.1220   84.2770 C   0  0  0  0  0
   -3.1730    5.8520   85.3040 C   0  0  0  0  0
   -0.4220    3.0900   83.8460 C   0  0  0  0  0
   -2.0030    0.5550   85.5400 N   0  0  0  0  0
   -1.2110    2.5800   86.1550 N   0  0  0  0  0
   -0.4040    0.0910   83.9900 O   0  0  0  0  0
    0.8980    2.2440   85.6590 O   0  0  0  0  0
    0.7590    8.5980   84.4300 O   0  0  0  0  0
   -2.1960    4.9350   84.8250 O   0  0  0  0  0
   -3.7240    2.0140   87.0590 S   0  0  0  0  0
    1.9240    4.2872   83.2043 H   0  0  0  0  0
    2.4695    6.7139   83.3882 H   0  0  0  0  0
   -1.3650    7.5003   85.0447 H   0  0  0  0  0
    2.7587    8.6194   84.9749 H   0  0  0  0  0
    2.4306    8.9504   83.2562 H   0  0  0  0  0
    2.0826   10.1921   84.4843 H   0  0  0  0  0
   -2.7896    6.3600   86.1889 H   0  0  0  0  0
   -3.3918    6.5859   84.5283 H   0  0  0  0  0
   -4.0833    5.3100   85.5604 H   0  0  0  0  0
    0.3579    2.6568   83.2197 H   0  0  0  0  0
   -1.4444    3.0783   83.4682 H   0  0  0  0  0
   -2.4992   -0.3361   85.5474 H   0  0  0  0  0
   -1.0196    3.3501   86.7958 H   0  0  0  0  0
    1.5403    2.0286   84.9788 H   0  0  0  0  0
  1  2  4  0  0  0
  4  1  4  0  0  0
  2  5  4  0  0  0
  3  5  4  0  0  0
  6  3  4  0  0  0
  4  6  4  0  0  0
 12  4  1  0  0  0
  5 17  1  0  0  0
  6 18  1  0  0  0
  9  7  1  0  0  0
  7 13  1  0  0  0
  7 15  2  0  0  0
 13  8  1  0  0  0
  8 14  1  0  0  0
  8 19  2  0  0  0
  9 12  1  0  0  0
  9 14  1  0  0  0
  9 16  1  0  0  0
 17 10  1  0  0  0
 18 11  1  0  0  0
  1 20  1  0  0  0
  2 21  1  0  0  0
  3 22  1  0  0  0
 10 23  1  0  0  0
 10 24  1  0  0  0
 10 25  1  0  0  0
 11 26  1  0  0  0
 11 27  1  0  0  0
 11 28  1  0  0  0
 12 29  1  0  0  0
 12 30  1  0  0  0
 13 31  1  0  0  0
 14 32  1  0  0  0
 16 33  1  0  0  0
M  END
$$$$
