3zj8_ligand
  -I-interpret- 

 38 39  0  0  0  0  0  0  0  0999 V2000
  -36.3000    8.5430   -9.0560 C   0  0  0  0  0
  -34.9900    8.6040   -8.5650 C   0  0  0  0  0
  -34.2420    7.4240   -8.4850 C   0  0  0  0  0
  -32.4430    7.4350   -7.8200 Br  0  0  0  0  0
  -34.7980    6.1970   -8.8790 C   0  0  0  0  0
  -36.0950    6.1310   -9.3570 C   0  0  0  0  0
  -36.8410    7.3110   -9.4450 C   0  0  0  0  0
  -38.1400    7.2360   -9.9200 C   0  0  0  0  0
  -38.8900    6.1680   -9.2230 N   0  3  0  0  0
  -40.3410    6.3200   -9.4140 C   0  0  0  0  0
  -41.1250    5.0500   -8.9970 C   0  0  0  0  0
  -41.6400    4.3720  -10.1560 O   0  0  0  0  0
  -42.2790    5.5470   -8.1610 C   0  0  0  0  0
  -42.5110    4.5410   -7.2020 O   0  0  0  0  0
  -41.6940    6.7800   -7.4540 C   0  0  0  0  0
  -42.6930    7.7100   -6.9550 O   0  0  0  0  0
  -40.8900    7.4630   -8.5450 C   0  0  0  0  0
  -39.7460    8.2340   -7.9050 C   0  0  0  0  0
  -40.2490    9.4990   -7.5830 O   0  0  0  0  0
  -36.8969    9.4516   -9.1352 H   0  0  0  0  0
  -34.5600    9.5549   -8.2503 H   0  0  0  0  0
  -34.2023    5.2870   -8.8078 H   0  0  0  0  0
  -36.5273    5.1772   -9.6593 H   0  0  0  0  0
  -38.1132    7.0100  -10.9860 H   0  0  0  0  0
  -38.6365    8.1898   -9.7413 H   0  0  0  0  0
  -38.6863    6.2269   -8.2253 H   0  0  0  0  0
  -38.6049    5.2674   -9.6078 H   0  0  0  0  0
  -40.4767    6.5177  -10.4773 H   0  0  0  0  0
  -40.4871    4.3494   -8.4581 H   0  0  0  0  0
  -42.1219    3.5891   -9.8795 H   0  0  0  0  0
  -43.1943    5.7720   -8.7085 H   0  0  0  0  0
  -43.2407    4.8025   -6.6357 H   0  0  0  0  0
  -41.1270    6.4768   -6.5738 H   0  0  0  0  0
  -42.2549    8.4501   -6.5285 H   0  0  0  0  0
  -41.4824    8.1648   -9.1321 H   0  0  0  0  0
  -38.8996    8.3132   -8.5872 H   0  0  0  0  0
  -39.3805    7.7217   -7.0150 H   0  0  0  0  0
  -39.5563   10.0229   -7.1740 H   0  0  0  0  0
  1  2  4  0  0  0
  1  7  4  0  0  0
  2  3  4  0  0  0
  3  4  1  0  0  0
  3  5  4  0  0  0
  5  6  4  0  0  0
  6  7  4  0  0  0
  7  8  1  0  0  0
  8  9  1  0  0  0
  9 10  1  0  0  0
 10 11  1  0  0  0
 10 17  1  0  0  0
 11 12  1  0  0  0
 11 13  1  0  0  0
 13 14  1  0  0  0
 13 15  1  0  0  0
 15 16  1  0  0  0
 15 17  1  0  0  0
 17 18  1  0  0  0
 18 19  1  0  0  0
  1 20  1  0  0  0
  2 21  1  0  0  0
  5 22  1  0  0  0
  6 23  1  0  0  0
  8 24  1  0  0  0
  8 25  1  0  0  0
  9 26  1  0  0  0
  9 27  1  0  0  0
 10 28  1  0  0  0
 11 29  1  0  0  0
 12 30  1  0  0  0
 13 31  1  0  0  0
 14 32  1  0  0  0
 15 33  1  0  0  0
 16 34  1  0  0  0
 17 35  1  0  0  0
 18 36  1  0  0  0
 18 37  1  0  0  0
 19 38  1  0  0  0
M  END
$$$$
