5vad_ligand
  -I-interpret- 

 51 54  0  0  0  0  0  0  0  0999 V2000
  -36.3220    8.1100   32.4540 N   0  0  0  0  0
  -34.9270    8.0960   32.6160 C   0  0  0  0  0
  -32.8160    7.2340   32.1490 C   0  0  0  0  0
  -32.2340    8.1490   33.0280 C   0  0  0  0  0
  -35.1310   10.0140   34.2710 C   0  0  0  0  0
  -34.5090   11.0470   34.8850 N   0  0  0  0  0
  -35.2370   12.0550   35.6670 C   0  0  0  0  0
  -33.6560   12.7730   37.3490 C   0  0  0  0  0
  -32.1060   12.6270   39.1640 C   0  0  0  0  0
  -34.4230   11.7500   37.9250 C   0  0  0  0  0
  -35.6230   11.4710   37.0530 C   0  0  0  0  0
  -38.6370    7.4120   31.8580 C   0  0  0  0  0
  -39.1810    6.7780   29.4290 C   0  0  0  0  0
  -38.8470    9.1880   30.0220 C   0  0  0  0  0
  -36.6610    6.1260   31.4260 O   0  0  0  0  0
  -37.1240    7.1640   31.8880 C   0  0  0  0  0
  -34.1320    7.2380   31.9670 N   0  0  0  0  0
  -32.9970    9.0120   33.6860 N   0  0  0  0  0
  -34.3240    9.0260   33.5120 C   0  0  0  0  0
  -36.3470    9.8840   34.3340 O   0  0  0  0  0
  -34.3030   13.2140   36.0580 C   0  0  0  0  0
  -32.4900   13.2180   37.9650 C   0  0  0  0  0
  -32.8650   11.6020   39.7440 C   0  0  0  0  0
  -34.0310   11.1610   39.1260 C   0  0  0  0  0
  -39.3750    6.4300   30.9220 C   0  0  0  0  0
  -39.6320    8.2120   29.1360 C   0  0  0  0  0
  -39.0150    8.8770   31.5210 C   0  0  0  0  0
  -36.7992    8.9394   32.8073 H   0  0  0  0  0
  -32.1924    6.5182   31.6134 H   0  0  0  0  0
  -31.1538    8.1544   33.1736 H   0  0  0  0  0
  -33.4957   11.1289   34.8016 H   0  0  0  0  0
  -36.0859   12.3624   35.0563 H   0  0  0  0  0
  -31.1979   12.9675   39.6616 H   0  0  0  0  0
  -35.8519   10.4066   36.9996 H   0  0  0  0  0
  -36.5317   11.9239   37.4496 H   0  0  0  0  0
  -38.9731    7.2248   32.8779 H   0  0  0  0  0
  -39.7813    6.0935   28.8297 H   0  0  0  0  0
  -38.1228    6.6874   29.1837 H   0  0  0  0  0
  -39.2277   10.1929   29.8394 H   0  0  0  0  0
  -37.7897    9.0966   29.7731 H   0  0  0  0  0
  -34.8480   14.1503   36.1776 H   0  0  0  0  0
  -33.5635   13.4169   35.2833 H   0  0  0  0  0
  -31.8914   14.0116   37.5179 H   0  0  0  0  0
  -32.5414   11.1492   40.6812 H   0  0  0  0  0
  -34.6287   10.3672   39.5741 H   0  0  0  0  0
  -40.4403    6.4882   31.1455 H   0  0  0  0  0
  -38.9675    5.4333   31.0910 H   0  0  0  0  0
  -40.6972    8.3074   29.3466 H   0  0  0  0  0
  -39.4455    8.4438   28.0874 H   0  0  0  0  0
  -38.3527    9.5367   32.0816 H   0  0  0  0  0
  -40.0620    9.0273   31.7843 H   0  0  0  0  0
  2  1  1  0  0  0
  1 16  1  0  0  0
  2 17  4  0  0  0
 19  2  4  0  0  0
  3  4  4  0  0  0
 17  3  4  0  0  0
  4 18  4  0  0  0
  6  5  1  0  0  0
  5 19  1  0  0  0
  5 20  2  0  0  0
  7  6  1  0  0  0
  7 11  1  0  0  0
 21  7  1  0  0  0
  8 10  4  0  0  0
  8 21  1  0  0  0
  8 22  4  0  0  0
 22  9  4  0  0  0
  9 23  4  0  0  0
 10 11  1  0  0  0
 10 24  4  0  0  0
 16 12  1  0  0  0
 12 25  1  0  0  0
 12 27  1  0  0  0
 25 13  1  0  0  0
 13 26  1  0  0  0
 26 14  1  0  0  0
 14 27  1  0  0  0
 16 15  2  0  0  0
 18 19  4  0  0  0
 23 24  4  0  0  0
  1 28  1  0  0  0
  3 29  1  0  0  0
  4 30  1  0  0  0
  6 31  1  0  0  0
  7 32  1  0  0  0
  9 33  1  0  0  0
 11 34  1  0  0  0
 11 35  1  0  0  0
 12 36  1  0  0  0
 13 37  1  0  0  0
 13 38  1  0  0  0
 14 39  1  0  0  0
 14 40  1  0  0  0
 21 41  1  0  0  0
 21 42  1  0  0  0
 22 43  1  0  0  0
 23 44  1  0  0  0
 24 45  1  0  0  0
 25 46  1  0  0  0
 25 47  1  0  0  0
 26 48  1  0  0  0
 26 49  1  0  0  0
 27 50  1  0  0  0
 27 51  1  0  0  0
M  END
$$$$
