2c1q_ligand
  -I-interpret- 

 32 33  0  0  0  0  0  0  0  0999 V2000
   -6.8880   12.4590    8.9790 C   0  0  0  0  0
   -7.9430   11.7630    8.9240 O   0  0  0  0  0
   -6.6640   13.2550    8.0460 O   0  0  0  0  0
   -5.9290   12.3860   10.1680 C   0  0  0  0  0
   -4.6170   13.1360    9.9140 C   0  0  0  0  0
   -3.6740   12.1340    9.2320 C   0  0  0  0  0
   -2.3490   12.7340    8.7960 C   0  0  0  0  0
   -1.5610   11.7360    7.9390 C   0  0  0  0  0
   -1.0550   10.3450    8.7830 S   0  0  0  0  0
    0.1290   10.0140    7.4760 C   0  0  0  0  0
    0.6350   11.3050    6.9030 C   0  0  0  0  0
    1.8540   11.5970    7.6180 N   0  0  0  0  0
    1.6650   12.6270    8.4250 C   0  0  0  0  0
    2.6810   13.1150    9.2310 O   0  0  0  0  0
    0.4150   13.1100    8.3640 N   0  0  0  0  0
   -0.3270   12.4060    7.3470 C   0  0  0  0  0
   -7.9926   11.1974    9.6981 H   0  0  0  0  0
   -5.6877   11.3371   10.3404 H   0  0  0  0  0
   -6.4199   12.8494   11.0238 H   0  0  0  0  0
   -4.1894   13.5054   10.8461 H   0  0  0  0  0
   -4.7807   14.0112    9.2853 H   0  0  0  0  0
   -4.1776   11.7742    8.3348 H   0  0  0  0  0
   -3.4522   11.3519    9.9581 H   0  0  0  0  0
   -1.7632   12.9785    9.6821 H   0  0  0  0  0
   -2.5438   13.6296    8.2061 H   0  0  0  0  0
   -2.2539   11.4156    7.1610 H   0  0  0  0  0
   -0.3576    9.4385    6.6886 H   0  0  0  0  0
    0.9673    9.4505    7.8858 H   0  0  0  0  0
    0.7482   11.2471    5.8204 H   0  0  0  0  0
    2.7304   11.0852    7.5160 H   0  0  0  0  0
    0.0456   13.8605    8.9477 H   0  0  0  0  0
   -0.6584   13.0725    6.5507 H   0  0  0  0  0
  1  2  1  0  0  0
  1  3  2  0  0  0
  1  4  1  0  0  0
  4  5  1  0  0  0
  5  6  1  0  0  0
  6  7  1  0  0  0
  7  8  1  0  0  0
  8  9  1  0  0  0
  8 16  1  0  0  0
  9 10  1  0  0  0
 10 11  1  0  0  0
 11 12  1  0  0  0
 11 16  1  0  0  0
 12 13  1  0  0  0
 13 14  2  0  0  0
 13 15  1  0  0  0
 15 16  1  0  0  0
  2 17  1  0  0  0
  4 18  1  0  0  0
  4 19  1  0  0  0
  5 20  1  0  0  0
  5 21  1  0  0  0
  6 22  1  0  0  0
  6 23  1  0  0  0
  7 24  1  0  0  0
  7 25  1  0  0  0
  8 26  1  0  0  0
 10 27  1  0  0  0
 10 28  1  0  0  0
 11 29  1  0  0  0
 12 30  1  0  0  0
 15 31  1  0  0  0
 16 32  1  0  0  0
M  END
$$$$
