5NE1_LIGAND
  -I-interpret- 

 43 45  0  0  0  0  0  0  0  0999 V2000
  168.2360   84.5600  202.7090 N   0  3  0  0  0
  169.6230   84.6310  202.2820 C   0  0  0  0  0
  170.4590   85.2170  203.4200 C   0  0  0  0  0
  170.5940   84.4500  204.5560 C   0  0  0  0  0
  171.3270   84.9450  205.6180 C   0  0  0  0  0
  171.9520   86.1800  205.5500 C   0  0  0  0  0
  171.7980   86.9740  204.4220 C   0  0  0  0  0
  171.0550   86.4750  203.3480 C   0  0  0  0  0
  172.6770   86.6330  206.8110 C   0  0  0  0  0
  172.7100   87.7990  207.0600 O   0  0  0  0  0
  173.2370   85.6450  207.7340 N   0  0  0  0  0
  173.8240   86.0760  208.9940 C   0  0  0  0  0
  172.5250   86.3680  209.6810 C   0  0  0  0  0
  171.7300   85.0240  209.7100 C   0  0  0  0  0
  172.4300   83.8810  210.1110 C   0  0  0  0  0
  173.8280   84.0290  210.4630 O   0  0  0  0  0
  174.5890   84.9000  209.7130 B   0  0  0  0  0
  175.2870   84.2120  208.7680 O   0  0  0  0  0
  171.7840   82.6290  210.1640 C   0  0  0  0  0
  170.4430   82.5260  209.8180 C   0  0  0  0  0
  169.7420   83.6740  209.4070 C   0  0  0  0  0
  170.3830   84.9190  209.3450 C   0  0  0  0  0
  172.5350   81.3860  210.6480 C   0  0  0  0  0
  172.4700   80.2770  210.0540 O   0  0  0  0  0
  173.2020   81.4820  211.7140 O   0  0  0  0  0
  167.6692   84.1699  201.9560 H   0  0  0  0  0
  168.1654   83.9634  203.5333 H   0  0  0  0  0
  167.9031   85.4970  202.9364 H   0  0  0  0  0
  169.7058   85.2643  201.3987 H   0  0  0  0  0
  169.9847   83.6332  202.0336 H   0  0  0  0  0
  170.1291   83.4660  204.6166 H   0  0  0  0  0
  171.4153   84.3516  206.5281 H   0  0  0  0  0
  172.2471   87.9661  204.3745 H   0  0  0  0  0
  170.9407   87.0755  202.4456 H   0  0  0  0  0
  173.2159   84.6538  207.4941 H   0  0  0  0  0
  174.5642   86.8748  208.9479 H   0  0  0  0  0
  171.9676   87.1409  209.1518 H   0  0  0  0  0
  172.6921   86.7455  210.6898 H   0  0  0  0  0
  175.7616   83.4893  209.1853 H   0  0  0  0  0
  169.9370   81.5617  209.8646 H   0  0  0  0  0
  168.6897   83.5947  209.1340 H   0  0  0  0  0
  169.8350   85.8012  209.0141 H   0  0  0  0  0
  173.1531   82.3834  212.0407 H   0  0  0  0  0
  1  2  1  0  0  0
  2  3  1  0  0  0
  3  4  4  0  0  0
  3  8  4  0  0  0
  4  5  4  0  0  0
  5  6  4  0  0  0
  6  7  4  0  0  0
  6  9  1  0  0  0
  7  8  4  0  0  0
  9 10  2  0  0  0
  9 11  1  0  0  0
 11 12  1  0  0  0
 12 13  1  0  0  0
 12 17  1  0  0  0
 13 14  1  0  0  0
 14 15  4  0  0  0
 14 22  4  0  0  0
 15 16  1  0  0  0
 15 19  4  0  0  0
 16 17  1  0  0  0
 17 18  1  0  0  0
 19 20  4  0  0  0
 19 23  1  0  0  0
 20 21  4  0  0  0
 21 22  4  0  0  0
 23 24  2  0  0  0
 23 25  1  0  0  0
  1 26  1  0  0  0
  1 27  1  0  0  0
  1 28  1  0  0  0
  2 29  1  0  0  0
  2 30  1  0  0  0
  4 31  1  0  0  0
  5 32  1  0  0  0
  7 33  1  0  0  0
  8 34  1  0  0  0
 11 35  1  0  0  0
 12 36  1  0  0  0
 13 37  1  0  0  0
 13 38  1  0  0  0
 18 39  1  0  0  0
 20 40  1  0  0  0
 21 41  1  0  0  0
 22 42  1  0  0  0
 25 43  1  0  0  0
M  END
$$$$
