### 
### Created by X-TOOL on Mon Sep 10 21:13:31 2018
### 

@<TRIPOS>MOLECULE
5NE1_LIGAND
   42    44     1     0     0
SMALL
GAST_HUCK


@<TRIPOS>ATOM
      1 N01       168.2360   84.5600  202.7090 N.4       1 OK3         0.2315
      2 C02       169.6230   84.6310  202.2820 C.3       1 OK3         0.0005
      3 C03       170.4590   85.2170  203.4200 C.ar      1 OK3         0.0060
      4 C04       170.5940   84.4500  204.5560 C.ar      1 OK3        -0.0494
      5 C05       171.3270   84.9450  205.6180 C.ar      1 OK3        -0.0484
      6 C06       171.9520   86.1800  205.5500 C.ar      1 OK3         0.0403
      7 C07       171.7980   86.9740  204.4220 C.ar      1 OK3        -0.0484
      8 C08       171.0550   86.4750  203.3480 C.ar      1 OK3        -0.0494
      9 C09       172.6770   86.6330  206.8110 C.2       1 OK3         0.1717
     10 O10       172.7100   87.7990  207.0600 O.2       1 OK3        -0.3904
     11 N11       173.2370   85.6450  207.7340 N.am      1 OK3        -0.4374
     12 C12       173.8240   86.0760  208.9940 C.3       1 OK3        -0.2231
     13 C13       172.5250   86.3680  209.6810 C.3       1 OK3        -0.1582
     14 C14       171.7300   85.0240  209.7100 C.ar      1 OK3        -0.1337
     15 C15       172.4300   83.8810  210.1110 C.ar      1 OK3         0.0514
     16 O16       173.8280   84.0290  210.4630 O.3       1 OK3        -0.1792
     17 B17       174.5890   84.9000  209.7130 B         1 OK3         3.0000
     18 O18       175.2870   84.2120  208.7680 O.3       1 OK3        -0.8710
     19 C20       171.7840   82.6290  210.1640 C.ar      1 OK3        -0.0834
     20 C21       170.4430   82.5260  209.8180 C.ar      1 OK3        -0.1625
     21 C22       169.7420   83.6740  209.4070 C.ar      1 OK3        -0.1672
     22 C23       170.3830   84.9190  209.3450 C.ar      1 OK3        -0.1745
     23 C24       172.5350   81.3860  210.6480 C.2       1 OK3        -0.0182
     24 O25       172.4700   80.2770  210.0540 O.co2     1 OK3        -0.5976
     25 O26       173.2020   81.4820  211.7140 O.co2     1 OK3        -0.5976
     26 H         167.6692   84.1699  201.9560 H         1 OK3         0.2009
     27 H         168.1654   83.9634  203.5333 H         1 OK3         0.2009
     28 H         167.9031   85.4970  202.9364 H         1 OK3         0.2009
     29 H         169.7058   85.2643  201.3987 H         1 OK3         0.0990
     30 H         169.9847   83.6332  202.0336 H         1 OK3         0.0990
     31 H         170.1291   83.4660  204.6166 H         1 OK3         0.0572
     32 H         171.4153   84.3516  206.5281 H         1 OK3         0.0652
     33 H         172.2471   87.9661  204.3745 H         1 OK3         0.0652
     34 H         170.9407   87.0755  202.4456 H         1 OK3         0.0572
     35 H         173.2159   84.6538  207.4941 H         1 OK3         0.1453
     36 H         174.5642   86.8748  208.9479 H         1 OK3        -0.1809
     37 H         171.9676   87.1409  209.1518 H         1 OK3        -0.0002
     38 H         172.6921   86.7455  210.6898 H         1 OK3        -0.0002
     39 H         174.6736   83.7504  208.1916 H         1 OK3        -0.1290
     40 H         169.9370   81.5617  209.8646 H         1 OK3         0.0065
     41 H         168.6897   83.5947  209.1340 H         1 OK3         0.0254
     42 H         169.8350   85.8012  209.0141 H         1 OK3        -0.0243
@<TRIPOS>BOND
     1    1    2 1  
     2    2    3 1  
     3    3    4 ar 
     4    3    8 ar 
     5    4    5 ar 
     6    5    6 ar 
     7    6    7 ar 
     8    6    9 1  
     9    7    8 ar 
    10    9   10 2  
    11    9   11 am 
    12   11   12 1  
    13   12   13 1  
    14   12   17 1  
    15   13   14 1  
    16   14   15 ar 
    17   14   22 ar 
    18   15   16 1  
    19   15   19 ar 
    20   16   17 1  
    21   17   18 1  
    22   19   20 ar 
    23   19   23 1  
    24   20   21 ar 
    25   21   22 ar 
    26   23   24 ar 
    27   23   25 ar 
    28    1   26 1  
    29    1   27 1  
    30    1   28 1  
    31    2   29 1  
    32    2   30 1  
    33    4   31 1  
    34    5   32 1  
    35    7   33 1  
    36    8   34 1  
    37   11   35 1  
    38   12   36 1  
    39   13   37 1  
    40   13   38 1  
    41   18   39 1  
    42   20   40 1  
    43   21   41 1  
    44   22   42 1  
@<TRIPOS>SUBSTRUCTURE
     1 OK3         1

