1hxk_ligand
  -I-interpret- 

 25 25  0  0  0  0  0  0  0  0999 V2000
   32.6990   66.5410    9.3050 C   0  0  0  0  0
   32.7490   66.8930    7.7560 C   0  0  0  0  0
   31.4090   66.9840    9.9570 C   0  0  0  0  0
   31.4610   66.5350    7.0130 C   0  0  0  0  0
   30.2950   67.1800    7.6790 C   0  0  0  0  0
   28.9460   66.8610    7.0320 C   0  0  0  0  0
   32.9200   65.1540    9.5360 O   0  0  0  0  0
   33.8270   66.2100    7.1240 O   0  0  0  0  0
   31.5280   66.9670    5.6500 O   0  0  0  0  0
   30.1880   66.7560    9.1100 N   0  3  0  0  0
   27.7870   66.9630    7.8360 O   0  0  0  0  0
   33.5108   67.1011    9.7691 H   0  0  0  0  0
   32.8837   67.9734    7.7039 H   0  0  0  0  0
   31.4862   68.0571   10.1318 H   0  0  0  0  0
   31.2869   66.3956   10.8664 H   0  0  0  0  0
   31.3422   65.4517    7.0346 H   0  0  0  0  0
   30.4919   68.2474    7.5794 H   0  0  0  0  0
   29.0050   65.8127    6.7393 H   0  0  0  0  0
   28.8191   67.6034    6.2441 H   0  0  0  0  0
   32.8830   64.9779   10.4790 H   0  0  0  0  0
   34.6471   66.4214    7.5760 H   0  0  0  0  0
   32.2793   66.5516    5.2204 H   0  0  0  0  0
   30.0304   65.7483    9.0995 H   0  0  0  0  0
   29.4443   67.3200    9.5213 H   0  0  0  0  0
   27.0147   66.7379    7.3121 H   0  0  0  0  0
  1  7  1  0  0  0
  1  3  1  0  0  0
  1  2  1  0  0  0
  2  8  1  0  0  0
  2  4  1  0  0  0
  4  9  1  0  0  0
  4  5  1  0  0  0
  5 10  1  0  0  0
  5  6  1  0  0  0
  6 11  1  0  0  0
 10  3  1  0  0  0
  1 12  1  0  0  0
  2 13  1  0  0  0
  3 14  1  0  0  0
  3 15  1  0  0  0
  4 16  1  0  0  0
  5 17  1  0  0  0
  6 18  1  0  0  0
  6 19  1  0  0  0
  7 20  1  0  0  0
  8 21  1  0  0  0
  9 22  1  0  0  0
 10 23  1  0  0  0
 10 24  1  0  0  0
 11 25  1  0  0  0
M  END
$$$$
