5kpl_ligand
  -I-interpret- 

 48 51  0  0  0  0  0  0  0  0999 V2000
   35.6470   -1.0650   -4.7300 C   0  0  0  0  0
   38.5010   -0.3350   -0.4670 C   0  0  0  0  0
   37.5520    0.6850   -0.4590 C   0  0  0  0  0
   37.4930   -1.2360   -2.4750 C   0  0  0  0  0
   38.4620   -1.2980   -1.4630 C   0  0  0  0  0
   36.5770    0.7220   -1.4420 C   0  0  0  0  0
   34.0690   -0.4100   -2.9530 C   0  0  0  0  0
   34.7930   -0.7710   -5.9590 C   0  0  0  0  0
   35.4280   -0.1080   -3.5350 C   0  0  0  0  0
   34.2090    3.6570   -4.4320 C   0  0  0  0  0
   33.0690    0.5330   -2.8290 C   0  0  0  0  0
   36.5460    1.8520   -4.8020 C   0  0  0  0  0
   35.5700    4.1900   -4.8820 C   0  0  0  0  0
   36.3210    4.6870   -3.6430 C   0  0  0  0  0
   37.5630    1.2070   -4.7180 O   0  0  0  0  0
   36.4350    3.1480   -5.5970 C   0  0  0  0  0
   35.3100    5.3640   -5.8180 C   0  0  0  0  0
   34.2270    2.2450   -3.8640 C   0  0  0  0  0
   33.1510    1.8170   -3.1940 N   0  0  0  0  0
   31.9960   -0.0770   -2.2810 N   0  0  0  0  0
   32.3300   -1.4450   -2.0690 N   0  0  0  0  0
   33.6030   -1.6580   -2.4710 C   0  0  0  0  0
   35.3820    1.3200   -4.0680 C   0  0  0  0  0
   36.5170   -0.2340   -2.4700 C   0  0  0  0  0
   36.6870   -0.9520   -5.0361 H   0  0  0  0  0
   35.3717   -2.0626   -4.3878 H   0  0  0  0  0
   39.2693   -0.3754    0.3052 H   0  0  0  0  0
   37.5767    1.4501    0.3170 H   0  0  0  0  0
   37.5005   -1.9769   -3.2744 H   0  0  0  0  0
   39.1897   -2.1095   -1.4598 H   0  0  0  0  0
   35.8327    1.5179   -1.4174 H   0  0  0  0  0
   33.7385   -0.8411   -5.6923 H   0  0  0  0  0
   35.0118    0.2340   -6.3199 H   0  0  0  0  0
   35.0206   -1.4965   -6.7400 H   0  0  0  0  0
   33.5726    3.6323   -5.3166 H   0  0  0  0  0
   33.8625    4.3130   -3.6335 H   0  0  0  0  0
   35.7461    5.4803   -3.1651 H   0  0  0  0  0
   36.4533    3.8610   -2.9443 H   0  0  0  0  0
   37.2961    5.0722   -3.9410 H   0  0  0  0  0
   35.9696    2.9199   -6.5559 H   0  0  0  0  0
   37.4367    3.5611   -5.7155 H   0  0  0  0  0
   34.7300    5.0221   -6.6752 H   0  0  0  0  0
   34.7535    6.1353   -5.2855 H   0  0  0  0  0
   36.2612    5.7715   -6.1605 H   0  0  0  0  0
   35.2592    2.5214   -3.6486 H   0  0  0  0  0
   32.3983    2.4655   -2.9631 H   0  0  0  0  0
   34.1565   -2.5962   -2.4323 H   0  0  0  0  0
   34.6026    0.5831   -3.8742 H   0  0  0  0  0
  1  8  1  0  0  0
  9  1  1  0  0  0
  3  2  4  0  0  0
  5  2  4  0  0  0
  6  3  4  0  0  0
  4  5  4  0  0  0
 24  4  4  0  0  0
 24  6  4  0  0  0
  9  7  1  0  0  0
  7 11  4  0  0  0
  7 22  4  0  0  0
 23  9  1  0  0  0
  9 24  1  0  0  0
 13 10  1  0  0  0
 10 18  1  0  0  0
 11 19  1  0  0  0
 11 20  4  0  0  0
 12 15  2  0  0  0
 16 12  1  0  0  0
 12 23  1  0  0  0
 13 14  1  0  0  0
 13 16  1  0  0  0
 13 17  1  0  0  0
 18 19  1  0  0  0
 18 23  1  0  0  0
 20 21  4  0  0  0
 21 22  4  0  0  0
  1 25  1  0  0  0
  1 26  1  0  0  0
  2 27  1  0  0  0
  3 28  1  0  0  0
  4 29  1  0  0  0
  5 30  1  0  0  0
  6 31  1  0  0  0
  8 32  1  0  0  0
  8 33  1  0  0  0
  8 34  1  0  0  0
 10 35  1  0  0  0
 10 36  1  0  0  0
 14 37  1  0  0  0
 14 38  1  0  0  0
 14 39  1  0  0  0
 16 40  1  0  0  0
 16 41  1  0  0  0
 17 42  1  0  0  0
 17 43  1  0  0  0
 17 44  1  0  0  0
 18 45  1  0  0  0
 19 46  1  0  0  0
 22 47  1  0  0  0
 23 48  1  0  0  0
M  END
$$$$
