### 
### Created by X-TOOL on Mon Sep 10 21:13:03 2018
### 

@<TRIPOS>MOLECULE
3kze_ligand
  126   127     1     0     0
SMALL
GAST_HUCK


@<TRIPOS>ATOM
      1 N           5.1880   21.7580   -2.7990 N.4       1 SER         0.2377
      2 CA          5.5750   21.0100   -1.6070 C.3       1 SER         0.0621
      3 C           4.3860   20.2420   -1.0410 C.2       1 SER         0.2264
      4 O           3.4150   20.8330   -0.5690 O.2       1 SER        -0.3907
      5 CB          6.1610   21.9450   -0.5470 C.3       1 SER        -0.0040
      6 N           4.4830   18.9200   -1.0870 N.am      1 ARG        -0.2610
      7 CA          3.3820   18.0460   -0.7200 C.3       1 ARG         0.1312
      8 C           3.9520   16.7630   -0.1270 C.2       1 ARG         0.2039
      9 O           4.8180   16.1220   -0.7280 O.2       1 ARG        -0.3944
     10 CB          2.5440   17.7190   -1.9590 C.3       1 ARG        -0.0092
     11 CG          1.1800   17.1140   -1.6590 C.3       1 ARG        -0.0156
     12 CD          0.6730   16.2990   -2.8400 C.3       1 ARG         0.0627
     13 NE         -0.5970   15.6280   -2.5620 N.pl3     1 ARG        -0.2723
     14 CZ         -0.7330   14.5990   -1.7310 C.cat     1 ARG         0.2882
     15 NH1         0.3210   14.1270   -1.0710 N.pl3     1 ARG        -0.2849
     16 NH2        -1.9240   14.0490   -1.5470 N.pl3     1 ARG        -0.2849
     17 N           3.4760   16.3890    1.0560 N.am      1 LYS        -0.2637
     18 CA          3.9100   15.1440    1.6730 C.3       1 LYS         0.1310
     19 C           2.7250   14.3530    2.1990 C.2       1 LYS         0.2039
     20 O           1.7020   14.9230    2.5820 O.2       1 LYS        -0.3944
     21 CB          4.9050   15.4130    2.8020 C.3       1 LYS        -0.0122
     22 CG          6.3090   15.7310    2.3280 C.3       1 LYS        -0.0440
     23 CD          6.9670   14.5110    1.7050 C.3       1 LYS        -0.0124
     24 CE          8.4630   14.7270    1.5310 C.3       1 LYS        -0.0354
     25 NZ          8.7600   15.9300    0.7100 N.4       1 LYS         0.2185
     26 N           2.8720   13.0340    2.2060 N.am      1 GLU        -0.2636
     27 CA          1.8450   12.1430    2.7180 C.3       1 GLU         0.1325
     28 C           2.3340   11.5110    4.0200 C.2       1 GLU         0.2041
     29 O           3.5070   11.1320    4.1370 O.2       1 GLU        -0.3944
     30 CB          1.5090   11.0700    1.6760 C.3       1 GLU        -0.0008
     31 CG          0.3620   10.1530    2.0630 C.3       1 GLU         0.0044
     32 CD         -0.9800   10.8620    2.0640 C.2       1 GLU         0.0350
     33 OE1        -1.1060   11.9070    1.3850 O.co2     1 GLU        -0.5690
     34 OE2        -1.9140   10.3760    2.7490 O.co2     1 GLU        -0.5690
     35 N           1.4500   11.4240    5.0090 N.am      1 TYR        -0.2621
     36 CA          1.8060   10.8280    6.2950 C.3       1 TYR         0.1390
     37 C           0.7810    9.7860    6.7060 C.2       1 TYR         0.2058
     38 O          -0.4200   10.0440    6.6700 O.2       1 TYR        -0.3942
     39 CB          1.8890   11.8950    7.3980 C.3       1 TYR         0.0163
     40 CG          2.9190   12.9650    7.1620 C.ar      1 TYR        -0.0493
     41 CD1         4.1970   12.8600    7.7050 C.ar      1 TYR        -0.0685
     42 CD2         2.6150   14.0930    6.4120 C.ar      1 TYR        -0.0685
     43 CE1         5.1430   13.8380    7.4910 C.ar      1 TYR        -0.0398
     44 CE2         3.5590   15.0810    6.1950 C.ar      1 TYR        -0.0398
     45 CZ          4.8210   14.9460    6.7380 C.ar      1 TYR         0.0805
     46 OH          5.7600   15.9290    6.5270 O.3       1 TYR        -0.3376
     47 N           1.2590    8.6140    7.1090 N.am      1 TYR        -0.2620
     48 CA          0.3660    7.5630    7.5780 C.3       1 TYR         0.1390
     49 C           0.4630    7.4170    9.0910 C.2       1 TYR         0.2052
     50 O           1.5450    7.5340    9.6630 O.2       1 TYR        -0.3943
     51 CB          0.6810    6.2590    6.8470 C.3       1 TYR         0.0163
     52 CG          0.6110    6.4620    5.3530 C.ar      1 TYR        -0.0493
     53 CD1         1.7380    6.8350    4.6300 C.ar      1 TYR        -0.0685
     54 CD2        -0.5920    6.3320    4.6710 C.ar      1 TYR        -0.0685
     55 CE1         1.6770    7.0430    3.2650 C.ar      1 TYR        -0.0398
     56 CE2        -0.6650    6.5410    3.3000 C.ar      1 TYR        -0.0398
     57 CZ          0.4740    6.8960    2.6040 C.ar      1 TYR         0.0805
     58 OH          0.4200    7.1090    1.2420 O.3       1 TYR        -0.3376
     59 N          -0.6760    7.1900    9.7370 N.am      1 ALA        -0.2696
     60 CA         -0.7390    7.1490   11.1910 C.3       1 ALA         0.0916
     61 C          -1.5370    5.9510   11.6900 C.2       1 ALA         0.0598
     62 O          -2.3610    5.4250   10.9360 O.co2     1 ALA        -0.5666
     63 CB         -1.3290    8.4510   11.7330 C.3       1 ALA        -0.0300
     64 OXT        -1.3720    5.4960   12.8400 O.co2     1 ALA        -0.5666
     65 H           4.8008   21.1163   -3.4908 H         1 SER         0.2015
     66 H           4.4859   22.4543   -2.5489 H         1 SER         0.2015
     67 H           6.0078   22.2243   -3.1874 H         1 SER         0.2015
     68 H           6.3427   20.2914   -1.8938 H         1 SER         0.1095
     69 H           5.3979   22.6555   -0.2293 H         1 SER         0.0310
     70 H           6.4924   21.3584    0.3098 H         1 SER         0.0310
     71 H           7.0087   22.4848   -0.9691 H         1 SER         0.0310
     72 H           5.3623   18.5019   -1.3910 H         1 ARG         0.1884
     73 H           2.7449   18.5406    0.0132 H         1 ARG         0.0800
     74 H           3.1010   16.9791   -2.5338 H         1 ARG         0.0313
     75 H           2.3673   18.6594   -2.4811 H         1 ARG         0.0313
     76 H           0.4747   17.9216   -1.4630 H         1 ARG         0.0301
     77 H           1.2716   16.4568   -0.7942 H         1 ARG         0.0301
     78 H           1.4152   15.5314   -3.0592 H         1 ARG         0.0689
     79 H           0.5139   16.9828   -3.6738 H         1 ARG         0.0689
     80 H          -1.4320   15.9718   -3.0363 H         1 ARG         0.2642
     81 H           1.2378   14.5546   -1.2015 H         1 ARG         0.2615
     82 H           0.2124   13.3375   -0.4344 H         1 ARG         0.2615
     83 H          -2.7368   14.4149   -2.0428 H         1 ARG         0.2615
     84 H          -2.0282   13.2596   -0.9095 H         1 ARG         0.2615
     85 H           2.7989   16.9810    1.5371 H         1 LYS         0.1883
     86 H           4.4067   14.5510    0.9050 H         1 LYS         0.0800
     87 H           4.9654   14.5046    3.4015 H         1 LYS         0.0312
     88 H           4.5443   16.2845    3.3484 H         1 LYS         0.0312
     89 H           6.9029   16.0473    3.1855 H         1 LYS         0.0269
     90 H           6.2529   16.5184    1.5764 H         1 LYS         0.0269
     91 H           6.5227   14.3364    0.7251 H         1 LYS         0.0317
     92 H           6.8115   13.6558    2.3627 H         1 LYS         0.0317
     93 H           8.8762   13.8563    1.0218 H         1 LYS         0.0813
     94 H           8.9038   14.8703    2.5176 H         1 LYS         0.0813
     95 H           9.7703   16.0370    0.6188 H         1 LYS         0.1994
     96 H           8.3437   15.8203   -0.2147 H         1 LYS         0.1994
     97 H           8.3691   16.7553    1.1645 H         1 LYS         0.1994
     98 H           3.7350   12.6323    1.8396 H         1 GLU         0.1883
     99 H           0.9345   12.7070    2.9207 H         1 GLU         0.0801
    100 H           2.3945   10.4440    1.5660 H         1 GLU         0.0330
    101 H           1.2078   11.5912    0.7673 H         1 GLU         0.0330
    102 H           0.5497    9.7905    3.0737 H         1 GLU         0.0433
    103 H           0.3148    9.3482    1.3294 H         1 GLU         0.0433
    104 H           0.5047   11.7802    4.8675 H         1 TYR         0.1885
    105 H           2.7821   10.3586    6.1726 H         1 TYR         0.0821
    106 H           2.1713   11.3803    8.3164 H         1 TYR         0.0453
    107 H           0.9190   12.3909    7.4329 H         1 TYR         0.0453
    108 H           4.4529   11.9897    8.3092 H         1 TYR         0.0530
    109 H           1.6170   14.2020    5.9874 H         1 TYR         0.0530
    110 H           6.1418   13.7359    7.9154 H         1 TYR         0.0525
    111 H           3.3082   15.9591    5.5999 H         1 TYR         0.0525
    112 H           6.5786   15.6876    6.9665 H         1 TYR         0.2458
    113 H           2.2652    8.4477    7.0898 H         1 TYR         0.1885
    114 H          -0.6665    7.8295    7.3524 H         1 TYR         0.0821
    115 H          -0.0501    5.5043    7.1370 H         1 TYR         0.0453
    116 H           1.6874    5.9367    7.1144 H         1 TYR         0.0453
    117 H           2.6875    6.9659    5.1491 H         1 TYR         0.0530
    118 H          -1.4935    6.0615    5.2208 H         1 TYR         0.0530
    119 H           2.5746    7.3218    2.7130 H         1 TYR         0.0525
    120 H          -1.6143    6.4257    2.7769 H         1 TYR         0.0525
    121 H           1.2933    7.3461    0.9214 H         1 TYR         0.2458
    122 H          -1.5297    7.0404    9.1993 H         1 ALA         0.1875
    123 H           0.2796    7.0391   11.5632 H         1 ALA         0.0723
    124 H          -0.7015    9.2880   11.4267 H         1 ALA         0.0270
    125 H          -2.3352    8.5853   11.3361 H         1 ALA         0.0270
    126 H          -1.3695    8.4047   12.8213 H         1 ALA         0.0270
@<TRIPOS>BOND
     1    1    2 1  
     2    2    3 1  
     3    2    5 1  
     4    3    4 2  
     5    3    6 am 
     6    6    7 1  
     7    7    8 1  
     8    7   10 1  
     9    8    9 2  
    10    8   17 am 
    11   10   11 1  
    12   11   12 1  
    13   12   13 1  
    14   13   14 ar 
    15   14   15 ar 
    16   14   16 ar 
    17   17   18 1  
    18   18   19 1  
    19   18   21 1  
    20   19   20 2  
    21   19   26 am 
    22   21   22 1  
    23   22   23 1  
    24   23   24 1  
    25   24   25 1  
    26   26   27 1  
    27   27   28 1  
    28   27   30 1  
    29   28   29 2  
    30   28   35 am 
    31   30   31 1  
    32   31   32 1  
    33   32   33 ar 
    34   32   34 ar 
    35   35   36 1  
    36   36   37 1  
    37   36   39 1  
    38   37   38 2  
    39   37   47 am 
    40   39   40 1  
    41   40   41 ar 
    42   40   42 ar 
    43   41   43 ar 
    44   42   44 ar 
    45   43   45 ar 
    46   44   45 ar 
    47   45   46 1  
    48   47   48 1  
    49   48   49 1  
    50   48   51 1  
    51   49   50 2  
    52   49   59 am 
    53   51   52 1  
    54   52   53 ar 
    55   52   54 ar 
    56   53   55 ar 
    57   54   56 ar 
    58   55   57 ar 
    59   56   57 ar 
    60   57   58 1  
    61   59   60 1  
    62   60   61 1  
    63   60   63 1  
    64   61   62 ar 
    65   61   64 ar 
    66    1   65 1  
    67    1   66 1  
    68    1   67 1  
    69    2   68 1  
    70    5   69 1  
    71    5   70 1  
    72    5   71 1  
    73    6   72 1  
    74    7   73 1  
    75   10   74 1  
    76   10   75 1  
    77   11   76 1  
    78   11   77 1  
    79   12   78 1  
    80   12   79 1  
    81   13   80 1  
    82   15   81 1  
    83   15   82 1  
    84   16   83 1  
    85   16   84 1  
    86   17   85 1  
    87   18   86 1  
    88   21   87 1  
    89   21   88 1  
    90   22   89 1  
    91   22   90 1  
    92   23   91 1  
    93   23   92 1  
    94   24   93 1  
    95   24   94 1  
    96   25   95 1  
    97   25   96 1  
    98   25   97 1  
    99   26   98 1  
   100   27   99 1  
   101   30  100 1  
   102   30  101 1  
   103   31  102 1  
   104   31  103 1  
   105   35  104 1  
   106   36  105 1  
   107   39  106 1  
   108   39  107 1  
   109   41  108 1  
   110   42  109 1  
   111   43  110 1  
   112   44  111 1  
   113   46  112 1  
   114   47  113 1  
   115   48  114 1  
   116   51  115 1  
   117   51  116 1  
   118   53  117 1  
   119   54  118 1  
   120   55  119 1  
   121   56  120 1  
   122   58  121 1  
   123   59  122 1  
   124   60  123 1  
   125   63  124 1  
   126   63  125 1  
   127   63  126 1  
@<TRIPOS>SUBSTRUCTURE
     1 SER         1

