3kze_ligand
  -I-interpret- 

127128  0  0  0  0  0  0  0  0999 V2000
    5.1880   21.7580   -2.7990 N   0  3  0  0  0
    5.5750   21.0100   -1.6070 C   0  0  0  0  0
    4.3860   20.2420   -1.0410 C   0  0  0  0  0
    3.4150   20.8330   -0.5690 O   0  0  0  0  0
    6.1610   21.9450   -0.5470 C   0  0  0  0  0
    4.4830   18.9200   -1.0870 N   0  0  0  0  0
    3.3820   18.0460   -0.7200 C   0  0  0  0  0
    3.9520   16.7630   -0.1270 C   0  0  0  0  0
    4.8180   16.1220   -0.7280 O   0  0  0  0  0
    2.5440   17.7190   -1.9590 C   0  0  0  0  0
    1.1800   17.1140   -1.6590 C   0  0  0  0  0
    0.6730   16.2990   -2.8400 C   0  0  0  0  0
   -0.5970   15.6280   -2.5620 N   0  0  0  0  0
   -0.7330   14.5990   -1.7310 C   0  0  0  0  0
    0.3210   14.1270   -1.0710 N   0  0  0  0  0
   -1.9240   14.0490   -1.5470 N   0  0  0  0  0
    3.4760   16.3890    1.0560 N   0  0  0  0  0
    3.9100   15.1440    1.6730 C   0  0  0  0  0
    2.7250   14.3530    2.1990 C   0  0  0  0  0
    1.7020   14.9230    2.5820 O   0  0  0  0  0
    4.9050   15.4130    2.8020 C   0  0  0  0  0
    6.3090   15.7310    2.3280 C   0  0  0  0  0
    6.9670   14.5110    1.7050 C   0  0  0  0  0
    8.4630   14.7270    1.5310 C   0  0  0  0  0
    8.7600   15.9300    0.7100 N   0  3  0  0  0
    2.8720   13.0340    2.2060 N   0  0  0  0  0
    1.8450   12.1430    2.7180 C   0  0  0  0  0
    2.3340   11.5110    4.0200 C   0  0  0  0  0
    3.5070   11.1320    4.1370 O   0  0  0  0  0
    1.5090   11.0700    1.6760 C   0  0  0  0  0
    0.3620   10.1530    2.0630 C   0  0  0  0  0
   -0.9800   10.8620    2.0640 C   0  0  0  0  0
   -1.1060   11.9070    1.3850 O   0  0  0  0  0
   -1.9140   10.3760    2.7490 O   0  0  0  0  0
    1.4500   11.4240    5.0090 N   0  0  0  0  0
    1.8060   10.8280    6.2950 C   0  0  0  0  0
    0.7810    9.7860    6.7060 C   0  0  0  0  0
   -0.4200   10.0440    6.6700 O   0  0  0  0  0
    1.8890   11.8950    7.3980 C   0  0  0  0  0
    2.9190   12.9650    7.1620 C   0  0  0  0  0
    4.1970   12.8600    7.7050 C   0  0  0  0  0
    2.6150   14.0930    6.4120 C   0  0  0  0  0
    5.1430   13.8380    7.4910 C   0  0  0  0  0
    3.5590   15.0810    6.1950 C   0  0  0  0  0
    4.8210   14.9460    6.7380 C   0  0  0  0  0
    5.7600   15.9290    6.5270 O   0  0  0  0  0
    1.2590    8.6140    7.1090 N   0  0  0  0  0
    0.3660    7.5630    7.5780 C   0  0  0  0  0
    0.4630    7.4170    9.0910 C   0  0  0  0  0
    1.5450    7.5340    9.6630 O   0  0  0  0  0
    0.6810    6.2590    6.8470 C   0  0  0  0  0
    0.6110    6.4620    5.3530 C   0  0  0  0  0
    1.7380    6.8350    4.6300 C   0  0  0  0  0
   -0.5920    6.3320    4.6710 C   0  0  0  0  0
    1.6770    7.0430    3.2650 C   0  0  0  0  0
   -0.6650    6.5410    3.3000 C   0  0  0  0  0
    0.4740    6.8960    2.6040 C   0  0  0  0  0
    0.4200    7.1090    1.2420 O   0  0  0  0  0
   -0.6760    7.1900    9.7370 N   0  0  0  0  0
   -0.7390    7.1490   11.1910 C   0  0  0  0  0
   -1.5370    5.9510   11.6900 C   0  0  0  0  0
   -2.3610    5.4250   10.9360 O   0  0  0  0  0
   -1.3290    8.4510   11.7330 C   0  0  0  0  0
   -1.3720    5.4960   12.8400 O   0  0  0  0  0
    4.8008   21.1163   -3.4908 H   0  0  0  0  0
    4.4859   22.4543   -2.5489 H   0  0  0  0  0
    6.0078   22.2243   -3.1874 H   0  0  0  0  0
    6.3427   20.2914   -1.8938 H   0  0  0  0  0
    5.3979   22.6555   -0.2293 H   0  0  0  0  0
    6.4924   21.3584    0.3098 H   0  0  0  0  0
    7.0087   22.4848   -0.9691 H   0  0  0  0  0
    5.3623   18.5019   -1.3910 H   0  0  0  0  0
    2.7449   18.5406    0.0132 H   0  0  0  0  0
    3.1010   16.9791   -2.5338 H   0  0  0  0  0
    2.3673   18.6594   -2.4811 H   0  0  0  0  0
    0.4747   17.9216   -1.4630 H   0  0  0  0  0
    1.2716   16.4568   -0.7942 H   0  0  0  0  0
    1.4152   15.5314   -3.0592 H   0  0  0  0  0
    0.5139   16.9828   -3.6738 H   0  0  0  0  0
   -1.4320   15.9718   -3.0363 H   0  0  0  0  0
    0.2104   13.3445   -0.4262 H   0  0  0  0  0
    1.2398   14.5476   -1.2097 H   0  0  0  0  0
   -2.7368   14.4149   -2.0428 H   0  0  0  0  0
    2.7989   16.9810    1.5371 H   0  0  0  0  0
    4.4067   14.5510    0.9050 H   0  0  0  0  0
    4.9654   14.5046    3.4015 H   0  0  0  0  0
    4.5443   16.2845    3.3484 H   0  0  0  0  0
    6.9029   16.0473    3.1855 H   0  0  0  0  0
    6.2529   16.5184    1.5764 H   0  0  0  0  0
    6.5227   14.3364    0.7251 H   0  0  0  0  0
    6.8115   13.6558    2.3627 H   0  0  0  0  0
    8.8762   13.8563    1.0218 H   0  0  0  0  0
    8.9038   14.8703    2.5176 H   0  0  0  0  0
    9.7703   16.0370    0.6188 H   0  0  0  0  0
    8.3437   15.8203   -0.2147 H   0  0  0  0  0
    8.3691   16.7553    1.1645 H   0  0  0  0  0
    3.7350   12.6323    1.8396 H   0  0  0  0  0
    0.9345   12.7070    2.9207 H   0  0  0  0  0
    2.3945   10.4440    1.5660 H   0  0  0  0  0
    1.2078   11.5912    0.7673 H   0  0  0  0  0
    0.5497    9.7905    3.0737 H   0  0  0  0  0
    0.3148    9.3482    1.3294 H   0  0  0  0  0
   -1.6065    9.5795    3.1879 H   0  0  0  0  0
    0.5047   11.7802    4.8675 H   0  0  0  0  0
    2.7821   10.3586    6.1726 H   0  0  0  0  0
    2.1713   11.3803    8.3164 H   0  0  0  0  0
    0.9190   12.3909    7.4329 H   0  0  0  0  0
    4.4529   11.9897    8.3092 H   0  0  0  0  0
    1.6170   14.2020    5.9874 H   0  0  0  0  0
    6.1418   13.7359    7.9154 H   0  0  0  0  0
    3.3082   15.9591    5.5999 H   0  0  0  0  0
    5.3777   16.6246    5.9870 H   0  0  0  0  0
    2.2652    8.4477    7.0898 H   0  0  0  0  0
   -0.6665    7.8295    7.3524 H   0  0  0  0  0
   -0.0501    5.5043    7.1370 H   0  0  0  0  0
    1.6874    5.9367    7.1144 H   0  0  0  0  0
    2.6875    6.9659    5.1491 H   0  0  0  0  0
   -1.4935    6.0615    5.2208 H   0  0  0  0  0
    2.5746    7.3218    2.7130 H   0  0  0  0  0
   -1.6143    6.4257    2.7769 H   0  0  0  0  0
   -0.4780    6.9689    0.9327 H   0  0  0  0  0
   -1.5297    7.0404    9.1993 H   0  0  0  0  0
    0.2796    7.0391   11.5632 H   0  0  0  0  0
   -0.7015    9.2880   11.4267 H   0  0  0  0  0
   -2.3352    8.5853   11.3361 H   0  0  0  0  0
   -1.3695    8.4047   12.8213 H   0  0  0  0  0
   -0.7023    6.0125   13.2942 H   0  0  0  0  0
  1  2  1  0  0  0
  2  3  1  0  0  0
  2  5  1  0  0  0
  3  4  2  0  0  0
  3  6  1  0  0  0
  6  7  1  0  0  0
  7  8  1  0  0  0
  7 10  1  0  0  0
  8  9  2  0  0  0
  8 17  1  0  0  0
 10 11  1  0  0  0
 11 12  1  0  0  0
 12 13  1  0  0  0
 13 14  1  0  0  0
 14 15  1  0  0  0
 14 16  2  0  0  0
 17 18  1  0  0  0
 18 19  1  0  0  0
 18 21  1  0  0  0
 19 20  2  0  0  0
 19 26  1  0  0  0
 21 22  1  0  0  0
 22 23  1  0  0  0
 23 24  1  0  0  0
 24 25  1  0  0  0
 26 27  1  0  0  0
 27 28  1  0  0  0
 27 30  1  0  0  0
 28 29  2  0  0  0
 28 35  1  0  0  0
 30 31  1  0  0  0
 31 32  1  0  0  0
 32 33  2  0  0  0
 32 34  1  0  0  0
 35 36  1  0  0  0
 36 37  1  0  0  0
 36 39  1  0  0  0
 37 38  2  0  0  0
 37 47  1  0  0  0
 39 40  1  0  0  0
 40 41  4  0  0  0
 40 42  4  0  0  0
 41 43  4  0  0  0
 42 44  4  0  0  0
 43 45  4  0  0  0
 44 45  4  0  0  0
 45 46  1  0  0  0
 47 48  1  0  0  0
 48 49  1  0  0  0
 48 51  1  0  0  0
 49 50  2  0  0  0
 49 59  1  0  0  0
 51 52  1  0  0  0
 52 53  4  0  0  0
 52 54  4  0  0  0
 53 55  4  0  0  0
 54 56  4  0  0  0
 55 57  4  0  0  0
 56 57  4  0  0  0
 57 58  1  0  0  0
 59 60  1  0  0  0
 60 61  1  0  0  0
 60 63  1  0  0  0
 61 62  2  0  0  0
 61 64  1  0  0  0
  1 65  1  0  0  0
  1 66  1  0  0  0
  1 67  1  0  0  0
  2 68  1  0  0  0
  5 69  1  0  0  0
  5 70  1  0  0  0
  5 71  1  0  0  0
  6 72  1  0  0  0
  7 73  1  0  0  0
 10 74  1  0  0  0
 10 75  1  0  0  0
 11 76  1  0  0  0
 11 77  1  0  0  0
 12 78  1  0  0  0
 12 79  1  0  0  0
 13 80  1  0  0  0
 15 81  1  0  0  0
 15 82  1  0  0  0
 16 83  1  0  0  0
 17 84  1  0  0  0
 18 85  1  0  0  0
 21 86  1  0  0  0
 21 87  1  0  0  0
 22 88  1  0  0  0
 22 89  1  0  0  0
 23 90  1  0  0  0
 23 91  1  0  0  0
 24 92  1  0  0  0
 24 93  1  0  0  0
 25 94  1  0  0  0
 25 95  1  0  0  0
 25 96  1  0  0  0
 26 97  1  0  0  0
 27 98  1  0  0  0
 30 99  1  0  0  0
 30100  1  0  0  0
 31101  1  0  0  0
 31102  1  0  0  0
 34103  1  0  0  0
 35104  1  0  0  0
 36105  1  0  0  0
 39106  1  0  0  0
 39107  1  0  0  0
 41108  1  0  0  0
 42109  1  0  0  0
 43110  1  0  0  0
 44111  1  0  0  0
 46112  1  0  0  0
 47113  1  0  0  0
 48114  1  0  0  0
 51115  1  0  0  0
 51116  1  0  0  0
 53117  1  0  0  0
 54118  1  0  0  0
 55119  1  0  0  0
 56120  1  0  0  0
 58121  1  0  0  0
 59122  1  0  0  0
 60123  1  0  0  0
 63124  1  0  0  0
 63125  1  0  0  0
 63126  1  0  0  0
 64127  1  0  0  0
M  END
$$$$
