2gnh_ligand
  -I-interpret- 

 44 46  0  0  0  0  0  0  0  0999 V2000
    9.3410   11.0100    4.5490 O   0  0  0  0  0
    8.9860    9.7260    4.0600 S   0  0  0  0  0
    8.8110    8.7120    5.0260 O   0  0  0  0  0
   10.1230    9.2010    3.0980 N   0  0  0  0  0
   10.4910    7.7530    3.0200 C   0  0  0  0  0
    9.5580    6.9980    2.0900 C   0  0  0  0  0
   11.9370    7.5230    2.5640 C   0  0  0  0  0
   12.8430    8.3610    3.3140 N   0  3  0  0  0
   13.2400    9.6450    2.7600 C   0  0  0  0  0
   12.0870   10.6390    2.8720 C   0  0  0  0  0
   10.8370   10.0940    2.1760 C   0  0  0  0  0
    7.5130    9.7830    3.2950 C   0  0  0  0  0
    6.1920    9.8920    3.8840 C   0  0  0  0  0
    5.8420    9.9820    5.2660 C   0  0  0  0  0
    6.8080   10.0190    6.4410 C   0  0  0  0  0
    5.0850    9.8670    3.0180 C   0  0  0  0  0
    5.1980    9.7680    1.6290 C   0  0  0  0  0
    6.4430    9.7240    1.0570 C   0  0  0  0  0
    7.5750    9.7250    1.8830 C   0  0  0  0  0
    3.7720    9.8980    3.5020 C   0  0  0  0  0
    3.5130    9.9720    4.8060 N   0  0  0  0  0
    4.5040    9.9940    5.7070 C   0  0  0  0  0
   10.3932    7.3729    4.0369 H   0  0  0  0  0
    9.6873    7.3645    1.0716 H   0  0  0  0  0
    9.7926    5.9342    2.1271 H   0  0  0  0  0
    8.5267    7.1552    2.4059 H   0  0  0  0  0
   12.0185    7.7715    1.5058 H   0  0  0  0  0
   12.1995    6.4785    2.7320 H   0  0  0  0  0
   13.7076    7.8233    3.3752 H   0  0  0  0  0
   12.3398    8.5897    4.1712 H   0  0  0  0  0
   13.5034    9.5172    1.7100 H   0  0  0  0  0
   14.0977   10.0258    3.3146 H   0  0  0  0  0
   12.3787   11.5739    2.3935 H   0  0  0  0  0
   11.8620   10.8019    3.9260 H   0  0  0  0  0
   10.1870   10.9210    1.8901 H   0  0  0  0  0
   11.1269    9.5417    1.2821 H   0  0  0  0  0
    7.4069    9.1083    6.4461 H   0  0  0  0  0
    7.4625   10.8853    6.3445 H   0  0  0  0  0
    6.2442   10.0898    7.3712 H   0  0  0  0  0
    4.3046    9.7261    1.0060 H   0  0  0  0  0
    6.5511    9.6887   -0.0270 H   0  0  0  0  0
    8.5568    9.6786    1.4118 H   0  0  0  0  0
    2.9428    9.8607    2.7955 H   0  0  0  0  0
    4.2770   10.0210    6.7728 H   0  0  0  0  0
  1  2  2  0  0  0
  2  3  2  0  0  0
  2  4  1  0  0  0
  2 12  1  0  0  0
  4  5  1  0  0  0
  4 11  1  0  0  0
  5  6  1  0  0  0
  5  7  1  0  0  0
  7  8  1  0  0  0
  8  9  1  0  0  0
  9 10  1  0  0  0
 10 11  1  0  0  0
 12 13  4  0  0  0
 12 19  4  0  0  0
 13 14  4  0  0  0
 13 16  4  0  0  0
 14 15  1  0  0  0
 14 22  4  0  0  0
 16 17  4  0  0  0
 16 20  4  0  0  0
 17 18  4  0  0  0
 18 19  4  0  0  0
 20 21  4  0  0  0
 21 22  4  0  0  0
  5 23  1  0  0  0
  6 24  1  0  0  0
  6 25  1  0  0  0
  6 26  1  0  0  0
  7 27  1  0  0  0
  7 28  1  0  0  0
  8 29  1  0  0  0
  8 30  1  0  0  0
  9 31  1  0  0  0
  9 32  1  0  0  0
 10 33  1  0  0  0
 10 34  1  0  0  0
 11 35  1  0  0  0
 11 36  1  0  0  0
 15 37  1  0  0  0
 15 38  1  0  0  0
 15 39  1  0  0  0
 17 40  1  0  0  0
 18 41  1  0  0  0
 19 42  1  0  0  0
 20 43  1  0  0  0
 22 44  1  0  0  0
M  END
$$$$
