2nxl_ligand
  -I-interpret- 

133134  0  0  0  0  0  0  0  0999 V2000
   24.5170    6.2360   25.3690 N   0  3  0  0  0
   24.0140    6.3590   23.9650 C   0  0  0  0  0
   23.5250    5.0130   23.4430 C   0  0  0  0  0
   23.6770    3.9750   24.1030 O   0  0  0  0  0
   25.0770    6.9200   23.0630 C   0  0  0  0  0
   22.9010    5.0480   22.2700 N   0  0  0  0  0
   22.0810    3.9270   21.8420 C   0  0  0  0  0
   22.3220    3.5030   20.4000 C   0  0  0  0  0
   22.5270    4.3100   19.4930 O   0  0  0  0  0
   20.6060    4.2160   22.1060 C   0  0  0  0  0
   20.2590    4.1400   23.5840 C   0  0  0  0  0
   18.8180    4.5140   23.8970 C   0  0  0  0  0
   18.3550    5.5790   23.4300 O   0  0  0  0  0
   18.1530    3.7370   24.6210 O   0  0  0  0  0
   22.3190    2.1870   20.2420 N   0  0  0  0  0
   22.6080    1.5410   18.9870 C   0  0  0  0  0
   21.4830    0.5620   18.6720 C   0  0  0  0  0
   21.4470   -0.5420   19.2090 O   0  0  0  0  0
   23.9490    0.8290   19.0740 C   0  0  0  0  0
   24.2030   -0.0110   17.8180 C   0  0  0  0  0
   25.0490    1.8490   19.3470 C   0  0  0  0  0
   20.5720    0.9940   17.8030 N   0  0  0  0  0
   19.3910    0.2120   17.4620 C   0  0  0  0  0
   19.5660   -0.6850   16.2240 C   0  0  0  0  0
   18.7760   -0.6860   15.2750 O   0  0  0  0  0
   18.1850    1.1400   17.3740 C   0  0  0  0  0
   17.8790    1.8480   18.6710 C   0  0  0  0  0
   17.9690    3.2340   18.7700 C   0  0  0  0  0
   17.5020    1.1260   19.7930 C   0  0  0  0  0
   17.7030    3.8820   19.9820 C   0  0  0  0  0
   17.2180    1.7650   20.9930 C   0  0  0  0  0
   17.3060    3.1450   21.0920 C   0  0  0  0  0
   20.6370   -1.4690   16.2460 N   0  0  0  0  0
   20.7180   -2.6470   15.3820 C   0  0  0  0  0
   19.5310   -3.5990   15.6040 C   0  0  0  0  0
   19.1160   -3.8640   16.7340 O   0  0  0  0  0
   22.0540   -3.3470   15.6280 C   0  0  0  0  0
   22.2040   -4.7070   15.0000 C   0  0  0  0  0
   22.3300   -4.8610   13.6180 C   0  0  0  0  0
   22.2540   -5.8420   15.7940 C   0  0  0  0  0
   22.4690   -6.1210   13.0450 C   0  0  0  0  0
   22.4070   -7.0950   15.2290 C   0  0  0  0  0
   22.5150   -7.2350   13.8660 C   0  0  0  0  0
   22.6540   -8.5110   13.3550 O   0  0  0  0  0
   18.9790   -4.1080   14.5110 N   0  0  0  0  0
   17.9270   -5.1170   14.5770 C   0  0  0  0  0
   18.2040   -6.2500   13.5810 C   0  0  0  0  0
   18.2830   -6.0760   12.3680 O   0  0  0  0  0
   16.5260   -4.5150   14.3670 C   0  0  0  0  0
   15.4590   -5.5970   14.3390 C   0  0  0  0  0
   16.2210   -3.4980   15.4620 C   0  0  0  0  0
   18.3570   -7.4320   14.1600 N   0  0  0  0  0
   18.6210   -8.6760   13.4500 C   0  0  0  0  0
   17.2870   -9.4030   13.2930 C   0  0  0  0  0
   16.7360   -9.9420   14.2510 O   0  0  0  0  0
   19.5750   -9.5140   14.3100 C   0  0  0  0  0
   19.7530  -10.9340   13.8110 C   0  0  0  0  0
   19.1420  -11.3070   12.7850 O   0  0  0  0  0
   20.5080  -11.6750   14.4800 O   0  0  0  0  0
   16.7920   -9.4530   12.0660 N   0  0  0  0  0
   15.4970  -10.0580   11.7840 C   0  0  0  0  0
   15.3780  -11.5680   11.8690 C   0  0  0  0  0
   14.2790  -12.0860   11.6730 O   0  0  0  0  0
   16.4620  -12.2900   12.1520 N   0  0  0  0  0
   16.3630  -13.7410   12.3460 C   0  0  0  0  0
   15.5720  -14.0310   13.6190 C   0  0  0  0  0
   15.7050  -13.3260   14.6320 O   0  0  0  0  0
   17.7370  -14.3890   12.4180 C   0  0  0  0  0
   14.7600  -14.9560   13.6260 O   0  0  0  0  0
   23.7794    5.8539   25.9609 H   0  0  0  0  0
   25.3249    5.6136   25.3861 H   0  0  0  0  0
   24.7883    7.1569   25.7136 H   0  0  0  0  0
   23.1708    7.0497   23.9702 H   0  0  0  0  0
   25.9189    6.2289   23.0221 H   0  0  0  0  0
   24.6677    7.0558   22.0619 H   0  0  0  0  0
   25.4127    7.8809   23.4531 H   0  0  0  0  0
   22.9981    5.8653   21.6675 H   0  0  0  0  0
   22.3871    3.0713   22.4438 H   0  0  0  0  0
   20.0150    3.4657   21.5808 H   0  0  0  0  0
   20.3923    5.2273   21.7599 H   0  0  0  0  0
   20.8997    4.8514   24.1051 H   0  0  0  0  0
   20.4019    3.1062   23.8985 H   0  0  0  0  0
   18.6977    2.9858   24.8670 H   0  0  0  0  0
   22.1013    1.6025   21.0491 H   0  0  0  0  0
   22.6712    2.2767   18.1852 H   0  0  0  0  0
   23.9425    0.1261   19.9070 H   0  0  0  0  0
   23.4149   -0.7570   17.7159 H   0  0  0  0  0
   24.2060    0.6384   16.9426 H   0  0  0  0  0
   25.1682   -0.5099   17.9052 H   0  0  0  0  0
   25.0758    2.5781   18.5372 H   0  0  0  0  0
   24.8452    2.3579   20.2891 H   0  0  0  0  0
   26.0096    1.3376   19.4092 H   0  0  0  0  0
   20.7053    1.9034   17.3608 H   0  0  0  0  0
   19.2210   -0.5063   18.2640 H   0  0  0  0  0
   17.3183    0.5298   17.1199 H   0  0  0  0  0
   18.4103    1.9024   16.6283 H   0  0  0  0  0
   18.2494    3.8203   17.8949 H   0  0  0  0  0
   17.4274    0.0402   19.7324 H   0  0  0  0  0
   17.8071    4.9645   20.0555 H   0  0  0  0  0
   16.9239    1.1775   21.8628 H   0  0  0  0  0
   17.0666    3.6466   22.0296 H   0  0  0  0  0
   21.4115   -1.2479   16.8718 H   0  0  0  0  0
   20.6634   -2.3307   14.3403 H   0  0  0  0  0
   22.1315   -3.4943   16.7052 H   0  0  0  0  0
   22.8208   -2.7144   15.1809 H   0  0  0  0  0
   22.3193   -3.9792   12.9774 H   0  0  0  0  0
   22.1718   -5.7459   16.8766 H   0  0  0  0  0
   22.5408   -6.2300   11.9628 H   0  0  0  0  0
   22.4422   -7.9769   15.8686 H   0  0  0  0  0
   22.6650   -9.1440   14.0766 H   0  0  0  0  0
   19.2990   -3.7849   13.5980 H   0  0  0  0  0
   17.9374   -5.5338   15.5841 H   0  0  0  0  0
   16.5165   -4.0107   13.4007 H   0  0  0  0  0
   15.6660   -6.2886   13.5224 H   0  0  0  0  0
   15.4667   -6.1376   15.2855 H   0  0  0  0  0
   14.4818   -5.1380   14.1892 H   0  0  0  0  0
   16.2567   -3.9906   16.4337 H   0  0  0  0  0
   16.9619   -2.6991   15.4307 H   0  0  0  0  0
   15.2272   -3.0801   15.3013 H   0  0  0  0  0
   18.2847   -7.4737   15.1766 H   0  0  0  0  0
   19.0687   -8.5018   12.4716 H   0  0  0  0  0
   19.1480   -9.5706   15.3113 H   0  0  0  0  0
   20.5520   -9.0318   14.2788 H   0  0  0  0  0
   20.8668  -11.1799   15.2201 H   0  0  0  0  0
   17.3323   -9.0570   11.2968 H   0  0  0  0  0
   15.2844   -9.8108   10.7439 H   0  0  0  0  0
   14.8262   -9.6729   12.5520 H   0  0  0  0  0
   17.3685  -11.8297   12.2345 H   0  0  0  0  0
   15.8443  -14.1682   11.4878 H   0  0  0  0  0
   16.3707  -12.6541   14.4677 H   0  0  0  0  0
   18.2753  -14.2005   11.4891 H   0  0  0  0  0
   18.2935  -13.9658   13.2542 H   0  0  0  0  0
   17.6235  -15.4635   12.5621 H   0  0  0  0  0
  1  2  1  0  0  0
  2  3  1  0  0  0
  2  5  1  0  0  0
  3  4  2  0  0  0
  3  6  1  0  0  0
  6  7  1  0  0  0
  7  8  1  0  0  0
  7 10  1  0  0  0
  8  9  2  0  0  0
  8 15  1  0  0  0
 10 11  1  0  0  0
 11 12  1  0  0  0
 12 13  2  0  0  0
 12 14  1  0  0  0
 15 16  1  0  0  0
 16 17  1  0  0  0
 16 19  1  0  0  0
 17 18  2  0  0  0
 17 22  1  0  0  0
 19 20  1  0  0  0
 19 21  1  0  0  0
 22 23  1  0  0  0
 23 24  1  0  0  0
 23 26  1  0  0  0
 24 25  2  0  0  0
 24 33  1  0  0  0
 26 27  1  0  0  0
 27 28  4  0  0  0
 27 29  4  0  0  0
 28 30  4  0  0  0
 29 31  4  0  0  0
 30 32  4  0  0  0
 31 32  4  0  0  0
 33 34  1  0  0  0
 34 35  1  0  0  0
 34 37  1  0  0  0
 35 36  2  0  0  0
 35 45  1  0  0  0
 37 38  1  0  0  0
 38 39  4  0  0  0
 38 40  4  0  0  0
 39 41  4  0  0  0
 40 42  4  0  0  0
 41 43  4  0  0  0
 42 43  4  0  0  0
 43 44  1  0  0  0
 45 46  1  0  0  0
 46 47  1  0  0  0
 46 49  1  0  0  0
 47 48  2  0  0  0
 47 52  1  0  0  0
 49 50  1  0  0  0
 49 51  1  0  0  0
 52 53  1  0  0  0
 53 54  1  0  0  0
 53 56  1  0  0  0
 54 55  2  0  0  0
 54 60  1  0  0  0
 56 57  1  0  0  0
 57 58  2  0  0  0
 57 59  1  0  0  0
 60 61  1  0  0  0
 61 62  1  0  0  0
 62 63  2  0  0  0
 62 64  1  0  0  0
 64 65  1  0  0  0
 65 66  1  0  0  0
 65 68  1  0  0  0
 66 67  1  0  0  0
 66 69  2  0  0  0
  1 70  1  0  0  0
  1 71  1  0  0  0
  1 72  1  0  0  0
  2 73  1  0  0  0
  5 74  1  0  0  0
  5 75  1  0  0  0
  5 76  1  0  0  0
  6 77  1  0  0  0
  7 78  1  0  0  0
 10 79  1  0  0  0
 10 80  1  0  0  0
 11 81  1  0  0  0
 11 82  1  0  0  0
 14 83  1  0  0  0
 15 84  1  0  0  0
 16 85  1  0  0  0
 19 86  1  0  0  0
 20 87  1  0  0  0
 20 88  1  0  0  0
 20 89  1  0  0  0
 21 90  1  0  0  0
 21 91  1  0  0  0
 21 92  1  0  0  0
 22 93  1  0  0  0
 23 94  1  0  0  0
 26 95  1  0  0  0
 26 96  1  0  0  0
 28 97  1  0  0  0
 29 98  1  0  0  0
 30 99  1  0  0  0
 31100  1  0  0  0
 32101  1  0  0  0
 33102  1  0  0  0
 34103  1  0  0  0
 37104  1  0  0  0
 37105  1  0  0  0
 39106  1  0  0  0
 40107  1  0  0  0
 41108  1  0  0  0
 42109  1  0  0  0
 44110  1  0  0  0
 45111  1  0  0  0
 46112  1  0  0  0
 49113  1  0  0  0
 50114  1  0  0  0
 50115  1  0  0  0
 50116  1  0  0  0
 51117  1  0  0  0
 51118  1  0  0  0
 51119  1  0  0  0
 52120  1  0  0  0
 53121  1  0  0  0
 56122  1  0  0  0
 56123  1  0  0  0
 59124  1  0  0  0
 60125  1  0  0  0
 61126  1  0  0  0
 61127  1  0  0  0
 64128  1  0  0  0
 65129  1  0  0  0
 67130  1  0  0  0
 68131  1  0  0  0
 68132  1  0  0  0
 68133  1  0  0  0
M  END
$$$$
