### 
### Created by X-TOOL on Mon Sep 10 21:12:55 2018
### 

@<TRIPOS>MOLECULE
2nxl_ligand
  130   131     1     0     0
SMALL
GAST_HUCK


@<TRIPOS>ATOM
      1 N          24.5170    6.2360   25.3690 N.4       1 ALA         0.2377
      2 CA         24.0140    6.3590   23.9650 C.3       1 ALA         0.0621
      3 C          23.5250    5.0130   23.4430 C.2       1 ALA         0.2264
      4 O          23.6770    3.9750   24.1030 O.2       1 ALA        -0.3907
      5 CB         25.0770    6.9200   23.0630 C.3       1 ALA        -0.0040
      6 N          22.9010    5.0480   22.2700 N.am      1 GLU        -0.2609
      7 CA         22.0810    3.9270   21.8420 C.3       1 GLU         0.1326
      8 C          22.3220    3.5030   20.4000 C.2       1 GLU         0.2040
      9 O          22.5270    4.3100   19.4930 O.2       1 GLU        -0.3944
     10 CB         20.6060    4.2160   22.1060 C.3       1 GLU        -0.0008
     11 CG         20.2590    4.1400   23.5840 C.3       1 GLU         0.0044
     12 CD         18.8180    4.5140   23.8970 C.2       1 GLU         0.0350
     13 OE1        18.3550    5.5790   23.4300 O.co2     1 GLU        -0.5690
     14 OE2        18.1530    3.7370   24.6210 O.co2     1 GLU        -0.5690
     15 N          22.3190    2.1870   20.2420 N.am      1 VAL        -0.2635
     16 CA         22.6080    1.5410   18.9870 C.3       1 VAL         0.1333
     17 C          21.4830    0.5620   18.6720 C.2       1 VAL         0.2043
     18 O          21.4470   -0.5420   19.2090 O.2       1 VAL        -0.3944
     19 CB         23.9490    0.8290   19.0740 C.3       1 VAL        -0.0063
     20 CG1        24.2030   -0.0110   17.8180 C.3       1 VAL        -0.0584
     21 CG2        25.0490    1.8490   19.3470 C.3       1 VAL        -0.0584
     22 N          20.5720    0.9940   17.8030 N.am      1 PHE        -0.2619
     23 CA         19.3910    0.2120   17.4620 C.3       1 PHE         0.1404
     24 C          19.5660   -0.6850   16.2240 C.2       1 PHE         0.2061
     25 O          18.7760   -0.6860   15.2750 O.2       1 PHE        -0.3942
     26 CB         18.1850    1.1400   17.3740 C.3       1 PHE         0.0214
     27 CG         17.8790    1.8480   18.6710 C.ar      1 PHE        -0.0386
     28 CD1        17.9690    3.2340   18.7700 C.ar      1 PHE        -0.0601
     29 CD2        17.5020    1.1260   19.7930 C.ar      1 PHE        -0.0601
     30 CE1        17.7030    3.8820   19.9820 C.ar      1 PHE        -0.0686
     31 CE2        17.2180    1.7650   20.9930 C.ar      1 PHE        -0.0686
     32 CZ         17.3060    3.1450   21.0920 C.ar      1 PHE        -0.0687
     33 N          20.6370   -1.4690   16.2460 N.am      1 TYR        -0.2620
     34 CA         20.7180   -2.6470   15.3820 C.3       1 TYR         0.1390
     35 C          19.5310   -3.5990   15.6040 C.2       1 TYR         0.2057
     36 O          19.1160   -3.8640   16.7340 O.2       1 TYR        -0.3942
     37 CB         22.0540   -3.3470   15.6280 C.3       1 TYR         0.0163
     38 CG         22.2040   -4.7070   15.0000 C.ar      1 TYR        -0.0493
     39 CD1        22.3300   -4.8610   13.6180 C.ar      1 TYR        -0.0685
     40 CD2        22.2540   -5.8420   15.7940 C.ar      1 TYR        -0.0685
     41 CE1        22.4690   -6.1210   13.0450 C.ar      1 TYR        -0.0398
     42 CE2        22.4070   -7.0950   15.2290 C.ar      1 TYR        -0.0398
     43 CZ         22.5150   -7.2350   13.8660 C.ar      1 TYR         0.0805
     44 OH         22.6540   -8.5110   13.3550 O.3       1 TYR        -0.3376
     45 N          18.9790   -4.1080   14.5110 N.am      1 VAL        -0.2633
     46 CA         17.9270   -5.1170   14.5770 C.3       1 VAL         0.1333
     47 C          18.2040   -6.2500   13.5810 C.2       1 VAL         0.2042
     48 O          18.2830   -6.0760   12.3680 O.2       1 VAL        -0.3944
     49 CB         16.5260   -4.5150   14.3670 C.3       1 VAL        -0.0063
     50 CG1        15.4590   -5.5970   14.3390 C.3       1 VAL        -0.0584
     51 CG2        16.2210   -3.4980   15.4620 C.3       1 VAL        -0.0584
     52 N          18.3570   -7.4320   14.1600 N.am      1 ASP        -0.2622
     53 CA         18.6210   -8.6760   13.4500 C.3       1 ASP         0.1423
     54 C          17.2870   -9.4030   13.2930 C.2       1 ASP         0.2054
     55 O          16.7360   -9.9420   14.2510 O.2       1 ASP        -0.3943
     56 CB         19.5750   -9.5140   14.3100 C.3       1 ASP         0.0406
     57 CG         19.7530  -10.9340   13.8110 C.2       1 ASP         0.0393
     58 OD1        19.1420  -11.3070   12.7850 O.co2     1 ASP        -0.5688
     59 OD2        20.5080  -11.6750   14.4800 O.co2     1 ASP        -0.5688
     60 N          16.7920   -9.4530   12.0660 N.am      1 GLY        -0.2663
     61 CA         15.4970  -10.0580   11.7840 C.3       1 GLY         0.1201
     62 C          15.3780  -11.5680   11.8690 C.2       1 GLY         0.2002
     63 O          14.2790  -12.0860   11.6730 O.2       1 GLY        -0.3947
     64 N          16.4620  -12.2900   12.1520 N.am      1 ALA        -0.2700
     65 CA         16.3630  -13.7410   12.3460 C.3       1 ALA         0.0916
     66 C          15.5720  -14.0310   13.6190 C.2       1 ALA         0.0598
     67 O          15.7050  -13.3260   14.6320 O.co2     1 ALA        -0.5666
     68 CB         17.7370  -14.3890   12.4180 C.3       1 ALA        -0.0300
     69 OXT        14.7600  -14.9560   13.6260 O.co2     1 ALA        -0.5666
     70 H1         24.8344    7.1365   25.6923 H         1 ALA         0.2015
     71 H2         25.2824    5.5806   25.3955 H         1 ALA         0.2015
     72 H3         23.7731    5.9081   25.9649 H         1 ALA         0.2015
     73 H4         23.1629    7.0558   23.9667 H         1 ALA         0.1095
     74 H5         24.6838    7.0006   22.0389 H         1 ALA         0.0310
     75 H6         25.9519    6.2532   23.0684 H         1 ALA         0.0310
     76 H7         25.3734    7.9168   23.4214 H         1 ALA         0.0310
     77 H8         22.9962    5.8493   21.6793 H         1 GLU         0.1885
     78 H9         22.3621    3.0696   22.4712 H         1 GLU         0.0801
     79 H10        19.9980    3.4785   21.5615 H         1 GLU         0.0330
     80 H11        20.3723    5.2264   21.7393 H         1 GLU         0.0330
     81 H12        20.9219    4.8261   24.1315 H         1 GLU         0.0433
     82 H13        20.4324    3.1098   23.9283 H         1 GLU         0.0433
     83 H14        22.1055    1.6140   21.0332 H         1 VAL         0.1883
     84 H15        22.6587    2.2979   18.1905 H         1 VAL         0.0802
     85 H16        23.9148    0.1385   19.9296 H         1 VAL         0.0343
     86 H17        25.1769   -0.5150   17.9048 H         1 VAL         0.0234
     87 H18        24.2063    0.6433   16.9338 H         1 VAL         0.0234
     88 H19        23.4083   -0.7644   17.7138 H         1 VAL         0.0234
     89 H20        24.8058    2.4155   20.2580 H         1 VAL         0.0234
     90 H21        25.1274    2.5406   18.4952 H         1 VAL         0.0234
     91 H22        26.0073    1.3268   19.4849 H         1 VAL         0.0234
     92 H23        20.7026    1.8856   17.3695 H         1 PHE         0.1885
     93 H24        19.2082   -0.4702   18.3053 H         1 PHE         0.0823
     94 H25        17.3064    0.5440   17.0862 H         1 PHE         0.0474
     95 H26        18.3833    1.8975   16.6014 H         1 PHE         0.0474
     96 H27        18.2479    3.8171   17.8998 H         1 PHE         0.0557
     97 H28        17.4278    0.0462   19.7327 H         1 PHE         0.0557
     98 H29        17.8066    4.9586   20.0551 H         1 PHE         0.0599
     99 H30        16.9256    1.1808   21.8580 H         1 PHE         0.0599
    100 H31        17.0679    3.6438   22.0245 H         1 PHE         0.0559
    101 H32        21.3964   -1.2522   16.8595 H         1 TYR         0.1885
    102 H33        20.6893   -2.3116   14.3348 H         1 TYR         0.0821
    103 H34        22.1809   -3.4608   16.7147 H         1 TYR         0.0453
    104 H35        22.8517   -2.7018   15.2313 H         1 TYR         0.0453
    105 H36        22.3193   -3.9841   12.9809 H         1 TYR         0.0530
    106 H37        22.1722   -5.7464   16.8707 H         1 TYR         0.0530
    107 H38        22.5404   -6.2294   11.9688 H         1 TYR         0.0525
    108 H39        22.4420   -7.9721   15.8650 H         1 TYR         0.0525
    109 H40        23.4415   -8.9083   13.7081 H         1 TYR         0.2458
    110 H41        19.2927   -3.7913   13.6159 H         1 VAL         0.1883
    111 H42        17.9483   -5.5498   15.5880 H         1 VAL         0.0802
    112 H43        16.5155   -3.9961   13.3972 H         1 VAL         0.0343
    113 H44        14.4722   -5.1350   14.1878 H         1 VAL         0.0234
    114 H45        15.4656   -6.1434   15.2937 H         1 VAL         0.0234
    115 H46        15.6668   -6.2957   13.5152 H         1 VAL         0.0234
    116 H47        17.0010   -2.7224   15.4696 H         1 VAL         0.0234
    117 H48        16.1988   -4.0053   16.4378 H         1 VAL         0.0234
    118 H49        15.2433   -3.0327   15.2683 H         1 VAL         0.0234
    119 H50        18.2861   -7.4729   15.1566 H         1 ASP         0.1884
    120 H51        19.0686   -8.4776   12.4650 H         1 ASP         0.0819
    121 H52        19.1764   -9.5529   15.3345 H         1 ASP         0.0478
    122 H53        20.5589   -9.0223   14.3178 H         1 ASP         0.0478
    123 H54        17.3217   -9.0647   11.3119 H         1 GLY         0.1881
    124 H55        15.2160   -9.7657   10.7615 H         1 GLY         0.0763
    125 H56        14.7760   -9.6333   12.4980 H         1 GLY         0.0763
    126 H57        17.3507  -11.8387   12.2328 H         1 ALA         0.1875
    127 H58        15.8230  -14.1710   11.4896 H         1 ALA         0.0723
    128 H59        17.6238  -15.4735   12.5634 H         1 ALA         0.0270
    129 H60        18.2997  -13.9628   13.2616 H         1 ALA         0.0270
    130 H61        18.2813  -14.1996   11.4811 H         1 ALA         0.0270
@<TRIPOS>BOND
     1    1    2 1  
     2    2    3 1  
     3    2    5 1  
     4    3    4 2  
     5    3    6 am 
     6    6    7 1  
     7    7    8 1  
     8    7   10 1  
     9    8    9 2  
    10    8   15 am 
    11   10   11 1  
    12   11   12 1  
    13   12   13 ar 
    14   12   14 ar 
    15   15   16 1  
    16   16   17 1  
    17   16   19 1  
    18   17   18 2  
    19   17   22 am 
    20   19   20 1  
    21   19   21 1  
    22   22   23 1  
    23   23   24 1  
    24   23   26 1  
    25   24   25 2  
    26   24   33 am 
    27   26   27 1  
    28   27   28 ar 
    29   27   29 ar 
    30   28   30 ar 
    31   29   31 ar 
    32   30   32 ar 
    33   31   32 ar 
    34   33   34 1  
    35   34   35 1  
    36   34   37 1  
    37   35   36 2  
    38   35   45 am 
    39   37   38 1  
    40   38   39 ar 
    41   38   40 ar 
    42   39   41 ar 
    43   40   42 ar 
    44   41   43 ar 
    45   42   43 ar 
    46   43   44 1  
    47   45   46 1  
    48   46   47 1  
    49   46   49 1  
    50   47   48 2  
    51   47   52 am 
    52   49   50 1  
    53   49   51 1  
    54   52   53 1  
    55   53   54 1  
    56   53   56 1  
    57   54   55 2  
    58   54   60 am 
    59   56   57 1  
    60   57   58 ar 
    61   57   59 ar 
    62   60   61 1  
    63   61   62 1  
    64   62   63 2  
    65   62   64 am 
    66   64   65 1  
    67   65   66 1  
    68   65   68 1  
    69   66   67 ar 
    70   66   69 ar 
    71    1   70 1  
    72    1   71 1  
    73    1   72 1  
    74    2   73 1  
    75    5   74 1  
    76    5   75 1  
    77    5   76 1  
    78    6   77 1  
    79    7   78 1  
    80   10   79 1  
    81   10   80 1  
    82   11   81 1  
    83   11   82 1  
    84   15   83 1  
    85   16   84 1  
    86   19   85 1  
    87   20   86 1  
    88   20   87 1  
    89   20   88 1  
    90   21   89 1  
    91   21   90 1  
    92   21   91 1  
    93   22   92 1  
    94   23   93 1  
    95   26   94 1  
    96   26   95 1  
    97   28   96 1  
    98   29   97 1  
    99   30   98 1  
   100   31   99 1  
   101   32  100 1  
   102   33  101 1  
   103   34  102 1  
   104   37  103 1  
   105   37  104 1  
   106   39  105 1  
   107   40  106 1  
   108   41  107 1  
   109   42  108 1  
   110   44  109 1  
   111   45  110 1  
   112   46  111 1  
   113   49  112 1  
   114   50  113 1  
   115   50  114 1  
   116   50  115 1  
   117   51  116 1  
   118   51  117 1  
   119   51  118 1  
   120   52  119 1  
   121   53  120 1  
   122   56  121 1  
   123   56  122 1  
   124   60  123 1  
   125   61  124 1  
   126   61  125 1  
   127   64  126 1  
   128   65  127 1  
   129   68  128 1  
   130   68  129 1  
   131   68  130 1  
@<TRIPOS>SUBSTRUCTURE
     1 ALA         1

