3ubd_ligand
  -I-interpret- 

 61 64  0  0  0  0  0  0  0  0999 V2000
   29.1130    4.4050    3.7940 C   0  0  0  0  0
   30.2380    4.2500    4.8370 C   0  0  0  0  0
   30.4900    3.1340    5.3250 O   0  0  0  0  0
   31.0660    5.3260    5.1160 O   0  0  0  0  0
   31.9260    5.2090    6.2080 C   0  0  0  0  0
   33.2900    4.9260    5.7680 C   0  0  0  0  0
   33.7050    5.9640    4.9330 O   0  0  0  0  0
   31.8580    6.4870    7.0650 C   0  0  0  0  0
   30.5750    6.6780    7.5630 O   0  0  0  0  0
   29.7620    7.6910    7.0820 C   0  0  0  0  0
   30.2510    8.6280    6.4290 O   0  0  0  0  0
   28.2800    7.5390    7.1910 C   0  0  0  0  0
   32.8920    6.4000    8.1620 C   0  0  0  0  0
   32.9880    7.7000    8.9650 C   0  0  0  0  0
   34.1380    6.0250    7.6700 O   0  0  0  0  0
   34.2300    4.8250    6.9730 C   0  0  0  0  0
   33.8510    3.6850    7.7120 O   0  0  0  0  0
   34.5220    3.5580    8.9340 C   0  0  0  0  0
   36.0500    3.4170    8.9570 C   0  0  0  0  0
   36.7260    3.4420    7.9170 O   0  0  0  0  0
   33.8470    3.5330   10.0910 C   0  0  0  0  0
   32.3280    3.5880   10.2540 C   0  0  0  0  0
   31.8020    3.9990   11.4850 C   0  0  0  0  0
   30.4260    3.9960   11.6780 C   0  0  0  0  0
   29.6000    3.5280   10.6480 C   0  0  0  0  0
   28.2170    3.5160   10.8230 O   0  0  0  0  0
   30.1300    3.0750    9.4420 C   0  0  0  0  0
   31.5190    3.0770    9.2510 C   0  0  0  0  0
   34.4880    3.4020   11.3230 O   0  0  0  0  0
   35.9840    3.2440   11.4380 C   0  0  0  0  0
   36.5040    3.1330   12.6960 C   0  0  0  0  0
   37.8590    2.9950   12.8100 C   0  0  0  0  0
   38.3520    2.8840   14.0760 O   0  0  0  0  0
   38.6870    3.0070   11.6940 C   0  0  0  0  0
   38.1190    3.1390   10.4420 C   0  0  0  0  0
   36.7600    3.2720   10.3110 C   0  0  0  0  0
   38.9280    3.1410    9.2800 O   0  0  0  0  0
   29.3356    3.7840    2.9263 H   0  0  0  0  0
   28.1661    4.0915    4.2335 H   0  0  0  0  0
   29.0448    5.4488    3.4874 H   0  0  0  0  0
   31.6072    4.3683    6.8242 H   0  0  0  0  0
   33.3145    3.9758    5.2344 H   0  0  0  0  0
   33.1130    6.0233    4.1796 H   0  0  0  0  0
   32.0840    7.3586    6.4507 H   0  0  0  0  0
   27.8580    8.4294    7.6571 H   0  0  0  0  0
   27.8548    7.4124    6.1954 H   0  0  0  0  0
   28.0495    6.6647    7.7998 H   0  0  0  0  0
   32.5564    5.6184    8.8436 H   0  0  0  0  0
   33.6678    7.5573    9.8050 H   0  0  0  0  0
   33.3647    8.4956    8.3222 H   0  0  0  0  0
   31.9996    7.9693    9.3375 H   0  0  0  0  0
   35.2792    4.6917    6.7094 H   0  0  0  0  0
   32.4677    4.3192   12.2866 H   0  0  0  0  0
   29.9967    4.3517   12.6147 H   0  0  0  0  0
   27.7984    3.1694   10.0316 H   0  0  0  0  0
   29.4686    2.7210    8.6513 H   0  0  0  0  0
   31.9541    2.6845    8.3319 H   0  0  0  0  0
   35.8620    3.1537   13.5767 H   0  0  0  0  0
   39.3069    2.7925   14.0395 H   0  0  0  0  0
   39.7673    2.9137   11.8050 H   0  0  0  0  0
   38.3715    3.2412    8.5042 H   0  0  0  0  0
  1  2  1  0  0  0
  2  3  2  0  0  0
  2  4  1  0  0  0
  4  5  1  0  0  0
  5  6  1  0  0  0
  5  8  1  0  0  0
  6  7  1  0  0  0
  6 16  1  0  0  0
  8  9  1  0  0  0
  8 13  1  0  0  0
  9 10  1  0  0  0
 10 11  2  0  0  0
 10 12  1  0  0  0
 13 14  1  0  0  0
 13 15  1  0  0  0
 15 16  1  0  0  0
 16 17  1  0  0  0
 17 18  1  0  0  0
 18 19  1  0  0  0
 18 21  2  0  0  0
 19 20  2  0  0  0
 19 36  1  0  0  0
 21 22  1  0  0  0
 21 29  1  0  0  0
 22 23  4  0  0  0
 22 28  4  0  0  0
 23 24  4  0  0  0
 24 25  4  0  0  0
 25 26  1  0  0  0
 25 27  4  0  0  0
 27 28  4  0  0  0
 29 30  1  0  0  0
 30 31  4  0  0  0
 30 36  4  0  0  0
 31 32  4  0  0  0
 32 33  1  0  0  0
 32 34  4  0  0  0
 34 35  4  0  0  0
 35 36  4  0  0  0
 35 37  1  0  0  0
  1 38  1  0  0  0
  1 39  1  0  0  0
  1 40  1  0  0  0
  5 41  1  0  0  0
  6 42  1  0  0  0
  7 43  1  0  0  0
  8 44  1  0  0  0
 12 45  1  0  0  0
 12 46  1  0  0  0
 12 47  1  0  0  0
 13 48  1  0  0  0
 14 49  1  0  0  0
 14 50  1  0  0  0
 14 51  1  0  0  0
 16 52  1  0  0  0
 23 53  1  0  0  0
 24 54  1  0  0  0
 26 55  1  0  0  0
 27 56  1  0  0  0
 28 57  1  0  0  0
 31 58  1  0  0  0
 33 59  1  0  0  0
 34 60  1  0  0  0
 37 61  1  0  0  0
M  END
$$$$
