1c1u_ligand
  -I-interpret- 

 34 37  0  0  0  0  0  0  0  0999 V2000
   11.7700  -11.8410   23.0670 C   0  0  0  0  0
   12.2330  -10.6420   22.4680 C   0  0  0  0  0
   13.2390  -10.6310   21.4990 C   0  0  0  0  0
   13.7490  -11.8610   21.1600 C   0  0  0  0  0
   13.3230  -13.0070   21.7150 C   0  0  0  0  0
   12.3410  -13.0620   22.6640 C   0  0  0  0  0
   10.8040  -11.8370   24.0380 C   0  0  0  0  0
   14.8610  -13.4670   20.3290 C   0  0  0  0  0
   15.9340  -14.2920   19.4750 C   0  0  0  0  0
   10.1410  -12.9340   24.2920 N   0  0  0  0  0
   10.5790  -10.7240   24.6980 N   0  0  0  0  0
   14.6910  -12.1700   20.3150 N   0  0  0  0  0
   14.0170  -13.9780   21.1910 N   0  0  0  0  0
   17.0350  -11.5170   14.3500 C   0  0  0  0  0
   16.5210  -12.6870   13.7390 C   0  0  0  0  0
   16.0800  -13.7840   14.5190 C   0  0  0  0  0
   16.1790  -13.6390   15.8930 C   0  0  0  0  0
   16.6740  -12.5160   16.4540 C   0  0  0  0  0
   17.1190  -11.4190   15.7430 C   0  0  0  0  0
   16.1400  -13.8320   17.9970 C   0  0  0  0  0
   15.8530  -14.4540   16.8710 N   0  0  0  0  0
   16.6380  -12.6680   17.7390 N   0  0  0  0  0
   11.7881   -9.6953   22.7746 H   0  0  0  0  0
   13.5958   -9.7079   21.0421 H   0  0  0  0  0
   12.0144  -14.0106   23.0901 H   0  0  0  0  0
   15.5621  -15.3154   19.4261 H   0  0  0  0  0
   16.8929  -14.1515   19.9739 H   0  0  0  0  0
    9.4264  -12.9411   25.0198 H   0  0  0  0  0
    9.8705  -10.7003   25.4314 H   0  0  0  0  0
   11.1127   -9.8833   24.4771 H   0  0  0  0  0
   17.3681  -10.6854   13.7291 H   0  0  0  0  0
   16.4640  -12.7440   12.6520 H   0  0  0  0  0
   15.6847  -14.6919   14.0633 H   0  0  0  0  0
   17.5119  -10.5305   16.2372 H   0  0  0  0  0
  7  1  1  0  0  0
  1  6  4  0  0  0
  1  2  4  0  0  0
  2  3  4  0  0  0
  3  4  4  0  0  0
  4 12  4  0  0  0
  4  5  4  0  0  0
  5 13  4  0  0  0
  6  5  4  0  0  0
 13  8  4  0  0  0
 12  8  4  0  0  0
  8  9  1  0  0  0
  9 20  1  0  0  0
 20 22  4  0  0  0
 20 21  4  0  0  0
 21 17  4  0  0  0
 17 18  4  0  0  0
 17 16  4  0  0  0
 16 15  4  0  0  0
 15 14  4  0  0  0
 14 19  4  0  0  0
 18 19  4  0  0  0
 22 18  4  0  0  0
  7 11  1  0  0  0
  7 10  2  0  0  0
  2 23  1  0  0  0
  3 24  1  0  0  0
  6 25  1  0  0  0
  9 26  1  0  0  0
  9 27  1  0  0  0
 10 28  1  0  0  0
 11 29  1  0  0  0
 11 30  1  0  0  0
 14 31  1  0  0  0
 15 32  1  0  0  0
 16 33  1  0  0  0
 19 34  1  0  0  0
M  END
$$$$
