6fmj_ligand
  -I-interpret- 

 56 58  0  0  0  0  0  0  0  0999 V2000
   10.6630   54.4820   95.8830 C   0  0  0  0  0
   11.6320   54.5530   94.7000 C   0  0  0  0  0
   11.9780   55.6390   94.2370 O   0  0  0  0  0
   12.0270   53.3630   94.2260 N   0  0  0  0  0
   12.9570   53.2560   93.0900 C   0  0  0  0  0
   13.4950   51.8220   93.0310 C   0  0  0  0  0
   12.2760   53.5580   91.7340 C   0  0  0  0  0
   10.6900   53.1310   91.5710 S   0  0  0  0  0
   12.9880   54.0720   90.7060 N   0  0  0  0  0
   14.4130   54.5020   90.7790 C   0  0  0  0  0
   14.6260   55.4320   89.6070 C   0  0  0  0  0
   14.2200   56.7550   89.9530 O   0  0  0  0  0
   13.6970   54.8950   88.5500 C   0  0  0  0  0
   12.4870   54.3550   89.3030 C   0  0  0  0  0
   12.0790   53.1890   88.6340 C   0  0  0  0  0
   12.5680   52.1050   88.9480 O   0  0  0  0  0
   11.1750   53.3200   87.6390 N   0  0  0  0  0
   10.7250   52.1550   86.8660 C   0  0  0  0  0
   11.5280   51.9860   85.7190 C   0  0  0  0  0
   11.5080   50.7470   85.0750 C   0  0  0  0  0
   12.2790   50.4990   83.9390 C   0  0  0  0  0
   12.3460   52.9800   85.1710 C   0  0  0  0  0
   13.1170   52.7320   84.0330 C   0  0  0  0  0
   13.0920   51.4950   83.3890 C   0  0  0  0  0
   13.8390   51.2920   82.2930 C   0  0  0  0  0
   15.4200   51.8230   82.1110 S   0  0  0  0  0
   15.6160   51.2240   80.5620 C   0  0  0  0  0
   14.4680   50.6390   80.2150 N   0  0  0  0  0
   13.5040   50.6780   81.1440 C   0  0  0  0  0
   12.1550   50.0280   80.8180 C   0  0  0  0  0
   11.0970   55.0002   96.7381 H   0  0  0  0  0
    9.7211   54.9569   95.6085 H   0  0  0  0  0
   10.4834   53.4385   96.1417 H   0  0  0  0  0
   11.6747   52.5113   94.6629 H   0  0  0  0  0
   13.7484   53.9889   93.2472 H   0  0  0  0  0
   12.6688   51.1322   92.8587 H   0  0  0  0  0
   14.2153   51.7387   92.2172 H   0  0  0  0  0
   13.9821   51.5789   93.9753 H   0  0  0  0  0
   15.0871   53.6467   90.7327 H   0  0  0  0  0
   14.6276   55.0011   91.7240 H   0  0  0  0  0
   15.6682   55.4765   89.2907 H   0  0  0  0  0
   14.3590   57.3377   89.2028 H   0  0  0  0  0
   14.1766   54.1167   87.9564 H   0  0  0  0  0
   13.4105   55.6709   87.8401 H   0  0  0  0  0
   11.6342   55.0323   89.3491 H   0  0  0  0  0
   10.7988   54.2427   87.4210 H   0  0  0  0  0
    9.6919   52.3122   86.5561 H   0  0  0  0  0
   10.8035   51.2639   87.4888 H   0  0  0  0  0
   10.8738   49.9534   85.4700 H   0  0  0  0  0
   12.2472   49.5141   83.4732 H   0  0  0  0  0
   12.3822   53.9635   85.6395 H   0  0  0  0  0
   13.7535   53.5242   83.6387 H   0  0  0  0  0
   16.5146   51.2977   79.9495 H   0  0  0  0  0
   11.9546   49.2311   81.5342 H   0  0  0  0  0
   11.3673   50.7790   80.8783 H   0  0  0  0  0
   12.1870   49.6132   79.8105 H   0  0  0  0  0
  1  2  1  0  0  0
  2  3  2  0  0  0
  2  4  1  0  0  0
  4  5  1  0  0  0
  5  6  1  0  0  0
  5  7  1  0  0  0
  7  8  2  0  0  0
  7  9  1  0  0  0
  9 10  1  0  0  0
  9 14  1  0  0  0
 10 11  1  0  0  0
 11 12  1  0  0  0
 11 13  1  0  0  0
 13 14  1  0  0  0
 14 15  1  0  0  0
 15 16  2  0  0  0
 15 17  1  0  0  0
 17 18  1  0  0  0
 18 19  1  0  0  0
 19 20  4  0  0  0
 19 22  4  0  0  0
 20 21  4  0  0  0
 21 24  4  0  0  0
 22 23  4  0  0  0
 23 24  4  0  0  0
 24 25  1  0  0  0
 25 26  4  0  0  0
 25 29  4  0  0  0
 26 27  4  0  0  0
 27 28  4  0  0  0
 28 29  4  0  0  0
 29 30  1  0  0  0
  1 31  1  0  0  0
  1 32  1  0  0  0
  1 33  1  0  0  0
  4 34  1  0  0  0
  5 35  1  0  0  0
  6 36  1  0  0  0
  6 37  1  0  0  0
  6 38  1  0  0  0
 10 39  1  0  0  0
 10 40  1  0  0  0
 11 41  1  0  0  0
 12 42  1  0  0  0
 13 43  1  0  0  0
 13 44  1  0  0  0
 14 45  1  0  0  0
 17 46  1  0  0  0
 18 47  1  0  0  0
 18 48  1  0  0  0
 20 49  1  0  0  0
 21 50  1  0  0  0
 22 51  1  0  0  0
 23 52  1  0  0  0
 27 53  1  0  0  0
 30 54  1  0  0  0
 30 55  1  0  0  0
 30 56  1  0  0  0
M  END
$$$$
