5jal_ligand
  -I-interpret- 

 24 25  0  0  0  0  0  0  0  0999 V2000
   16.2520    5.2770   -5.1130 C   0  0  0  0  0
   15.8010    6.4910   -5.5480 C   0  0  0  0  0
   17.9050    7.4400   -4.8910 C   0  0  0  0  0
   18.3490    6.1910   -4.4580 C   0  0  0  0  0
   17.4940    5.0980   -4.5700 C   0  0  0  0  0
   19.7020    5.9570   -3.8540 C   0  0  0  0  0
   19.7930    5.1660   -2.9160 O   0  0  0  0  0
   22.0880    6.3710   -3.6930 C   0  0  0  0  0
   23.0210    7.0730   -4.6250 C   0  0  0  0  0
   22.3910    7.6200   -5.6180 C   0  0  0  0  0
   20.9550    7.2320   -5.6530 C   0  0  0  0  0
   15.4290    4.1990   -5.2220 F   0  0  0  0  0
   16.6380    7.5860   -5.4420 C   0  0  0  0  0
   20.7860    6.6000   -4.3380 N   0  0  0  0  0
   14.8014    6.5941   -5.9701 H   0  0  0  0  0
   18.5570    8.3084   -4.7964 H   0  0  0  0  0
   17.8106    4.1123   -4.2292 H   0  0  0  0  0
   22.1358    6.7446   -2.6701 H   0  0  0  0  0
   22.3243    5.3155   -3.5579 H   0  0  0  0  0
   24.1012    7.1198   -4.4871 H   0  0  0  0  0
   22.8590    8.2864   -6.3426 H   0  0  0  0  0
   20.7019    6.5764   -6.4862 H   0  0  0  0  0
   20.2815    8.0724   -5.8213 H   0  0  0  0  0
   16.3042    8.5634   -5.7905 H   0  0  0  0  0
  1  2  4  0  0  0
  5  1  4  0  0  0
  1 12  1  0  0  0
 13  2  4  0  0  0
  4  3  4  0  0  0
  3 13  4  0  0  0
  4  5  4  0  0  0
  6  4  1  0  0  0
  6  7  2  0  0  0
 14  6  1  0  0  0
  8  9  1  0  0  0
  8 14  1  0  0  0
  9 10  2  0  0  0
 10 11  1  0  0  0
 11 14  1  0  0  0
  2 15  1  0  0  0
  3 16  1  0  0  0
  5 17  1  0  0  0
  8 18  1  0  0  0
  8 19  1  0  0  0
  9 20  1  0  0  0
 10 21  1  0  0  0
 11 22  1  0  0  0
 11 23  1  0  0  0
 13 24  1  0  0  0
M  END
$$$$
