6o9b_ligand
  -I-interpret- 

126126  0  0  0  0  0  0  0  0999 V2000
   25.1500   63.5210   35.8050 N   0  3  0  0  0
   26.2520   64.1700   35.0830 C   0  0  0  0  0
   26.8160   63.2440   34.0050 C   0  0  0  0  0
   26.7980   61.9810   34.1760 O   0  0  0  0  0
   27.4290   64.5900   35.9970 C   0  0  0  0  0
   27.9720   63.4290   36.6090 O   0  0  0  0  0
   26.9910   65.6320   37.0200 C   0  0  0  0  0
   27.2970   63.8660   32.9390 N   0  0  0  0  0
   27.8390   63.1290   31.7710 C   0  0  0  0  0
   29.2400   62.5430   32.0410 C   0  0  0  0  0
   29.9470   62.9910   32.9140 O   0  0  0  0  0
   27.8510   63.9620   30.4900 C   0  0  0  0  0
   28.5150   65.1820   30.7680 O   0  0  0  0  0
   26.4640   64.2820   29.9930 C   0  0  0  0  0
   29.5920   61.5100   31.3080 N   0  0  0  0  0
   30.8780   60.7720   31.4510 C   0  0  0  0  0
   31.9980   61.5400   30.7760 C   0  0  0  0  0
   31.7600   62.2030   29.7710 O   0  0  0  0  0
   30.7270   59.4130   30.8130 C   0  0  0  0  0
   33.2740   61.3520   31.2080 N   0  0  0  0  0
   34.3660   61.7600   30.3450 C   0  0  0  0  0
   34.2350   61.0600   28.9760 C   0  0  0  0  0
   33.8380   59.9230   28.8630 O   0  0  0  0  0
   35.6640   61.2890   31.0630 C   0  0  0  0  0
   35.2030   60.9280   32.4530 C   0  0  0  0  0
   33.7380   60.5160   32.3170 C   0  0  0  0  0
   34.5590   61.8020   27.9540 N   0  0  0  0  0
   34.5960   61.3610   26.5510 C   0  0  0  0  0
   35.6310   60.2160   26.3900 C   0  0  0  0  0
   36.7370   60.3040   26.9450 O   0  0  0  0  0
   34.8880   62.5410   25.7040 C   0  0  0  0  0
   35.1020   62.1670   24.3630 O   0  0  0  0  0
   35.2610   59.1740   25.6440 N   0  0  0  0  0
   36.2390   58.1640   25.2050 C   0  0  0  0  0
   37.1580   58.8050   24.1520 C   0  0  0  0  0
   36.8240   59.7960   23.5530 O   0  0  0  0  0
   35.5110   56.9470   24.6360 C   0  0  0  0  0
   34.5120   56.2530   25.5710 C   0  0  0  0  0
   34.1130   54.9050   25.0040 C   0  0  0  0  0
   35.0330   56.1010   26.9830 C   0  0  0  0  0
   38.3300   58.2290   23.9500 N   0  0  0  0  0
   39.2330   58.5960   22.8410 C   0  0  0  0  0
   38.5960   58.1620   21.5030 C   0  0  0  0  0
   37.5460   57.4180   21.4700 O   0  0  0  0  0
   40.6000   57.9370   23.0300 C   0  0  0  0  0
   40.4700   56.5110   23.1210 O   0  0  0  0  0
   39.2040   58.6050   20.4090 N   0  0  0  0  0
   38.6190   58.4650   19.0770 C   0  0  0  0  0
   38.3210   57.0200   18.7180 C   0  0  0  0  0
   39.0080   56.1620   19.1040 O   0  0  0  0  0
   37.2840   56.8080   17.9260 N   0  0  0  0  0
   37.0240   55.5070   17.3060 C   0  0  0  0  0
   38.0510   55.1910   16.1960 C   0  0  0  0  0
   38.0140   53.9940   15.7670 O   0  0  0  0  0
   35.5870   55.4820   16.7900 C   0  0  0  0  0
   34.5630   55.5750   17.8910 C   0  0  0  0  0
   33.1560   55.8140   17.4200 C   0  0  0  0  0
   32.2100   55.4840   18.5380 C   0  0  0  0  0
   30.8540   56.0580   18.3560 N   0  3  0  0  0
   38.8740   56.0730   15.7440 O   0  0  0  0  0
   24.4129   63.2721   35.1454 H   0  0  0  0  0
   25.4956   62.6784   36.2643 H   0  0  0  0  0
   24.7788   64.1633   36.5050 H   0  0  0  0  0
   25.8139   65.0679   34.6471 H   0  0  0  0  0
   28.2071   65.0639   35.3986 H   0  0  0  0  0
   28.2331   62.8029   35.9297 H   0  0  0  0  0
   26.2276   65.2034   37.6693 H   0  0  0  0  0
   27.8501   65.9354   37.6183 H   0  0  0  0  0
   26.5833   66.4996   36.5012 H   0  0  0  0  0
   27.2947   64.8858   32.9205 H   0  0  0  0  0
   27.1489   62.2997   31.6157 H   0  0  0  0  0
   28.3547   63.3822   29.7165 H   0  0  0  0  0
   28.5342   65.7225   29.9749 H   0  0  0  0  0
   25.9311   63.3543   29.7845 H   0  0  0  0  0
   25.9277   64.8472   30.7553 H   0  0  0  0  0
   26.5340   64.8751   29.0812 H   0  0  0  0  0
   28.9393   61.1918   30.5917 H   0  0  0  0  0
   31.1243   60.6611   32.5070 H   0  0  0  0  0
   29.9271   58.8657   31.3117 H   0  0  0  0  0
   30.4832   59.5336   29.7575 H   0  0  0  0  0
   31.6620   58.8613   30.9105 H   0  0  0  0  0
   34.3699   62.8358   30.1696 H   0  0  0  0  0
   36.4343   62.0601   31.0709 H   0  0  0  0  0
   36.1359   60.4489   30.5535 H   0  0  0  0  0
   35.3147   61.7693   33.1370 H   0  0  0  0  0
   35.8033   60.1197   32.8706 H   0  0  0  0  0
   33.6103   59.4498   32.1299 H   0  0  0  0  0
   33.1659   60.6660   33.2326 H   0  0  0  0  0
   34.8085   62.7726   28.1437 H   0  0  0  0  0
   33.6372   60.9514   26.2330 H   0  0  0  0  0
   35.7913   63.0225   26.0787 H   0  0  0  0  0
   34.0339   63.2171   25.7439 H   0  0  0  0  0
   35.2884   62.9498   23.8395 H   0  0  0  0  0
   34.2828   59.0748   25.3726 H   0  0  0  0  0
   36.8414   57.8242   26.0475 H   0  0  0  0  0
   36.2818   56.2089   24.4141 H   0  0  0  0  0
   34.9307   57.3100   23.7877 H   0  0  0  0  0
   33.6346   56.8969   25.6310 H   0  0  0  0  0
   33.6498   55.0457   24.0274 H   0  0  0  0  0
   34.9994   54.2791   24.9003 H   0  0  0  0  0
   33.4040   54.4242   25.6780 H   0  0  0  0  0
   35.9453   55.5046   26.9701 H   0  0  0  0  0
   35.2471   57.0859   27.3979 H   0  0  0  0  0
   34.2807   55.6033   27.5949 H   0  0  0  0  0
   38.6257   57.4940   24.5924 H   0  0  0  0  0
   39.3794   59.6761   22.8318 H   0  0  0  0  0
   41.0449   58.3090   23.9529 H   0  0  0  0  0
   41.2282   58.1786   22.1726 H   0  0  0  0  0
   41.3381   56.1186   23.2391 H   0  0  0  0  0
   40.1124   59.0596   20.5015 H   0  0  0  0  0
   39.3381   58.8486   18.3532 H   0  0  0  0  0
   37.6776   59.0142   19.0651 H   0  0  0  0  0
   36.6418   57.5783   17.7400 H   0  0  0  0  0
   37.1403   54.7206   18.0518 H   0  0  0  0  0
   35.4358   54.5328   16.2759 H   0  0  0  0  0
   35.4534   56.3461   16.1391 H   0  0  0  0  0
   34.8396   56.4278   18.5109 H   0  0  0  0  0
   34.5659   54.6161   18.4093 H   0  0  0  0  0
   32.9428   55.1832   16.5570 H   0  0  0  0  0
   33.0356   56.8577   17.1297 H   0  0  0  0  0
   32.6244   55.9072   19.4530 H   0  0  0  0  0
   32.1049   54.3995   18.5684 H   0  0  0  0  0
   30.2662   55.7962   19.1474 H   0  0  0  0  0
   30.9208   57.0744   18.3021 H   0  0  0  0  0
   30.4461   55.6967   17.4938 H   0  0  0  0  0
   38.7336   56.9047   16.2024 H   0  0  0  0  0
  1  2  1  0  0  0
  2  3  1  0  0  0
  2  5  1  0  0  0
  3  4  2  0  0  0
  3  8  1  0  0  0
  5  6  1  0  0  0
  5  7  1  0  0  0
  8  9  1  0  0  0
  9 10  1  0  0  0
  9 12  1  0  0  0
 10 11  2  0  0  0
 10 15  1  0  0  0
 12 13  1  0  0  0
 12 14  1  0  0  0
 15 16  1  0  0  0
 16 17  1  0  0  0
 16 19  1  0  0  0
 17 18  2  0  0  0
 17 20  1  0  0  0
 20 21  1  0  0  0
 20 26  1  0  0  0
 21 22  1  0  0  0
 21 24  1  0  0  0
 22 23  2  0  0  0
 22 27  1  0  0  0
 24 25  1  0  0  0
 25 26  1  0  0  0
 27 28  1  0  0  0
 28 29  1  0  0  0
 28 31  1  0  0  0
 29 30  2  0  0  0
 29 33  1  0  0  0
 31 32  1  0  0  0
 33 34  1  0  0  0
 34 35  1  0  0  0
 34 37  1  0  0  0
 35 36  2  0  0  0
 35 41  1  0  0  0
 37 38  1  0  0  0
 38 39  1  0  0  0
 38 40  1  0  0  0
 41 42  1  0  0  0
 42 43  1  0  0  0
 42 45  1  0  0  0
 43 44  2  0  0  0
 43 47  1  0  0  0
 45 46  1  0  0  0
 47 48  1  0  0  0
 48 49  1  0  0  0
 49 50  2  0  0  0
 49 51  1  0  0  0
 51 52  1  0  0  0
 52 53  1  0  0  0
 52 55  1  0  0  0
 53 54  2  0  0  0
 53 60  1  0  0  0
 55 56  1  0  0  0
 56 57  1  0  0  0
 57 58  1  0  0  0
 58 59  1  0  0  0
  1 61  1  0  0  0
  1 62  1  0  0  0
  1 63  1  0  0  0
  2 64  1  0  0  0
  5 65  1  0  0  0
  6 66  1  0  0  0
  7 67  1  0  0  0
  7 68  1  0  0  0
  7 69  1  0  0  0
  8 70  1  0  0  0
  9 71  1  0  0  0
 12 72  1  0  0  0
 13 73  1  0  0  0
 14 74  1  0  0  0
 14 75  1  0  0  0
 14 76  1  0  0  0
 15 77  1  0  0  0
 16 78  1  0  0  0
 19 79  1  0  0  0
 19 80  1  0  0  0
 19 81  1  0  0  0
 21 82  1  0  0  0
 24 83  1  0  0  0
 24 84  1  0  0  0
 25 85  1  0  0  0
 25 86  1  0  0  0
 26 87  1  0  0  0
 26 88  1  0  0  0
 27 89  1  0  0  0
 28 90  1  0  0  0
 31 91  1  0  0  0
 31 92  1  0  0  0
 32 93  1  0  0  0
 33 94  1  0  0  0
 34 95  1  0  0  0
 37 96  1  0  0  0
 37 97  1  0  0  0
 38 98  1  0  0  0
 39 99  1  0  0  0
 39100  1  0  0  0
 39101  1  0  0  0
 40102  1  0  0  0
 40103  1  0  0  0
 40104  1  0  0  0
 41105  1  0  0  0
 42106  1  0  0  0
 45107  1  0  0  0
 45108  1  0  0  0
 46109  1  0  0  0
 47110  1  0  0  0
 48111  1  0  0  0
 48112  1  0  0  0
 51113  1  0  0  0
 52114  1  0  0  0
 55115  1  0  0  0
 55116  1  0  0  0
 56117  1  0  0  0
 56118  1  0  0  0
 57119  1  0  0  0
 57120  1  0  0  0
 58121  1  0  0  0
 58122  1  0  0  0
 59123  1  0  0  0
 59124  1  0  0  0
 59125  1  0  0  0
 60126  1  0  0  0
M  END
$$$$
