### 
### Created by X-TOOL on Mon Aug  2 16:15:33 2021
### 

@<TRIPOS>MOLECULE
6o9b_ligand
  125   125     1     0     0
SMALL
GAST_HUCK


@<TRIPOS>ATOM
      1 N          25.1500   63.5210   35.8050 N.4       1 THR         0.2398
      2 CA         26.2520   64.1700   35.0830 C.3       1 THR         0.0910
      3 C          26.8160   63.2440   34.0050 C.2       1 THR         0.2293
      4 O          26.7980   61.9810   34.1760 O.2       1 THR        -0.3906
      5 CB         27.4290   64.5900   35.9970 C.3       1 THR         0.1120
      6 OG1        27.9720   63.4290   36.6090 O.3       1 THR        -0.3840
      7 CG2        26.9910   65.6320   37.0200 C.3       1 THR        -0.0314
      8 N          27.2970   63.8660   32.9390 N.am      1 THR        -0.2585
      9 CA         27.8390   63.1290   31.7710 C.3       1 THR         0.1566
     10 C          29.2400   62.5430   32.0410 C.2       1 THR         0.2065
     11 O          29.9470   62.9910   32.9140 O.2       1 THR        -0.3943
     12 CB         27.8510   63.9620   30.4900 C.3       1 THR         0.0924
     13 OG1        28.5150   65.1820   30.7680 O.3       1 THR        -0.3874
     14 CG2        26.4640   64.2820   29.9930 C.3       1 THR        -0.0346
     15 N          29.5920   61.5100   31.3080 N.am      1 THR        -0.2639
     16 CA         30.8780   60.7720   31.4510 C.3       1 THR         0.1284
     17 C          31.9980   61.5400   30.7760 C.2       1 THR         0.2061
     18 O          31.7600   62.2030   29.7710 O.2       1 THR        -0.3942
     19 CB         30.7270   59.4130   30.8130 C.3       1 THR        -0.0244
     20 N          33.2740   61.3520   31.2080 N.am      1 THR        -0.2498
     21 CA         34.3660   61.7600   30.3450 C.3       1 THR         0.1338
     22 C          34.2350   61.0600   28.9760 C.2       1 THR         0.2042
     23 O          33.8380   59.9230   28.8630 O.2       1 THR        -0.3944
     24 CB         35.6640   61.2890   31.0630 C.3       1 THR        -0.0104
     25 CG         35.2030   60.9280   32.4530 C.3       1 THR        -0.0281
     26 CD         33.7380   60.5160   32.3170 C.3       1 THR         0.0369
     27 N          34.5590   61.8020   27.9540 N.am      1 THR        -0.2616
     28 CA         34.5960   61.3610   26.5510 C.3       1 THR         0.1539
     29 C          35.6310   60.2160   26.3900 C.2       1 THR         0.2062
     30 O          36.7370   60.3040   26.9450 O.2       1 THR        -0.3943
     31 CB         34.8880   62.5410   25.7040 C.3       1 THR         0.0843
     32 OG         35.1020   62.1670   24.3630 O.3       1 THR        -0.3903
     33 N          35.2610   59.1740   25.6440 N.am      1 THR        -0.2636
     34 CA         36.2390   58.1640   25.2050 C.3       1 THR         0.1312
     35 C          37.1580   58.8050   24.1520 C.2       1 THR         0.2040
     36 O          36.8240   59.7960   23.5530 O.2       1 THR        -0.3944
     37 CB         35.5110   56.9470   24.6360 C.3       1 THR        -0.0101
     38 CG         34.5120   56.2530   25.5710 C.3       1 THR        -0.0425
     39 CD1        34.1130   54.9050   25.0040 C.3       1 THR        -0.0625
     40 CD2        35.0330   56.1010   26.9830 C.3       1 THR        -0.0625
     41 N          38.3300   58.2290   23.9500 N.am      1 THR        -0.2616
     42 CA         39.2330   58.5960   22.8410 C.3       1 THR         0.1539
     43 C          38.5960   58.1620   21.5030 C.2       1 THR         0.2060
     44 O          37.5460   57.4180   21.4700 O.2       1 THR        -0.3943
     45 CB         40.6000   57.9370   23.0300 C.3       1 THR         0.0843
     46 OG         40.4700   56.5110   23.1210 O.3       1 THR        -0.3903
     47 N          39.2040   58.6050   20.4090 N.am      1 THR        -0.2663
     48 CA         38.6190   58.4650   19.0770 C.3       1 THR         0.1201
     49 C          38.3210   57.0200   18.7180 C.2       1 THR         0.2002
     50 O          39.0080   56.1620   19.1040 O.2       1 THR        -0.3947
     51 N          37.2840   56.8080   17.9260 N.am      1 THR        -0.2697
     52 CA         37.0240   55.5070   17.3060 C.3       1 THR         0.0944
     53 C          38.0510   55.1910   16.1960 C.2       1 THR         0.0601
     54 O          38.0140   53.9940   15.7670 O.co2     1 THR        -0.5666
     55 CB         35.5870   55.4820   16.7900 C.3       1 THR        -0.0177
     56 CG         34.5630   55.5750   17.8910 C.3       1 THR        -0.0446
     57 CD         33.1560   55.8140   17.4200 C.3       1 THR        -0.0125
     58 CE         32.2100   55.4840   18.5380 C.3       1 THR        -0.0354
     59 NZ         30.8540   56.0580   18.3560 N.4       1 THR         0.2185
     60 OXT        38.8740   56.0730   15.7440 O.co2     1 THR        -0.5666
     61 H1         24.4209   63.2746   35.1540 H         1 THR         0.2016
     62 H2         24.7823   64.1549   36.4971 H         1 THR         0.2016
     63 H3         25.4904   62.6881   36.2593 H         1 THR         0.2016
     64 H4         25.8492   65.0731   34.6012 H         1 THR         0.1125
     65 H5         28.2101   65.0446   35.3699 H         1 THR         0.0674
     66 H6         28.2828   62.8340   35.9368 H         1 THR         0.2102
     67 H7         27.8480   65.9083   37.6519 H         1 THR         0.0258
     68 H8         26.1911   65.2146   37.6492 H         1 THR         0.0258
     69 H9         26.6180   66.5250   36.4972 H         1 THR         0.0258
     70 H10        27.2947   64.8658   32.9209 H         1 THR         0.1885
     71 H11        27.1622   62.2799   31.5952 H         1 THR         0.0826
     72 H12        28.3929   63.4099   29.7080 H         1 THR         0.0639
     73 H13        28.0511   65.6441   31.4563 H         1 THR         0.2101
     74 H14        26.5333   64.8806   29.0727 H         1 THR         0.0257
     75 H15        25.9217   64.8524   30.7614 H         1 THR         0.0257
     76 H16        25.9251   63.3465   29.7822 H         1 THR         0.0257
     77 H17        28.9521   61.1980   30.6057 H         1 THR         0.1883
     78 H18        31.1146   60.6517   32.5185 H         1 THR         0.0797
     79 H19        31.6701   58.8553   30.9108 H         1 THR         0.0277
     80 H20        30.4810   59.5333   29.7477 H         1 THR         0.0277
     81 H21        29.9200   58.8596   31.3155 H         1 THR         0.0277
     82 H22        34.3702   62.8516   30.2091 H         1 THR         0.0802
     83 H23        36.4081   62.0985   31.0960 H         1 THR         0.0313
     84 H24        36.0961   60.4142   30.5551 H         1 THR         0.0313
     85 H25        35.2955   61.7950   33.1236 H         1 THR         0.0287
     86 H26        35.7997   60.0930   32.8488 H         1 THR         0.0287
     87 H27        33.6469   59.4471   32.0739 H         1 THR         0.0524
     88 H28        33.1775   60.7316   33.2386 H         1 THR         0.0524
     89 H29        34.8036   62.7536   28.1400 H         1 THR         0.1884
     90 H30        33.6072   60.9691   26.2704 H         1 THR         0.0823
     91 H31        35.7905   63.0413   26.0850 H         1 THR         0.0606
     92 H32        34.0363   63.2355   25.7509 H         1 THR         0.0606
     93 H33        35.2865   62.9417   23.8449 H         1 THR         0.2097
     94 H34        34.3020   59.0768   25.3779 H         1 THR         0.1883
     95 H35        36.8450   57.8444   26.0656 H         1 THR         0.0800
     96 H36        36.2714   56.2059   24.3487 H         1 THR         0.0315
     97 H37        34.9609   57.2738   23.7412 H         1 THR         0.0315
     98 H38        33.6108   56.8820   25.6180 H         1 THR         0.0298
     99 H39        33.3974   54.4188   25.6833 H         1 THR         0.0232
    100 H40        35.0067   54.2723   24.8989 H         1 THR         0.0232
    101 H41        33.6453   55.0457   24.0184 H         1 THR         0.0232
    102 H42        35.3171   57.0879   27.3772 H         1 THR         0.0232
    103 H43        35.9124   55.4403   26.9802 H         1 THR         0.0232
    104 H44        34.2483   55.6644   27.6184 H         1 THR         0.0232
    105 H45        38.6199   57.5084   24.5798 H         1 THR         0.1884
    106 H46        39.3664   59.6879   22.8344 H         1 THR         0.0823
    107 H47        41.0588   58.3170   23.9547 H         1 THR         0.0606
    108 H48        41.2423   58.1865   22.1726 H         1 THR         0.0606
    109 H49        39.9183   56.2911   23.8625 H         1 THR         0.2097
    110 H50        40.0946   59.0507   20.4997 H         1 THR         0.1881
    111 H51        39.3242   58.8731   18.3380 H         1 THR         0.0763
    112 H52        37.6801   59.0371   19.0428 H         1 THR         0.0763
    113 H53        36.6544   57.5632   17.7437 H         1 THR         0.1875
    114 H54        37.1223   54.7314   18.0798 H         1 THR         0.0726
    115 H55        35.4278   54.5415   16.2422 H         1 THR         0.0305
    116 H56        35.4452   56.3326   16.1071 H         1 THR         0.0305
    117 H57        34.8478   56.4045   18.5549 H         1 THR         0.0269
    118 H58        34.5798   54.6311   18.4555 H         1 THR         0.0269
    119 H59        32.9421   55.1719   16.5529 H         1 THR         0.0317
    120 H60        33.0361   56.8692   17.1334 H         1 THR         0.0317
    121 H61        32.6303   55.8750   19.4763 H         1 THR         0.0813
    122 H62        32.1186   54.3899   18.6050 H         1 THR         0.0813
    123 H63        30.2722   55.7999   19.1376 H         1 THR         0.1994
    124 H64        30.4498   55.7016   17.5042 H         1 THR         0.1994
    125 H65        30.9187   57.0625   18.3026 H         1 THR         0.1994
@<TRIPOS>BOND
     1    1    2 1  
     2    2    3 1  
     3    2    5 1  
     4    3    4 2  
     5    3    8 am 
     6    5    6 1  
     7    5    7 1  
     8    8    9 1  
     9    9   10 1  
    10    9   12 1  
    11   10   11 2  
    12   10   15 am 
    13   12   13 1  
    14   12   14 1  
    15   15   16 1  
    16   16   17 1  
    17   16   19 1  
    18   17   18 2  
    19   17   20 am 
    20   20   21 1  
    21   20   26 1  
    22   21   22 1  
    23   21   24 1  
    24   22   23 2  
    25   22   27 am 
    26   24   25 1  
    27   25   26 1  
    28   27   28 1  
    29   28   29 1  
    30   28   31 1  
    31   29   30 2  
    32   29   33 am 
    33   31   32 1  
    34   33   34 1  
    35   34   35 1  
    36   34   37 1  
    37   35   36 2  
    38   35   41 am 
    39   37   38 1  
    40   38   39 1  
    41   38   40 1  
    42   41   42 1  
    43   42   43 1  
    44   42   45 1  
    45   43   44 2  
    46   43   47 am 
    47   45   46 1  
    48   47   48 1  
    49   48   49 1  
    50   49   50 2  
    51   49   51 am 
    52   51   52 1  
    53   52   53 1  
    54   52   55 1  
    55   53   54 ar 
    56   53   60 ar 
    57   55   56 1  
    58   56   57 1  
    59   57   58 1  
    60   58   59 1  
    61    1   61 1  
    62    1   62 1  
    63    1   63 1  
    64    2   64 1  
    65    5   65 1  
    66    6   66 1  
    67    7   67 1  
    68    7   68 1  
    69    7   69 1  
    70    8   70 1  
    71    9   71 1  
    72   12   72 1  
    73   13   73 1  
    74   14   74 1  
    75   14   75 1  
    76   14   76 1  
    77   15   77 1  
    78   16   78 1  
    79   19   79 1  
    80   19   80 1  
    81   19   81 1  
    82   21   82 1  
    83   24   83 1  
    84   24   84 1  
    85   25   85 1  
    86   25   86 1  
    87   26   87 1  
    88   26   88 1  
    89   27   89 1  
    90   28   90 1  
    91   31   91 1  
    92   31   92 1  
    93   32   93 1  
    94   33   94 1  
    95   34   95 1  
    96   37   96 1  
    97   37   97 1  
    98   38   98 1  
    99   39   99 1  
   100   39  100 1  
   101   39  101 1  
   102   40  102 1  
   103   40  103 1  
   104   40  104 1  
   105   41  105 1  
   106   42  106 1  
   107   45  107 1  
   108   45  108 1  
   109   46  109 1  
   110   47  110 1  
   111   48  111 1  
   112   48  112 1  
   113   51  113 1  
   114   52  114 1  
   115   55  115 1  
   116   55  116 1  
   117   56  117 1  
   118   56  118 1  
   119   57  119 1  
   120   57  120 1  
   121   58  121 1  
   122   58  122 1  
   123   59  123 1  
   124   59  124 1  
   125   59  125 1  
@<TRIPOS>SUBSTRUCTURE
     1 THR         1

