6r1x_ligand
  -I-interpret- 

 26 26  0  0  0  0  0  0  0  0999 V2000
   23.7550   17.3760   -6.8120 C   0  0  0  0  0
   25.4450   19.0610   -6.4190 C   0  0  0  0  0
   25.8040   20.4880   -6.5570 C   0  0  0  0  0
   26.6670   21.1700   -5.7830 C   0  0  0  0  0
   27.1030   22.5720   -6.1160 C   0  0  0  0  0
   27.2920   20.6350   -4.5180 C   0  0  0  0  0
   22.8590   15.7860   -8.2500 N   0  0  0  0  0
   24.2850   18.6950   -6.9870 N   0  0  0  0  0
   22.2360   17.3270   -6.6130 C   0  0  0  0  0
   25.0120   16.4910   -8.7120 O   0  0  0  0  0
   23.9890   16.5230   -8.0400 C   0  0  0  0  0
   21.8040   16.1550   -7.4470 C   0  0  0  0  0
   20.7600   15.5390   -7.3730 O   0  0  0  0  0
   26.1590   18.2560   -5.8260 O   0  0  0  0  0
   24.2713   17.0158   -5.9222 H   0  0  0  0  0
   25.3230   21.0410   -7.3638 H   0  0  0  0  0
   27.5927   22.5772   -7.0898 H   0  0  0  0  0
   26.2311   23.2256   -6.1429 H   0  0  0  0  0
   27.7998   22.9247   -5.3556 H   0  0  0  0  0
   26.5073   20.3881   -3.8029 H   0  0  0  0  0
   27.8690   19.7397   -4.7498 H   0  0  0  0  0
   27.9496   21.3921   -4.0908 H   0  0  0  0  0
   22.8022   15.0337   -8.9365 H   0  0  0  0  0
   23.7711   19.3693   -7.5542 H   0  0  0  0  0
   21.7475   18.2537   -6.9143 H   0  0  0  0  0
   21.9578   17.2160   -5.5650 H   0  0  0  0  0
  8  1  1  0  0  0
  1  9  1  0  0  0
  1 11  1  0  0  0
  2  3  1  0  0  0
  2  8  1  0  0  0
  2 14  2  0  0  0
  3  4  2  0  0  0
  4  5  1  0  0  0
  4  6  1  0  0  0
 11  7  1  0  0  0
  7 12  1  0  0  0
  9 12  1  0  0  0
 11 10  2  0  0  0
 12 13  2  0  0  0
  1 15  1  0  0  0
  3 16  1  0  0  0
  5 17  1  0  0  0
  5 18  1  0  0  0
  5 19  1  0  0  0
  6 20  1  0  0  0
  6 21  1  0  0  0
  6 22  1  0  0  0
  7 23  1  0  0  0
  8 24  1  0  0  0
  9 25  1  0  0  0
  9 26  1  0  0  0
M  END
$$$$
