4fs4_ligand
  -I-interpret- 

 45 47  0  0  0  0  0  0  0  0999 V2000
   30.4660    8.5250   23.5620 C   0  0  0  0  0
   29.3000    8.4980   22.7240 O   0  0  0  0  0
   29.1060    9.5460   21.8620 C   0  0  0  0  0
   30.0330   10.5620   21.6550 C   0  0  0  0  0
   29.7070   11.6140   20.8160 C   0  0  0  0  0
   28.4510   11.6800   20.2310 C   0  0  0  0  0
   27.4960   10.6850   20.4580 C   0  0  0  0  0
   27.8530    9.5940   21.2570 C   0  0  0  0  0
   26.1120   10.8140   19.9230 C   0  0  0  0  0
   25.8810   11.3960   18.6720 C   0  0  0  0  0
   24.5930   11.5800   18.2030 C   0  0  0  0  0
   23.5120   11.1780   18.9710 C   0  0  0  0  0
   23.7040   10.5790   20.2150 C   0  0  0  0  0
   22.4580   10.1240   20.9980 C   0  0  0  0  0
   21.5730    9.2100   20.0970 C   0  0  0  0  0
   21.6120   11.3560   21.4480 C   0  0  0  0  0
   22.2610   12.0320   22.6490 C   0  0  0  0  0
   22.3120   13.2530   22.7210 O   0  0  0  0  0
   22.8590   11.2290   23.5940 N   0  0  0  0  0
   23.4300   11.8660   24.7870 C   0  0  0  0  0
   22.8950    9.8030   23.3920 C   0  0  0  0  0
   23.0920    8.9910   24.4330 N   0  0  0  0  0
   22.7190    9.2600   22.1880 N   0  0  0  0  0
   25.0100   10.4020   20.6920 C   0  0  0  0  0
   31.3596    8.5504   22.9383 H   0  0  0  0  0
   30.4371    9.4126   24.1941 H   0  0  0  0  0
   30.4831    7.6324   24.1874 H   0  0  0  0  0
   31.0048   10.5304   22.1476 H   0  0  0  0  0
   30.4409   12.3942   20.6142 H   0  0  0  0  0
   28.2047   12.5217   19.5836 H   0  0  0  0  0
   27.1468    8.7773   21.4068 H   0  0  0  0  0
   26.7267   11.7083   18.0593 H   0  0  0  0  0
   24.4283   12.0412   17.2292 H   0  0  0  0  0
   22.4995   11.3320   18.5980 H   0  0  0  0  0
   21.2608    9.7661   19.2130 H   0  0  0  0  0
   22.1479    8.3352   19.7932 H   0  0  0  0  0
   20.6936    8.8919   20.6570 H   0  0  0  0  0
   20.6130   11.0197   21.7255 H   0  0  0  0  0
   21.5558   12.0690   20.6254 H   0  0  0  0  0
   22.9294   11.4834   25.6764 H   0  0  0  0  0
   24.4951   11.6410   24.8429 H   0  0  0  0  0
   23.2881   12.9449   24.7244 H   0  0  0  0  0
   23.2164    9.3807   25.3674 H   0  0  0  0  0
   22.7628    8.2469   22.0782 H   0  0  0  0  0
   25.1722    9.9414   21.6665 H   0  0  0  0  0
  1  2  1  0  0  0
  2  3  1  0  0  0
  3  4  4  0  0  0
  3  8  4  0  0  0
  4  5  4  0  0  0
  5  6  4  0  0  0
  6  7  4  0  0  0
  7  8  4  0  0  0
  7  9  1  0  0  0
  9 10  4  0  0  0
  9 24  4  0  0  0
 10 11  4  0  0  0
 11 12  4  0  0  0
 12 13  4  0  0  0
 13 14  1  0  0  0
 13 24  4  0  0  0
 14 15  1  0  0  0
 14 16  1  0  0  0
 14 23  1  0  0  0
 16 17  1  0  0  0
 17 18  2  0  0  0
 17 19  1  0  0  0
 19 20  1  0  0  0
 19 21  4  0  0  0
 21 22  2  0  0  0
 21 23  1  0  0  0
  1 25  1  0  0  0
  1 26  1  0  0  0
  1 27  1  0  0  0
  4 28  1  0  0  0
  5 29  1  0  0  0
  6 30  1  0  0  0
  8 31  1  0  0  0
 10 32  1  0  0  0
 11 33  1  0  0  0
 12 34  1  0  0  0
 15 35  1  0  0  0
 15 36  1  0  0  0
 15 37  1  0  0  0
 16 38  1  0  0  0
 16 39  1  0  0  0
 20 40  1  0  0  0
 20 41  1  0  0  0
 20 42  1  0  0  0
 22 43  1  0  0  0
 23 44  1  0  0  0
 24 45  1  0  0  0
M  END
$$$$
