4kbc_ligand
  -I-interpret- 

 31 33  0  0  0  0  0  0  0  0999 V2000
  -25.3380   -0.7920   41.4820 N   0  0  0  0  0
  -20.0940    1.4310   42.8570 C   0  0  0  0  0
  -19.3070   -1.5430   39.2390 N   0  0  0  0  0
  -20.2810   -0.9310   39.9790 C   0  0  0  0  0
  -19.9970    0.2590   40.7540 C   0  0  0  0  0
  -21.2290   -2.7700   39.0670 C   0  0  0  0  0
  -24.8960   -2.0650   41.3340 C   0  0  0  0  0
  -21.5020   -1.6710   39.8870 C   0  0  0  0  0
  -19.2440    1.2880   40.1910 C   0  0  0  0  0
  -18.9100    2.4000   40.9530 C   0  0  0  0  0
  -19.3280    2.4530   42.2860 C   0  0  0  0  0
  -20.4310    0.3360   42.0760 C   0  0  0  0  0
  -19.9000   -2.6410   38.6960 N   0  0  0  0  0
  -22.7800   -1.3620   40.4700 C   0  0  0  0  0
  -23.1950   -0.0420   40.6300 C   0  0  0  0  0
  -24.4750    0.1910   41.1390 C   0  0  0  0  0
  -23.6330   -2.3980   40.8460 C   0  0  0  0  0
  -25.8550   -3.1790   41.6960 C   0  0  0  0  0
  -26.1960   -3.8890   40.5440 O   0  0  0  0  0
  -18.9950    3.4990   43.0320 F   0  0  0  0  0
  -20.4195    1.4943   43.8953 H   0  0  0  0  0
  -21.9185   -3.5637   38.7792 H   0  0  0  0  0
  -18.9175    1.2200   39.1533 H   0  0  0  0  0
  -18.3325    3.2166   40.5196 H   0  0  0  0  0
  -21.0368   -0.4664   42.4970 H   0  0  0  0  0
  -22.5387    0.7870   40.3652 H   0  0  0  0  0
  -24.7966    1.2246   41.2670 H   0  0  0  0  0
  -23.3216   -3.4391   40.7610 H   0  0  0  0  0
  -26.7546   -2.7546   42.1419 H   0  0  0  0  0
  -25.3796   -3.8509   42.4106 H   0  0  0  0  0
  -26.8042   -4.5955   40.7732 H   0  0  0  0  0
  7  1  4  0  0  0
  1 16  4  0  0  0
  2 11  4  0  0  0
 12  2  4  0  0  0
  4  3  4  0  0  0
 13  3  4  0  0  0
  4  5  1  0  0  0
  8  4  4  0  0  0
  5  9  4  0  0  0
  5 12  4  0  0  0
  8  6  4  0  0  0
  6 13  4  0  0  0
 17  7  4  0  0  0
  7 18  1  0  0  0
 14  8  1  0  0  0
  9 10  4  0  0  0
 10 11  4  0  0  0
 11 20  1  0  0  0
 14 15  4  0  0  0
 14 17  4  0  0  0
 15 16  4  0  0  0
 18 19  1  0  0  0
  2 21  1  0  0  0
  6 22  1  0  0  0
  9 23  1  0  0  0
 10 24  1  0  0  0
 12 25  1  0  0  0
 15 26  1  0  0  0
 16 27  1  0  0  0
 17 28  1  0  0  0
 18 29  1  0  0  0
 18 30  1  0  0  0
 19 31  1  0  0  0
M  END
$$$$
