1oi9_ligand
  -I-interpret- 

 45 48  0  0  0  0  0  0  0  0999 V2000
    7.9430   43.7940   49.8040 C   0  0  0  0  0
    2.8750   40.0740   48.9520 O   0  0  0  0  0
   10.6830   46.4870   52.0230 C   0  0  0  0  0
    4.9330   45.9430   51.6860 C   0  0  0  0  0
    4.0360   46.1890   52.8930 C   0  0  0  0  0
    2.6070   45.7530   52.5480 C   0  0  0  0  0
    1.6340   45.8910   53.7310 C   0  0  0  0  0
    2.1950   45.3580   55.0540 C   0  0  0  0  0
    3.6340   45.8150   55.3170 C   0  0  0  0  0
    4.5400   45.4600   54.1420 C   0  0  0  0  0
    4.4640   41.3480   50.0690 C   0  0  0  0  0
    4.0280   40.7240   48.9090 C   0  0  0  0  0
    4.7660   40.8070   47.7340 C   0  0  0  0  0
    5.9740   41.5130   47.7500 C   0  0  0  0  0
    6.9900   44.4610   50.5040 N   0  0  0  0  0
    7.2750   45.4390   51.3880 C   0  0  0  0  0
    6.2950   46.1090   52.0700 O   0  0  0  0  0
    8.6840   45.7920   51.5760 C   0  0  0  0  0
    9.3440   46.7070   52.3490 N   0  0  0  0  0
   10.9380   45.4970   51.0720 N   0  0  0  0  0
    9.6430   45.0600   50.8010 C   0  0  0  0  0
    9.2660   44.0820   49.9480 N   0  0  0  0  0
    7.5750   42.8240   48.9260 N   0  0  0  0  0
    6.4030   42.1440   48.9250 C   0  0  0  0  0
    5.6420   42.0570   50.0830 C   0  0  0  0  0
    2.6921   39.6917   48.0906 H   0  0  0  0  0
   11.4875   47.0580   52.4864 H   0  0  0  0  0
    4.6869   46.6542   50.8975 H   0  0  0  0  0
    4.7788   44.9289   51.3174 H   0  0  0  0  0
    4.0524   47.2537   53.1258 H   0  0  0  0  0
    2.6400   44.7005   52.2664 H   0  0  0  0  0
    2.2478   46.3977   51.7459 H   0  0  0  0  0
    0.7461   45.3051   53.4934 H   0  0  0  0  0
    1.4333   46.9538   53.8662 H   0  0  0  0  0
    2.1952   44.2693   55.0016 H   0  0  0  0  0
    1.5703   45.7427   55.8602 H   0  0  0  0  0
    4.0043   45.3119   56.2102 H   0  0  0  0  0
    3.6398   46.8968   55.4503 H   0  0  0  0  0
    5.5638   45.7643   54.3596 H   0  0  0  0  0
    4.5222   44.3832   53.9738 H   0  0  0  0  0
    3.8669   41.2755   50.9780 H   0  0  0  0  0
    4.4111   40.3321   46.8193 H   0  0  0  0  0
    6.5820   41.5721   46.8472 H   0  0  0  0  0
    8.2466   42.5845   48.1966 H   0  0  0  0  0
    5.9762   42.5475   50.9972 H   0  0  0  0  0
  1 15  4  0  0  0
  1 22  4  0  0  0
 23  1  1  0  0  0
 12  2  1  0  0  0
  3 19  4  0  0  0
 20  3  4  0  0  0
  4  5  1  0  0  0
 17  4  1  0  0  0
  5  6  1  0  0  0
  5 10  1  0  0  0
  6  7  1  0  0  0
  7  8  1  0  0  0
  9  8  1  0  0  0
 10  9  1  0  0  0
 12 11  4  0  0  0
 11 25  4  0  0  0
 13 12  4  0  0  0
 14 13  4  0  0  0
 24 14  4  0  0  0
 15 16  4  0  0  0
 16 17  1  0  0  0
 16 18  4  0  0  0
 18 19  4  0  0  0
 21 18  4  0  0  0
 21 20  4  0  0  0
 22 21  4  0  0  0
 23 24  1  0  0  0
 24 25  4  0  0  0
  2 26  1  0  0  0
  3 27  1  0  0  0
  4 28  1  0  0  0
  4 29  1  0  0  0
  5 30  1  0  0  0
  6 31  1  0  0  0
  6 32  1  0  0  0
  7 33  1  0  0  0
  7 34  1  0  0  0
  8 35  1  0  0  0
  8 36  1  0  0  0
  9 37  1  0  0  0
  9 38  1  0  0  0
 10 39  1  0  0  0
 10 40  1  0  0  0
 11 41  1  0  0  0
 13 42  1  0  0  0
 14 43  1  0  0  0
 23 44  1  0  0  0
 25 45  1  0  0  0
M  END
$$$$
