4h71_ligand
  -I-interpret- 

 26 26  0  0  0  0  0  0  0  0999 V2000
    0.4830  -12.7000   -3.5560 O   0  0  0  0  0
   -0.5580  -12.6280   -2.6990 N   0  0  0  0  0
   -1.7810  -12.2590   -3.1830 C   0  0  0  0  0
   -1.9580  -11.9300   -4.5090 C   0  0  0  0  0
   -3.1950  -11.6110   -5.0010 C   0  0  0  0  0
   -4.2840  -11.5670   -4.0600 C   0  0  0  0  0
   -4.1170  -11.8170   -2.7660 C   0  0  0  0  0
   -2.9280  -12.1690   -2.3030 C   0  0  0  0  0
   -5.3740  -11.2970   -4.4260 O   0  0  0  0  0
   -2.9300  -12.4520   -0.8590 C   0  0  0  0  0
   -3.5480  -11.2240   -6.3350 C   0  0  0  0  0
   -2.3710  -10.9460   -7.2000 C   0  0  0  0  0
   -4.0860   -9.8890   -6.0020 C   0  0  0  0  0
    1.2711  -12.9694   -3.0785 H   0  0  0  0  0
   -1.0978  -11.9236   -5.1783 H   0  0  0  0  0
   -4.9622  -11.7319   -2.0830 H   0  0  0  0  0
   -3.2454  -11.5611   -0.3159 H   0  0  0  0  0
   -3.6206  -13.2693   -0.6512 H   0  0  0  0  0
   -1.9255  -12.7344   -0.5440 H   0  0  0  0  0
   -4.1563  -11.9649   -6.8537 H   0  0  0  0  0
   -2.6947  -10.4044   -8.0888 H   0  0  0  0  0
   -1.6503  -10.3429   -6.6478 H   0  0  0  0  0
   -1.9082  -11.8877   -7.4953 H   0  0  0  0  0
   -3.3237   -9.3116   -5.4788 H   0  0  0  0  0
   -4.3682   -9.3731   -6.9198 H   0  0  0  0  0
   -4.9616  -10.0007   -5.3625 H   0  0  0  0  0
  1  2  1  0  0  0
  2  3  2  0  0  0
  3  4  1  0  0  0
  3  8  1  0  0  0
  4  5  2  0  0  0
  5  6  1  0  0  0
  5 11  1  0  0  0
  6  7  1  0  0  0
  6  9  2  0  0  0
  7  8  2  0  0  0
  8 10  1  0  0  0
 11 12  1  0  0  0
 11 13  1  0  0  0
  1 14  1  0  0  0
  4 15  1  0  0  0
  7 16  1  0  0  0
 10 17  1  0  0  0
 10 18  1  0  0  0
 10 19  1  0  0  0
 11 20  1  0  0  0
 12 21  1  0  0  0
 12 22  1  0  0  0
 12 23  1  0  0  0
 13 24  1  0  0  0
 13 25  1  0  0  0
 13 26  1  0  0  0
M  END
$$$$
