5e1m_ligand
  -I-interpret- 

106107  0  0  0  0  0  0  0  0999 V2000
    7.0220   35.8150  -16.2800 N   0  3  0  0  0
    6.5920   35.5080  -14.8960 C   0  0  0  0  0
    5.6710   34.3150  -14.9160 C   0  0  0  0  0
    5.2530   33.8740  -15.9980 O   0  0  0  0  0
    5.7830   36.7710  -14.5110 C   0  0  0  0  0
    5.1670   37.2090  -15.8080 C   0  0  0  0  0
    6.2380   36.9330  -16.8650 C   0  0  0  0  0
    5.2740   33.8120  -13.7380 N   0  0  0  0  0
    4.1160   32.9220  -13.7450 C   0  0  0  0  0
    2.9590   33.6130  -14.4520 C   0  0  0  0  0
    2.8610   34.8460  -14.3560 O   0  0  0  0  0
    3.7990   32.7310  -12.2430 C   0  0  0  0  0
    4.4020   33.8850  -11.5880 C   0  0  0  0  0
    5.6470   34.2310  -12.3750 C   0  0  0  0  0
    2.1560   32.8560  -15.1900 N   0  0  0  0  0
    1.0600   33.4440  -15.9800 C   0  0  0  0  0
   -0.0510   32.4830  -16.3540 C   0  0  0  0  0
    0.1480   31.2620  -16.4910 O   0  0  0  0  0
    1.6300   34.1270  -17.2500 C   0  0  0  0  0
    2.1690   33.1080  -18.2410 C   0  0  0  0  0
    2.6260   33.7290  -19.5600 C   0  0  0  0  0
    3.7350   34.7450  -19.3910 C   0  0  0  0  0
    4.3300   35.2140  -20.6750 N   0  3  0  0  0
   -1.2460   33.0600  -16.5370 N   0  0  0  0  0
   -2.4110   32.2970  -16.9490 C   0  0  0  0  0
   -2.1660   31.5980  -18.2970 C   0  0  0  0  0
   -1.5750   32.1730  -19.2190 O   0  0  0  0  0
   -3.6420   33.1990  -17.0200 C   0  0  0  0  0
   -4.9440   32.4680  -17.3330 C   0  0  0  0  0
   -6.0820   33.4600  -17.4950 C   0  0  0  0  0
   -6.3810   34.0440  -16.1970 N   0  0  0  0  0
   -7.2340   33.5490  -15.2990 C   0  0  0  0  0
   -7.9470   32.4570  -15.5470 N   0  0  0  0  0
   -7.3890   34.1780  -14.1410 N   0  0  0  0  0
   -2.5940   30.3470  -18.3800 N   0  0  0  0  0
   -2.5210   29.5660  -19.6130 C   0  0  0  0  0
   -3.4000   30.2770  -20.6290 C   0  0  0  0  0
   -4.5760   30.5390  -20.3700 O   0  0  0  0  0
   -2.9880   28.1090  -19.4200 C   0  0  0  0  0
   -2.0420   27.3710  -18.4690 C   0  0  0  0  0
   -3.0570   27.3480  -20.7460 C   0  0  0  0  0
   -2.5180   25.9890  -18.0700 C   0  0  0  0  0
   -2.8000   30.6520  -21.7540 N   0  0  0  0  0
   -3.5230   31.2850  -22.8590 C   0  0  0  0  0
   -4.5000   30.3150  -23.5010 C   0  0  0  0  0
   -4.2850   29.1070  -23.5000 O   0  0  0  0  0
   -2.5380   31.7800  -23.9060 C   0  0  0  0  0
   -5.5280   30.7470  -24.0330 O   0  0  0  0  0
    6.8741   34.9847  -16.8537 H   0  0  0  0  0
    8.0042   36.0891  -16.2576 H   0  0  0  0  0
    7.4131   35.2827  -14.2155 H   0  0  0  0  0
    6.4080   37.5450  -14.0655 H   0  0  0  0  0
    5.0359   36.5680  -13.7437 H   0  0  0  0  0
    4.8815   38.2607  -15.7859 H   0  0  0  0  0
    4.2422   36.6720  -16.0188 H   0  0  0  0  0
    5.8117   36.6813  -17.8361 H   0  0  0  0  0
    6.8521   37.8084  -17.0762 H   0  0  0  0  0
    4.2893   31.9766  -14.2591 H   0  0  0  0  0
    4.1973   31.7916  -11.8596 H   0  0  0  0  0
    2.7264   32.6728  -12.0579 H   0  0  0  0  0
    4.6490   33.6576  -10.5510 H   0  0  0  0  0
    3.7090   34.7261  -11.5682 H   0  0  0  0  0
    5.9222   35.2835  -12.3070 H   0  0  0  0  0
    6.5446   33.7376  -12.0021 H   0  0  0  0  0
    2.3007   31.8465  -15.2106 H   0  0  0  0  0
    0.5913   34.1777  -15.3242 H   0  0  0  0  0
    2.4484   34.7816  -16.9505 H   0  0  0  0  0
    0.8258   34.6831  -17.7317 H   0  0  0  0  0
    1.3623   32.4109  -18.4677 H   0  0  0  0  0
    3.0362   32.6314  -17.7839 H   0  0  0  0  0
    1.7701   34.2449  -19.9952 H   0  0  0  0  0
    3.0092   32.9244  -20.1876 H   0  0  0  0  0
    4.5309   34.2629  -18.8233 H   0  0  0  0  0
    3.3028   35.6159  -18.8982 H   0  0  0  0  0
    5.0658   35.8928  -20.4795 H   0  0  0  0  0
    4.7244   34.4181  -21.1763 H   0  0  0  0  0
    3.6054   35.6509  -21.2446 H   0  0  0  0  0
   -1.3404   34.0638  -16.3826 H   0  0  0  0  0
   -2.5929   31.5242  -16.2021 H   0  0  0  0  0
   -3.4716   33.9085  -17.8298 H   0  0  0  0  0
   -3.7604   33.6554  -16.0372 H   0  0  0  0  0
   -5.1774   31.7909  -16.5113 H   0  0  0  0  0
   -4.8238   31.9107  -18.2620 H   0  0  0  0  0
   -6.9640   32.9510  -17.8837 H   0  0  0  0  0
   -5.7929   34.2435  -18.1954 H   0  0  0  0  0
   -5.8961   34.9073  -15.9521 H   0  0  0  0  0
   -8.6062   32.1092  -14.8506 H   0  0  0  0  0
   -7.8357   31.9657  -16.4339 H   0  0  0  0  0
   -6.8595   35.0280  -13.9475 H   0  0  0  0  0
   -2.9913   29.9105  -17.5481 H   0  0  0  0  0
   -1.4855   29.5022  -19.9472 H   0  0  0  0  0
   -3.9912   28.1485  -18.9956 H   0  0  0  0  0
   -1.9748   27.9642  -17.5570 H   0  0  0  0  0
   -1.0932   27.2466  -18.9909 H   0  0  0  0  0
   -3.7608   27.8459  -21.4130 H   0  0  0  0  0
   -2.0688   27.3310  -21.2056 H   0  0  0  0  0
   -3.3904   26.3270  -20.5605 H   0  0  0  0  0
   -3.4812   26.0693  -17.5662 H   0  0  0  0  0
   -2.6233   25.3709  -18.9616 H   0  0  0  0  0
   -1.7907   25.5361  -17.3962 H   0  0  0  0  0
   -1.7972   30.4928  -21.8515 H   0  0  0  0  0
   -4.0861   32.1268  -22.4561 H   0  0  0  0  0
   -1.8636   32.5071  -23.4536 H   0  0  0  0  0
   -1.9621   30.9372  -24.2884 H   0  0  0  0  0
   -3.0845   32.2493  -24.7240 H   0  0  0  0  0
   -5.5514   31.7033  -23.9518 H   0  0  0  0  0
  1  2  1  0  0  0
  1  7  1  0  0  0
  2  3  1  0  0  0
  2  5  1  0  0  0
  3  4  2  0  0  0
  3  8  1  0  0  0
  5  6  1  0  0  0
  6  7  1  0  0  0
  8  9  1  0  0  0
  8 14  1  0  0  0
  9 10  1  0  0  0
  9 12  1  0  0  0
 10 11  2  0  0  0
 10 15  1  0  0  0
 12 13  1  0  0  0
 13 14  1  0  0  0
 15 16  1  0  0  0
 16 17  1  0  0  0
 16 19  1  0  0  0
 17 18  2  0  0  0
 17 24  1  0  0  0
 19 20  1  0  0  0
 20 21  1  0  0  0
 21 22  1  0  0  0
 22 23  1  0  0  0
 24 25  1  0  0  0
 25 26  1  0  0  0
 25 28  1  0  0  0
 26 27  2  0  0  0
 26 35  1  0  0  0
 28 29  1  0  0  0
 29 30  1  0  0  0
 30 31  1  0  0  0
 31 32  1  0  0  0
 32 33  1  0  0  0
 32 34  2  0  0  0
 35 36  1  0  0  0
 36 37  1  0  0  0
 36 39  1  0  0  0
 37 38  2  0  0  0
 37 43  1  0  0  0
 39 40  1  0  0  0
 39 41  1  0  0  0
 40 42  1  0  0  0
 43 44  1  0  0  0
 44 45  1  0  0  0
 44 47  1  0  0  0
 45 46  2  0  0  0
 45 48  1  0  0  0
  1 49  1  0  0  0
  1 50  1  0  0  0
  2 51  1  0  0  0
  5 52  1  0  0  0
  5 53  1  0  0  0
  6 54  1  0  0  0
  6 55  1  0  0  0
  7 56  1  0  0  0
  7 57  1  0  0  0
  9 58  1  0  0  0
 12 59  1  0  0  0
 12 60  1  0  0  0
 13 61  1  0  0  0
 13 62  1  0  0  0
 14 63  1  0  0  0
 14 64  1  0  0  0
 15 65  1  0  0  0
 16 66  1  0  0  0
 19 67  1  0  0  0
 19 68  1  0  0  0
 20 69  1  0  0  0
 20 70  1  0  0  0
 21 71  1  0  0  0
 21 72  1  0  0  0
 22 73  1  0  0  0
 22 74  1  0  0  0
 23 75  1  0  0  0
 23 76  1  0  0  0
 23 77  1  0  0  0
 24 78  1  0  0  0
 25 79  1  0  0  0
 28 80  1  0  0  0
 28 81  1  0  0  0
 29 82  1  0  0  0
 29 83  1  0  0  0
 30 84  1  0  0  0
 30 85  1  0  0  0
 31 86  1  0  0  0
 33 87  1  0  0  0
 33 88  1  0  0  0
 34 89  1  0  0  0
 35 90  1  0  0  0
 36 91  1  0  0  0
 39 92  1  0  0  0
 40 93  1  0  0  0
 40 94  1  0  0  0
 41 95  1  0  0  0
 41 96  1  0  0  0
 41 97  1  0  0  0
 42 98  1  0  0  0
 42 99  1  0  0  0
 42100  1  0  0  0
 43101  1  0  0  0
 44102  1  0  0  0
 47103  1  0  0  0
 47104  1  0  0  0
 47105  1  0  0  0
 48106  1  0  0  0
M  END
$$$$
