### 
### Created by X-TOOL on Mon Sep 10 21:13:21 2018
### 

@<TRIPOS>MOLECULE
5e1m_ligand
  106   107     1     0     0
SMALL
GAST_HUCK


@<TRIPOS>ATOM
      1 N           7.0220   35.8150  -16.2800 N.4       1 PRO         0.2461
      2 CA          6.5920   35.5080  -14.8960 C.3       1 PRO         0.0671
      3 C           5.6710   34.3150  -14.9160 C.2       1 PRO         0.2293
      4 O           5.2530   33.8740  -15.9980 O.2       1 PRO        -0.3905
      5 CB          5.7830   36.7710  -14.5110 C.3       1 PRO         0.0127
      6 CG          5.1670   37.2090  -15.8080 C.3       1 PRO        -0.0053
      7 CD          6.2380   36.9330  -16.8650 C.3       1 PRO        -0.0313
      8 N           5.2740   33.8120  -13.7380 N.am      1 PRO        -0.2471
      9 CA          4.1160   32.9220  -13.7450 C.3       1 PRO         0.1339
     10 C           2.9590   33.6130  -14.4520 C.2       1 PRO         0.2041
     11 O           2.8610   34.8460  -14.3560 O.2       1 PRO        -0.3944
     12 CB          3.7990   32.7310  -12.2430 C.3       1 PRO        -0.0104
     13 CG          4.4020   33.8850  -11.5880 C.3       1 PRO        -0.0281
     14 CD          5.6470   34.2310  -12.3750 C.3       1 PRO         0.0371
     15 N           2.1560   32.8560  -15.1900 N.am      1 LYS        -0.2637
     16 CA          1.0600   33.4440  -15.9800 C.3       1 LYS         0.1310
     17 C          -0.0510   32.4830  -16.3540 C.2       1 LYS         0.2039
     18 O           0.1480   31.2620  -16.4910 O.2       1 LYS        -0.3944
     19 CB          1.6300   34.1270  -17.2500 C.3       1 LYS        -0.0122
     20 CG          2.1690   33.1080  -18.2410 C.3       1 LYS        -0.0440
     21 CD          2.6260   33.7290  -19.5600 C.3       1 LYS        -0.0124
     22 CE          3.7350   34.7450  -19.3910 C.3       1 LYS        -0.0354
     23 NZ          4.3300   35.2140  -20.6750 N.4       1 LYS         0.2185
     24 N          -1.2460   33.0600  -16.5370 N.am      1 ARG        -0.2637
     25 CA         -2.4110   32.2970  -16.9490 C.3       1 ARG         0.1311
     26 C          -2.1660   31.5980  -18.2970 C.2       1 ARG         0.2039
     27 O          -1.5750   32.1730  -19.2190 O.2       1 ARG        -0.3944
     28 CB         -3.6420   33.1990  -17.0200 C.3       1 ARG        -0.0092
     29 CG         -4.9440   32.4680  -17.3330 C.3       1 ARG        -0.0156
     30 CD         -6.0820   33.4600  -17.4950 C.3       1 ARG         0.0627
     31 NE         -6.3810   34.0440  -16.1970 N.pl3     1 ARG        -0.2723
     32 CZ         -7.2340   33.5490  -15.2990 C.cat     1 ARG         0.2882
     33 NH1        -7.9470   32.4570  -15.5470 N.pl3     1 ARG        -0.2849
     34 NH2        -7.3890   34.1780  -14.1410 N.pl3     1 ARG        -0.2849
     35 N          -2.5940   30.3470  -18.3800 N.am      1 ILE        -0.2635
     36 CA         -2.5210   29.5660  -19.6130 C.3       1 ILE         0.1335
     37 C          -3.4000   30.2770  -20.6290 C.2       1 ILE         0.2036
     38 O          -4.5760   30.5390  -20.3700 O.2       1 ILE        -0.3944
     39 CB         -2.9880   28.1090  -19.4200 C.3       1 ILE        -0.0037
     40 CG1        -2.0420   27.3710  -18.4690 C.3       1 ILE        -0.0491
     41 CG2        -3.0570   27.3480  -20.7460 C.3       1 ILE        -0.0582
     42 CD1        -2.5180   25.9890  -18.0700 C.3       1 ILE        -0.0648
     43 N          -2.8000   30.6520  -21.7540 N.am      1 ALA        -0.2697
     44 CA         -3.5230   31.2850  -22.8590 C.3       1 ALA         0.0916
     45 C          -4.5000   30.3150  -23.5010 C.2       1 ALA         0.0598
     46 O          -4.2850   29.1070  -23.5000 O.co2     1 ALA        -0.5666
     47 CB         -2.5380   31.7800  -23.9060 C.3       1 ALA        -0.0300
     48 OXT        -5.5280   30.7470  -24.0330 O.co2     1 ALA        -0.5666
     49 H1          6.8956   34.9939  -16.8509 H         1 PRO         0.2035
     50 H2          7.9971   36.0704  -16.2699 H         1 PRO         0.2035
     51 H3          7.4441   35.3361  -14.2219 H         1 PRO         0.1099
     52 H4          6.4440   37.5521  -14.1073 H         1 PRO         0.0347
     53 H5          5.0067   36.5287  -13.7703 H         1 PRO         0.0347
     54 H6          4.9207   38.2806  -15.7772 H         1 PRO         0.0320
     55 H7          4.2563   36.6294  -16.0192 H         1 PRO         0.0320
     56 H8          5.7805   36.6350  -17.8199 H         1 PRO         0.0814
     57 H9          6.8722   37.8178  -17.0226 H         1 PRO         0.0814
     58 H10         4.3430   31.9626  -14.2328 H         1 PRO         0.0802
     59 H11         4.2428   31.7967  -11.8686 H         1 PRO         0.0313
     60 H12         2.7120   32.7138  -12.0751 H         1 PRO         0.0313
     61 H13         4.6669   33.6360  -10.5498 H         1 PRO         0.0287
     62 H14         3.7017   34.7333  -11.5944 H         1 PRO         0.0287
     63 H15         5.8599   35.3094  -12.3325 H         1 PRO         0.0524
     64 H16         6.5198   33.6702  -12.0092 H         1 PRO         0.0524
     65 H17         2.2979   31.8663  -15.2102 H         1 LYS         0.1883
     66 H18         0.6038   34.2264  -15.3557 H         1 LYS         0.0800
     67 H19         2.4454   34.8040  -16.9555 H         1 LYS         0.0312
     68 H20         0.8294   34.7059  -17.7336 H         1 LYS         0.0312
     69 H21         1.3757   32.3769  -18.4560 H         1 LYS         0.0269
     70 H22         3.0264   32.5943  -17.7817 H         1 LYS         0.0269
     71 H23         1.7644   34.2273  -20.0283 H         1 LYS         0.0317
     72 H24         2.9867   32.9248  -20.2181 H         1 LYS         0.0317
     73 H25         4.5328   34.2886  -18.7867 H         1 LYS         0.0813
     74 H26         3.3265   35.6176  -18.8602 H         1 LYS         0.0813
     75 H27         5.0574   35.8849  -20.4830 H         1 LYS         0.1994
     76 H28         3.6148   35.6460  -21.2388 H         1 LYS         0.1994
     77 H29         4.7202   34.4282  -21.1714 H         1 LYS         0.1994
     78 H30        -1.3385   34.0441  -16.3856 H         1 ARG         0.1883
     79 H31        -2.5974   31.5212  -16.1917 H         1 ARG         0.0800
     80 H32        -3.4726   33.9506  -17.8051 H         1 ARG         0.0313
     81 H33        -3.7556   33.7026  -16.0487 H         1 ARG         0.0313
     82 H34        -5.1793   31.7779  -16.5094 H         1 ARG         0.0301
     83 H35        -4.8244   31.8981  -18.2662 H         1 ARG         0.0301
     84 H36        -6.9721   32.9421  -17.8815 H         1 ARG         0.0689
     85 H37        -5.7848   34.2525  -18.1976 H         1 ARG         0.0689
     86 H38        -5.8914   34.9158  -15.9497 H         1 ARG         0.2642
     87 H39        -8.5989   32.0952  -14.8364 H         1 ARG         0.2615
     88 H40        -7.8483   31.9715  -16.4500 H         1 ARG         0.2615
     89 H41        -6.8409   35.0261  -13.9382 H         1 ARG         0.2615
     90 H42        -8.0574   33.8181  -13.4449 H         1 ARG         0.2615
     91 H43        -2.9835   29.9190  -17.5644 H         1 ILE         0.1883
     92 H44        -1.4809   29.5524  -19.9707 H         1 ILE         0.0803
     93 H45        -3.9943   28.1265  -18.9761 H         1 ILE         0.0345
     94 H46        -1.9302   27.9745  -17.5561 H         1 ILE         0.0267
     95 H47        -1.0648   27.2700  -18.9637 H         1 ILE         0.0267
     96 H48        -3.7353   27.8726  -21.4349 H         1 ILE         0.0235
     97 H49        -3.4330   26.3301  -20.5655 H         1 ILE         0.0235
     98 H50        -2.0523   27.2943  -21.1907 H         1 ILE         0.0235
     99 H51        -1.7848   25.5309  -17.3899 H         1 ILE         0.0230
    100 H52        -2.6246   25.3641  -18.9690 H         1 ILE         0.0230
    101 H53        -3.4901   26.0686  -17.5614 H         1 ILE         0.0230
    102 H54        -1.8169   30.4959  -21.8496 H         1 ALA         0.1875
    103 H55        -4.0862   32.1435  -22.4643 H         1 ALA         0.0723
    104 H56        -3.0884   32.2539  -24.7321 H         1 ALA         0.0270
    105 H57        -1.9562   30.9304  -24.2928 H         1 ALA         0.0270
    106 H58        -1.8568   32.5139  -23.4507 H         1 ALA         0.0270
@<TRIPOS>BOND
     1    1    2 1  
     2    1    7 1  
     3    2    3 1  
     4    2    5 1  
     5    3    4 2  
     6    3    8 am 
     7    5    6 1  
     8    6    7 1  
     9    8    9 1  
    10    8   14 1  
    11    9   10 1  
    12    9   12 1  
    13   10   11 2  
    14   10   15 am 
    15   12   13 1  
    16   13   14 1  
    17   15   16 1  
    18   16   17 1  
    19   16   19 1  
    20   17   18 2  
    21   17   24 am 
    22   19   20 1  
    23   20   21 1  
    24   21   22 1  
    25   22   23 1  
    26   24   25 1  
    27   25   26 1  
    28   25   28 1  
    29   26   27 2  
    30   26   35 am 
    31   28   29 1  
    32   29   30 1  
    33   30   31 1  
    34   31   32 ar 
    35   32   33 ar 
    36   32   34 ar 
    37   35   36 1  
    38   36   37 1  
    39   36   39 1  
    40   37   38 2  
    41   37   43 am 
    42   39   40 1  
    43   39   41 1  
    44   40   42 1  
    45   43   44 1  
    46   44   45 1  
    47   44   47 1  
    48   45   46 ar 
    49   45   48 ar 
    50    1   49 1  
    51    1   50 1  
    52    2   51 1  
    53    5   52 1  
    54    5   53 1  
    55    6   54 1  
    56    6   55 1  
    57    7   56 1  
    58    7   57 1  
    59    9   58 1  
    60   12   59 1  
    61   12   60 1  
    62   13   61 1  
    63   13   62 1  
    64   14   63 1  
    65   14   64 1  
    66   15   65 1  
    67   16   66 1  
    68   19   67 1  
    69   19   68 1  
    70   20   69 1  
    71   20   70 1  
    72   21   71 1  
    73   21   72 1  
    74   22   73 1  
    75   22   74 1  
    76   23   75 1  
    77   23   76 1  
    78   23   77 1  
    79   24   78 1  
    80   25   79 1  
    81   28   80 1  
    82   28   81 1  
    83   29   82 1  
    84   29   83 1  
    85   30   84 1  
    86   30   85 1  
    87   31   86 1  
    88   33   87 1  
    89   33   88 1  
    90   34   89 1  
    91   34   90 1  
    92   35   91 1  
    93   36   92 1  
    94   39   93 1  
    95   40   94 1  
    96   40   95 1  
    97   41   96 1  
    98   41   97 1  
    99   41   98 1  
   100   42   99 1  
   101   42  100 1  
   102   42  101 1  
   103   43  102 1  
   104   44  103 1  
   105   47  104 1  
   106   47  105 1  
   107   47  106 1  
@<TRIPOS>SUBSTRUCTURE
     1 PRO         1

