2ll7_ligand
  -I-interpret- 

278278  0  0  0  0  0  0  0  0999 V2000
   -5.3830   -7.5880   -4.1030 N   0  3  0  0  0
   -5.9530   -6.3330   -3.5400 C   0  0  0  0  0
   -7.4220   -6.5240   -3.1460 C   0  0  0  0  0
   -8.3080   -6.5580   -4.0090 O   0  0  0  0  0
   -5.7970   -5.1600   -4.5390 C   0  0  0  0  0
   -6.2160   -5.4670   -5.9790 C   0  0  0  0  0
   -6.0020   -4.2670   -6.8870 C   0  0  0  0  0
   -6.4120   -4.5710   -8.3190 C   0  0  0  0  0
   -6.1960   -3.4030   -9.2170 N   0  3  0  0  0
   -7.6710   -6.6690   -1.8320 N   0  0  0  0  0
   -9.0330   -6.8650   -1.3090 C   0  0  0  0  0
   -9.1910   -6.3120    0.1100 C   0  0  0  0  0
  -10.2090   -5.6900    0.4240 O   0  0  0  0  0
   -9.4140   -8.3560   -1.3120 C   0  0  0  0  0
   -9.8040   -8.8910   -2.6810 C   0  0  0  0  0
  -10.2110  -10.3540   -2.6110 C   0  0  0  0  0
  -10.6250  -10.8830   -3.9750 C   0  0  0  0  0
  -11.0430  -12.3110   -3.9120 N   0  3  0  0  0
   -8.1770   -6.5430    0.9610 N   0  0  0  0  0
   -8.2080   -6.1100    2.3680 C   0  0  0  0  0
   -6.7870   -5.8900    2.9080 C   0  0  0  0  0
   -6.4690   -4.8200    3.4330 O   0  0  0  0  0
   -8.9590   -7.1670    3.2370 C   0  0  0  0  0
  -10.2680   -7.3810    2.6960 O   0  0  0  0  0
   -9.0870   -6.7530    4.7030 C   0  0  0  0  0
   -5.9580   -6.9200    2.7670 N   0  0  0  0  0
   -4.5750   -6.9020    3.2260 C   0  0  0  0  0
   -3.6260   -7.0900    2.0410 C   0  0  0  0  0
   -2.4100   -6.9220    2.1710 O   0  0  0  0  0
   -4.3560   -8.0070    4.2670 C   0  0  0  0  0
   -3.2580   -7.7200    5.2540 C   0  0  0  0  0
   -3.5320   -7.0600    6.4400 C   0  0  0  0  0
   -1.9550   -8.1180    4.9970 C   0  0  0  0  0
   -2.5280   -6.8020    7.3530 C   0  0  0  0  0
   -0.9460   -7.8610    5.9060 C   0  0  0  0  0
   -1.2340   -7.2020    7.0860 C   0  0  0  0  0
   -4.2080   -7.4460    0.8860 N   0  0  0  0  0
   -3.4570   -7.6520   -0.3560 C   0  0  0  0  0
   -3.1690   -6.3130   -1.0360 C   0  0  0  0  0
   -2.1240   -6.1430   -1.6690 O   0  0  0  0  0
   -4.2370   -8.5650   -1.3090 C   0  0  0  0  0
   -4.3670  -10.0020   -0.8240 C   0  0  0  0  0
   -5.0930  -10.8710   -1.8410 C   0  0  0  0  0
   -5.2240  -12.3110   -1.3640 C   0  0  0  0  0
   -6.2350  -12.4550   -0.2780 N   0  3  0  0  0
   -4.1110   -5.3660   -0.8860 N   0  0  0  0  0
   -3.9790   -4.0200   -1.4550 C   0  0  0  0  0
   -3.0080   -3.1750   -0.6250 C   0  0  0  0  0
   -2.2280   -2.3950   -1.1780 O   0  0  0  0  0
   -5.3500   -3.3330   -1.5270 C   0  0  0  0  0
   -5.4700   -2.2860   -2.6310 C   0  0  0  0  0
   -4.8260   -0.9560   -2.2710 C   0  0  0  0  0
   -5.3890   -0.2320   -1.4240 O   0  0  0  0  0
   -3.7570   -0.6420   -2.8370 O   0  0  0  0  0
   -3.0720   -3.3410    0.7060 N   0  0  0  0  0
   -2.1870   -2.6250    1.6330 C   0  0  0  0  0
   -0.7180   -3.0420    1.3820 C   0  0  0  0  0
    0.2070   -2.2440    1.5560 O   0  0  0  0  0
   -2.6260   -2.8470    3.1250 C   0  0  0  0  0
   -2.2800   -4.2440    3.6400 C   0  0  0  0  0
   -2.0330   -1.7760    4.0360 C   0  0  0  0  0
   -0.5450   -4.3130    0.9720 N   0  0  0  0  0
    0.7680   -4.8830    0.6460 C   0  0  0  0  0
    1.2610   -4.4010   -0.7220 C   0  0  0  0  0
    2.4490   -4.1140   -0.8960 O   0  0  0  0  0
    0.7040   -6.4040    0.6760 C   0  0  0  0  0
    0.3270   -4.3170   -1.6870 N   0  0  0  0  0
    0.6280   -3.8560   -3.0520 C   0  0  0  0  0
    0.8970   -2.3470   -3.0850 C   0  0  0  0  0
    1.6660   -1.8670   -3.9230 O   0  0  0  0  0
   -0.5160   -4.2090   -4.0050 C   0  0  0  0  0
   -0.4080   -5.6250   -4.5360 C   0  0  0  0  0
   -0.9570   -6.5630   -3.9590 O   0  0  0  0  0
    0.3080   -5.7870   -5.6420 N   0  0  0  0  0
    0.2510   -1.6090   -2.1620 N   0  0  0  0  0
    0.4290   -0.1540   -2.0360 C   0  0  0  0  0
    1.8820    0.1810   -1.6840 C   0  0  0  0  0
    2.4100    1.2200   -2.0850 O   0  0  0  0  0
   -0.5150    0.4040   -0.9800 C   0  0  0  0  0
    2.5060   -0.7300   -0.9190 N   0  0  0  0  0
    3.9140   -0.6140   -0.5070 C   0  0  0  0  0
    4.8310   -0.8630   -1.7200 C   0  0  0  0  0
    5.9410   -0.3300   -1.7970 O   0  0  0  0  0
    4.2580   -1.6330    0.6300 C   0  0  0  0  0
    5.6380   -1.3770    1.2300 C   0  0  0  0  0
    3.2070   -1.6030    1.7370 C   0  0  0  0  0
    4.3340   -1.6870   -2.6560 N   0  0  0  0  0
    5.0560   -2.0400   -3.8870 C   0  0  0  0  0
    5.0050   -0.9110   -4.9260 C   0  0  0  0  0
    5.9110   -0.7840   -5.7550 O   0  0  0  0  0
    4.4630   -3.3210   -4.4960 C   0  0  0  0  0
    4.6400   -4.5710   -3.6230 C   0  0  0  0  0
    5.9300   -5.3400   -3.9290 C   0  0  0  0  0
    7.1730   -4.6780   -3.3290 C   0  0  0  0  0
    7.7440   -3.6410   -4.2330 N   0  3  0  0  0
    3.9390   -0.1010   -4.8660 N   0  0  0  0  0
    3.7400    1.0150   -5.7970 C   0  0  0  0  0
    4.4320    2.3030   -5.3030 C   0  0  0  0  0
    4.8350    3.1460   -6.1100 O   0  0  0  0  0
    2.2110    1.2460   -6.0530 C   0  0  0  0  0
    1.9700    1.9710   -7.3890 C   0  0  0  0  0
    1.5320    2.0020   -4.9090 C   0  0  0  0  0
    1.9390    1.0480   -8.5930 C   0  0  0  0  0
    4.5580    2.4320   -3.9750 N   0  0  0  0  0
    5.1910    3.6020   -3.3480 C   0  0  0  0  0
    6.7240    3.5590   -3.4500 C   0  0  0  0  0
    7.3940    4.5620   -3.1850 O   0  0  0  0  0
    4.7730    3.6940   -1.8790 C   0  0  0  0  0
    3.3670    3.8220   -1.7550 O   0  0  0  0  0
    7.2630    2.3970   -3.8390 N   0  0  0  0  0
    8.7080    2.2120   -3.9800 C   0  0  0  0  0
    9.1370    2.1350   -5.4490 C   0  0  0  0  0
   10.3230    2.2860   -5.7580 O   0  0  0  0  0
    9.1500    0.9600   -3.2390 C   0  0  0  0  0
    8.1680    1.9020   -6.3450 N   0  0  0  0  0
    8.4350    1.7970   -7.7830 C   0  0  0  0  0
    8.2800    3.1530   -8.4960 C   0  0  0  0  0
    8.2260    3.2140   -9.7310 O   0  0  0  0  0
    7.4970    0.7560   -8.4050 C   0  0  0  0  0
    7.6860   -0.5160   -7.8130 O   0  0  0  0  0
    8.2340    4.2370   -7.7080 N   0  0  0  0  0
    8.0880    5.5920   -8.2470 C   0  0  0  0  0
    9.4550    6.2360   -8.4910 C   0  0  0  0  0
   10.2280    6.3800   -7.5180 O   0  0  0  0  0
    7.2550    6.4680   -7.2950 C   0  0  0  0  0
    5.8090    6.0070   -7.0520 C   0  0  0  0  0
    5.3250    6.4820   -5.6900 C   0  0  0  0  0
    4.8840    6.5230   -8.1480 C   0  0  0  0  0
    9.7400    6.5890   -9.6540 O   0  0  0  0  0
   -5.4973   -8.3445   -3.4284 H   0  0  0  0  0
   -5.8714   -7.8243   -4.9667 H   0  0  0  0  0
   -4.3912   -7.4519   -4.2982 H   0  0  0  0  0
   -5.3938   -6.0856   -2.6376 H   0  0  0  0  0
   -4.7355   -4.9142   -4.5685 H   0  0  0  0  0
   -6.4504   -4.3616   -4.1873 H   0  0  0  0  0
   -7.2761   -5.7203   -5.9844 H   0  0  0  0  0
   -5.6077   -6.2928   -6.3478 H   0  0  0  0  0
   -4.9422   -4.0123   -6.8782 H   0  0  0  0  0
   -6.6143   -3.4432   -6.5202 H   0  0  0  0  0
   -7.4740   -4.8164   -8.3261 H   0  0  0  0  0
   -5.8021   -5.3986   -8.6812 H   0  0  0  0  0
   -6.4823   -3.6470  -10.1651 H   0  0  0  0  0
   -6.7506   -2.6137   -8.8856 H   0  0  0  0  0
   -5.2076   -3.1510   -9.2133 H   0  0  0  0  0
   -6.8901   -6.6422   -1.1763 H   0  0  0  0  0
   -9.7007   -6.3135   -1.9709 H   0  0  0  0  0
  -10.2808   -8.4699   -0.6610 H   0  0  0  0  0
   -8.5375   -8.9147   -0.9838 H   0  0  0  0  0
   -8.9437   -8.8029   -3.3444 H   0  0  0  0  0
  -10.6521   -8.3135   -3.0490 H   0  0  0  0  0
  -11.0600  -10.4442   -1.9334 H   0  0  0  0  0
   -9.3570  -10.9336   -2.2605 H   0  0  0  0  0
   -9.7694  -10.8062   -4.6459 H   0  0  0  0  0
  -11.4714  -10.2939   -4.3280 H   0  0  0  0  0
  -11.3121  -12.6267   -4.8438 H   0  0  0  0  0
  -10.2657  -12.8768   -3.5713 H   0  0  0  0  0
  -11.8365  -12.4041   -3.2779 H   0  0  0  0  0
   -7.3533   -7.0378    0.6188 H   0  0  0  0  0
   -8.7411   -5.1608    2.4222 H   0  0  0  0  0
   -8.3673   -8.0820    3.2088 H   0  0  0  0  0
  -10.7312   -8.0310    3.2295 H   0  0  0  0  0
   -8.0929   -6.6189    5.1295 H   0  0  0  0  0
   -9.6409   -5.8165    4.7677 H   0  0  0  0  0
   -9.6182   -7.5295    5.2535 H   0  0  0  0  0
   -6.3075   -7.7649    2.3150 H   0  0  0  0  0
   -4.3655   -5.9377    3.6891 H   0  0  0  0  0
   -4.0706   -8.9075    3.7232 H   0  0  0  0  0
   -5.2815   -8.0997    4.8353 H   0  0  0  0  0
   -4.5515   -6.7404    6.6556 H   0  0  0  0  0
   -1.7238   -8.6392    4.0680 H   0  0  0  0  0
   -2.7573   -6.2829    8.2836 H   0  0  0  0  0
    0.0749   -8.1775    5.6925 H   0  0  0  0  0
   -0.4405   -6.9983    7.8050 H   0  0  0  0  0
   -5.2191   -7.5794    0.8713 H   0  0  0  0  0
   -2.5098   -8.1304   -0.1068 H   0  0  0  0  0
   -3.6901   -8.5906   -2.2515 H   0  0  0  0  0
   -5.2454   -8.1596   -1.3914 H   0  0  0  0  0
   -4.9408  -10.0028    0.1028 H   0  0  0  0  0
   -3.3664  -10.4078   -0.6751 H   0  0  0  0  0
   -4.5177  -10.8679   -2.7668 H   0  0  0  0  0
   -6.0945  -10.4655   -1.9850 H   0  0  0  0  0
   -4.2576  -12.6274   -0.9716 H   0  0  0  0  0
   -5.5450  -12.9202   -2.2090 H   0  0  0  0  0
   -6.2878  -13.4326    0.0083 H   0  0  0  0  0
   -5.9604  -11.8805    0.5188 H   0  0  0  0  0
   -7.1461  -12.1501   -0.6206 H   0  0  0  0  0
   -4.9519   -5.5923   -0.3549 H   0  0  0  0  0
   -3.5797   -4.1137   -2.4649 H   0  0  0  0  0
   -5.5011   -2.8179   -0.5784 H   0  0  0  0  0
   -6.0867   -4.1081   -1.7383 H   0  0  0  0  0
   -6.5315   -2.1036   -2.7982 H   0  0  0  0  0
   -4.9557   -2.6739   -3.5103 H   0  0  0  0  0
   -3.5029   -1.3381   -3.4473 H   0  0  0  0  0
   -3.7614   -3.9889    1.0873 H   0  0  0  0  0
   -2.2668   -1.5540    1.4470 H   0  0  0  0  0
   -3.7124   -2.7610    3.1442 H   0  0  0  0  0
   -2.7854   -4.9910    3.0279 H   0  0  0  0  0
   -1.2019   -4.3943    3.5826 H   0  0  0  0  0
   -2.6068   -4.3394    4.6755 H   0  0  0  0  0
   -0.9451   -1.8164    3.9819 H   0  0  0  0  0
   -2.3779   -0.7939    3.7124 H   0  0  0  0  0
   -2.3539   -1.9553    5.0621 H   0  0  0  0  0
   -1.3676   -4.9096    0.8835 H   0  0  0  0  0
    1.4783   -4.5409    1.3987 H   0  0  0  0  0
    0.4086   -6.7344    1.6718 H   0  0  0  0  0
   -0.0270   -6.7501   -0.0548 H   0  0  0  0  0
    1.6847   -6.8125    0.4323 H   0  0  0  0  0
   -0.6314   -4.5845   -1.4628 H   0  0  0  0  0
    1.5318   -4.3685   -3.3815 H   0  0  0  0  0
   -0.4719   -3.5259   -4.8533 H   0  0  0  0  0
   -1.4527   -4.1255   -3.4538 H   0  0  0  0  0
    0.4198   -6.7171   -6.0455 H   0  0  0  0  0
    0.7464   -4.9814   -6.0883 H   0  0  0  0  0
   -0.3895   -2.0793   -1.5225 H   0  0  0  0  0
    0.1918    0.3079   -2.9944 H   0  0  0  0  0
   -1.5451    0.1944   -1.2682 H   0  0  0  0  0
   -0.3023   -0.0657   -0.0197 H   0  0  0  0  0
   -0.3711    1.4814   -0.8987 H   0  0  0  0  0
    1.9765   -1.5443   -0.6076 H   0  0  0  0  0
    4.0742    0.3931   -0.1221 H   0  0  0  0  0
    4.2628   -2.6206    0.1687 H   0  0  0  0  0
    6.3943   -1.4682    0.4504 H   0  0  0  0  0
    5.6686   -0.3725    1.6520 H   0  0  0  0  0
    5.8330   -2.1082    2.0145 H   0  0  0  0  0
    3.1635   -0.6027    2.1679 H   0  0  0  0  0
    2.2341   -1.8629    1.3197 H   0  0  0  0  0
    3.4757   -2.3220    2.5109 H   0  0  0  0  0
    3.4085   -2.0885   -2.5055 H   0  0  0  0  0
    6.0993   -2.2031   -3.6169 H   0  0  0  0  0
    4.9884   -3.5054   -5.4331 H   0  0  0  0  0
    3.3915   -3.1572   -4.6107 H   0  0  0  0  0
    3.8013   -5.2374   -3.8246 H   0  0  0  0  0
    4.6870   -4.2454   -2.5838 H   0  0  0  0  0
    6.0549   -5.3643   -5.0116 H   0  0  0  0  0
    5.8375   -6.3340   -3.4913 H   0  0  0  0  0
    7.9283   -5.4484   -3.1740 H   0  0  0  0  0
    6.8849   -4.1951   -2.3953 H   0  0  0  0  0
    8.5675   -3.2269   -3.7961 H   0  0  0  0  0
    8.0081   -4.0721   -5.1189 H   0  0  0  0  0
    7.0460   -2.9164   -4.4009 H   0  0  0  0  0
    3.2379   -0.2672   -4.1440 H   0  0  0  0  0
    4.2088    0.7502   -6.7447 H   0  0  0  0  0
    1.7570    0.2564   -6.1049 H   0  0  0  0  0
    2.7972    2.6657   -7.5345 H   0  0  0  0  0
    0.9944    2.4528   -7.3248 H   0  0  0  0  0
    1.6356    1.4313   -3.9861 H   0  0  0  0  0
    2.0036    2.9774   -4.7894 H   0  0  0  0  0
    0.4748    2.1340   -5.1394 H   0  0  0  0  0
    2.8934    0.5279   -8.6752 H   0  0  0  0  0
    1.1366    0.3204   -8.4709 H   0  0  0  0  0
    1.7648    1.6350   -9.4948 H   0  0  0  0  0
    4.2004    1.6887   -3.3750 H   0  0  0  0  0
    4.8511    4.4853   -3.8887 H   0  0  0  0  0
    5.2433    4.5725   -1.4372 H   0  0  0  0  0
    5.0863    2.7826   -1.3697 H   0  0  0  0  0
    3.1326    3.8776   -0.8257 H   0  0  0  0  0
    6.6445    1.6124   -4.0445 H   0  0  0  0  0
    9.1941    3.0839   -3.5424 H   0  0  0  0  0
    8.9031    1.0588   -2.1819 H   0  0  0  0  0
    8.6358    0.0931   -3.6541 H   0  0  0  0  0
   10.2268    0.8337   -3.3517 H   0  0  0  0  0
    7.2092    1.7937   -6.0144 H   0  0  0  0  0
    9.4701    1.4809   -7.9125 H   0  0  0  0  0
    7.7150    0.6815   -9.4704 H   0  0  0  0  0
    6.4666    1.0697   -8.2376 H   0  0  0  0  0
    7.0886   -1.1485   -8.2188 H   0  0  0  0  0
    8.3031    4.1142   -6.6978 H   0  0  0  0  0
    7.5671    5.5164   -9.2015 H   0  0  0  0  0
    9.8079    6.0411   -6.7241 H   0  0  0  0  0
    7.1898    7.4514   -7.7605 H   0  0  0  0  0
    7.7556    6.4320   -6.3274 H   0  0  0  0  0
    5.7909    4.9173   -7.0726 H   0  0  0  0  0
    5.9667    6.0670   -4.9128 H   0  0  0  0  0
    5.3632    7.5707   -5.6516 H   0  0  0  0  0
    4.2995    6.1474   -5.5333 H   0  0  0  0  0
    4.9085    7.6127   -8.1592 H   0  0  0  0  0
    5.2175    6.1409   -9.1128 H   0  0  0  0  0
    3.8668    6.1832   -7.9530 H   0  0  0  0  0
  1  2  1  0  0  0
  2  3  1  0  0  0
  2  5  1  0  0  0
  3  4  2  0  0  0
  3 10  1  0  0  0
  5  6  1  0  0  0
  6  7  1  0  0  0
  7  8  1  0  0  0
  8  9  1  0  0  0
 10 11  1  0  0  0
 11 12  1  0  0  0
 11 14  1  0  0  0
 12 13  2  0  0  0
 12 19  1  0  0  0
 14 15  1  0  0  0
 15 16  1  0  0  0
 16 17  1  0  0  0
 17 18  1  0  0  0
 19 20  1  0  0  0
 20 21  1  0  0  0
 20 23  1  0  0  0
 21 22  2  0  0  0
 21 26  1  0  0  0
 23 24  1  0  0  0
 23 25  1  0  0  0
 26 27  1  0  0  0
 27 28  1  0  0  0
 27 30  1  0  0  0
 28 29  2  0  0  0
 28 37  1  0  0  0
 30 31  1  0  0  0
 31 32  4  0  0  0
 31 33  4  0  0  0
 32 34  4  0  0  0
 33 35  4  0  0  0
 34 36  4  0  0  0
 35 36  4  0  0  0
 37 38  1  0  0  0
 38 39  1  0  0  0
 38 41  1  0  0  0
 39 40  2  0  0  0
 39 46  1  0  0  0
 41 42  1  0  0  0
 42 43  1  0  0  0
 43 44  1  0  0  0
 44 45  1  0  0  0
 46 47  1  0  0  0
 47 48  1  0  0  0
 47 50  1  0  0  0
 48 49  2  0  0  0
 48 55  1  0  0  0
 50 51  1  0  0  0
 51 52  1  0  0  0
 52 53  2  0  0  0
 52 54  1  0  0  0
 55 56  1  0  0  0
 56 57  1  0  0  0
 56 59  1  0  0  0
 57 58  2  0  0  0
 57 62  1  0  0  0
 59 60  1  0  0  0
 59 61  1  0  0  0
 62 63  1  0  0  0
 63 64  1  0  0  0
 63 66  1  0  0  0
 64 65  2  0  0  0
 64 67  1  0  0  0
 67 68  1  0  0  0
 68 69  1  0  0  0
 68 71  1  0  0  0
 69 70  2  0  0  0
 69 75  1  0  0  0
 71 72  1  0  0  0
 72 73  2  0  0  0
 72 74  1  0  0  0
 75 76  1  0  0  0
 76 77  1  0  0  0
 76 79  1  0  0  0
 77 78  2  0  0  0
 77 80  1  0  0  0
 80 81  1  0  0  0
 81 82  1  0  0  0
 81 84  1  0  0  0
 82 83  2  0  0  0
 82 87  1  0  0  0
 84 85  1  0  0  0
 84 86  1  0  0  0
 87 88  1  0  0  0
 88 89  1  0  0  0
 88 91  1  0  0  0
 89 90  2  0  0  0
 89 96  1  0  0  0
 91 92  1  0  0  0
 92 93  1  0  0  0
 93 94  1  0  0  0
 94 95  1  0  0  0
 96 97  1  0  0  0
 97 98  1  0  0  0
 97100  1  0  0  0
 98 99  2  0  0  0
 98104  1  0  0  0
100101  1  0  0  0
100102  1  0  0  0
101103  1  0  0  0
104105  1  0  0  0
105106  1  0  0  0
105108  1  0  0  0
106107  2  0  0  0
106110  1  0  0  0
108109  1  0  0  0
110111  1  0  0  0
111112  1  0  0  0
111114  1  0  0  0
112113  2  0  0  0
112115  1  0  0  0
115116  1  0  0  0
116117  1  0  0  0
116119  1  0  0  0
117118  2  0  0  0
117121  1  0  0  0
119120  1  0  0  0
121122  1  0  0  0
122123  1  0  0  0
122125  1  0  0  0
123124  1  0  0  0
123129  2  0  0  0
125126  1  0  0  0
126127  1  0  0  0
126128  1  0  0  0
  1130  1  0  0  0
  1131  1  0  0  0
  1132  1  0  0  0
  2133  1  0  0  0
  5134  1  0  0  0
  5135  1  0  0  0
  6136  1  0  0  0
  6137  1  0  0  0
  7138  1  0  0  0
  7139  1  0  0  0
  8140  1  0  0  0
  8141  1  0  0  0
  9142  1  0  0  0
  9143  1  0  0  0
  9144  1  0  0  0
 10145  1  0  0  0
 11146  1  0  0  0
 14147  1  0  0  0
 14148  1  0  0  0
 15149  1  0  0  0
 15150  1  0  0  0
 16151  1  0  0  0
 16152  1  0  0  0
 17153  1  0  0  0
 17154  1  0  0  0
 18155  1  0  0  0
 18156  1  0  0  0
 18157  1  0  0  0
 19158  1  0  0  0
 20159  1  0  0  0
 23160  1  0  0  0
 24161  1  0  0  0
 25162  1  0  0  0
 25163  1  0  0  0
 25164  1  0  0  0
 26165  1  0  0  0
 27166  1  0  0  0
 30167  1  0  0  0
 30168  1  0  0  0
 32169  1  0  0  0
 33170  1  0  0  0
 34171  1  0  0  0
 35172  1  0  0  0
 36173  1  0  0  0
 37174  1  0  0  0
 38175  1  0  0  0
 41176  1  0  0  0
 41177  1  0  0  0
 42178  1  0  0  0
 42179  1  0  0  0
 43180  1  0  0  0
 43181  1  0  0  0
 44182  1  0  0  0
 44183  1  0  0  0
 45184  1  0  0  0
 45185  1  0  0  0
 45186  1  0  0  0
 46187  1  0  0  0
 47188  1  0  0  0
 50189  1  0  0  0
 50190  1  0  0  0
 51191  1  0  0  0
 51192  1  0  0  0
 54193  1  0  0  0
 55194  1  0  0  0
 56195  1  0  0  0
 59196  1  0  0  0
 60197  1  0  0  0
 60198  1  0  0  0
 60199  1  0  0  0
 61200  1  0  0  0
 61201  1  0  0  0
 61202  1  0  0  0
 62203  1  0  0  0
 63204  1  0  0  0
 66205  1  0  0  0
 66206  1  0  0  0
 66207  1  0  0  0
 67208  1  0  0  0
 68209  1  0  0  0
 71210  1  0  0  0
 71211  1  0  0  0
 74212  1  0  0  0
 74213  1  0  0  0
 75214  1  0  0  0
 76215  1  0  0  0
 79216  1  0  0  0
 79217  1  0  0  0
 79218  1  0  0  0
 80219  1  0  0  0
 81220  1  0  0  0
 84221  1  0  0  0
 85222  1  0  0  0
 85223  1  0  0  0
 85224  1  0  0  0
 86225  1  0  0  0
 86226  1  0  0  0
 86227  1  0  0  0
 87228  1  0  0  0
 88229  1  0  0  0
 91230  1  0  0  0
 91231  1  0  0  0
 92232  1  0  0  0
 92233  1  0  0  0
 93234  1  0  0  0
 93235  1  0  0  0
 94236  1  0  0  0
 94237  1  0  0  0
 95238  1  0  0  0
 95239  1  0  0  0
 95240  1  0  0  0
 96241  1  0  0  0
 97242  1  0  0  0
100243  1  0  0  0
101244  1  0  0  0
101245  1  0  0  0
102246  1  0  0  0
102247  1  0  0  0
102248  1  0  0  0
103249  1  0  0  0
103250  1  0  0  0
103251  1  0  0  0
104252  1  0  0  0
105253  1  0  0  0
108254  1  0  0  0
108255  1  0  0  0
109256  1  0  0  0
110257  1  0  0  0
111258  1  0  0  0
114259  1  0  0  0
114260  1  0  0  0
114261  1  0  0  0
115262  1  0  0  0
116263  1  0  0  0
119264  1  0  0  0
119265  1  0  0  0
120266  1  0  0  0
121267  1  0  0  0
122268  1  0  0  0
124269  1  0  0  0
125270  1  0  0  0
125271  1  0  0  0
126272  1  0  0  0
127273  1  0  0  0
127274  1  0  0  0
127275  1  0  0  0
128276  1  0  0  0
128277  1  0  0  0
128278  1  0  0  0
M  END
$$$$
