### 
### Created by X-TOOL on Mon Sep 10 21:13:12 2018
### 

@<TRIPOS>MOLECULE
2ll7_ligand
  276   276     1     0     0
SMALL
GAST_HUCK


@<TRIPOS>ATOM
      1 N          -5.3830   -7.5880   -4.1030 N.4       1 LYS         0.2379
      2 CA         -5.9530   -6.3330   -3.5400 C.3       1 LYS         0.0650
      3 C          -7.4220   -6.5240   -3.1460 C.2       1 LYS         0.2267
      4 O          -8.3080   -6.5580   -4.0090 O.2       1 LYS        -0.3907
      5 CB         -5.7970   -5.1600   -4.5390 C.3       1 LYS         0.0080
      6 CG         -6.2160   -5.4670   -5.9790 C.3       1 LYS        -0.0410
      7 CD         -6.0020   -4.2670   -6.8870 C.3       1 LYS        -0.0123
      8 CE         -6.4120   -4.5710   -8.3190 C.3       1 LYS        -0.0354
      9 NZ         -6.1960   -3.4030   -9.2170 N.4       1 LYS         0.2185
     10 N          -7.6710   -6.6690   -1.8320 N.am      1 LYS        -0.2610
     11 CA         -9.0330   -6.8650   -1.3090 C.3       1 LYS         0.1311
     12 C          -9.1910   -6.3120    0.1100 C.2       1 LYS         0.2040
     13 O         -10.2090   -5.6900    0.4240 O.2       1 LYS        -0.3944
     14 CB         -9.4140   -8.3560   -1.3120 C.3       1 LYS        -0.0122
     15 CG         -9.8040   -8.8910   -2.6810 C.3       1 LYS        -0.0440
     16 CD        -10.2110  -10.3540   -2.6110 C.3       1 LYS        -0.0124
     17 CE        -10.6250  -10.8830   -3.9750 C.3       1 LYS        -0.0354
     18 NZ        -11.0430  -12.3110   -3.9120 N.4       1 LYS         0.2185
     19 N          -8.1770   -6.5430    0.9610 N.am      1 THR        -0.2613
     20 CA         -8.2080   -6.1100    2.3680 C.3       1 THR         0.1565
     21 C          -6.7870   -5.8900    2.9080 C.2       1 THR         0.2066
     22 O          -6.4690   -4.8200    3.4330 O.2       1 THR        -0.3943
     23 CB         -8.9590   -7.1670    3.2370 C.3       1 THR         0.0924
     24 OG1       -10.2680   -7.3810    2.6960 O.3       1 THR        -0.3874
     25 CG2        -9.0870   -6.7530    4.7030 C.3       1 THR        -0.0346
     26 N          -5.9580   -6.9200    2.7670 N.am      1 PHE        -0.2619
     27 CA         -4.5750   -6.9020    3.2260 C.3       1 PHE         0.1404
     28 C          -3.6260   -7.0900    2.0410 C.2       1 PHE         0.2060
     29 O          -2.4100   -6.9220    2.1710 O.2       1 PHE        -0.3942
     30 CB         -4.3560   -8.0070    4.2670 C.3       1 PHE         0.0214
     31 CG         -3.2580   -7.7200    5.2540 C.ar      1 PHE        -0.0386
     32 CD1        -3.5320   -7.0600    6.4400 C.ar      1 PHE        -0.0601
     33 CD2        -1.9550   -8.1180    4.9970 C.ar      1 PHE        -0.0601
     34 CE1        -2.5280   -6.8020    7.3530 C.ar      1 PHE        -0.0686
     35 CE2        -0.9460   -7.8610    5.9060 C.ar      1 PHE        -0.0686
     36 CZ         -1.2340   -7.2020    7.0860 C.ar      1 PHE        -0.0687
     37 N          -4.2080   -7.4460    0.8860 N.am      1 LYS        -0.2636
     38 CA         -3.4570   -7.6520   -0.3560 C.3       1 LYS         0.1310
     39 C          -3.1690   -6.3130   -1.0360 C.2       1 LYS         0.2039
     40 O          -2.1240   -6.1430   -1.6690 O.2       1 LYS        -0.3944
     41 CB         -4.2370   -8.5650   -1.3090 C.3       1 LYS        -0.0122
     42 CG         -4.3670  -10.0020   -0.8240 C.3       1 LYS        -0.0440
     43 CD         -5.0930  -10.8710   -1.8410 C.3       1 LYS        -0.0124
     44 CE         -5.2240  -12.3110   -1.3640 C.3       1 LYS        -0.0354
     45 NZ         -6.2350  -12.4550   -0.2780 N.4       1 LYS         0.2185
     46 N          -4.1110   -5.3660   -0.8860 N.am      1 GLU        -0.2636
     47 CA         -3.9790   -4.0200   -1.4550 C.3       1 GLU         0.1325
     48 C          -3.0080   -3.1750   -0.6250 C.2       1 GLU         0.2040
     49 O          -2.2280   -2.3950   -1.1780 O.2       1 GLU        -0.3944
     50 CB         -5.3500   -3.3330   -1.5270 C.3       1 GLU        -0.0008
     51 CG         -5.4700   -2.2860   -2.6310 C.3       1 GLU         0.0044
     52 CD         -4.8260   -0.9560   -2.2710 C.2       1 GLU         0.0350
     53 OE1        -5.3890   -0.2320   -1.4240 O.co2     1 GLU        -0.5690
     54 OE2        -3.7570   -0.6420   -2.8370 O.co2     1 GLU        -0.5690
     55 N          -3.0720   -3.3410    0.7060 N.am      1 VAL        -0.2635
     56 CA         -2.1870   -2.6250    1.6330 C.3       1 VAL         0.1332
     57 C          -0.7180   -3.0420    1.3820 C.2       1 VAL         0.2041
     58 O           0.2070   -2.2440    1.5560 O.2       1 VAL        -0.3944
     59 CB         -2.6260   -2.8470    3.1250 C.3       1 VAL        -0.0063
     60 CG1        -2.2800   -4.2440    3.6400 C.3       1 VAL        -0.0584
     61 CG2        -2.0330   -1.7760    4.0360 C.3       1 VAL        -0.0584
     62 N          -0.5450   -4.3130    0.9720 N.am      1 ALA        -0.2640
     63 CA          0.7680   -4.8830    0.6460 C.3       1 ALA         0.1282
     64 C           1.2610   -4.4010   -0.7220 C.2       1 ALA         0.2037
     65 O           2.4490   -4.1140   -0.8960 O.2       1 ALA        -0.3944
     66 CB          0.7040   -6.4040    0.6760 C.3       1 ALA        -0.0244
     67 N           0.3270   -4.3170   -1.6870 N.am      1 ASN        -0.2616
     68 CA          0.6280   -3.8560   -3.0520 C.3       1 ASN         0.1476
     69 C           0.8970   -2.3470   -3.0850 C.2       1 ASN         0.2062
     70 O           1.6660   -1.8670   -3.9230 O.2       1 ASN        -0.3942
     71 CB         -0.5160   -4.2090   -4.0050 C.3       1 ASN         0.0773
     72 CG         -0.4080   -5.6250   -4.5360 C.2       1 ASN         0.1780
     73 OD1        -0.9570   -6.5630   -3.9590 O.2       1 ASN        -0.3970
     74 ND2         0.3080   -5.7870   -5.6420 N.am      1 ASN        -0.3007
     75 N           0.2510   -1.6090   -2.1620 N.am      1 ALA        -0.2639
     76 CA          0.4290   -0.1540   -2.0360 C.3       1 ALA         0.1282
     77 C           1.8820    0.1810   -1.6840 C.2       1 ALA         0.2036
     78 O           2.4100    1.2200   -2.0850 O.2       1 ALA        -0.3944
     79 CB         -0.5150    0.4040   -0.9800 C.3       1 ALA        -0.0244
     80 N           2.5060   -0.7300   -0.9190 N.am      1 VAL        -0.2635
     81 CA          3.9140   -0.6140   -0.5070 C.3       1 VAL         0.1332
     82 C           4.8310   -0.8630   -1.7200 C.2       1 VAL         0.2041
     83 O           5.9410   -0.3300   -1.7970 O.2       1 VAL        -0.3944
     84 CB          4.2580   -1.6330    0.6300 C.3       1 VAL        -0.0063
     85 CG1         5.6380   -1.3770    1.2300 C.3       1 VAL        -0.0584
     86 CG2         3.2070   -1.6030    1.7370 C.3       1 VAL        -0.0584
     87 N           4.3340   -1.6870   -2.6560 N.am      1 LYS        -0.2637
     88 CA          5.0560   -2.0400   -3.8870 C.3       1 LYS         0.1310
     89 C           5.0050   -0.9110   -4.9260 C.2       1 LYS         0.2039
     90 O           5.9110   -0.7840   -5.7550 O.2       1 LYS        -0.3944
     91 CB          4.4630   -3.3210   -4.4960 C.3       1 LYS        -0.0122
     92 CG          4.6400   -4.5710   -3.6230 C.3       1 LYS        -0.0440
     93 CD          5.9300   -5.3400   -3.9290 C.3       1 LYS        -0.0124
     94 CE          7.1730   -4.6780   -3.3290 C.3       1 LYS        -0.0354
     95 NZ          7.7440   -3.6410   -4.2330 N.4       1 LYS         0.2185
     96 N           3.9390   -0.1010   -4.8660 N.am      1 ILE        -0.2635
     97 CA          3.7400    1.0150   -5.7970 C.3       1 ILE         0.1335
     98 C           4.4320    2.3030   -5.3030 C.2       1 ILE         0.2042
     99 O           4.8350    3.1460   -6.1100 O.2       1 ILE        -0.3944
    100 CB          2.2110    1.2460   -6.0530 C.3       1 ILE        -0.0037
    101 CG1         1.9700    1.9710   -7.3890 C.3       1 ILE        -0.0491
    102 CG2         1.5320    2.0020   -4.9090 C.3       1 ILE        -0.0582
    103 CD1         1.9390    1.0480   -8.5930 C.3       1 ILE        -0.0648
    104 N           4.5580    2.4320   -3.9750 N.am      1 SER        -0.2616
    105 CA          5.1910    3.6020   -3.3480 C.3       1 SER         0.1539
    106 C           6.7240    3.5590   -3.4500 C.2       1 SER         0.2062
    107 O           7.3940    4.5620   -3.1850 O.2       1 SER        -0.3943
    108 CB          4.7730    3.6940   -1.8790 C.3       1 SER         0.0843
    109 OG          3.3670    3.8220   -1.7550 O.3       1 SER        -0.3903
    110 N           7.2630    2.3970   -3.8390 N.am      1 ALA        -0.2639
    111 CA          8.7080    2.2120   -3.9800 C.3       1 ALA         0.1282
    112 C           9.1370    2.1350   -5.4490 C.2       1 ALA         0.2037
    113 O          10.3230    2.2860   -5.7580 O.2       1 ALA        -0.3944
    114 CB          9.1500    0.9600   -3.2390 C.3       1 ALA        -0.0244
    115 N           8.1680    1.9020   -6.3450 N.am      1 SER        -0.2616
    116 CA          8.4350    1.7970   -7.7830 C.3       1 SER         0.1539
    117 C           8.2800    3.1530   -8.4960 C.2       1 SER         0.2056
    118 O           8.2260    3.2140   -9.7310 O.2       1 SER        -0.3943
    119 CB          7.4970    0.7560   -8.4050 C.3       1 SER         0.0843
    120 OG          7.6860   -0.5160   -7.8130 O.3       1 SER        -0.3903
    121 N           8.2340    4.2370   -7.7080 N.am      1 LEU        -0.2694
    122 CA          8.0880    5.5920   -8.2470 C.3       1 LEU         0.0946
    123 C           9.4550    6.2360   -8.4910 C.2       1 LEU         0.0601
    124 O          10.2280    6.3800   -7.5180 O.co2     1 LEU        -0.5666
    125 CB          7.2550    6.4680   -7.2950 C.3       1 LEU        -0.0156
    126 CG          5.8090    6.0070   -7.0520 C.3       1 LEU        -0.0431
    127 CD1         5.3250    6.4820   -5.6900 C.3       1 LEU        -0.0625
    128 CD2         4.8840    6.5230   -8.1480 C.3       1 LEU        -0.0625
    129 OXT         9.7400    6.5890   -9.6540 O.co2     1 LEU        -0.5666
    130 H          -5.4973   -8.3445   -3.4284 H         1 LYS         0.2015
    131 H          -5.8714   -7.8243   -4.9667 H         1 LYS         0.2015
    132 H          -4.3912   -7.4519   -4.2982 H         1 LYS         0.2015
    133 H          -5.3938   -6.0856   -2.6376 H         1 LYS         0.1098
    134 H          -4.7355   -4.9142   -4.5685 H         1 LYS         0.0346
    135 H          -6.4504   -4.3616   -4.1873 H         1 LYS         0.0346
    136 H          -7.2761   -5.7203   -5.9844 H         1 LYS         0.0270
    137 H          -5.6077   -6.2928   -6.3478 H         1 LYS         0.0270
    138 H          -4.9422   -4.0123   -6.8782 H         1 LYS         0.0317
    139 H          -6.6143   -3.4432   -6.5202 H         1 LYS         0.0317
    140 H          -7.4740   -4.8164   -8.3261 H         1 LYS         0.0813
    141 H          -5.8021   -5.3986   -8.6812 H         1 LYS         0.0813
    142 H          -6.4823   -3.6470  -10.1651 H         1 LYS         0.1994
    143 H          -6.7506   -2.6137   -8.8856 H         1 LYS         0.1994
    144 H          -5.2076   -3.1510   -9.2133 H         1 LYS         0.1994
    145 H          -6.8901   -6.6422   -1.1763 H         1 LYS         0.1884
    146 H          -9.7007   -6.3135   -1.9709 H         1 LYS         0.0800
    147 H         -10.2808   -8.4699   -0.6610 H         1 LYS         0.0312
    148 H          -8.5375   -8.9147   -0.9838 H         1 LYS         0.0312
    149 H          -8.9437   -8.8029   -3.3444 H         1 LYS         0.0269
    150 H         -10.6521   -8.3135   -3.0490 H         1 LYS         0.0269
    151 H         -11.0600  -10.4442   -1.9334 H         1 LYS         0.0317
    152 H          -9.3570  -10.9336   -2.2605 H         1 LYS         0.0317
    153 H          -9.7694  -10.8062   -4.6459 H         1 LYS         0.0813
    154 H         -11.4714  -10.2939   -4.3280 H         1 LYS         0.0813
    155 H         -11.3121  -12.6267   -4.8438 H         1 LYS         0.1994
    156 H         -10.2657  -12.8768   -3.5713 H         1 LYS         0.1994
    157 H         -11.8365  -12.4041   -3.2779 H         1 LYS         0.1994
    158 H          -7.3533   -7.0378    0.6188 H         1 THR         0.1884
    159 H          -8.7411   -5.1608    2.4222 H         1 THR         0.0826
    160 H          -8.3673   -8.0820    3.2088 H         1 THR         0.0639
    161 H         -10.1919   -7.7012    1.7941 H         1 THR         0.2101
    162 H          -8.0929   -6.6189    5.1295 H         1 THR         0.0257
    163 H          -9.6409   -5.8165    4.7677 H         1 THR         0.0257
    164 H          -9.6182   -7.5295    5.2535 H         1 THR         0.0257
    165 H          -6.3075   -7.7649    2.3150 H         1 PHE         0.1885
    166 H          -4.3655   -5.9377    3.6891 H         1 PHE         0.0823
    167 H          -4.0706   -8.9075    3.7232 H         1 PHE         0.0474
    168 H          -5.2815   -8.0997    4.8353 H         1 PHE         0.0474
    169 H          -4.5515   -6.7404    6.6556 H         1 PHE         0.0557
    170 H          -1.7238   -8.6392    4.0680 H         1 PHE         0.0557
    171 H          -2.7573   -6.2829    8.2836 H         1 PHE         0.0599
    172 H           0.0749   -8.1775    5.6925 H         1 PHE         0.0599
    173 H          -0.4405   -6.9983    7.8050 H         1 PHE         0.0559
    174 H          -5.2191   -7.5794    0.8713 H         1 LYS         0.1883
    175 H          -2.5098   -8.1304   -0.1068 H         1 LYS         0.0800
    176 H          -3.6901   -8.5906   -2.2515 H         1 LYS         0.0312
    177 H          -5.2454   -8.1596   -1.3914 H         1 LYS         0.0312
    178 H          -4.9408  -10.0028    0.1028 H         1 LYS         0.0269
    179 H          -3.3664  -10.4078   -0.6751 H         1 LYS         0.0269
    180 H          -4.5177  -10.8679   -2.7668 H         1 LYS         0.0317
    181 H          -6.0945  -10.4655   -1.9850 H         1 LYS         0.0317
    182 H          -4.2576  -12.6274   -0.9716 H         1 LYS         0.0813
    183 H          -5.5450  -12.9202   -2.2090 H         1 LYS         0.0813
    184 H          -6.2878  -13.4326    0.0083 H         1 LYS         0.1994
    185 H          -5.9604  -11.8805    0.5188 H         1 LYS         0.1994
    186 H          -7.1461  -12.1501   -0.6206 H         1 LYS         0.1994
    187 H          -4.9519   -5.5923   -0.3549 H         1 GLU         0.1883
    188 H          -3.5797   -4.1137   -2.4649 H         1 GLU         0.0801
    189 H          -5.5011   -2.8179   -0.5784 H         1 GLU         0.0330
    190 H          -6.0867   -4.1081   -1.7383 H         1 GLU         0.0330
    191 H          -6.5315   -2.1036   -2.7982 H         1 GLU         0.0433
    192 H          -4.9557   -2.6739   -3.5103 H         1 GLU         0.0433
    193 H          -3.7614   -3.9889    1.0873 H         1 VAL         0.1883
    194 H          -2.2668   -1.5540    1.4470 H         1 VAL         0.0802
    195 H          -3.7124   -2.7610    3.1442 H         1 VAL         0.0343
    196 H          -2.7854   -4.9910    3.0279 H         1 VAL         0.0234
    197 H          -1.2019   -4.3943    3.5826 H         1 VAL         0.0234
    198 H          -2.6068   -4.3394    4.6755 H         1 VAL         0.0234
    199 H          -0.9451   -1.8164    3.9819 H         1 VAL         0.0234
    200 H          -2.3779   -0.7939    3.7124 H         1 VAL         0.0234
    201 H          -2.3539   -1.9553    5.0621 H         1 VAL         0.0234
    202 H          -1.3676   -4.9096    0.8835 H         1 ALA         0.1883
    203 H           1.4783   -4.5409    1.3987 H         1 ALA         0.0797
    204 H           0.4086   -6.7344    1.6718 H         1 ALA         0.0277
    205 H          -0.0270   -6.7501   -0.0548 H         1 ALA         0.0277
    206 H           1.6847   -6.8125    0.4323 H         1 ALA         0.0277
    207 H          -0.6314   -4.5845   -1.4628 H         1 ASN         0.1885
    208 H           1.5318   -4.3685   -3.3815 H         1 ASN         0.0826
    209 H          -0.4719   -3.5259   -4.8533 H         1 ASN         0.0551
    210 H          -1.4527   -4.1255   -3.4538 H         1 ASN         0.0551
    211 H           0.4198   -6.7171   -6.0455 H         1 ASN         0.1814
    212 H           0.7464   -4.9814   -6.0883 H         1 ASN         0.1814
    213 H          -0.3895   -2.0793   -1.5225 H         1 ALA         0.1883
    214 H           0.1918    0.3079   -2.9944 H         1 ALA         0.0797
    215 H          -1.5451    0.1944   -1.2682 H         1 ALA         0.0277
    216 H          -0.3023   -0.0657   -0.0197 H         1 ALA         0.0277
    217 H          -0.3711    1.4814   -0.8987 H         1 ALA         0.0277
    218 H           1.9765   -1.5443   -0.6076 H         1 VAL         0.1883
    219 H           4.0742    0.3931   -0.1221 H         1 VAL         0.0802
    220 H           4.2628   -2.6206    0.1687 H         1 VAL         0.0343
    221 H           6.3943   -1.4682    0.4504 H         1 VAL         0.0234
    222 H           5.6686   -0.3725    1.6520 H         1 VAL         0.0234
    223 H           5.8330   -2.1082    2.0145 H         1 VAL         0.0234
    224 H           3.1635   -0.6027    2.1679 H         1 VAL         0.0234
    225 H           2.2341   -1.8629    1.3197 H         1 VAL         0.0234
    226 H           3.4757   -2.3220    2.5109 H         1 VAL         0.0234
    227 H           3.4085   -2.0885   -2.5055 H         1 LYS         0.1883
    228 H           6.0993   -2.2031   -3.6169 H         1 LYS         0.0800
    229 H           4.9884   -3.5054   -5.4331 H         1 LYS         0.0312
    230 H           3.3915   -3.1572   -4.6107 H         1 LYS         0.0312
    231 H           3.8013   -5.2374   -3.8246 H         1 LYS         0.0269
    232 H           4.6870   -4.2454   -2.5838 H         1 LYS         0.0269
    233 H           6.0549   -5.3643   -5.0116 H         1 LYS         0.0317
    234 H           5.8375   -6.3340   -3.4913 H         1 LYS         0.0317
    235 H           7.9283   -5.4484   -3.1740 H         1 LYS         0.0813
    236 H           6.8849   -4.1951   -2.3953 H         1 LYS         0.0813
    237 H           8.5675   -3.2269   -3.7961 H         1 LYS         0.1994
    238 H           8.0081   -4.0721   -5.1189 H         1 LYS         0.1994
    239 H           7.0460   -2.9164   -4.4009 H         1 LYS         0.1994
    240 H           3.2379   -0.2672   -4.1440 H         1 ILE         0.1883
    241 H           4.2088    0.7502   -6.7447 H         1 ILE         0.0803
    242 H           1.7570    0.2564   -6.1049 H         1 ILE         0.0345
    243 H           2.7972    2.6657   -7.5345 H         1 ILE         0.0267
    244 H           0.9944    2.4528   -7.3248 H         1 ILE         0.0267
    245 H           1.6356    1.4313   -3.9861 H         1 ILE         0.0235
    246 H           2.0036    2.9774   -4.7894 H         1 ILE         0.0235
    247 H           0.4748    2.1340   -5.1394 H         1 ILE         0.0235
    248 H           2.8934    0.5279   -8.6752 H         1 ILE         0.0230
    249 H           1.1366    0.3204   -8.4709 H         1 ILE         0.0230
    250 H           1.7648    1.6350   -9.4948 H         1 ILE         0.0230
    251 H           4.2004    1.6887   -3.3750 H         1 SER         0.1884
    252 H           4.8511    4.4853   -3.8887 H         1 SER         0.0823
    253 H           5.2433    4.5725   -1.4372 H         1 SER         0.0606
    254 H           5.0863    2.7826   -1.3697 H         1 SER         0.0606
    255 H           2.9412    3.0568   -2.1484 H         1 SER         0.2097
    256 H           6.6445    1.6124   -4.0445 H         1 ALA         0.1883
    257 H           9.1941    3.0839   -3.5424 H         1 ALA         0.0797
    258 H           8.9031    1.0588   -2.1819 H         1 ALA         0.0277
    259 H           8.6358    0.0931   -3.6541 H         1 ALA         0.0277
    260 H          10.2268    0.8337   -3.3517 H         1 ALA         0.0277
    261 H           7.2092    1.7937   -6.0144 H         1 SER         0.1884
    262 H           9.4701    1.4809   -7.9125 H         1 SER         0.0823
    263 H           7.7150    0.6815   -9.4704 H         1 SER         0.0606
    264 H           6.4666    1.0697   -8.2376 H         1 SER         0.0606
    265 H           7.5038   -0.4601   -6.8721 H         1 SER         0.2097
    266 H           8.3031    4.1142   -6.6978 H         1 LEU         0.1875
    267 H           7.5671    5.5164   -9.2015 H         1 LEU         0.0726
    268 H           7.1898    7.4514   -7.7605 H         1 LEU         0.0308
    269 H           7.7556    6.4320   -6.3274 H         1 LEU         0.0308
    270 H           5.7909    4.9173   -7.0726 H         1 LEU         0.0297
    271 H           5.9667    6.0670   -4.9128 H         1 LEU         0.0232
    272 H           5.3632    7.5707   -5.6516 H         1 LEU         0.0232
    273 H           4.2995    6.1474   -5.5333 H         1 LEU         0.0232
    274 H           4.9085    7.6127   -8.1592 H         1 LEU         0.0232
    275 H           5.2175    6.1409   -9.1128 H         1 LEU         0.0232
    276 H           3.8668    6.1832   -7.9530 H         1 LEU         0.0232
@<TRIPOS>BOND
     1    1    2 1  
     2    2    3 1  
     3    2    5 1  
     4    3    4 2  
     5    3   10 am 
     6    5    6 1  
     7    6    7 1  
     8    7    8 1  
     9    8    9 1  
    10   10   11 1  
    11   11   12 1  
    12   11   14 1  
    13   12   13 2  
    14   12   19 am 
    15   14   15 1  
    16   15   16 1  
    17   16   17 1  
    18   17   18 1  
    19   19   20 1  
    20   20   21 1  
    21   20   23 1  
    22   21   22 2  
    23   21   26 am 
    24   23   24 1  
    25   23   25 1  
    26   26   27 1  
    27   27   28 1  
    28   27   30 1  
    29   28   29 2  
    30   28   37 am 
    31   30   31 1  
    32   31   32 ar 
    33   31   33 ar 
    34   32   34 ar 
    35   33   35 ar 
    36   34   36 ar 
    37   35   36 ar 
    38   37   38 1  
    39   38   39 1  
    40   38   41 1  
    41   39   40 2  
    42   39   46 am 
    43   41   42 1  
    44   42   43 1  
    45   43   44 1  
    46   44   45 1  
    47   46   47 1  
    48   47   48 1  
    49   47   50 1  
    50   48   49 2  
    51   48   55 am 
    52   50   51 1  
    53   51   52 1  
    54   52   53 ar 
    55   52   54 ar 
    56   55   56 1  
    57   56   57 1  
    58   56   59 1  
    59   57   58 2  
    60   57   62 am 
    61   59   60 1  
    62   59   61 1  
    63   62   63 1  
    64   63   64 1  
    65   63   66 1  
    66   64   65 2  
    67   64   67 am 
    68   67   68 1  
    69   68   69 1  
    70   68   71 1  
    71   69   70 2  
    72   69   75 am 
    73   71   72 1  
    74   72   73 2  
    75   72   74 am 
    76   75   76 1  
    77   76   77 1  
    78   76   79 1  
    79   77   78 2  
    80   77   80 am 
    81   80   81 1  
    82   81   82 1  
    83   81   84 1  
    84   82   83 2  
    85   82   87 am 
    86   84   85 1  
    87   84   86 1  
    88   87   88 1  
    89   88   89 1  
    90   88   91 1  
    91   89   90 2  
    92   89   96 am 
    93   91   92 1  
    94   92   93 1  
    95   93   94 1  
    96   94   95 1  
    97   96   97 1  
    98   97   98 1  
    99   97  100 1  
   100   98   99 2  
   101   98  104 am 
   102  100  101 1  
   103  100  102 1  
   104  101  103 1  
   105  104  105 1  
   106  105  106 1  
   107  105  108 1  
   108  106  107 2  
   109  106  110 am 
   110  108  109 1  
   111  110  111 1  
   112  111  112 1  
   113  111  114 1  
   114  112  113 2  
   115  112  115 am 
   116  115  116 1  
   117  116  117 1  
   118  116  119 1  
   119  117  118 2  
   120  117  121 am 
   121  119  120 1  
   122  121  122 1  
   123  122  123 1  
   124  122  125 1  
   125  123  124 ar 
   126  123  129 ar 
   127  125  126 1  
   128  126  127 1  
   129  126  128 1  
   130    1  130 1  
   131    1  131 1  
   132    1  132 1  
   133    2  133 1  
   134    5  134 1  
   135    5  135 1  
   136    6  136 1  
   137    6  137 1  
   138    7  138 1  
   139    7  139 1  
   140    8  140 1  
   141    8  141 1  
   142    9  142 1  
   143    9  143 1  
   144    9  144 1  
   145   10  145 1  
   146   11  146 1  
   147   14  147 1  
   148   14  148 1  
   149   15  149 1  
   150   15  150 1  
   151   16  151 1  
   152   16  152 1  
   153   17  153 1  
   154   17  154 1  
   155   18  155 1  
   156   18  156 1  
   157   18  157 1  
   158   19  158 1  
   159   20  159 1  
   160   23  160 1  
   161   24  161 1  
   162   25  162 1  
   163   25  163 1  
   164   25  164 1  
   165   26  165 1  
   166   27  166 1  
   167   30  167 1  
   168   30  168 1  
   169   32  169 1  
   170   33  170 1  
   171   34  171 1  
   172   35  172 1  
   173   36  173 1  
   174   37  174 1  
   175   38  175 1  
   176   41  176 1  
   177   41  177 1  
   178   42  178 1  
   179   42  179 1  
   180   43  180 1  
   181   43  181 1  
   182   44  182 1  
   183   44  183 1  
   184   45  184 1  
   185   45  185 1  
   186   45  186 1  
   187   46  187 1  
   188   47  188 1  
   189   50  189 1  
   190   50  190 1  
   191   51  191 1  
   192   51  192 1  
   193   55  193 1  
   194   56  194 1  
   195   59  195 1  
   196   60  196 1  
   197   60  197 1  
   198   60  198 1  
   199   61  199 1  
   200   61  200 1  
   201   61  201 1  
   202   62  202 1  
   203   63  203 1  
   204   66  204 1  
   205   66  205 1  
   206   66  206 1  
   207   67  207 1  
   208   68  208 1  
   209   71  209 1  
   210   71  210 1  
   211   74  211 1  
   212   74  212 1  
   213   75  213 1  
   214   76  214 1  
   215   79  215 1  
   216   79  216 1  
   217   79  217 1  
   218   80  218 1  
   219   81  219 1  
   220   84  220 1  
   221   85  221 1  
   222   85  222 1  
   223   85  223 1  
   224   86  224 1  
   225   86  225 1  
   226   86  226 1  
   227   87  227 1  
   228   88  228 1  
   229   91  229 1  
   230   91  230 1  
   231   92  231 1  
   232   92  232 1  
   233   93  233 1  
   234   93  234 1  
   235   94  235 1  
   236   94  236 1  
   237   95  237 1  
   238   95  238 1  
   239   95  239 1  
   240   96  240 1  
   241   97  241 1  
   242  100  242 1  
   243  101  243 1  
   244  101  244 1  
   245  102  245 1  
   246  102  246 1  
   247  102  247 1  
   248  103  248 1  
   249  103  249 1  
   250  103  250 1  
   251  104  251 1  
   252  105  252 1  
   253  108  253 1  
   254  108  254 1  
   255  109  255 1  
   256  110  256 1  
   257  111  257 1  
   258  114  258 1  
   259  114  259 1  
   260  114  260 1  
   261  115  261 1  
   262  116  262 1  
   263  119  263 1  
   264  119  264 1  
   265  120  265 1  
   266  121  266 1  
   267  122  267 1  
   268  125  268 1  
   269  125  269 1  
   270  126  270 1  
   271  127  271 1  
   272  127  272 1  
   273  127  273 1  
   274  128  274 1  
   275  128  275 1  
   276  128  276 1  
@<TRIPOS>SUBSTRUCTURE
     1 LYS         1

