4e6d_ligand
  -I-interpret- 

 38 41  0  0  0  0  0  0  0  0999 V2000
   -1.6080  -52.1280  -18.1330 N   0  0  0  0  0
   -1.2280  -51.0590  -18.3110 C   0  0  0  0  0
   -0.5670  -49.7800  -18.5510 C   0  0  0  0  0
   -0.9580  -49.2350  -19.9960 C   0  0  0  0  0
   -1.4190  -50.0030  -20.8340 O   0  0  0  0  0
   -0.8100  -47.9190  -20.2500 N   0  0  0  0  0
   -0.2910  -47.0010  -19.2420 C   0  0  0  0  0
   -1.3650  -46.0070  -18.8380 C   0  0  0  0  0
   -1.8990  -45.2770  -20.0700 C   0  0  0  0  0
   -1.1740  -47.2530  -21.5030 C   0  0  0  0  0
   -2.2610  -46.2620  -21.1780 C   0  0  0  0  0
   -2.6680  -45.5640  -22.3910 N   0  0  0  0  0
   -3.9360  -45.0200  -22.5340 C   0  0  0  0  0
   -5.0840  -44.9700  -21.7500 C   0  0  0  0  0
   -5.5730  -45.4640  -20.4940 C   0  0  0  0  0
   -1.9490  -45.2400  -23.5220 C   0  0  0  0  0
   -2.6280  -44.5160  -24.3810 N   0  0  0  0  0
   -3.8780  -44.3540  -23.7870 C   0  0  0  0  0
   -4.9940  -43.6380  -24.2020 C   0  0  0  0  0
   -6.1110  -43.5400  -23.4720 N   0  0  0  0  0
   -6.1420  -44.1840  -22.2920 C   0  0  0  0  0
   -7.1830  -44.2160  -21.4100 N   0  0  0  0  0
   -6.8410  -44.9970  -20.3400 C   0  0  0  0  0
    0.5131  -49.9162  -18.4967 H   0  0  0  0  0
   -0.8859  -49.0616  -17.7958 H   0  0  0  0  0
    0.5597  -46.4595  -19.6559 H   0  0  0  0  0
    0.0172  -47.5702  -18.3650 H   0  0  0  0  0
   -0.9363  -45.2786  -18.1497 H   0  0  0  0  0
   -2.1840  -46.5423  -18.3576 H   0  0  0  0  0
   -1.1249  -44.6048  -20.4400 H   0  0  0  0  0
   -2.7954  -44.7251  -19.7872 H   0  0  0  0  0
   -1.5222  -47.9790  -22.2377 H   0  0  0  0  0
   -0.3101  -46.7485  -21.9358 H   0  0  0  0  0
   -3.0980  -46.8366  -20.7814 H   0  0  0  0  0
   -5.0285  -46.0967  -19.7930 H   0  0  0  0  0
   -0.9183  -45.5541  -23.6866 H   0  0  0  0  0
   -4.9579  -43.1326  -25.1671 H   0  0  0  0  0
   -7.4886  -45.2129  -19.4903 H   0  0  0  0  0
  1  2  3  0  0  0
  2  3  1  0  0  0
  3  4  1  0  0  0
  4  5  2  0  0  0
  4  6  1  0  0  0
  6  7  1  0  0  0
  6 10  1  0  0  0
  7  8  1  0  0  0
  8  9  1  0  0  0
  9 11  1  0  0  0
 10 11  1  0  0  0
 11 12  1  0  0  0
 12 13  4  0  0  0
 12 16  4  0  0  0
 13 14  4  0  0  0
 13 18  4  0  0  0
 14 15  4  0  0  0
 14 21  4  0  0  0
 15 23  4  0  0  0
 16 17  4  0  0  0
 17 18  4  0  0  0
 18 19  4  0  0  0
 19 20  4  0  0  0
 20 21  4  0  0  0
 21 22  4  0  0  0
 22 23  4  0  0  0
  3 24  1  0  0  0
  3 25  1  0  0  0
  7 26  1  0  0  0
  7 27  1  0  0  0
  8 28  1  0  0  0
  8 29  1  0  0  0
  9 30  1  0  0  0
  9 31  1  0  0  0
 10 32  1  0  0  0
 10 33  1  0  0  0
 11 34  1  0  0  0
 15 35  1  0  0  0
 16 36  1  0  0  0
 19 37  1  0  0  0
 23 38  1  0  0  0
M  END
$$$$
