4g3f_ligand
  -I-interpret- 

 32 34  0  0  0  0  0  0  0  0999 V2000
   15.3260   10.2580    6.0930 C   0  0  0  0  0
   17.6930   10.5210    6.4540 C   0  0  0  0  0
   15.8430   11.8820    3.5860 C   0  0  0  0  0
   16.3550    9.4700    8.1290 C   0  0  0  0  0
   18.8890   10.9660    5.9880 O   0  0  0  0  0
   17.6040    9.9050    7.6940 C   0  0  0  0  0
   15.2340    9.6470    7.3370 C   0  0  0  0  0
   14.0200    9.2180    7.7670 F   0  0  0  0  0
   16.5630   10.7060    5.6610 C   0  0  0  0  0
   16.7690   11.3240    4.4270 N   0  0  0  0  0
   14.5530   11.9520    3.7250 N   0  0  0  0  0
   13.9080   12.5610    2.7190 C   0  0  0  0  0
   14.6780   13.0230    1.7160 C   0  0  0  0  0
   16.3560   12.6480    2.0820 S   0  0  0  0  0
   12.4390   12.7580    2.6970 C   0  0  0  0  0
   11.7430   12.7120    3.8980 C   0  0  0  0  0
   10.3640   12.9190    3.9030 C   0  0  0  0  0
    9.6970   13.1730    2.7040 C   0  0  0  0  0
   10.3920   13.2140    1.5100 C   0  0  0  0  0
   11.7640   13.0170    1.5010 C   0  0  0  0  0
    9.6580   12.8800    5.1500 C   0  0  0  0  0
    9.1210   12.8440    6.1520 N   0  0  0  0  0
   14.4412   10.3825    5.4687 H   0  0  0  0  0
   16.2593    8.9862    9.1011 H   0  0  0  0  0
   18.7665   11.3622    5.1222 H   0  0  0  0  0
   18.4904    9.7650    8.3126 H   0  0  0  0  0
   17.7373   11.3657    4.1092 H   0  0  0  0  0
   14.3210   13.5422    0.8266 H   0  0  0  0  0
   12.2714   12.5153    4.8309 H   0  0  0  0  0
    8.6199   13.3403    2.7090 H   0  0  0  0  0
    9.8617   13.4011    0.5763 H   0  0  0  0  0
   12.3158   13.0640    0.5622 H   0  0  0  0  0
  1  7  4  0  0  0
  9  1  4  0  0  0
  2  5  1  0  0  0
  2  6  4  0  0  0
  9  2  4  0  0  0
 10  3  1  0  0  0
  3 11  4  0  0  0
  3 14  4  0  0  0
  6  4  4  0  0  0
  7  4  4  0  0  0
  7  8  1  0  0  0
  9 10  1  0  0  0
 11 12  4  0  0  0
 12 13  4  0  0  0
 12 15  1  0  0  0
 13 14  4  0  0  0
 15 16  4  0  0  0
 15 20  4  0  0  0
 16 17  4  0  0  0
 17 18  4  0  0  0
 17 21  1  0  0  0
 18 19  4  0  0  0
 19 20  4  0  0  0
 21 22  3  0  0  0
  1 23  1  0  0  0
  4 24  1  0  0  0
  5 25  1  0  0  0
  6 26  1  0  0  0
 10 27  1  0  0  0
 13 28  1  0  0  0
 16 29  1  0  0  0
 18 30  1  0  0  0
 19 31  1  0  0  0
 20 32  1  0  0  0
M  END
$$$$
