5adt_ligand
  -I-interpret- 

 60 63  0  0  0  0  0  0  0  0999 V2000
    4.8200   -4.6630   26.6480 C   0  0  0  0  0
    4.2980   -4.1360   25.2900 C   0  0  0  0  0
    4.8810   -3.1440   24.6170 O   0  0  0  0  0
    3.2300   -4.5800   24.6330 N   0  0  0  0  0
    3.1340   -3.8270   23.5210 C   0  0  0  0  0
    4.1460   -2.9570   23.4910 C   0  0  0  0  0
    4.4260   -2.0220   22.5480 C   0  0  0  0  0
    3.6990   -1.8470   21.5680 O   0  0  0  0  0
    5.4650   -1.2510   22.8800 N   0  0  0  0  0
    6.0300   -0.3040   22.1280 C   0  0  0  0  0
    6.7550    0.7060   22.7460 C   0  0  0  0  0
    7.4310    1.7050   22.0270 C   0  0  0  0  0
    8.3130    3.0270   22.9740 Cl  0  0  0  0  0
    6.0270   -0.3220   20.7620 C   0  0  0  0  0
    6.6990    0.6620   20.0400 C   0  0  0  0  0
    7.4100    1.7060   20.6200 C   0  0  0  0  0
    8.0930    2.6170   19.7500 C   0  0  0  0  0
    7.9280    2.6030   18.5270 O   0  0  0  0  0
    9.1480    3.2890   20.2330 N   0  0  0  0  0
    9.9850    4.0710   19.3500 C   0  0  0  0  0
   10.8330    5.1230   20.1100 C   0  0  0  0  0
    9.8570    6.1050   20.7790 C   0  0  0  0  0
   10.2190    7.5410   20.4230 C   0  0  0  0  0
   11.6430    7.7720   20.4640 O   0  0  0  0  0
   12.2750    7.1730   19.3410 C   0  0  0  0  0
   11.6450    5.7930   18.9950 C   0  0  0  0  0
   11.6610    4.3780   21.0950 C   0  0  0  0  0
   11.4490    4.3850   22.5070 C   0  0  0  0  0
   12.2190    3.6480   23.4220 C   0  0  0  0  0
   13.2650    2.8350   22.9340 C   0  0  0  0  0
   14.1190    2.0870   23.6970 O   0  0  0  0  0
   13.9760    2.0850   25.1630 C   0  0  0  0  0
   13.4850    2.8270   21.5590 C   0  0  0  0  0
   12.7150    3.5580   20.6660 C   0  0  0  0  0
    5.8376   -5.0339   26.5254 H   0  0  0  0  0
    4.8125   -3.8533   27.3777 H   0  0  0  0  0
    4.1763   -5.4717   26.9941 H   0  0  0  0  0
    2.3536   -3.9140   22.7650 H   0  0  0  0  0
    5.8687   -1.4016   23.8045 H   0  0  0  0  0
    6.8014    0.7243   23.8349 H   0  0  0  0  0
    5.4947   -1.1124   20.2328 H   0  0  0  0  0
    6.6650    0.6098   18.9518 H   0  0  0  0  0
    9.3616    3.2484   21.2296 H   0  0  0  0  0
    9.3351    4.6025   18.6549 H   0  0  0  0  0
   10.6695    3.3892   18.8453 H   0  0  0  0  0
    9.9162    5.9822   21.8604 H   0  0  0  0  0
    8.8469    5.8963   20.4266 H   0  0  0  0  0
    9.7480    8.1997   21.1526 H   0  0  0  0  0
    9.8736    7.7355   19.4076 H   0  0  0  0  0
   13.3274    7.0200   19.5800 H   0  0  0  0  0
   12.1487    7.8332   18.4829 H   0  0  0  0  0
   10.9485    5.9723   18.1760 H   0  0  0  0  0
   12.4774    5.1232   18.7791 H   0  0  0  0  0
   10.6394    5.0004   22.8993 H   0  0  0  0  0
   12.0124    3.7029   24.4908 H   0  0  0  0  0
   14.1000    3.1001   25.5403 H   0  0  0  0  0
   12.9859    1.7153   25.4297 H   0  0  0  0  0
   14.7367    1.4381   25.6001 H   0  0  0  0  0
   14.2996    2.2185   21.1663 H   0  0  0  0  0
   12.9354    3.4932   19.6005 H   0  0  0  0  0
  1  2  1  0  0  0
  2  3  4  0  0  0
  2  4  4  0  0  0
  3  6  4  0  0  0
  4  5  4  0  0  0
  5  6  4  0  0  0
  6  7  1  0  0  0
  7  8  2  0  0  0
  7  9  1  0  0  0
  9 10  1  0  0  0
 10 11  4  0  0  0
 10 14  4  0  0  0
 11 12  4  0  0  0
 12 13  1  0  0  0
 12 16  4  0  0  0
 14 15  4  0  0  0
 15 16  4  0  0  0
 16 17  1  0  0  0
 17 18  2  0  0  0
 17 19  1  0  0  0
 19 20  1  0  0  0
 20 21  1  0  0  0
 21 22  1  0  0  0
 21 26  1  0  0  0
 21 27  1  0  0  0
 22 23  1  0  0  0
 23 24  1  0  0  0
 24 25  1  0  0  0
 25 26  1  0  0  0
 27 28  4  0  0  0
 27 34  4  0  0  0
 28 29  4  0  0  0
 29 30  4  0  0  0
 30 31  1  0  0  0
 30 33  4  0  0  0
 31 32  1  0  0  0
 33 34  4  0  0  0
  1 35  1  0  0  0
  1 36  1  0  0  0
  1 37  1  0  0  0
  5 38  1  0  0  0
  9 39  1  0  0  0
 11 40  1  0  0  0
 14 41  1  0  0  0
 15 42  1  0  0  0
 19 43  1  0  0  0
 20 44  1  0  0  0
 20 45  1  0  0  0
 22 46  1  0  0  0
 22 47  1  0  0  0
 23 48  1  0  0  0
 23 49  1  0  0  0
 25 50  1  0  0  0
 25 51  1  0  0  0
 26 52  1  0  0  0
 26 53  1  0  0  0
 28 54  1  0  0  0
 29 55  1  0  0  0
 32 56  1  0  0  0
 32 57  1  0  0  0
 32 58  1  0  0  0
 33 59  1  0  0  0
 34 60  1  0  0  0
M  END
$$$$
