6dkg_ligand
  -I-interpret- 

 65 67  0  0  0  0  0  0  0  0999 V2000
  -19.7710    5.2180  -25.9940 C   0  0  0  0  0
  -21.6380    5.9430  -14.9020 C   0  0  0  0  0
  -20.2050    7.6950  -15.7010 C   0  0  0  0  0
  -20.2570    3.9810  -26.3690 C   0  0  0  0  0
  -20.9770    5.9550  -13.6980 C   0  0  0  0  0
  -19.5420    7.7220  -14.4830 C   0  0  0  0  0
  -21.8220    4.0770  -24.5600 C   0  0  0  0  0
  -20.2980    5.8980  -24.9060 C   0  0  0  0  0
  -21.2460    6.8030  -15.9070 C   0  0  0  0  0
  -19.9170    6.8290  -13.4930 C   0  0  0  0  0
  -21.2870    3.4090  -25.6430 C   0  0  0  0  0
  -21.3220    5.3150  -24.1720 C   0  0  0  0  0
  -19.6980    7.2340  -24.5910 C   0  0  0  0  0
  -21.4730    5.5470  -18.0250 C   0  0  0  0  0
  -21.2980    4.6200  -21.2190 C   0  0  0  0  0
  -21.8550    4.0600  -19.9230 C   0  0  0  0  0
  -23.3120    5.9850  -19.7330 C   0  0  0  0  0
  -22.3610    5.3990  -21.9680 C   0  0  0  0  0
  -22.8680    6.5080  -21.0740 C   0  0  0  0  0
  -22.9570   -0.3240  -26.9380 C   0  0  0  0  0
  -21.3480   -0.6940  -25.1330 C   0  0  0  0  0
  -21.9590    6.7180  -17.2110 C   0  0  0  0  0
  -21.0250    1.2620  -26.6840 C   0  0  0  0  0
  -21.4990   -0.1880  -26.5540 C   0  0  0  0  0
  -18.4330    5.6990  -12.0280 C   0  0  0  0  0
  -22.2850    5.1620  -19.0910 N   0  0  0  0  0
  -19.8680    7.7820  -23.3300 N   0  0  0  0  0
  -19.0560    7.8030  -25.4610 O   0  0  0  0  0
  -20.4120    4.9960  -17.7560 O   0  0  0  0  0
  -20.7200   -1.0120  -27.4310 O   0  0  0  0  0
  -21.8430    6.0700  -23.1150 O   0  0  0  0  0
  -21.8670    2.1720  -25.9340 O   0  0  0  0  0
  -19.2710    6.8500  -12.2570 O   0  0  0  0  0
  -21.8660    7.3960  -20.8460 F   0  0  0  0  0
  -18.9480    4.4910  -12.3470 F   0  0  0  0  0
  -18.2060    5.5700  -10.7070 F   0  0  0  0  0
  -17.2450    5.8210  -12.6660 F   0  0  0  0  0
  -18.9581    5.6684  -26.5636 H   0  0  0  0  0
  -22.4692    5.2565  -15.0628 H   0  0  0  0  0
  -19.9069    8.3765  -16.4978 H   0  0  0  0  0
  -19.8337    3.4605  -27.2280 H   0  0  0  0  0
  -21.2849    5.2773  -12.9018 H   0  0  0  0  0
  -18.7372    8.4359  -14.3075 H   0  0  0  0  0
  -22.6451    3.6293  -24.0031 H   0  0  0  0  0
  -20.9618    3.7928  -21.8441 H   0  0  0  0  0
  -20.4698    5.2892  -20.9860 H   0  0  0  0  0
  -21.0869    3.4836  -19.4074 H   0  0  0  0  0
  -22.6991    3.4037  -20.1349 H   0  0  0  0  0
  -24.1953    5.3652  -19.8869 H   0  0  0  0  0
  -23.5145    6.8390  -19.0866 H   0  0  0  0  0
  -23.1233    4.6775  -22.2620 H   0  0  0  0  0
  -23.7139    6.9719  -21.5814 H   0  0  0  0  0
  -23.2520   -1.3714  -26.8744 H   0  0  0  0  0
  -23.5676    0.2687  -26.2569 H   0  0  0  0  0
  -23.0975    0.0331  -27.9582 H   0  0  0  0  0
  -21.9731   -0.0980  -24.4681 H   0  0  0  0  0
  -21.6574   -1.7381  -25.0857 H   0  0  0  0  0
  -20.3053   -0.6085  -24.8271 H   0  0  0  0  0
  -21.7681    7.6333  -17.7713 H   0  0  0  0  0
  -23.0236    6.5876  -17.0166 H   0  0  0  0  0
  -21.0678    1.5437  -27.7361 H   0  0  0  0  0
  -20.0114    1.3281  -26.2886 H   0  0  0  0  0
  -19.4513    8.6857  -23.1063 H   0  0  0  0  0
  -20.4098    7.2817  -22.6253 H   0  0  0  0  0
  -19.7916   -0.9358  -27.1991 H   0  0  0  0  0
  4  1  4  0  0  0
  1  8  4  0  0  0
  2  5  4  0  0  0
  9  2  4  0  0  0
  3  6  4  0  0  0
  9  3  4  0  0  0
 11  4  4  0  0  0
  5 10  4  0  0  0
  6 10  4  0  0  0
 11  7  4  0  0  0
  7 12  4  0  0  0
 12  8  4  0  0  0
  8 13  1  0  0  0
 22  9  1  0  0  0
 10 33  1  0  0  0
 32 11  1  0  0  0
 12 31  1  0  0  0
 13 27  1  0  0  0
 13 28  2  0  0  0
 14 22  1  0  0  0
 26 14  1  0  0  0
 14 29  2  0  0  0
 15 16  1  0  0  0
 18 15  1  0  0  0
 16 26  1  0  0  0
 19 17  1  0  0  0
 17 26  1  0  0  0
 18 19  1  0  0  0
 31 18  1  0  0  0
 19 34  1  0  0  0
 24 20  1  0  0  0
 24 21  1  0  0  0
 23 24  1  0  0  0
 23 32  1  0  0  0
 24 30  1  0  0  0
 33 25  1  0  0  0
 25 35  1  0  0  0
 25 36  1  0  0  0
 25 37  1  0  0  0
  1 38  1  0  0  0
  2 39  1  0  0  0
  3 40  1  0  0  0
  4 41  1  0  0  0
  5 42  1  0  0  0
  6 43  1  0  0  0
  7 44  1  0  0  0
 15 45  1  0  0  0
 15 46  1  0  0  0
 16 47  1  0  0  0
 16 48  1  0  0  0
 17 49  1  0  0  0
 17 50  1  0  0  0
 18 51  1  0  0  0
 19 52  1  0  0  0
 20 53  1  0  0  0
 20 54  1  0  0  0
 20 55  1  0  0  0
 21 56  1  0  0  0
 21 57  1  0  0  0
 21 58  1  0  0  0
 22 59  1  0  0  0
 22 60  1  0  0  0
 23 61  1  0  0  0
 23 62  1  0  0  0
 27 63  1  0  0  0
 27 64  1  0  0  0
 30 65  1  0  0  0
M  END
$$$$
