4ymq_ligand
  -I-interpret- 

 69 71  0  0  0  0  0  0  0  0999 V2000
   -6.7510   28.8720   15.9420 N   0  0  0  0  0
   -8.2100   28.9970   15.8520 C   0  0  0  0  0
   -8.8480   27.6430   15.6840 C   0  0  0  0  0
   -9.8060   25.6610   16.6180 C   0  0  0  0  0
   -9.0690   27.1470   14.4140 C   0  0  0  0  0
  -10.2880   22.8170   16.2690 C   0  0  0  0  0
   -5.9640   29.0060   17.1040 C   0  0  0  0  0
   -3.7370   28.9100   18.0060 C   0  0  0  0  0
   -5.5750   29.3740   19.4620 C   0  0  0  0  0
   -5.6280   29.6440   13.8330 O   0  0  0  0  0
   -5.6660   28.5320   14.7200 S   0  0  0  0  0
   -5.8990   27.1920   14.2920 O   0  0  0  0  0
   -4.6040   28.8320   16.9080 C   0  0  0  0  0
   -4.2350   28.5510   15.5780 N   0  0  0  0  0
   -2.8860   28.3180   15.0590 C   0  0  0  0  0
   -2.7650   26.8300   14.7230 C   0  0  0  0  0
   -1.4100   26.5740   14.0720 C   0  0  0  0  0
   -0.9650   25.1530   14.3360 C   0  0  0  0  0
    0.1060   24.9410   15.1220 N   0  0  0  0  0
    0.7940   26.0990   15.6940 C   0  0  0  0  0
    0.5610   23.5640   15.3740 C   0  0  0  0  0
   -0.0630   23.0570   16.6740 C   0  0  0  0  0
    2.1030   23.4600   15.3410 C   0  0  0  0  0
    2.7900   23.6160   16.7060 C   0  0  0  0  0
    3.4030   24.9040   16.8340 O   0  0  0  0  0
   -1.5550   24.2080   13.8460 O   0  0  0  0  0
   -4.2220   29.1690   19.2730 C   0  0  0  0  0
   -6.4400   29.2770   18.3910 C   0  0  0  0  0
   -9.6570   25.9040   14.2490 C   0  0  0  0  0
  -10.0370   25.1550   15.3500 C   0  0  0  0  0
   -9.2170   26.9020   16.7910 C   0  0  0  0  0
  -10.6700   23.7930   15.1410 C   0  0  0  0  0
  -10.1570   23.2670   13.9160 O   0  0  0  0  0
  -12.2050   23.9050   15.0390 C   0  0  0  0  0
  -12.8150   23.5410   16.2390 F   0  0  0  0  0
  -12.6680   23.0580   14.0260 F   0  0  0  0  0
  -12.5870   25.2110   14.7220 F   0  0  0  0  0
  -10.9520   23.1250   17.4610 F   0  0  0  0  0
  -10.6590   21.5300   15.8750 F   0  0  0  0  0
   -8.9120   22.8280   16.5060 F   0  0  0  0  0
   -8.4593   29.6147   14.9892 H   0  0  0  0  0
   -8.5830   29.4521   16.7695 H   0  0  0  0  0
  -10.0916   25.0747   17.4914 H   0  0  0  0  0
   -8.7807   27.7337   13.5418 H   0  0  0  0  0
   -2.6669   28.7645   17.8584 H   0  0  0  0  0
   -5.9583   29.6117   20.4543 H   0  0  0  0  0
   -2.1404   28.6000   15.8024 H   0  0  0  0  0
   -2.7134   28.9224   14.1685 H   0  0  0  0  0
   -3.5616   26.5432   14.0366 H   0  0  0  0  0
   -2.8507   26.2399   15.6354 H   0  0  0  0  0
   -0.6763   27.2619   14.4921 H   0  0  0  0  0
   -1.4959   26.7273   12.9963 H   0  0  0  0  0
    1.1609   26.7361   14.8892 H   0  0  0  0  0
    0.0987   26.6621   16.3166 H   0  0  0  0  0
    1.6330   25.7584   16.3007 H   0  0  0  0  0
    0.2194   22.9098   14.5718 H   0  0  0  0  0
    0.2444   23.7006   17.4983 H   0  0  0  0  0
   -1.1492   23.0729   16.5845 H   0  0  0  0  0
    0.2724   22.0373   16.8630 H   0  0  0  0  0
    2.4612   24.2750   14.7121 H   0  0  0  0  0
    2.3446   22.4610   14.9781 H   0  0  0  0  0
    3.5630   22.8527   16.7954 H   0  0  0  0  0
    2.0380   23.5097   17.4878 H   0  0  0  0  0
    3.8234   24.9730   17.6943 H   0  0  0  0  0
   -3.5391   29.2115   20.1215 H   0  0  0  0  0
   -7.5096   29.4136   18.5504 H   0  0  0  0  0
   -9.8219   25.5124   13.2452 H   0  0  0  0  0
   -9.0453   27.2923   17.7941 H   0  0  0  0  0
  -10.5405   22.4018   13.7551 H   0  0  0  0  0
  2  1  1  0  0  0
  1  7  1  0  0  0
  1 11  1  0  0  0
  3  2  1  0  0  0
  5  3  4  0  0  0
 31  3  4  0  0  0
 30  4  4  0  0  0
  4 31  4  0  0  0
 29  5  4  0  0  0
 32  6  1  0  0  0
  6 38  1  0  0  0
  6 39  1  0  0  0
  6 40  1  0  0  0
  7 13  4  0  0  0
  7 28  4  0  0  0
 13  8  4  0  0  0
  8 27  4  0  0  0
  9 27  4  0  0  0
 28  9  4  0  0  0
 11 10  2  0  0  0
 11 12  2  0  0  0
 11 14  1  0  0  0
 14 13  1  0  0  0
 14 15  1  0  0  0
 15 16  1  0  0  0
 16 17  1  0  0  0
 17 18  1  0  0  0
 18 19  1  0  0  0
 18 26  2  0  0  0
 19 20  1  0  0  0
 19 21  1  0  0  0
 21 22  1  0  0  0
 21 23  1  0  0  0
 23 24  1  0  0  0
 24 25  1  0  0  0
 30 29  4  0  0  0
 30 32  1  0  0  0
 32 33  1  0  0  0
 32 34  1  0  0  0
 34 35  1  0  0  0
 34 36  1  0  0  0
 34 37  1  0  0  0
  2 41  1  0  0  0
  2 42  1  0  0  0
  4 43  1  0  0  0
  5 44  1  0  0  0
  8 45  1  0  0  0
  9 46  1  0  0  0
 15 47  1  0  0  0
 15 48  1  0  0  0
 16 49  1  0  0  0
 16 50  1  0  0  0
 17 51  1  0  0  0
 17 52  1  0  0  0
 20 53  1  0  0  0
 20 54  1  0  0  0
 20 55  1  0  0  0
 21 56  1  0  0  0
 22 57  1  0  0  0
 22 58  1  0  0  0
 22 59  1  0  0  0
 23 60  1  0  0  0
 23 61  1  0  0  0
 24 62  1  0  0  0
 24 63  1  0  0  0
 25 64  1  0  0  0
 27 65  1  0  0  0
 28 66  1  0  0  0
 29 67  1  0  0  0
 31 68  1  0  0  0
 33 69  1  0  0  0
M  END
$$$$
