4qz2_ligand
  -I-interpret- 

 87 89  0  0  0  0  0  0  0  0999 V2000
   59.8160 -134.4740   34.6550 C   0  0  0  0  0
   59.8930 -135.6670   34.9430 O   0  0  0  0  0
   58.6580 -133.9590   33.7830 C   0  0  0  0  0
   57.6400 -133.4630   34.7030 N   0  3  0  0  0
   55.0250 -132.8190   35.3540 O   0  0  0  0  0
   56.7110 -134.5360   35.1260 C   0  0  0  0  0
   56.8940 -132.3840   34.0460 C   0  0  0  0  0
   55.6750 -133.9280   35.9940 C   0  0  0  0  0
   55.9280 -131.7600   34.9880 C   0  0  0  0  0
   60.6980 -133.5410   35.0550 N   0  0  0  0  0
   61.8580 -133.8870   35.8950 C   0  0  0  0  0
   61.4180 -133.9770   37.3600 C   0  0  0  0  0
   60.6550 -133.1430   37.8440 O   0  0  0  0  0
   62.9570 -132.8310   35.7410 C   0  0  0  0  0
   61.9260 -135.0240   38.0300 N   0  0  0  0  0
   61.6160 -135.2800   39.4400 C   0  0  0  0  0
   61.0550 -136.6740   39.5690 C   0  0  0  0  0
   59.6780 -136.5880   39.3520 C   0  0  0  0  0
   59.1150 -136.9220   38.1210 C   0  0  0  0  0
   57.7370 -136.8400   37.9230 C   0  0  0  0  0
   56.8990 -136.4240   38.9670 C   0  0  0  0  0
   55.5330 -136.3060   38.8860 O   0  0  0  0  0
   54.8110 -136.7540   37.7300 C   0  0  0  0  0
   57.4720 -136.0970   40.1930 C   0  0  0  0  0
   58.8440 -136.1810   40.3870 C   0  0  0  0  0
   62.9090 -135.1960   40.2580 C   0  0  0  0  0
   64.0050 -135.3570   39.7200 O   0  0  0  0  0
   62.7250 -134.9520   41.5680 N   0  0  0  0  0
   63.8310 -134.8350   42.5290 C   0  0  0  0  0
   63.6720 -135.8810   43.6570 C   0  0  0  0  0
   62.3530 -135.7710   44.1880 O   0  0  0  0  0
   63.9870 -137.4030   43.2810 C   0  0  0  0  0
   65.0030 -137.5060   42.0890 C   0  0  0  0  0
   62.6770 -138.0080   42.8000 C   0  0  0  0  0
   62.9880 -139.2440   42.1360 O   0  0  0  0  0
   63.7860 -133.4660   43.1920 C   0  0  0  0  0
   64.5010 -132.4590   42.5030 C   0  0  0  0  0
   65.3470 -132.6690   41.4040 C   0  0  0  0  0
   65.9990 -131.5920   40.8040 C   0  0  0  0  0
   65.8200 -130.2980   41.2860 C   0  0  0  0  0
   64.9840 -130.0740   42.3740 C   0  0  0  0  0
   64.3370 -131.1520   42.9710 C   0  0  0  0  0
   58.2608 -134.7531   33.1507 H   0  0  0  0  0
   58.9952 -133.1706   33.1101 H   0  0  0  0  0
   58.1037 -133.1147   35.5421 H   0  0  0  0  0
   57.2520 -135.3099   35.6704 H   0  0  0  0  0
   56.2482 -134.9990   34.2545 H   0  0  0  0  0
   56.3432 -132.8006   33.2027 H   0  0  0  0  0
   57.5989 -131.6233   33.7105 H   0  0  0  0  0
   54.9228 -134.6863   36.2116 H   0  0  0  0  0
   56.1586 -133.5643   36.9006 H   0  0  0  0  0
   56.4293 -131.3384   35.8592 H   0  0  0  0  0
   55.4024 -130.9220   34.5303 H   0  0  0  0  0
   60.5608 -132.5712   34.7703 H   0  0  0  0  0
   62.2556 -134.8508   35.5771 H   0  0  0  0  0
   63.2718 -132.7854   34.6984 H   0  0  0  0  0
   62.5708 -131.8591   36.0481 H   0  0  0  0  0
   63.8077 -133.0997   36.3673 H   0  0  0  0  0
   62.5504 -135.6647   37.5401 H   0  0  0  0  0
   60.8950 -134.5467   39.8012 H   0  0  0  0  0
   61.2625 -137.0807   40.5588 H   0  0  0  0  0
   61.5167 -137.3419   38.8418 H   0  0  0  0  0
   59.7586 -137.2506   37.3049 H   0  0  0  0  0
   57.3105 -137.1000   36.9542 H   0  0  0  0  0
   55.1613 -136.2118   36.8517 H   0  0  0  0  0
   54.9784 -137.8219   37.5900 H   0  0  0  0  0
   53.7467 -136.5675   37.8731 H   0  0  0  0  0
   56.8333 -135.7699   41.0134 H   0  0  0  0  0
   59.2702 -135.9261   41.3573 H   0  0  0  0  0
   61.7708 -134.8428   41.9114 H   0  0  0  0  0
   64.7656 -134.9867   41.9890 H   0  0  0  0  0
   64.4431 -135.6364   44.3875 H   0  0  0  0  0
   62.2375 -136.4147   44.8908 H   0  0  0  0  0
   64.4114 -137.9074   44.1491 H   0  0  0  0  0
   64.5828 -137.0143   41.2116 H   0  0  0  0  0
   65.9378 -137.0193   42.3670 H   0  0  0  0  0
   65.1914 -138.5557   41.8635 H   0  0  0  0  0
   62.1710 -137.3259   42.1168 H   0  0  0  0  0
   62.0083 -138.1862   43.6421 H   0  0  0  0  0
   62.1769 -139.6495   41.8208 H   0  0  0  0  0
   64.2476 -133.5709   44.1739 H   0  0  0  0  0
   62.7411 -133.1566   43.2161 H   0  0  0  0  0
   65.4953 -133.6774   41.0176 H   0  0  0  0  0
   66.6544 -131.7647   39.9503 H   0  0  0  0  0
   66.3343 -129.4624   40.8113 H   0  0  0  0  0
   64.8367 -129.0638   42.7558 H   0  0  0  0  0
   63.6852 -130.9724   43.8260 H   0  0  0  0  0
  1  2  2  0  0  0
  3  1  1  0  0  0
  1 10  1  0  0  0
  4  3  1  0  0  0
  6  4  1  0  0  0
  4  7  1  0  0  0
  8  5  1  0  0  0
  5  9  1  0  0  0
  6  8  1  0  0  0
  7  9  1  0  0  0
 10 11  1  0  0  0
 11 12  1  0  0  0
 11 14  1  0  0  0
 12 13  2  0  0  0
 12 15  1  0  0  0
 15 16  1  0  0  0
 16 17  1  0  0  0
 16 26  1  0  0  0
 17 18  1  0  0  0
 18 19  4  0  0  0
 18 25  4  0  0  0
 19 20  4  0  0  0
 20 21  4  0  0  0
 21 22  1  0  0  0
 21 24  4  0  0  0
 22 23  1  0  0  0
 24 25  4  0  0  0
 26 27  2  0  0  0
 26 28  1  0  0  0
 28 29  1  0  0  0
 29 30  1  0  0  0
 29 36  1  0  0  0
 30 31  1  0  0  0
 30 32  1  0  0  0
 32 33  1  0  0  0
 32 34  1  0  0  0
 34 35  1  0  0  0
 36 37  1  0  0  0
 37 38  4  0  0  0
 37 42  4  0  0  0
 38 39  4  0  0  0
 39 40  4  0  0  0
 40 41  4  0  0  0
 41 42  4  0  0  0
  3 43  1  0  0  0
  3 44  1  0  0  0
  4 45  1  0  0  0
  6 46  1  0  0  0
  6 47  1  0  0  0
  7 48  1  0  0  0
  7 49  1  0  0  0
  8 50  1  0  0  0
  8 51  1  0  0  0
  9 52  1  0  0  0
  9 53  1  0  0  0
 10 54  1  0  0  0
 11 55  1  0  0  0
 14 56  1  0  0  0
 14 57  1  0  0  0
 14 58  1  0  0  0
 15 59  1  0  0  0
 16 60  1  0  0  0
 17 61  1  0  0  0
 17 62  1  0  0  0
 19 63  1  0  0  0
 20 64  1  0  0  0
 23 65  1  0  0  0
 23 66  1  0  0  0
 23 67  1  0  0  0
 24 68  1  0  0  0
 25 69  1  0  0  0
 28 70  1  0  0  0
 29 71  1  0  0  0
 30 72  1  0  0  0
 31 73  1  0  0  0
 32 74  1  0  0  0
 33 75  1  0  0  0
 33 76  1  0  0  0
 33 77  1  0  0  0
 34 78  1  0  0  0
 34 79  1  0  0  0
 35 80  1  0  0  0
 36 81  1  0  0  0
 36 82  1  0  0  0
 38 83  1  0  0  0
 39 84  1  0  0  0
 40 85  1  0  0  0
 41 86  1  0  0  0
 42 87  1  0  0  0
M  END
$$$$
