5mt4_ligand
  -I-interpret- 

 34 35  0  0  0  0  0  0  0  0999 V2000
    9.2030   11.1740    7.6500 C   0  0  0  0  0
    7.8040    8.1040   10.5280 C   0  0  0  0  0
    7.0020    8.5070    9.4420 C   0  0  0  0  0
    7.4190    9.4860    8.5160 C   0  0  0  0  0
    9.3700   10.9640    5.1690 C   0  0  0  0  0
    9.7480   10.4200    2.7440 C   0  0  0  0  0
    9.1980    9.4460    1.9060 C   0  0  0  0  0
    9.1250    9.6700    0.4940 C   0  0  0  0  0
    9.5850   10.8820   -0.0810 C   0  0  0  0  0
   10.1540   11.8510    0.7610 C   0  0  0  0  0
   10.2250   11.6370    2.1520 C   0  0  0  0  0
    9.6350   10.5000    6.4240 N   0  0  0  0  0
    8.6830   10.1110    8.6620 C   0  0  0  0  0
    9.4730    9.7520    9.7720 C   0  0  0  0  0
    9.0290    8.7440   10.7010 C   0  0  0  0  0
    8.8000   12.0920    5.0010 O   0  0  0  0  0
    9.8340   10.1550    4.1530 N   0  0  0  0  0
    8.6500    8.1570    2.4540 C   0  0  0  0  0
    8.7590    7.7740    3.6180 O   0  0  0  0  0
    7.9730    7.4170    1.5800 O   0  0  0  0  0
    8.4052   11.8796    7.4181 H   0  0  0  0  0
   10.0432   11.7143    8.0861 H   0  0  0  0  0
    7.4771    7.3185   11.2093 H   0  0  0  0  0
    6.0232    8.0452    9.3126 H   0  0  0  0  0
    6.7681    9.7625    7.6866 H   0  0  0  0  0
    8.7087    8.8956   -0.1503 H   0  0  0  0  0
    9.4987   11.0575   -1.1533 H   0  0  0  0  0
   10.5437   12.7757    0.3354 H   0  0  0  0  0
   10.6505   12.4110    2.7907 H   0  0  0  0  0
   10.1649    9.6331    6.5136 H   0  0  0  0  0
   10.4330   10.2434    9.9301 H   0  0  0  0  0
    9.6596    8.4790   11.5497 H   0  0  0  0  0
   10.2828    9.2818    4.4297 H   0  0  0  0  0
    7.9800    7.8496    0.7230 H   0  0  0  0  0
 12  1  1  0  0  0
  1 13  1  0  0  0
  3  2  4  0  0  0
  2 15  4  0  0  0
  4  3  4  0  0  0
 13  4  4  0  0  0
  5 12  1  0  0  0
  5 16  2  0  0  0
 17  5  1  0  0  0
  6  7  4  0  0  0
  6 11  4  0  0  0
  6 17  1  0  0  0
  7  8  4  0  0  0
  7 18  1  0  0  0
  8  9  4  0  0  0
  9 10  4  0  0  0
 10 11  4  0  0  0
 13 14  4  0  0  0
 14 15  4  0  0  0
 18 19  2  0  0  0
 18 20  1  0  0  0
  1 21  1  0  0  0
  1 22  1  0  0  0
  2 23  1  0  0  0
  3 24  1  0  0  0
  4 25  1  0  0  0
  8 26  1  0  0  0
  9 27  1  0  0  0
 10 28  1  0  0  0
 11 29  1  0  0  0
 12 30  1  0  0  0
 14 31  1  0  0  0
 15 32  1  0  0  0
 17 33  1  0  0  0
 20 34  1  0  0  0
M  END
$$$$
