5e0l_ligand
  -I-interpret- 

165164  0  0  0  0  0  0  0  0999 V2000
  -29.3000   28.7300  -16.9050 N   0  3  0  0  0
  -28.1690   28.9410  -17.8070 C   0  0  0  0  0
  -27.2650   27.7130  -17.8010 C   0  0  0  0  0
  -26.9790   27.1490  -16.7360 O   0  0  0  0  0
  -27.3640   30.1760  -17.3940 C   0  0  0  0  0
  -28.2090   31.3350  -16.8980 C   0  0  0  0  0
  -27.3440   32.4960  -16.4070 C   0  0  0  0  0
  -27.0890   32.4370  -14.9010 C   0  0  0  0  0
  -28.3410   32.4160  -14.0830 N   0  3  0  0  0
  -26.8100   27.3070  -18.9880 N   0  0  0  0  0
  -26.0080   26.0890  -19.1370 C   0  0  0  0  0
  -24.7060   26.3540  -19.8860 C   0  0  0  0  0
  -24.6600   27.1350  -20.8300 O   0  0  0  0  0
  -26.8030   25.0130  -19.8540 C   0  0  0  0  0
  -23.6570   25.6600  -19.4670 N   0  0  0  0  0
  -22.3180   25.8380  -19.9980 C   0  0  0  0  0
  -21.7700   24.4740  -20.3800 C   0  0  0  0  0
  -21.8850   23.5470  -19.6100 O   0  0  0  0  0
  -21.3710   26.4250  -18.9290 C   0  0  0  0  0
  -21.9810   27.6330  -18.2270 C   0  0  0  0  0
  -20.0560   26.7660  -19.5620 C   0  0  0  0  0
  -21.0960   28.1580  -17.0930 C   0  0  0  0  0
  -21.1410   24.3670  -21.5470 N   0  0  0  0  0
  -20.3850   23.1730  -21.9140 C   0  0  0  0  0
  -19.0270   23.1850  -21.1900 C   0  0  0  0  0
  -18.4000   24.2410  -21.0380 O   0  0  0  0  0
  -20.1300   23.1250  -23.4320 C   0  0  0  0  0
  -21.3970   22.9580  -24.2540 C   0  0  0  0  0
  -22.4630   22.6090  -23.7100 O   0  0  0  0  0
  -21.3080   23.1770  -25.4890 O   0  0  0  0  0
  -18.5800   22.0160  -20.7560 N   0  0  0  0  0
  -17.2720   21.8490  -20.1480 C   0  0  0  0  0
  -16.6760   20.5230  -20.6210 C   0  0  0  0  0
  -17.3890   19.5480  -20.8180 O   0  0  0  0  0
  -17.3850   21.8700  -18.6060 C   0  0  0  0  0
  -15.3620   20.5270  -20.8150 N   0  0  0  0  0
  -14.5760   19.3610  -21.1790 C   0  0  0  0  0
  -13.5540   19.1000  -20.1010 C   0  0  0  0  0
  -13.0130   20.0310  -19.5020 O   0  0  0  0  0
  -13.8450   19.6010  -22.4290 C   0  0  0  0  0
  -13.3260   17.8240  -19.8460 N   0  0  0  0  0
  -12.2740   17.4030  -18.9210 C   0  0  0  0  0
  -11.4620   16.2830  -19.5420 C   0  0  0  0  0
  -11.9660   15.4980  -20.3550 O   0  0  0  0  0
  -12.8430   16.9350  -17.5320 C   0  0  0  0  0
  -13.4960   15.6670  -17.6390 O   0  0  0  0  0
  -13.8290   17.9390  -16.9350 C   0  0  0  0  0
  -10.2000   16.2060  -19.1570 N   0  0  0  0  0
   -9.3410   15.1060  -19.6270 C   0  0  0  0  0
   -8.3700   14.7620  -18.4870 C   0  0  0  0  0
   -7.6610   15.6370  -18.0120 O   0  0  0  0  0
   -8.5610   15.5430  -20.8510 C   0  0  0  0  0
   -7.6210   14.4780  -21.4000 C   0  0  0  0  0
   -8.3490   13.2330  -21.8070 C   0  0  0  0  0
   -9.2460   13.2830  -22.6310 O   0  0  0  0  0
   -7.9930   12.0850  -21.2040 N   0  0  0  0  0
   -8.3370   13.4820  -18.0960 N   0  0  0  0  0
   -7.3670   13.0110  -17.1020 C   0  0  0  0  0
   -5.9450   13.1370  -17.5690 C   0  0  0  0  0
   -5.6830   13.0860  -18.7830 O   0  0  0  0  0
   -7.5960   11.5350  -16.7370 C   0  0  0  0  0
   -7.6910   10.7310  -17.9340 O   0  0  0  0  0
   -8.8660   11.3800  -15.9240 C   0  0  0  0  0
   -5.0470   13.2630  -16.6200 N   0  0  0  0  0
   -3.6450   13.3550  -16.8830 C   0  0  0  0  0
   -3.1270   12.0320  -17.3410 C   0  0  0  0  0
   -2.2970   11.9820  -18.1910 O   0  0  0  0  0
   -2.8910   13.7980  -15.6410 C   0  0  0  0  0
   -3.6010   14.8270  -14.8030 C   0  0  0  0  0
   -3.2910   16.2400  -15.1530 C   0  0  0  0  0
   -2.1760   16.5320  -15.5860 O   0  0  0  0  0
   -4.1650   17.0720  -14.9570 O   0  0  0  0  0
   -3.6340   10.9500  -16.7960 N   0  0  0  0  0
   -3.2610    9.6200  -17.2390 C   0  0  0  0  0
   -4.3920    8.9640  -18.0570 C   0  0  0  0  0
   -5.3620    9.6490  -18.4330 O   0  0  0  0  0
   -2.9390    8.6850  -16.0840 C   0  0  0  0  0
   -1.9800    9.2500  -15.0770 C   0  0  0  0  0
   -0.6530    9.5910  -15.6800 C   0  0  0  0  0
    0.0040   10.5040  -15.1360 O   0  0  0  0  0
   -0.2920    8.9610  -16.6990 O   0  0  0  0  0
   -4.2430    7.7230  -18.2640 O   0  0  0  0  0
  -29.8194   27.9034  -17.2005 H   0  0  0  0  0
  -28.9548   28.5945  -15.9548 H   0  0  0  0  0
  -29.9121   29.5455  -16.9326 H   0  0  0  0  0
  -28.5584   29.1023  -18.8122 H   0  0  0  0  0
  -26.8319   30.5230  -18.2797 H   0  0  0  0  0
  -26.7161   29.8759  -16.5704 H   0  0  0  0  0
  -28.8180   30.9841  -16.0648 H   0  0  0  0  0
  -28.8236   31.6905  -17.7250 H   0  0  0  0  0
  -27.8720   33.4247  -16.6234 H   0  0  0  0  0
  -26.3811   32.4371  -16.9145 H   0  0  0  0  0
  -26.5346   33.3348  -14.6276 H   0  0  0  0  0
  -26.5491   31.5124  -14.6966 H   0  0  0  0  0
  -28.0983   32.3766  -13.0931 H   0  0  0  0  0
  -28.8811   33.2611  -14.2685 H   0  0  0  0  0
  -28.8944   31.5960  -14.3315 H   0  0  0  0  0
  -27.0268   27.8609  -19.8166 H   0  0  0  0  0
  -25.7552   25.7449  -18.1341 H   0  0  0  0  0
  -27.6983   24.7797  -19.2777 H   0  0  0  0  0
  -27.0890   25.3723  -20.8425 H   0  0  0  0  0
  -26.1906   24.1170  -19.9549 H   0  0  0  0  0
  -23.7982   24.9652  -18.7337 H   0  0  0  0  0
  -22.3725   26.5150  -20.8505 H   0  0  0  0  0
  -21.2107   25.6712  -18.1582 H   0  0  0  0  0
  -22.9344   27.3268  -17.7964 H   0  0  0  0  0
  -22.0937   28.4292  -18.9629 H   0  0  0  0  0
  -19.6135   25.8644  -19.9856 H   0  0  0  0  0
  -20.2140   27.5003  -20.3519 H   0  0  0  0  0
  -19.3875   27.1804  -18.8073 H   0  0  0  0  0
  -20.9548   27.3725  -16.3506 H   0  0  0  0  0
  -20.1285   28.4560  -17.4971 H   0  0  0  0  0
  -21.5769   29.0180  -16.6269 H   0  0  0  0  0
  -21.1882   25.1437  -22.2065 H   0  0  0  0  0
  -20.9682   22.2991  -21.6237 H   0  0  0  0  0
  -19.4944   22.2620  -23.6305 H   0  0  0  0  0
  -19.6762   24.0738  -23.7183 H   0  0  0  0  0
  -20.4079   23.4326  -25.7035 H   0  0  0  0  0
  -19.1808   21.1975  -20.8531 H   0  0  0  0  0
  -16.6220   22.6712  -20.4475 H   0  0  0  0  0
  -17.8054   22.8236  -18.2867 H   0  0  0  0  0
  -18.0343   21.0577  -18.2795 H   0  0  0  0  0
  -16.3946   21.7435  -18.1686 H   0  0  0  0  0
  -14.8694   21.4127  -20.7001 H   0  0  0  0  0
  -15.2527   18.5151  -21.3003 H   0  0  0  0  0
  -14.5548   19.8130  -23.2286 H   0  0  0  0  0
  -13.1765   20.4522  -22.2998 H   0  0  0  0  0
  -13.2627   18.7154  -22.6837 H   0  0  0  0  0
  -13.8975   17.1150  -20.3054 H   0  0  0  0  0
  -11.6411   18.2712  -18.7372 H   0  0  0  0  0
  -11.9806   16.8558  -16.8701 H   0  0  0  0  0
  -13.8322   15.4078  -16.7780 H   0  0  0  0  0
  -13.3273   18.8954  -16.7878 H   0  0  0  0  0
  -14.6699   18.0694  -17.6161 H   0  0  0  0  0
  -14.1904   17.5656  -15.9768 H   0  0  0  0  0
   -9.8181   16.9138  -18.5296 H   0  0  0  0  0
   -9.9431   14.2387  -19.8981 H   0  0  0  0  0
   -7.9476   16.3945  -20.5563 H   0  0  0  0  0
   -9.2862   15.7680  -21.6330 H   0  0  0  0  0
   -6.9127   14.2144  -20.6146 H   0  0  0  0  0
   -7.1270   14.8849  -22.2823 H   0  0  0  0  0
   -8.4788   11.2175  -21.4315 H   0  0  0  0  0
   -7.2371   12.0817  -20.5191 H   0  0  0  0  0
   -9.0008   12.8201  -18.4981 H   0  0  0  0  0
   -7.5245   13.6518  -16.2344 H   0  0  0  0  0
   -6.7478   11.1963  -16.1420 H   0  0  0  0  0
   -7.8337    9.8132  -17.6912 H   0  0  0  0  0
   -8.7823   11.9633  -15.0070 H   0  0  0  0  0
   -9.7150   11.7370  -16.5070 H   0  0  0  0  0
   -9.0107   10.3286  -15.6754 H   0  0  0  0  0
   -5.3639   13.2968  -15.6511 H   0  0  0  0  0
   -3.4902   14.0975  -17.6659 H   0  0  0  0  0
   -1.9618   14.2547  -15.9817 H   0  0  0  0  0
   -2.7650   12.9140  -15.0159 H   0  0  0  0  0
   -3.2740   14.6771  -13.7741 H   0  0  0  0  0
   -4.6692   14.6873  -14.9687 H   0  0  0  0  0
   -1.6461   15.7354  -15.6653 H   0  0  0  0  0
   -4.3102   11.0478  -16.0386 H   0  0  0  0  0
   -2.3700    9.7612  -17.8507 H   0  0  0  0  0
   -2.4689    7.7993  -16.5113 H   0  0  0  0  0
   -3.8747    8.4902  -15.5600 H   0  0  0  0  0
   -1.8165    8.4957  -14.3074 H   0  0  0  0  0
   -2.4134   10.1663  -14.6763 H   0  0  0  0  0
   -0.9615    8.3116  -16.9262 H   0  0  0  0  0
   -3.4152    7.4319  -17.8747 H   0  0  0  0  0
  1  2  1  0  0  0
  2  3  1  0  0  0
  2  5  1  0  0  0
  3  4  2  0  0  0
  3 10  1  0  0  0
  5  6  1  0  0  0
  6  7  1  0  0  0
  7  8  1  0  0  0
  8  9  1  0  0  0
 10 11  1  0  0  0
 11 12  1  0  0  0
 11 14  1  0  0  0
 12 13  2  0  0  0
 12 15  1  0  0  0
 15 16  1  0  0  0
 16 17  1  0  0  0
 16 19  1  0  0  0
 17 18  2  0  0  0
 17 23  1  0  0  0
 19 20  1  0  0  0
 19 21  1  0  0  0
 20 22  1  0  0  0
 23 24  1  0  0  0
 24 25  1  0  0  0
 24 27  1  0  0  0
 25 26  2  0  0  0
 25 31  1  0  0  0
 27 28  1  0  0  0
 28 29  2  0  0  0
 28 30  1  0  0  0
 31 32  1  0  0  0
 32 33  1  0  0  0
 32 35  1  0  0  0
 33 34  2  0  0  0
 33 36  1  0  0  0
 36 37  1  0  0  0
 37 38  1  0  0  0
 37 40  1  0  0  0
 38 39  2  0  0  0
 38 41  1  0  0  0
 41 42  1  0  0  0
 42 43  1  0  0  0
 42 45  1  0  0  0
 43 44  2  0  0  0
 43 48  1  0  0  0
 45 46  1  0  0  0
 45 47  1  0  0  0
 48 49  1  0  0  0
 49 50  1  0  0  0
 49 52  1  0  0  0
 50 51  2  0  0  0
 50 57  1  0  0  0
 52 53  1  0  0  0
 53 54  1  0  0  0
 54 55  2  0  0  0
 54 56  1  0  0  0
 57 58  1  0  0  0
 58 59  1  0  0  0
 58 61  1  0  0  0
 59 60  2  0  0  0
 59 64  1  0  0  0
 61 62  1  0  0  0
 61 63  1  0  0  0
 64 65  1  0  0  0
 65 66  1  0  0  0
 65 68  1  0  0  0
 66 67  2  0  0  0
 66 73  1  0  0  0
 68 69  1  0  0  0
 69 70  1  0  0  0
 70 71  1  0  0  0
 70 72  2  0  0  0
 73 74  1  0  0  0
 74 75  1  0  0  0
 74 77  1  0  0  0
 75 76  2  0  0  0
 75 82  1  0  0  0
 77 78  1  0  0  0
 78 79  1  0  0  0
 79 80  2  0  0  0
 79 81  1  0  0  0
  1 83  1  0  0  0
  1 84  1  0  0  0
  1 85  1  0  0  0
  2 86  1  0  0  0
  5 87  1  0  0  0
  5 88  1  0  0  0
  6 89  1  0  0  0
  6 90  1  0  0  0
  7 91  1  0  0  0
  7 92  1  0  0  0
  8 93  1  0  0  0
  8 94  1  0  0  0
  9 95  1  0  0  0
  9 96  1  0  0  0
  9 97  1  0  0  0
 10 98  1  0  0  0
 11 99  1  0  0  0
 14100  1  0  0  0
 14101  1  0  0  0
 14102  1  0  0  0
 15103  1  0  0  0
 16104  1  0  0  0
 19105  1  0  0  0
 20106  1  0  0  0
 20107  1  0  0  0
 21108  1  0  0  0
 21109  1  0  0  0
 21110  1  0  0  0
 22111  1  0  0  0
 22112  1  0  0  0
 22113  1  0  0  0
 23114  1  0  0  0
 24115  1  0  0  0
 27116  1  0  0  0
 27117  1  0  0  0
 30118  1  0  0  0
 31119  1  0  0  0
 32120  1  0  0  0
 35121  1  0  0  0
 35122  1  0  0  0
 35123  1  0  0  0
 36124  1  0  0  0
 37125  1  0  0  0
 40126  1  0  0  0
 40127  1  0  0  0
 40128  1  0  0  0
 41129  1  0  0  0
 42130  1  0  0  0
 45131  1  0  0  0
 46132  1  0  0  0
 47133  1  0  0  0
 47134  1  0  0  0
 47135  1  0  0  0
 48136  1  0  0  0
 49137  1  0  0  0
 52138  1  0  0  0
 52139  1  0  0  0
 53140  1  0  0  0
 53141  1  0  0  0
 56142  1  0  0  0
 56143  1  0  0  0
 57144  1  0  0  0
 58145  1  0  0  0
 61146  1  0  0  0
 62147  1  0  0  0
 63148  1  0  0  0
 63149  1  0  0  0
 63150  1  0  0  0
 64151  1  0  0  0
 65152  1  0  0  0
 68153  1  0  0  0
 68154  1  0  0  0
 69155  1  0  0  0
 69156  1  0  0  0
 71157  1  0  0  0
 73158  1  0  0  0
 74159  1  0  0  0
 77160  1  0  0  0
 77161  1  0  0  0
 78162  1  0  0  0
 78163  1  0  0  0
 81164  1  0  0  0
 82165  1  0  0  0
M  END
$$$$
