### 
### Created by X-TOOL on Mon Sep 10 21:13:24 2018
### 

@<TRIPOS>MOLECULE
5e0l_ligand
  161   160     1     0     0
SMALL
GAST_HUCK


@<TRIPOS>ATOM
      1 N         -29.3000   28.7300  -16.9050 N.4       1 LYS         0.2379
      2 CA        -28.1690   28.9410  -17.8070 C.3       1 LYS         0.0650
      3 C         -27.2650   27.7130  -17.8010 C.2       1 LYS         0.2267
      4 O         -26.9790   27.1490  -16.7360 O.2       1 LYS        -0.3907
      5 CB        -27.3640   30.1760  -17.3940 C.3       1 LYS         0.0080
      6 CG        -28.2090   31.3350  -16.8980 C.3       1 LYS        -0.0410
      7 CD        -27.3440   32.4960  -16.4070 C.3       1 LYS        -0.0123
      8 CE        -27.0890   32.4370  -14.9010 C.3       1 LYS        -0.0354
      9 NZ        -28.3410   32.4160  -14.0830 N.4       1 LYS         0.2185
     10 N         -26.8100   27.3070  -18.9880 N.am      1 ALA        -0.2613
     11 CA        -26.0080   26.0890  -19.1370 C.3       1 ALA         0.1283
     12 C         -24.7060   26.3540  -19.8860 C.2       1 ALA         0.2036
     13 O         -24.6600   27.1350  -20.8300 O.2       1 ALA        -0.3944
     14 CB        -26.8030   25.0130  -19.8540 C.3       1 ALA        -0.0244
     15 N         -23.6570   25.6600  -19.4670 N.am      1 ILE        -0.2635
     16 CA        -22.3180   25.8380  -19.9980 C.3       1 ILE         0.1335
     17 C         -21.7700   24.4740  -20.3800 C.2       1 ILE         0.2042
     18 O         -21.8850   23.5470  -19.6100 O.2       1 ILE        -0.3944
     19 CB        -21.3710   26.4250  -18.9290 C.3       1 ILE        -0.0037
     20 CG1       -21.9810   27.6330  -18.2270 C.3       1 ILE        -0.0491
     21 CG2       -20.0560   26.7660  -19.5620 C.3       1 ILE        -0.0582
     22 CD1       -21.0960   28.1580  -17.0930 C.3       1 ILE        -0.0648
     23 N         -21.1410   24.3670  -21.5470 N.am      1 ASP        -0.2622
     24 CA        -20.3850   23.1730  -21.9140 C.3       1 ASP         0.1423
     25 C         -19.0270   23.1850  -21.1900 C.2       1 ASP         0.2056
     26 O         -18.4000   24.2410  -21.0380 O.2       1 ASP        -0.3943
     27 CB        -20.1300   23.1250  -23.4320 C.3       1 ASP         0.0406
     28 CG        -21.3970   22.9580  -24.2540 C.2       1 ASP         0.0393
     29 OD1       -22.4630   22.6090  -23.7100 O.co2     1 ASP        -0.5688
     30 OD2       -21.3080   23.1770  -25.4890 O.co2     1 ASP        -0.5688
     31 N         -18.5800   22.0160  -20.7560 N.am      1 ALA        -0.2639
     32 CA        -17.2720   21.8490  -20.1480 C.3       1 ALA         0.1282
     33 C         -16.6760   20.5230  -20.6210 C.2       1 ALA         0.2036
     34 O         -17.3890   19.5480  -20.8180 O.2       1 ALA        -0.3944
     35 CB        -17.3850   21.8700  -18.6060 C.3       1 ALA        -0.0244
     36 N         -15.3620   20.5270  -20.8150 N.am      1 ALA        -0.2640
     37 CA        -14.5760   19.3610  -21.1790 C.3       1 ALA         0.1282
     38 C         -13.5540   19.1000  -20.1010 C.2       1 ALA         0.2037
     39 O         -13.0130   20.0310  -19.5020 O.2       1 ALA        -0.3944
     40 CB        -13.8450   19.6010  -22.4290 C.3       1 ALA        -0.0244
     41 N         -13.3260   17.8240  -19.8460 N.am      1 THR        -0.2613
     42 CA        -12.2740   17.4030  -18.9210 C.3       1 THR         0.1565
     43 C         -11.4620   16.2830  -19.5420 C.2       1 THR         0.2065
     44 O         -11.9660   15.4980  -20.3550 O.2       1 THR        -0.3943
     45 CB        -12.8430   16.9350  -17.5320 C.3       1 THR         0.0924
     46 OG1       -13.4960   15.6670  -17.6390 O.3       1 THR        -0.3874
     47 CG2       -13.8290   17.9390  -16.9350 C.3       1 THR        -0.0346
     48 N         -10.2000   16.2060  -19.1570 N.am      1 GLN        -0.2635
     49 CA         -9.3410   15.1060  -19.6270 C.3       1 GLN         0.1330
     50 C          -8.3700   14.7620  -18.4870 C.2       1 GLN         0.2041
     51 O          -7.6610   15.6370  -18.0120 O.2       1 GLN        -0.3944
     52 CB         -8.5610   15.5430  -20.8510 C.3       1 GLN         0.0045
     53 CG         -7.6210   14.4780  -21.4000 C.3       1 GLN         0.0412
     54 CD         -8.3490   13.2330  -21.8070 C.2       1 GLN         0.1737
     55 OE1        -9.2460   13.2830  -22.6310 O.2       1 GLN        -0.3973
     56 NE2        -7.9930   12.0850  -21.2040 N.am      1 GLN        -0.3009
     57 N          -8.3370   13.4820  -18.0960 N.am      1 THR        -0.2613
     58 CA         -7.3670   13.0110  -17.1020 C.3       1 THR         0.1565
     59 C          -5.9450   13.1370  -17.5690 C.2       1 THR         0.2065
     60 O          -5.6830   13.0860  -18.7830 O.2       1 THR        -0.3943
     61 CB         -7.5960   11.5350  -16.7370 C.3       1 THR         0.0924
     62 OG1        -7.6910   10.7310  -17.9340 O.3       1 THR        -0.3874
     63 CG2        -8.8660   11.3800  -15.9240 C.3       1 THR        -0.0346
     64 N          -5.0470   13.2630  -16.6200 N.am      1 GLU        -0.2635
     65 CA         -3.6450   13.3550  -16.8830 C.3       1 GLU         0.1324
     66 C          -3.1270   12.0320  -17.3410 C.2       1 GLU         0.2035
     67 O          -2.2970   11.9820  -18.1910 O.2       1 GLU        -0.3944
     68 CB         -2.8910   13.7980  -15.6410 C.3       1 GLU        -0.0008
     69 CG         -3.6010   14.8270  -14.8030 C.3       1 GLU         0.0044
     70 CD         -3.2910   16.2400  -15.1530 C.2       1 GLU         0.0350
     71 OE1        -2.1760   16.5320  -15.5860 O.co2     1 GLU        -0.5690
     72 OE2        -4.1650   17.0720  -14.9570 O.co2     1 GLU        -0.5690
     73 N          -3.6340   10.9500  -16.7960 N.am      1 GLU        -0.2694
     74 CA         -3.2610    9.6200  -17.2390 C.3       1 GLU         0.0959
     75 C          -4.3920    8.9640  -18.0570 C.2       1 GLU         0.0602
     76 O          -5.3620    9.6490  -18.4330 O.co2     1 GLU        -0.5666
     77 CB         -2.9390    8.6850  -16.0840 C.3       1 GLU        -0.0064
     78 CG         -1.9800    9.2500  -15.0770 C.3       1 GLU         0.0038
     79 CD         -0.6530    9.5910  -15.6800 C.2       1 GLU         0.0350
     80 OE1         0.0040   10.5040  -15.1360 O.co2     1 GLU        -0.5690
     81 OE2        -0.2920    8.9610  -16.6990 O.co2     1 GLU        -0.5690
     82 OXT        -4.2430    7.7230  -18.2640 O.co2     1 GLU        -0.5666
     83 H1        -29.8932   29.5449  -16.9137 H         1 LYS         0.2015
     84 H2        -28.9590   28.5726  -15.9696 H         1 LYS         0.2015
     85 H3        -29.8277   27.9271  -17.2098 H         1 LYS         0.2015
     86 H4        -28.5546   29.0953  -18.8256 H         1 LYS         0.1098
     87 H5        -26.7871   30.5186  -18.2657 H         1 LYS         0.0346
     88 H6        -26.6735   29.8839  -16.5891 H         1 LYS         0.0346
     89 H7        -28.8412   30.9858  -16.0683 H         1 LYS         0.0270
     90 H8        -28.8469   31.6891  -17.7212 H         1 LYS         0.0270
     91 H9        -27.8552   33.4413  -16.6418 H         1 LYS         0.0317
     92 H10       -26.3771   32.4621  -16.9305 H         1 LYS         0.0317
     93 H11       -26.5000   33.3202  -14.6130 H         1 LYS         0.0813
     94 H12       -26.5143   31.5253  -14.6809 H         1 LYS         0.0813
     95 H13       -28.1024   32.3771  -13.1044 H         1 LYS         0.1994
     96 H14       -28.8887   31.6060  -14.3277 H         1 LYS         0.1994
     97 H15       -28.8757   33.2508  -14.2655 H         1 LYS         0.1994
     98 H16       -27.0226   27.8500  -19.8004 H         1 ALA         0.1884
     99 H17       -25.7560   25.7226  -18.1309 H         1 ALA         0.0797
    100 H18       -26.1859   24.1081  -19.9564 H         1 ALA         0.0277
    101 H19       -27.0923   25.3744  -20.8519 H         1 ALA         0.0277
    102 H20       -27.7068   24.7766  -19.2733 H         1 ALA         0.0277
    103 H21       -23.7954   24.9788  -18.7481 H         1 ILE         0.1883
    104 H22       -22.3511   26.5004  -20.8756 H         1 ILE         0.0803
    105 H23       -21.1946   25.6508  -18.1678 H         1 ILE         0.0345
    106 H24       -22.9562   27.3432  -17.8086 H         1 ILE         0.0267
    107 H25       -22.1227   28.4362  -18.9651 H         1 ILE         0.0267
    108 H26       -19.6456   25.8741  -20.0580 H         1 ILE         0.0235
    109 H27       -19.3546   27.1103  -18.7877 H         1 ILE         0.0235
    110 H28       -20.2026   27.5638  -20.3049 H         1 ILE         0.0235
    111 H29       -21.5803   29.0260  -16.6218 H         1 ILE         0.0230
    112 H30       -20.1192   28.4591  -17.4995 H         1 ILE         0.0230
    113 H31       -20.9527   27.3662  -16.3430 H         1 ILE         0.0230
    114 H32       -21.1873   25.1285  -22.1936 H         1 ASP         0.1884
    115 H33       -20.9544   22.2810  -21.6140 H         1 ASP         0.0819
    116 H34       -19.4617   22.2780  -23.6463 H         1 ASP         0.0478
    117 H35       -19.6409   24.0632  -23.7328 H         1 ASP         0.0478
    118 H36       -19.1690   21.2135  -20.8512 H         1 ALA         0.1883
    119 H37       -16.6176   22.6735  -20.4672 H         1 ALA         0.0797
    120 H38       -16.3861   21.7424  -18.1634 H         1 ALA         0.0277
    121 H39       -18.0400   21.0506  -18.2751 H         1 ALA         0.0277
    122 H40       -17.8092   22.8320  -18.2825 H         1 ALA         0.0277
    123 H41       -14.8790   21.3954  -20.7023 H         1 ALA         0.1883
    124 H42       -15.2386   18.4905  -21.2937 H         1 ALA         0.0797
    125 H43       -13.2569   18.7079  -22.6871 H         1 ALA         0.0277
    126 H44       -13.1699   20.4598  -22.2999 H         1 ALA         0.0277
    127 H45       -14.5603   19.8150  -23.2368 H         1 ALA         0.0277
    128 H46       -13.8863   17.1289  -20.2964 H         1 THR         0.1884
    129 H47       -11.6105   18.2626  -18.7457 H         1 THR         0.0826
    130 H48       -11.9940   16.8330  -16.8400 H         1 THR         0.0639
    131 H49       -14.2166   15.7341  -18.2545 H         1 THR         0.2101
    132 H50       -14.1945   17.5632  -15.9679 H         1 THR         0.0257
    133 H51       -14.6782   18.0715  -17.6215 H         1 THR         0.0257
    134 H52       -13.3239   18.9047  -16.7859 H         1 THR         0.0257
    135 H53        -9.8256   16.8999  -18.5419 H         1 GLN         0.1883
    136 H54        -9.9558   14.2287  -19.8766 H         1 GLN         0.0801
    137 H55        -7.9633   16.4267  -20.5829 H         1 GLN         0.0337
    138 H56        -9.2783   15.8113  -21.6406 H         1 GLN         0.0337
    139 H57        -6.8861   14.2202  -20.6232 H         1 GLN         0.0504
    140 H58        -7.0988   14.8856  -22.2781 H         1 GLN         0.0504
    141 H59        -8.4525   11.2302  -21.4451 H         1 GLN         0.1814
    142 H60        -7.2687   12.0861  -20.5145 H         1 GLN         0.1814
    143 H61        -8.9878   12.8331  -18.4902 H         1 THR         0.1884
    144 H62        -7.4934   13.6230  -16.1967 H         1 THR         0.0826
    145 H63        -6.7437   11.1832  -16.1372 H         1 THR         0.0639
    146 H64        -6.8842   10.8068  -18.4299 H         1 THR         0.2101
    147 H65        -9.0132   10.3193  -15.6725 H         1 THR         0.0257
    148 H66        -9.7236   11.7399  -16.5113 H         1 THR         0.0257
    149 H67        -8.7828   11.9682  -14.9982 H         1 THR         0.0257
    150 H68        -5.3577   13.2961  -15.6701 H         1 GLU         0.1883
    151 H69        -3.4828   14.0970  -17.6787 H         1 GLU         0.0801
    152 H70        -1.9273   14.2222  -15.9592 H         1 GLU         0.0330
    153 H71        -2.7126   12.9113  -15.0149 H         1 GLU         0.0330
    154 H72        -3.3197   14.6654  -13.7519 H         1 GLU         0.0433
    155 H73        -4.6842   14.6754  -14.9202 H         1 GLU         0.0433
    156 H74        -4.2969   11.0458  -16.0535 H         1 GLU         0.1875
    157 H75        -2.3685    9.7140  -17.8750 H         1 GLU         0.0727
    158 H76        -2.5004    7.7651  -16.4981 H         1 GLU         0.0323
    159 H77        -3.8784    8.4423  -15.5658 H         1 GLU         0.0323
    160 H78        -1.8255    8.5068  -14.2809 H         1 GLU         0.0432
    161 H79        -2.4172   10.1630  -14.6466 H         1 GLU         0.0432
@<TRIPOS>BOND
     1    1    2 1  
     2    2    3 1  
     3    2    5 1  
     4    3    4 2  
     5    3   10 am 
     6    5    6 1  
     7    6    7 1  
     8    7    8 1  
     9    8    9 1  
    10   10   11 1  
    11   11   12 1  
    12   11   14 1  
    13   12   13 2  
    14   12   15 am 
    15   15   16 1  
    16   16   17 1  
    17   16   19 1  
    18   17   18 2  
    19   17   23 am 
    20   19   20 1  
    21   19   21 1  
    22   20   22 1  
    23   23   24 1  
    24   24   25 1  
    25   24   27 1  
    26   25   26 2  
    27   25   31 am 
    28   27   28 1  
    29   28   29 ar 
    30   28   30 ar 
    31   31   32 1  
    32   32   33 1  
    33   32   35 1  
    34   33   34 2  
    35   33   36 am 
    36   36   37 1  
    37   37   38 1  
    38   37   40 1  
    39   38   39 2  
    40   38   41 am 
    41   41   42 1  
    42   42   43 1  
    43   42   45 1  
    44   43   44 2  
    45   43   48 am 
    46   45   46 1  
    47   45   47 1  
    48   48   49 1  
    49   49   50 1  
    50   49   52 1  
    51   50   51 2  
    52   50   57 am 
    53   52   53 1  
    54   53   54 1  
    55   54   55 2  
    56   54   56 am 
    57   57   58 1  
    58   58   59 1  
    59   58   61 1  
    60   59   60 2  
    61   59   64 am 
    62   61   62 1  
    63   61   63 1  
    64   64   65 1  
    65   65   66 1  
    66   65   68 1  
    67   66   67 2  
    68   66   73 am 
    69   68   69 1  
    70   69   70 1  
    71   70   71 ar 
    72   70   72 ar 
    73   73   74 1  
    74   74   75 1  
    75   74   77 1  
    76   75   76 ar 
    77   75   82 ar 
    78   77   78 1  
    79   78   79 1  
    80   79   80 ar 
    81   79   81 ar 
    82    1   83 1  
    83    1   84 1  
    84    1   85 1  
    85    2   86 1  
    86    5   87 1  
    87    5   88 1  
    88    6   89 1  
    89    6   90 1  
    90    7   91 1  
    91    7   92 1  
    92    8   93 1  
    93    8   94 1  
    94    9   95 1  
    95    9   96 1  
    96    9   97 1  
    97   10   98 1  
    98   11   99 1  
    99   14  100 1  
   100   14  101 1  
   101   14  102 1  
   102   15  103 1  
   103   16  104 1  
   104   19  105 1  
   105   20  106 1  
   106   20  107 1  
   107   21  108 1  
   108   21  109 1  
   109   21  110 1  
   110   22  111 1  
   111   22  112 1  
   112   22  113 1  
   113   23  114 1  
   114   24  115 1  
   115   27  116 1  
   116   27  117 1  
   117   31  118 1  
   118   32  119 1  
   119   35  120 1  
   120   35  121 1  
   121   35  122 1  
   122   36  123 1  
   123   37  124 1  
   124   40  125 1  
   125   40  126 1  
   126   40  127 1  
   127   41  128 1  
   128   42  129 1  
   129   45  130 1  
   130   46  131 1  
   131   47  132 1  
   132   47  133 1  
   133   47  134 1  
   134   48  135 1  
   135   49  136 1  
   136   52  137 1  
   137   52  138 1  
   138   53  139 1  
   139   53  140 1  
   140   56  141 1  
   141   56  142 1  
   142   57  143 1  
   143   58  144 1  
   144   61  145 1  
   145   62  146 1  
   146   63  147 1  
   147   63  148 1  
   148   63  149 1  
   149   64  150 1  
   150   65  151 1  
   151   68  152 1  
   152   68  153 1  
   153   69  154 1  
   154   69  155 1  
   155   73  156 1  
   156   74  157 1  
   157   77  158 1  
   158   77  159 1  
   159   78  160 1  
   160   78  161 1  
@<TRIPOS>SUBSTRUCTURE
     1 LYS         1

