2gst_ligand
  -I-interpret- 

 63 65  0  0  0  0  0  0  0  0999 V2000
   14.5290   14.7370   24.8900 N   0  3  0  0  0
   14.2360   15.2720   26.2990 C   0  0  0  0  0
   13.3570   16.4680   26.1920 C   0  0  0  0  0
   12.4840   16.8710   26.9910 O   0  0  0  0  0
   13.2920   17.1450   24.9790 O   0  0  0  0  0
   15.6600   15.6090   26.8930 C   0  0  0  0  0
   15.3370   15.9670   28.3530 C   0  0  0  0  0
   16.5850   16.1850   29.1690 C   0  0  0  0  0
   17.7430   15.9140   28.7680 O   0  0  0  0  0
   16.3040   16.5080   30.4590 N   0  0  0  0  0
   17.4070   17.0290   31.2870 C   0  0  0  0  0
   17.0800   16.5220   32.7420 C   0  0  0  0  0
   17.8450   17.0550   33.5350 O   0  0  0  0  0
   17.1720   18.5740   31.3290 C   0  0  0  0  0
   17.3830   19.3950   29.7930 S   0  0  0  0  0
   16.3980   15.3850   32.8590 N   0  0  0  0  0
   16.0460   14.8750   34.1920 C   0  0  0  0  0
   16.7690   13.6100   34.5130 C   0  0  0  0  0
   17.6580   13.1470   33.7470 O   0  0  0  0  0
   16.4020   13.0050   35.6380 O   0  0  0  0  0
   19.0400   19.4160   29.3160 C   0  0  0  0  0
   19.4100   20.7740   28.7470 C   0  0  0  0  0
   19.2580   20.8670   27.3240 C   0  0  0  0  0
   19.6050   22.0520   26.7350 C   0  0  0  0  0
   20.0650   23.1500   27.4810 C   0  0  0  0  0
   20.1690   23.0530   28.8730 C   0  0  0  0  0
   19.8680   21.8530   29.5160 C   0  0  0  0  0
   19.9440   21.6730   30.9250 C   0  0  0  0  0
   19.9530   22.7900   31.8070 C   0  0  0  0  0
   20.0770   22.5870   33.1920 C   0  0  0  0  0
   20.1880   21.2700   33.6940 C   0  0  0  0  0
   20.1680   20.1760   32.8320 C   0  0  0  0  0
   20.0200   20.4050   31.4260 C   0  0  0  0  0
   20.0380   19.2230   30.4890 C   0  0  0  0  0
   21.4250   19.1070   30.0180 O   0  0  0  0  0
   15.1315   13.9167   24.9576 H   0  0  0  0  0
   13.6524   14.4801   24.4361 H   0  0  0  0  0
   14.9971   15.4600   24.3436 H   0  0  0  0  0
   13.7085   14.5692   26.9439 H   0  0  0  0  0
   13.9738   16.8119   24.3910 H   0  0  0  0  0
   16.1657   16.4132   26.3585 H   0  0  0  0  0
   16.3661   14.7836   26.8024 H   0  0  0  0  0
   14.7822   15.1383   28.7928 H   0  0  0  0  0
   14.7602   16.8918   28.3580 H   0  0  0  0  0
   15.3648   16.3942   30.8401 H   0  0  0  0  0
   18.4005   16.7479   30.9376 H   0  0  0  0  0
   17.9136   18.9876   32.0124 H   0  0  0  0  0
   16.1355   18.7275   31.6292 H   0  0  0  0  0
   16.1199   14.8682   32.0247 H   0  0  0  0  0
   14.9756   14.6700   34.2076 H   0  0  0  0  0
   16.3272   15.6260   34.9303 H   0  0  0  0  0
   15.7160   13.5206   36.0682 H   0  0  0  0  0
   19.1204   18.5949   28.6037 H   0  0  0  0  0
   18.8820   20.0292   26.7368 H   0  0  0  0  0
   19.5219   22.1473   25.6524 H   0  0  0  0  0
   20.3404   24.0760   26.9762 H   0  0  0  0  0
   20.4861   23.9176   29.4561 H   0  0  0  0  0
   19.8639   23.8008   31.4090 H   0  0  0  0  0
   20.0875   23.4377   33.8734 H   0  0  0  0  0
   20.2903   21.1090   34.7672 H   0  0  0  0  0
   20.2634   19.1623   33.2211 H   0  0  0  0  0
   19.7194   18.3092   30.9906 H   0  0  0  0  0
   22.0087   18.9893   30.7710 H   0  0  0  0  0
  1  2  1  0  0  0
  2  6  1  0  0  0
  2  3  1  0  0  0
  3  5  1  0  0  0
  3  4  2  0  0  0
  6  7  1  0  0  0
  7  8  1  0  0  0
  8 10  1  0  0  0
  8  9  2  0  0  0
 10 11  1  0  0  0
 11 14  1  0  0  0
 11 12  1  0  0  0
 12 16  1  0  0  0
 12 13  2  0  0  0
 16 17  1  0  0  0
 17 18  1  0  0  0
 18 20  1  0  0  0
 18 19  2  0  0  0
 14 15  1  0  0  0
 15 21  1  0  0  0
 21 22  1  0  0  0
 21 34  1  0  0  0
 34 35  1  0  0  0
 34 33  1  0  0  0
 33 32  4  0  0  0
 33 28  4  0  0  0
 28 29  4  0  0  0
 28 27  1  0  0  0
 27 26  4  0  0  0
 27 22  4  0  0  0
 22 23  4  0  0  0
 23 24  4  0  0  0
 24 25  4  0  0  0
 25 26  4  0  0  0
 29 30  4  0  0  0
 30 31  4  0  0  0
 31 32  4  0  0  0
  1 36  1  0  0  0
  1 37  1  0  0  0
  1 38  1  0  0  0
  2 39  1  0  0  0
  5 40  1  0  0  0
  6 41  1  0  0  0
  6 42  1  0  0  0
  7 43  1  0  0  0
  7 44  1  0  0  0
 10 45  1  0  0  0
 11 46  1  0  0  0
 14 47  1  0  0  0
 14 48  1  0  0  0
 16 49  1  0  0  0
 17 50  1  0  0  0
 17 51  1  0  0  0
 20 52  1  0  0  0
 21 53  1  0  0  0
 23 54  1  0  0  0
 24 55  1  0  0  0
 25 56  1  0  0  0
 26 57  1  0  0  0
 29 58  1  0  0  0
 30 59  1  0  0  0
 31 60  1  0  0  0
 32 61  1  0  0  0
 34 62  1  0  0  0
 35 63  1  0  0  0
M  END
$$$$
