2xfj_ligand
  -I-interpret- 

 87 90  0  0  0  0  0  0  0  0999 V2000
   31.2150   -0.8160   37.2620 C   0  0  0  0  0
   31.1000    0.2670   36.4170 C   0  0  0  0  0
   30.4960    0.1200   35.1780 C   0  0  0  0  0
   29.9840   -1.1100   34.7910 C   0  0  0  0  0
   30.0820   -2.1960   35.6560 C   0  0  0  0  0
   30.7110   -2.0430   36.8970 C   0  0  0  0  0
   30.3960    1.3190   34.3130 C   0  0  0  0  0
   29.1550    1.4690   33.7620 N   0  0  0  0  0
   31.3360    2.1030   34.1630 O   0  0  0  0  0
   28.9190    2.3760   32.6420 C   0  0  0  0  0
   28.2150    1.6280   31.5050 C   0  0  0  0  0
   28.1150    3.5750   33.1580 C   0  0  0  0  0
   27.7510    4.4470   32.0750 O   0  0  0  0  0
   28.9390    0.3470   31.1690 C   0  0  0  0  0
   28.9190    4.4620   34.1270 C   0  0  0  0  0
   28.0690    5.5800   34.5670 N   0  3  0  0  0
   28.8320    6.7690   35.0310 C   0  0  0  0  0
   29.8700    7.2150   34.0190 C   0  0  0  0  0
   29.3280    7.9270   32.9840 N   0  0  0  0  0
   31.0720    6.9750   34.1130 O   0  0  0  0  0
   30.1690    8.3710   31.8710 C   0  0  0  0  0
   29.4850    6.5020   36.3620 C   0  0  0  0  0
   29.3720    8.3130   30.5880 C   0  0  0  0  0
   30.1630    8.8230   29.3930 C   0  0  0  0  0
   30.6930   10.2300   29.6380 C   0  0  0  0  0
   31.4840   10.2850   30.9420 C   0  0  0  0  0
   30.6330    9.8010   32.1120 C   0  0  0  0  0
   30.3110    0.3300   30.9710 C   0  0  0  0  0
   30.9290   -0.8780   30.6840 C   0  0  0  0  0
   30.1950   -2.0490   30.5820 C   0  0  0  0  0
   28.8290   -2.0250   30.7740 C   0  0  0  0  0
   28.2110   -0.8230   31.0740 C   0  0  0  0  0
   29.6100   -3.4890   35.3840 N   0  0  0  0  0
   29.0850   -3.6860   34.0370 C   0  0  0  0  0
   27.5850   -3.7200   34.0980 C   0  0  0  0  0
   31.8580   -0.6610   38.5110 N   0  0  0  0  0
   33.1370    0.0010   38.5710 C   0  0  0  0  0
   33.5930   -0.2080   40.0040 C   0  0  0  0  0
   32.4720   -0.9060   40.7350 C   0  0  0  0  0
   31.4020   -1.1390   39.7030 C   0  0  0  0  0
   30.3180   -1.6550   39.9250 O   0  0  0  0  0
   31.4844    1.2399   36.7234 H   0  0  0  0  0
   29.5086   -1.2250   33.8169 H   0  0  0  0  0
   30.8013   -2.8937   37.5724 H   0  0  0  0  0
   28.3740    0.9343   34.1422 H   0  0  0  0  0
   29.8566    2.7490   32.2298 H   0  0  0  0  0
   28.2049    2.2657   30.6210 H   0  0  0  0  0
   27.2015    1.3833   31.8228 H   0  0  0  0  0
   27.2513    3.1389   33.6599 H   0  0  0  0  0
   27.2493    5.1898   32.4186 H   0  0  0  0  0
   29.8049    4.8488   33.6234 H   0  0  0  0  0
   29.2316    3.8749   34.9905 H   0  0  0  0  0
   27.5146    5.2479   35.3562 H   0  0  0  0  0
   27.5109    5.8714   33.7645 H   0  0  0  0  0
   28.1133    7.5805   35.1447 H   0  0  0  0  0
   28.3326    8.1497   32.9879 H   0  0  0  0  0
   31.0390    7.7188   31.7949 H   0  0  0  0  0
   28.7187    6.2663   37.1004 H   0  0  0  0  0
   30.1706    5.6600   36.2665 H   0  0  0  0  0
   30.0366    7.3872   36.6787 H   0  0  0  0  0
   28.4932    8.9467   30.7070 H   0  0  0  0  0
   29.1092    7.2720   30.4001 H   0  0  0  0  0
   29.5033    8.8474   28.5257 H   0  0  0  0  0
   31.0103    8.1573   29.2287 H   0  0  0  0  0
   29.8506   10.9184   29.7060 H   0  0  0  0  0
   31.3497   10.5091   28.8140 H   0  0  0  0  0
   31.7839   11.3163   31.1282 H   0  0  0  0  0
   32.3571    9.6388   30.8512 H   0  0  0  0  0
   31.2297    9.8329   33.0236 H   0  0  0  0  0
   29.7604   10.4470   32.2089 H   0  0  0  0  0
   30.8932    1.2489   31.0396 H   0  0  0  0  0
   32.0086   -0.9068   30.5364 H   0  0  0  0  0
   30.6966   -2.9885   30.3502 H   0  0  0  0  0
   28.2438   -2.9408   30.6906 H   0  0  0  0  0
   27.1336   -0.7996   31.2377 H   0  0  0  0  0
   29.6323   -4.2367   36.0774 H   0  0  0  0  0
   29.4581   -4.6261   33.6306 H   0  0  0  0  0
   29.4086   -2.8684   33.3928 H   0  0  0  0  0
   27.2673   -4.5408   34.7410 H   0  0  0  0  0
   27.2176   -2.7768   34.5024 H   0  0  0  0  0
   27.1851   -3.8670   33.0947 H   0  0  0  0  0
   33.0679    1.0569   38.3096 H   0  0  0  0  0
   33.8459   -0.4043   37.8490 H   0  0  0  0  0
   33.8213    0.7475   40.4762 H   0  0  0  0  0
   34.5016   -0.8095   40.0327 H   0  0  0  0  0
   32.1016   -0.3048   41.5653 H   0  0  0  0  0
   32.8079   -1.8425   41.1801 H   0  0  0  0  0
  1  2  4  0  0  0
  1  6  4  0  0  0
  1 36  1  0  0  0
  2  3  4  0  0  0
  3  4  4  0  0  0
  3  7  1  0  0  0
  4  5  4  0  0  0
  5  6  4  0  0  0
  5 33  1  0  0  0
  7  8  1  0  0  0
  7  9  2  0  0  0
  8 10  1  0  0  0
 10 11  1  0  0  0
 10 12  1  0  0  0
 11 14  1  0  0  0
 12 13  1  0  0  0
 12 15  1  0  0  0
 14 28  4  0  0  0
 14 32  4  0  0  0
 15 16  1  0  0  0
 16 17  1  0  0  0
 17 18  1  0  0  0
 17 22  1  0  0  0
 18 19  1  0  0  0
 18 20  2  0  0  0
 19 21  1  0  0  0
 21 23  1  0  0  0
 21 27  1  0  0  0
 23 24  1  0  0  0
 24 25  1  0  0  0
 25 26  1  0  0  0
 26 27  1  0  0  0
 28 29  4  0  0  0
 29 30  4  0  0  0
 30 31  4  0  0  0
 31 32  4  0  0  0
 33 34  1  0  0  0
 34 35  1  0  0  0
 36 37  1  0  0  0
 36 40  1  0  0  0
 37 38  1  0  0  0
 38 39  1  0  0  0
 39 40  1  0  0  0
 40 41  2  0  0  0
  2 42  1  0  0  0
  4 43  1  0  0  0
  6 44  1  0  0  0
  8 45  1  0  0  0
 10 46  1  0  0  0
 11 47  1  0  0  0
 11 48  1  0  0  0
 12 49  1  0  0  0
 13 50  1  0  0  0
 15 51  1  0  0  0
 15 52  1  0  0  0
 16 53  1  0  0  0
 16 54  1  0  0  0
 17 55  1  0  0  0
 19 56  1  0  0  0
 21 57  1  0  0  0
 22 58  1  0  0  0
 22 59  1  0  0  0
 22 60  1  0  0  0
 23 61  1  0  0  0
 23 62  1  0  0  0
 24 63  1  0  0  0
 24 64  1  0  0  0
 25 65  1  0  0  0
 25 66  1  0  0  0
 26 67  1  0  0  0
 26 68  1  0  0  0
 27 69  1  0  0  0
 27 70  1  0  0  0
 28 71  1  0  0  0
 29 72  1  0  0  0
 30 73  1  0  0  0
 31 74  1  0  0  0
 32 75  1  0  0  0
 33 76  1  0  0  0
 34 77  1  0  0  0
 34 78  1  0  0  0
 35 79  1  0  0  0
 35 80  1  0  0  0
 35 81  1  0  0  0
 37 82  1  0  0  0
 37 83  1  0  0  0
 38 84  1  0  0  0
 38 85  1  0  0  0
 39 86  1  0  0  0
 39 87  1  0  0  0
M  END
$$$$
