1iht_ligand
  -I-interpret- 

204208  0  0  0  0  0  0  0  0999 V2000
   16.5320   12.4060   23.0980 C   0  0  0  0  0
   17.4680   11.7020   22.6980 O   0  0  0  0  0
   15.0880   11.9180   23.1450 C   0  0  0  0  0
   16.7250   13.6390   23.5360 N   0  0  0  0  0
   18.0340   14.2510   23.5350 C   0  0  0  0  0
   17.7520   15.5880   22.8450 C   0  0  0  0  0
   16.7200   16.1950   23.1760 O   0  0  0  0  0
   18.4640   14.3830   25.0060 C   0  0  0  0  0
   19.8950   14.8530   25.1940 C   0  0  0  0  0
   20.9400   14.1780   24.5870 C   0  0  0  0  0
   20.1390   15.9680   25.9610 C   0  0  0  0  0
   22.2340   14.6330   24.7500 C   0  0  0  0  0
   21.4310   16.4100   26.1170 C   0  0  0  0  0
   22.4750   15.7470   25.5120 C   0  0  0  0  0
   18.5450   16.0600   21.8710 N   0  0  0  0  0
   18.2990   17.2750   21.0940 C   0  0  0  0  0
   16.8970   17.2860   20.5030 C   0  0  0  0  0
   16.4940   16.2330   20.0000 O   0  0  0  0  0
   19.3580   17.2830   20.0070 C   0  0  0  0  0
   20.4390   16.4320   20.6050 C   0  0  0  0  0
   19.6800   15.3410   21.3190 C   0  0  0  0  0
   16.1150   18.3990   20.4710 N   0  0  0  0  0
   14.7850   18.2830   19.8580 C   0  0  0  0  0
   14.7070   18.5470   18.3430 C   0  0  0  0  0
   13.7880   19.2560   17.8710 O   0  0  0  0  0
   13.7980   19.2130   20.6420 C   0  0  0  0  0
   13.3200   18.4310   21.8220 C   0  0  0  0  0
   12.3700   19.1590   22.7400 C   0  0  0  0  0
   11.6720   18.1130   23.4610 N   0  0  0  0  0
   10.8780   18.3590   24.5090 C   0  0  0  0  0
   10.7020   19.6180   24.9650 N   0  0  0  0  0
   10.2450   17.3220   25.0590 N   0  0  0  0  0
   15.3220   17.9070   13.1820 C   0  0  0  0  0
   15.0210   16.7120   13.2540 O   0  0  0  0  0
   16.6280   18.5240   13.6910 C   0  0  0  0  0
   16.9450   18.2730   15.1760 C   0  0  0  0  0
   15.8300   18.7890   16.0600 C   0  0  0  0  0
   15.9730   18.3250   17.5000 C   0  0  0  0  0
   11.1970   17.4150    7.6630 C   0  0  0  0  0
   11.0080   18.5150    7.1280 O   0  0  0  0  0
   12.3500   17.1640    8.6120 C   0  0  0  0  0
   12.1970   17.7170   10.0010 C   0  0  0  0  0
   13.2890   17.8150   10.7320 C   0  0  0  0  0
   13.1810   18.3770   12.1310 C   0  0  0  0  0
   14.4370   18.7770   12.7290 N   0  0  0  0  0
    8.1710   16.9750    1.5900 C   0  0  0  0  0
    8.3040   16.9900    0.3720 O   0  0  0  0  0
    9.2960   16.5700    2.5390 C   0  0  0  0  0
    8.9370   16.5580    4.0180 C   0  0  0  0  0
    9.8290   16.4270    4.9820 C   0  0  0  0  0
    9.3570   16.4240    6.4310 C   0  0  0  0  0
   10.4230   16.3580    7.4180 N   0  0  0  0  0
    7.0000   17.2430    2.1520 N   0  0  0  0  0
    5.8530   17.7640    1.4550 C   0  0  0  0  0
    5.9390   19.2830    1.3190 C   0  0  0  0  0
    4.9220   19.9760    1.3210 O   0  0  0  0  0
    4.6180   17.3380    2.2480 C   0  0  0  0  0
    4.5480   17.7000    3.7410 C   0  0  0  0  0
    5.5610   18.0090    4.3800 O   0  0  0  0  0
    3.4440   17.6580    4.2760 O   0  0  0  0  0
    7.1310   19.8520    1.2140 N   0  0  0  0  0
    7.2730   21.2870    1.1820 C   0  0  0  0  0
    7.1270   21.7050   -0.2630 C   0  0  0  0  0
    7.6380   21.0620   -1.1840 O   0  0  0  0  0
    8.6540   21.7040    1.7430 C   0  0  0  0  0
    8.7070   21.6260    3.2630 C   0  0  0  0  0
    9.0480   20.4470    3.9000 C   0  0  0  0  0
    8.3710   22.7430    4.0100 C   0  0  0  0  0
    9.0390   20.3900    5.2820 C   0  0  0  0  0
    8.3690   22.6760    5.3880 C   0  0  0  0  0
    8.7000   21.5020    6.0240 C   0  0  0  0  0
    6.4000   22.7950   -0.4600 N   0  0  0  0  0
    6.1880   23.3340   -1.7880 C   0  0  0  0  0
    7.4820   24.0400   -2.1950 C   0  0  0  0  0
    8.0810   24.7150   -1.3480 O   0  0  0  0  0
    5.0100   24.2650   -1.6710 C   0  0  0  0  0
    4.5550   25.0430   -2.8790 C   0  0  0  0  0
    3.5290   26.1040   -2.5090 C   0  0  0  0  0
    2.5360   25.8210   -1.8320 O   0  0  0  0  0
    3.7470   27.2390   -2.9030 O   0  0  0  0  0
    8.0090   23.9060   -3.4210 N   0  0  0  0  0
    9.2760   24.5060   -3.8230 C   0  0  0  0  0
    9.2520   26.0120   -3.7860 C   0  0  0  0  0
    8.2860   26.7170   -4.1160 O   0  0  0  0  0
    9.5400   23.9530   -5.2040 C   0  0  0  0  0
    8.1470   23.7240   -5.7360 C   0  0  0  0  0
    7.4560   23.1110   -4.5170 C   0  0  0  0  0
   10.3610   26.4780   -3.2720 N   0  0  0  0  0
   10.5610   27.8980   -3.1910 C   0  0  0  0  0
   11.5230   28.2000   -4.3310 C   0  0  0  0  0
   12.1840   27.2740   -4.8210 O   0  0  0  0  0
   11.1200   28.2650   -1.7640 C   0  0  0  0  0
   12.4500   27.6250   -1.4140 C   0  0  0  0  0
   10.0620   27.8020   -0.7730 C   0  0  0  0  0
   12.9620   28.0660   -0.0420 C   0  0  0  0  0
   11.4980   29.4210   -4.8680 N   0  0  0  0  0
   12.5740   29.9760   -5.6810 C   0  0  0  0  0
   13.8530   30.2510   -4.8860 C   0  0  0  0  0
   13.8230   31.0440   -3.9410 O   0  0  0  0  0
   11.9340   31.2110   -6.3020 C   0  0  0  0  0
   10.8780   31.6360   -5.3030 C   0  0  0  0  0
   10.3220   30.2870   -4.8800 C   0  0  0  0  0
   14.8680   29.6330   -5.2010 N   0  0  0  0  0
   14.7645   11.6470   22.1400 H   0  0  0  0  0
   15.0212   11.0469   23.7968 H   0  0  0  0  0
   14.4497   12.7125   23.5316 H   0  0  0  0  0
   15.9282   14.1724   23.8839 H   0  0  0  0  0
   18.8404   13.7180   23.0313 H   0  0  0  0  0
   18.3887   13.3922   25.4540 H   0  0  0  0  0
   17.8164   15.1298   25.4653 H   0  0  0  0  0
   20.7428   13.2920   23.9835 H   0  0  0  0  0
   19.3152   16.4964   26.4409 H   0  0  0  0  0
   23.0618   14.1075   24.2738 H   0  0  0  0  0
   21.6307   17.2926   26.7246 H   0  0  0  0  0
   23.4954   16.1086   25.6391 H   0  0  0  0  0
   18.3595   18.1661   21.7189 H   0  0  0  0  0
   19.6971   18.2857   19.7469 H   0  0  0  0  0
   18.9941   16.9044   19.0519 H   0  0  0  0  0
   21.0885   16.9946   21.2757 H   0  0  0  0  0
   21.1234   16.0393   19.8530 H   0  0  0  0  0
   19.3888   14.5217   20.6616 H   0  0  0  0  0
   20.2745   14.8325   22.0780 H   0  0  0  0  0
   16.4412   19.2839   20.8595 H   0  0  0  0  0
   14.5055   17.2327   19.9403 H   0  0  0  0  0
   12.9623   19.5139   20.0103 H   0  0  0  0  0
   14.2956   20.1297   20.9584 H   0  0  0  0  0
   14.2029   18.1916   22.4147 H   0  0  0  0  0
   12.7749   17.5738   21.4268 H   0  0  0  0  0
   11.6815   19.7972   22.1861 H   0  0  0  0  0
   12.8968   19.8334   23.4151 H   0  0  0  0  0
   11.7915   17.1471   23.1558 H   0  0  0  0  0
   10.0726   19.7934   25.7482 H   0  0  0  0  0
   11.1985   20.3934   24.5262 H   0  0  0  0  0
   10.3758   16.3846   24.6787 H   0  0  0  0  0
   16.5281   19.6030   13.5731 H   0  0  0  0  0
   17.4329   18.0619   13.1195 H   0  0  0  0  0
   17.8662   18.7966   15.4315 H   0  0  0  0  0
   17.0513   17.2000   15.3356 H   0  0  0  0  0
   14.8865   18.4041   15.6731 H   0  0  0  0  0
   15.8680   19.8783   16.0506 H   0  0  0  0  0
   16.1708   17.2533   17.4812 H   0  0  0  0  0
   16.7755   18.9065   17.9539 H   0  0  0  0  0
   13.2160   17.6642    8.1785 H   0  0  0  0  0
   12.4249   16.0821    8.7212 H   0  0  0  0  0
   11.2249   18.0237   10.3870 H   0  0  0  0  0
   14.2529   17.4965   10.3349 H   0  0  0  0  0
   12.7728   17.5841   12.7577 H   0  0  0  0  0
   12.5655   19.2740   12.0628 H   0  0  0  0  0
   14.6476   19.7722   12.8038 H   0  0  0  0  0
   10.0849   17.3123    2.4182 H   0  0  0  0  0
    9.5675   15.5471    2.2782 H   0  0  0  0  0
    7.8882   16.6631    4.2957 H   0  0  0  0  0
   10.8878   16.3225    4.7451 H   0  0  0  0  0
    8.7464   15.5308    6.5636 H   0  0  0  0  0
    8.8310   17.3645    6.5950 H   0  0  0  0  0
   10.5806   15.4901    7.9302 H   0  0  0  0  0
    6.9049   17.0670    3.1522 H   0  0  0  0  0
    5.8032   17.3709    0.4396 H   0  0  0  0  0
    4.6202   16.2484    2.2175 H   0  0  0  0  0
    3.7846   17.8672    1.7859 H   0  0  0  0  0
    6.3241   17.9872    3.7980 H   0  0  0  0  0
    7.9629   19.2648    1.1547 H   0  0  0  0  0
    6.5184   21.7729    1.8006 H   0  0  0  0  0
    8.8401   22.7374    1.4504 H   0  0  0  0  0
    9.4024   21.0201    1.3427 H   0  0  0  0  0
    9.3222   19.5680    3.3167 H   0  0  0  0  0
    8.1082   23.6748    3.5092 H   0  0  0  0  0
    9.3014   19.4607    5.7876 H   0  0  0  0  0
    8.1044   23.5559    5.9745 H   0  0  0  0  0
    8.6944   21.4507    7.1128 H   0  0  0  0  0
    5.9799   23.2654    0.3416 H   0  0  0  0  0
    5.9669   22.5900   -2.5533 H   0  0  0  0  0
    5.3280   25.0246   -0.9568 H   0  0  0  0  0
    4.1685   23.6166   -1.4269 H   0  0  0  0  0
    4.0941   24.3489   -3.5818 H   0  0  0  0  0
    5.4218   25.5397   -3.3149 H   0  0  0  0  0
    2.5478   24.8837   -1.6249 H   0  0  0  0  0
   10.0784   24.2549   -3.1293 H   0  0  0  0  0
   10.1469   23.0477   -5.1926 H   0  0  0  0  0
   10.1300   24.6248   -5.8274 H   0  0  0  0  0
    8.1156   23.0897   -6.6219 H   0  0  0  0  0
    7.6644   24.6297   -6.1032 H   0  0  0  0  0
    6.3681   23.1507   -4.5725 H   0  0  0  0  0
    7.6393   22.0419   -4.4096 H   0  0  0  0  0
   11.0783   25.8378   -2.9313 H   0  0  0  0  0
    9.6547   28.4940   -3.2980 H   0  0  0  0  0
   11.3136   29.3373   -1.7377 H   0  0  0  0  0
   13.1806   27.9316   -2.1625 H   0  0  0  0  0
   12.3102   26.5442   -1.3918 H   0  0  0  0  0
    9.1244   28.3195   -0.9762 H   0  0  0  0  0
    9.9149   26.7269   -0.8763 H   0  0  0  0  0
   10.3915   28.0292    0.2409 H   0  0  0  0  0
   13.0948   29.1479   -0.0357 H   0  0  0  0  0
   12.2385   27.7830    0.7225 H   0  0  0  0  0
   13.9164   27.5803    0.1616 H   0  0  0  0  0
   12.9397   29.2844   -6.4399 H   0  0  0  0  0
   11.5067   30.9998   -7.2822 H   0  0  0  0  0
   12.6634   32.0000   -6.4851 H   0  0  0  0  0
   10.1291   32.3134   -5.7133 H   0  0  0  0  0
   11.2659   32.2324   -4.4772 H   0  0  0  0  0
    9.8227   30.3263   -3.9119 H   0  0  0  0  0
    9.5447   29.9261   -5.5536 H   0  0  0  0  0
   15.7307   29.7663   -4.6733 H   0  0  0  0  0
   14.8475   28.9869   -5.9900 H   0  0  0  0  0
  1  2  2  0  0  0
  1  3  1  0  0  0
  4  1  1  0  0  0
  5  4  1  0  0  0
  6  5  1  0  0  0
  5  8  1  0  0  0
  6  7  2  0  0  0
 15  6  1  0  0  0
  8  9  1  0  0  0
  9 10  4  0  0  0
  9 11  4  0  0  0
 10 12  4  0  0  0
 11 13  4  0  0  0
 12 14  4  0  0  0
 13 14  4  0  0  0
 16 15  1  0  0  0
 15 21  1  0  0  0
 17 16  1  0  0  0
 16 19  1  0  0  0
 17 18  2  0  0  0
 22 17  1  0  0  0
 19 20  1  0  0  0
 20 21  1  0  0  0
 23 22  1  0  0  0
 24 23  1  0  0  0
 23 26  1  0  0  0
 24 25  2  0  0  0
 38 24  1  0  0  0
 26 27  1  0  0  0
 27 28  1  0  0  0
 28 29  1  0  0  0
 29 30  1  0  0  0
 30 31  1  0  0  0
 30 32  2  0  0  0
 33 34  2  0  0  0
 33 35  1  0  0  0
 45 33  1  0  0  0
 35 36  1  0  0  0
 36 37  1  0  0  0
 37 38  1  0  0  0
 39 40  2  0  0  0
 39 41  1  0  0  0
 52 39  1  0  0  0
 41 42  1  0  0  0
 42 43  2  0  0  0
 43 44  1  0  0  0
 44 45  1  0  0  0
 46 47  2  0  0  0
 48 46  1  0  0  0
 46 53  1  0  0  0
 49 48  1  0  0  0
 50 49  2  0  0  0
 51 50  1  0  0  0
 51 52  1  0  0  0
 53 54  1  0  0  0
 54 55  1  0  0  0
 54 57  1  0  0  0
 55 56  2  0  0  0
 55 61  1  0  0  0
 57 58  1  0  0  0
 58 59  1  0  0  0
 58 60  2  0  0  0
 61 62  1  0  0  0
 62 63  1  0  0  0
 62 65  1  0  0  0
 63 64  2  0  0  0
 63 72  1  0  0  0
 65 66  1  0  0  0
 66 67  4  0  0  0
 66 68  4  0  0  0
 67 69  4  0  0  0
 68 70  4  0  0  0
 69 71  4  0  0  0
 70 71  4  0  0  0
 72 73  1  0  0  0
 73 74  1  0  0  0
 73 76  1  0  0  0
 74 75  2  0  0  0
 74 81  1  0  0  0
 76 77  1  0  0  0
 77 78  1  0  0  0
 78 79  1  0  0  0
 78 80  2  0  0  0
 81 82  1  0  0  0
 81 87  1  0  0  0
 82 83  1  0  0  0
 82 85  1  0  0  0
 83 84  2  0  0  0
 83 88  1  0  0  0
 85 86  1  0  0  0
 86 87  1  0  0  0
 88 89  1  0  0  0
 89 90  1  0  0  0
 89 92  1  0  0  0
 90 91  2  0  0  0
 90 96  1  0  0  0
 92 93  1  0  0  0
 92 94  1  0  0  0
 93 95  1  0  0  0
 96 97  1  0  0  0
 96102  1  0  0  0
 97 98  1  0  0  0
 97100  1  0  0  0
 98 99  2  0  0  0
 98103  1  0  0  0
100101  1  0  0  0
101102  1  0  0  0
  3104  1  0  0  0
  3105  1  0  0  0
  3106  1  0  0  0
  4107  1  0  0  0
  5108  1  0  0  0
  8109  1  0  0  0
  8110  1  0  0  0
 10111  1  0  0  0
 11112  1  0  0  0
 12113  1  0  0  0
 13114  1  0  0  0
 14115  1  0  0  0
 16116  1  0  0  0
 19117  1  0  0  0
 19118  1  0  0  0
 20119  1  0  0  0
 20120  1  0  0  0
 21121  1  0  0  0
 21122  1  0  0  0
 22123  1  0  0  0
 23124  1  0  0  0
 26125  1  0  0  0
 26126  1  0  0  0
 27127  1  0  0  0
 27128  1  0  0  0
 28129  1  0  0  0
 28130  1  0  0  0
 29131  1  0  0  0
 31132  1  0  0  0
 31133  1  0  0  0
 32134  1  0  0  0
 35135  1  0  0  0
 35136  1  0  0  0
 36137  1  0  0  0
 36138  1  0  0  0
 37139  1  0  0  0
 37140  1  0  0  0
 38141  1  0  0  0
 38142  1  0  0  0
 41143  1  0  0  0
 41144  1  0  0  0
 42145  1  0  0  0
 43146  1  0  0  0
 44147  1  0  0  0
 44148  1  0  0  0
 45149  1  0  0  0
 48150  1  0  0  0
 48151  1  0  0  0
 49152  1  0  0  0
 50153  1  0  0  0
 51154  1  0  0  0
 51155  1  0  0  0
 52156  1  0  0  0
 53157  1  0  0  0
 54158  1  0  0  0
 57159  1  0  0  0
 57160  1  0  0  0
 59161  1  0  0  0
 61162  1  0  0  0
 62163  1  0  0  0
 65164  1  0  0  0
 65165  1  0  0  0
 67166  1  0  0  0
 68167  1  0  0  0
 69168  1  0  0  0
 70169  1  0  0  0
 71170  1  0  0  0
 72171  1  0  0  0
 73172  1  0  0  0
 76173  1  0  0  0
 76174  1  0  0  0
 77175  1  0  0  0
 77176  1  0  0  0
 79177  1  0  0  0
 82178  1  0  0  0
 85179  1  0  0  0
 85180  1  0  0  0
 86181  1  0  0  0
 86182  1  0  0  0
 87183  1  0  0  0
 87184  1  0  0  0
 88185  1  0  0  0
 89186  1  0  0  0
 92187  1  0  0  0
 93188  1  0  0  0
 93189  1  0  0  0
 94190  1  0  0  0
 94191  1  0  0  0
 94192  1  0  0  0
 95193  1  0  0  0
 95194  1  0  0  0
 95195  1  0  0  0
 97196  1  0  0  0
100197  1  0  0  0
100198  1  0  0  0
101199  1  0  0  0
101200  1  0  0  0
102201  1  0  0  0
102202  1  0  0  0
103203  1  0  0  0
103204  1  0  0  0
M  END
$$$$
