### 
### Created by X-TOOL on Mon Sep 10 21:12:45 2018
### 

@<TRIPOS>MOLECULE
1iht_ligand
  203   207     1     0     0
SMALL
GAST_HUCK


@<TRIPOS>ATOM
      1 C          16.5320   12.4060   23.0980 C.2       1 ACE         0.1752
      2 O          17.4680   11.7020   22.6980 O.2       1 ACE        -0.3972
      3 CH3        15.0880   11.9180   23.1450 C.3       1 ACE         0.0258
      4 N          16.7250   13.6390   23.5360 N.am      1 DPN        -0.2640
      5 CA         18.0340   14.2510   23.5350 C.3       1 DPN         0.1406
      6 C          17.7520   15.5880   22.8450 C.2       1 DPN         0.2085
      7 O          16.7200   16.1950   23.1760 O.2       1 DPN        -0.3940
      8 CB         18.4640   14.3830   25.0060 C.3       1 DPN         0.0214
      9 CG         19.8950   14.8530   25.1940 C.ar      1 DPN        -0.0386
     10 CD1        20.9400   14.1780   24.5870 C.ar      1 DPN        -0.0601
     11 CD2        20.1390   15.9680   25.9610 C.ar      1 DPN        -0.0601
     12 CE1        22.2340   14.6330   24.7500 C.ar      1 DPN        -0.0686
     13 CE2        21.4310   16.4100   26.1170 C.ar      1 DPN        -0.0686
     14 CZ         22.4750   15.7470   25.5120 C.ar      1 DPN        -0.0687
     15 N          18.5450   16.0600   21.8710 N.am      1 PRO        -0.2497
     16 CA         18.2990   17.2750   21.0940 C.3       1 PRO         0.1338
     17 C          16.8970   17.2860   20.5030 C.2       1 PRO         0.2041
     18 O          16.4940   16.2330   20.0000 O.2       1 PRO        -0.3944
     19 CB         19.3580   17.2830   20.0070 C.3       1 PRO        -0.0104
     20 CG         20.4390   16.4320   20.6050 C.3       1 PRO        -0.0281
     21 CD         19.6800   15.3410   21.3190 C.3       1 PRO         0.0369
     22 N          16.1150   18.3990   20.4710 N.am      1 A5R        -0.2648
     23 CA         14.7850   18.2830   19.8580 C.3       1 A5R         0.1150
     24 C          14.7070   18.5470   18.3430 C.2       1 A5R         0.1302
     25 O          13.7880   19.2560   17.8710 O.2       1 A5R        -0.3891
     26 CB         13.7980   19.2130   20.6420 C.3       1 A5R        -0.0103
     27 CG         13.3200   18.4310   21.8220 C.3       1 A5R        -0.0155
     28 CD         12.3700   19.1590   22.7400 C.3       1 A5R         0.0627
     29 NE         11.6720   18.1130   23.4610 N.pl3     1 A5R        -0.2723
     30 CZ         10.8780   18.3590   24.5090 C.cat     1 A5R         0.2882
     31 NH1        10.7020   19.6180   24.9650 N.pl3     1 A5R        -0.2849
     32 NH2        10.2450   17.3220   25.0590 N.pl3     1 A5R        -0.2849
     33 C1         15.3220   17.9070   13.1820 C.2       1 A5R         0.1776
     34 O1         15.0210   16.7120   13.2540 O.2       1 A5R        -0.3969
     35 C2         16.6280   18.5240   13.6910 C.3       1 A5R         0.0375
     36 C3         16.9450   18.2730   15.1760 C.3       1 A5R        -0.0340
     37 C4         15.8300   18.7890   16.0600 C.3       1 A5R        -0.0350
     38 C5         15.9730   18.3250   17.5000 C.3       1 A5R         0.0235
     39 C          11.1970   17.4150    7.6630 C.2       1 FBE         0.1855
     40 O          11.0080   18.5150    7.1280 O.2       1 FBE        -0.3945
     41 C1         12.3500   17.1640    8.6120 C.3       1 FBE         0.0537
     42 C2         12.1970   17.7170   10.0010 C.2       1 FBE        -0.0782
     43 C3         13.2890   17.8150   10.7320 C.2       1 FBE        -0.0740
     44 C4         13.1810   18.3770   12.1310 C.3       1 FBE         0.0485
     45 N          14.4370   18.7770   12.7290 N.am      1 FBE        -0.2788
     46 C           8.1710   16.9750    1.5900 C.2       1 FBE         0.1862
     47 O           8.3040   16.9900    0.3720 O.2       1 FBE        -0.3945
     48 C1          9.2960   16.5700    2.5390 C.3       1 FBE         0.0537
     49 C2          8.9370   16.5580    4.0180 C.2       1 FBE        -0.0782
     50 C3          9.8290   16.4270    4.9820 C.2       1 FBE        -0.0740
     51 C4          9.3570   16.4240    6.4310 C.3       1 FBE         0.0486
     52 N          10.4230   16.3580    7.4180 N.am      1 FBE        -0.2775
     53 N           7.0000   17.2430    2.1520 N.am      1 ASP        -0.2627
     54 CA          5.8530   17.7640    1.4550 C.3       1 ASP         0.1423
     55 C           5.9390   19.2830    1.3190 C.2       1 ASP         0.2057
     56 O           4.9220   19.9760    1.3210 O.2       1 ASP        -0.3943
     57 CB          4.6180   17.3380    2.2480 C.3       1 ASP         0.0406
     58 CG          4.5480   17.7000    3.7410 C.2       1 ASP         0.0393
     59 OD1         5.5610   18.0090    4.3800 O.co2     1 ASP        -0.5688
     60 OD2         3.4440   17.6580    4.2760 O.co2     1 ASP        -0.5688
     61 N           7.1310   19.8520    1.2140 N.am      1 PHE        -0.2618
     62 CA          7.2730   21.2870    1.1820 C.3       1 PHE         0.1404
     63 C           7.1270   21.7050   -0.2630 C.2       1 PHE         0.2060
     64 O           7.6380   21.0620   -1.1840 O.2       1 PHE        -0.3942
     65 CB          8.6540   21.7040    1.7430 C.3       1 PHE         0.0214
     66 CG          8.7070   21.6260    3.2630 C.ar      1 PHE        -0.0386
     67 CD1         9.0480   20.4470    3.9000 C.ar      1 PHE        -0.0601
     68 CD2         8.3710   22.7430    4.0100 C.ar      1 PHE        -0.0601
     69 CE1         9.0390   20.3900    5.2820 C.ar      1 PHE        -0.0686
     70 CE2         8.3690   22.6760    5.3880 C.ar      1 PHE        -0.0686
     71 CZ          8.7000   21.5020    6.0240 C.ar      1 PHE        -0.0687
     72 N           6.4000   22.7950   -0.4600 N.am      1 GLU        -0.2635
     73 CA          6.1880   23.3340   -1.7880 C.3       1 GLU         0.1327
     74 C           7.4820   24.0400   -2.1950 C.2       1 GLU         0.2065
     75 O           8.0810   24.7150   -1.3480 O.2       1 GLU        -0.3942
     76 CB          5.0100   24.2650   -1.6710 C.3       1 GLU        -0.0008
     77 CG          4.5550   25.0430   -2.8790 C.3       1 GLU         0.0044
     78 CD          3.5290   26.1040   -2.5090 C.2       1 GLU         0.0350
     79 OE1         2.5360   25.8210   -1.8320 O.co2     1 GLU        -0.5690
     80 OE2         3.7470   27.2390   -2.9030 O.co2     1 GLU        -0.5690
     81 N           8.0090   23.9060   -3.4210 N.am      1 PRO        -0.2498
     82 CA          9.2760   24.5060   -3.8230 C.3       1 PRO         0.1338
     83 C           9.2520   26.0120   -3.7860 C.2       1 PRO         0.2041
     84 O           8.2860   26.7170   -4.1160 O.2       1 PRO        -0.3944
     85 CB          9.5400   23.9530   -5.2040 C.3       1 PRO        -0.0104
     86 CG          8.1470   23.7240   -5.7360 C.3       1 PRO        -0.0281
     87 CD          7.4560   23.1110   -4.5170 C.3       1 PRO         0.0369
     88 N          10.3610   26.4780   -3.2720 N.am      1 ILE        -0.2634
     89 CA         10.5610   27.8980   -3.1910 C.3       1 ILE         0.1337
     90 C          11.5230   28.2000   -4.3310 C.2       1 ILE         0.2067
     91 O          12.1840   27.2740   -4.8210 O.2       1 ILE        -0.3942
     92 CB         11.1200   28.2650   -1.7640 C.3       1 ILE        -0.0037
     93 CG1        12.4500   27.6250   -1.4140 C.3       1 ILE        -0.0491
     94 CG2        10.0620   27.8020   -0.7730 C.3       1 ILE        -0.0582
     95 CD1        12.9620   28.0660   -0.0420 C.3       1 ILE        -0.0648
     96 N          11.4980   29.4210   -4.8680 N.am      1 PRO        -0.2498
     97 CA         12.5740   29.9760   -5.6810 C.3       1 PRO         0.1334
     98 C          13.8530   30.2510   -4.8860 C.2       1 PRO         0.1994
     99 O          13.8230   31.0440   -3.9410 O.2       1 PRO        -0.3947
    100 CB         11.9340   31.2110   -6.3020 C.3       1 PRO        -0.0104
    101 CG         10.8780   31.6360   -5.3030 C.3       1 PRO        -0.0281
    102 CD         10.3220   30.2870   -4.8800 C.3       1 PRO         0.0369
    103 N          14.8680   29.6330   -5.2010 N.am      1 LEU        -0.2990
    104 H1         14.4428   12.7190   23.5351 H         1 ACE         0.0467
    105 H2         15.0192   11.0389   23.8026 H         1 ACE         0.0467
    106 H3         14.7603   11.6442   22.1313 H         1 ACE         0.0467
    107 H4         15.9438   14.1619   23.8771 H         1 DPN         0.1884
    108 H5         18.7763   13.6640   22.9743 H         1 DPN         0.0823
    109 H6         18.3577   13.3992   25.4865 H         1 DPN         0.0474
    110 H7         17.7959   15.1054   25.4977 H         1 DPN         0.0474
    111 H8         20.7439   13.2969   23.9868 H         1 DPN         0.0557
    112 H9         19.3198   16.4935   26.4382 H         1 DPN         0.0557
    113 H10        23.0572   14.1104   24.2764 H         1 DPN         0.0599
    114 H11        21.6296   17.2877   26.7213 H         1 DPN         0.0599
    115 H12        23.4898   16.1066   25.6384 H         1 DPN         0.0559
    116 H13        18.4170   18.1595   21.7371 H         1 PRO         0.0802
    117 H14        19.7182   18.3034   19.8097 H         1 PRO         0.0313
    118 H15        18.9748   16.8427   19.0747 H         1 PRO         0.0313
    119 H16        21.0495   17.0127   21.3122 H         1 PRO         0.0287
    120 H17        21.0861   16.0114   19.8212 H         1 PRO         0.0287
    121 H18        19.3529   14.5594   20.6176 H         1 PRO         0.0524
    122 H19        20.2893   14.8879   22.1149 H         1 PRO         0.0524
    123 H20        16.4348   19.2666   20.8519 H         1 A5R         0.1884
    124 H21        14.4572   17.2435   20.0063 H         1 A5R         0.0791
    125 H22        12.9481   19.4904   20.0012 H         1 A5R         0.0314
    126 H23        14.3182   20.1231   20.9755 H         1 A5R         0.0314
    127 H24        14.2001   18.1339   22.4112 H         1 A5R         0.0301
    128 H25        12.8083   17.5318   21.4483 H         1 A5R         0.0301
    129 H26        11.6613   19.7679   22.1595 H         1 A5R         0.0689
    130 H27        12.9241   19.8054   23.4365 H         1 A5R         0.0689
    131 H28        11.7927   17.1376   23.1529 H         1 A5R         0.2642
    132 H29        10.0874   19.7919   25.7731 H         1 A5R         0.2615
    133 H30        11.1823   20.4043   24.5047 H         1 A5R         0.2615
    134 H31        10.3973   16.3719   24.6917 H         1 A5R         0.2615
    135 H32         9.6038   17.4712   25.8511 H         1 A5R         0.2615
    136 H33        16.5722   19.6115   13.5356 H         1 A5R         0.0502
    137 H34        17.4537   18.1101   13.0936 H         1 A5R         0.0502
    138 H35        17.8803   18.7898   15.4372 H         1 A5R         0.0291
    139 H36        17.0648   17.1921   15.3412 H         1 A5R         0.0291
    140 H37        14.8694   18.4264   15.6655 H         1 A5R         0.0292
    141 H38        15.8430   19.8887   16.0400 H         1 A5R         0.0292
    142 H39        16.2063   17.2500   17.4981 H         1 A5R         0.0495
    143 H40        16.8021   18.8793   17.9639 H         1 A5R         0.0495
    144 H41        13.2524   17.6115    8.1699 H         1 FBE         0.0621
    145 H42        12.4843   16.0755    8.6968 H         1 FBE         0.0621
    146 H43        11.2258   18.0234   10.3867 H         1 FBE         0.0471
    147 H44        14.2520   17.4968   10.3353 H         1 FBE         0.0481
    148 H45        12.7270   17.6081   12.7734 H         1 FBE         0.0647
    149 H46        12.5245   19.2588   12.0946 H         1 FBE         0.0647
    150 H47        14.6435   19.7527   12.8023 H         1 FBE         0.1875
    151 H48        10.1278   17.2760    2.3985 H         1 FBE         0.0621
    152 H49         9.6239   15.5572    2.2623 H         1 FBE         0.0621
    153 H50         7.8892   16.6630    4.2954 H         1 FBE         0.0471
    154 H51        10.8868   16.3226    4.7454 H         1 FBE         0.0481
    155 H52         8.7017   15.5525    6.5760 H         1 FBE         0.0647
    156 H53         8.7844   17.3466    6.6066 H         1 FBE         0.0647
    157 H54        10.5775   15.5072    7.9202 H         1 FBE         0.1876
    158 H55         6.9068   17.0704    3.1326 H         1 ASP         0.1885
    159 H56         5.8069   17.3254    0.4473 H         1 ASP         0.0819
    160 H57         4.5462   16.2428    2.1751 H         1 ASP         0.0478
    161 H58         3.7445   17.7960    1.7609 H         1 ASP         0.0478
    162 H59         7.9466   19.2763    1.1559 H         1 PHE         0.1885
    163 H60         6.4829   21.7556    1.7871 H         1 PHE         0.0823
    164 H61         8.8636   22.7388    1.4343 H         1 PHE         0.0474
    165 H62         9.4216   21.0347    1.3274 H         1 PHE         0.0474
    166 H63         9.3207   19.5728    3.3199 H         1 PHE         0.0557
    167 H64         8.1097   23.6697    3.5120 H         1 PHE         0.0557
    168 H65         9.3000   19.4658    5.7848 H         1 PHE         0.0599
    169 H66         8.1058   23.5510    5.9712 H         1 PHE         0.0599
    170 H67         8.6944   21.4510    7.1068 H         1 PHE         0.0559
    171 H68         5.9882   23.2562    0.3259 H         1 GLU         0.1883
    172 H69         5.9613   22.5347   -2.5089 H         1 GLU         0.0801
    173 H70         5.2599   25.0007   -0.8924 H         1 GLU         0.0330
    174 H71         4.1542   23.6580   -1.3407 H         1 GLU         0.0330
    175 H72         4.1042   24.3476   -3.6023 H         1 GLU         0.0433
    176 H73         5.4267   25.5338   -3.3365 H         1 GLU         0.0433
    177 H74        10.0696   24.1689   -3.1399 H         1 PRO         0.0802
    178 H75        10.1060   23.0111   -5.1535 H         1 PRO         0.0313
    179 H76        10.0882   24.6775   -5.8242 H         1 PRO         0.0313
    180 H77         8.1510   23.0286   -6.5883 H         1 PRO         0.0287
    181 H78         7.6703   24.6689   -6.0359 H         1 PRO         0.0287
    182 H79         6.3634   23.2220   -4.5794 H         1 PRO         0.0524
    183 H80         7.7108   22.0466   -4.4066 H         1 PRO         0.0524
    184 H81        11.0642   25.8503   -2.9380 H         1 ILE         0.1883
    185 H82         9.6145   28.4355   -3.3496 H         1 ILE         0.0803
    186 H83        11.2396   29.3567   -1.7011 H         1 ILE         0.0345
    187 H84        13.1908   27.9087   -2.1761 H         1 ILE         0.0267
    188 H85        12.3270   26.5319   -1.4112 H         1 ILE         0.0267
    189 H86         9.0964   28.2648   -1.0247 H         1 ILE         0.0235
    190 H87        10.3571   28.0994    0.2441 H         1 ILE         0.0235
    191 H88         9.9677   26.7072   -0.8221 H         1 ILE         0.0235
    192 H89        13.9252   27.5765    0.1646 H         1 ILE         0.0230
    193 H90        12.2327   27.7809    0.7305 H         1 ILE         0.0230
    194 H91        13.0965   29.1577   -0.0343 H         1 ILE         0.0230
    195 H92        12.8341   29.2647   -6.4788 H         1 PRO         0.0802
    196 H93        11.4754   30.9652   -7.2711 H         1 PRO         0.0313
    197 H94        12.6802   32.0071   -6.4408 H         1 PRO         0.0313
    198 H95        10.1054   32.2622   -5.7731 H         1 PRO         0.0287
    199 H96        11.3200   32.1757   -4.4525 H         1 PRO         0.0287
    200 H97         9.8668   30.3456   -3.8803 H         1 PRO         0.0524
    201 H98         9.5752   29.9257   -5.6024 H         1 PRO         0.0524
    202 H99        15.7218   29.7871   -4.7037 H         1 LEU         0.1815
    203 H100       14.8399   28.9762   -5.9546 H         1 LEU         0.1815
@<TRIPOS>BOND
     1    1    2 2  
     2    1    3 1  
     3    4    1 am 
     4    5    4 1  
     5    6    5 1  
     6    5    8 1  
     7    6    7 2  
     8   15    6 am 
     9    8    9 1  
    10    9   10 ar 
    11    9   11 ar 
    12   10   12 ar 
    13   11   13 ar 
    14   12   14 ar 
    15   13   14 ar 
    16   16   15 1  
    17   15   21 1  
    18   17   16 1  
    19   16   19 1  
    20   17   18 2  
    21   22   17 am 
    22   19   20 1  
    23   20   21 1  
    24   23   22 1  
    25   24   23 1  
    26   23   26 1  
    27   24   25 2  
    28   38   24 1  
    29   26   27 1  
    30   27   28 1  
    31   28   29 1  
    32   29   30 ar 
    33   30   31 ar 
    34   30   32 ar 
    35   33   34 2  
    36   33   35 1  
    37   45   33 am 
    38   35   36 1  
    39   36   37 1  
    40   37   38 1  
    41   39   40 2  
    42   39   41 1  
    43   52   39 am 
    44   41   42 1  
    45   42   43 2  
    46   43   44 1  
    47   44   45 1  
    48   46   47 2  
    49   48   46 1  
    50   46   53 am 
    51   49   48 1  
    52   50   49 2  
    53   51   50 1  
    54   51   52 1  
    55   53   54 1  
    56   54   55 1  
    57   54   57 1  
    58   55   56 2  
    59   55   61 am 
    60   57   58 1  
    61   58   59 ar 
    62   58   60 ar 
    63   61   62 1  
    64   62   63 1  
    65   62   65 1  
    66   63   64 2  
    67   63   72 am 
    68   65   66 1  
    69   66   67 ar 
    70   66   68 ar 
    71   67   69 ar 
    72   68   70 ar 
    73   69   71 ar 
    74   70   71 ar 
    75   72   73 1  
    76   73   74 1  
    77   73   76 1  
    78   74   75 2  
    79   74   81 am 
    80   76   77 1  
    81   77   78 1  
    82   78   79 ar 
    83   78   80 ar 
    84   81   82 1  
    85   81   87 1  
    86   82   83 1  
    87   82   85 1  
    88   83   84 2  
    89   83   88 am 
    90   85   86 1  
    91   86   87 1  
    92   88   89 1  
    93   89   90 1  
    94   89   92 1  
    95   90   91 2  
    96   90   96 am 
    97   92   93 1  
    98   92   94 1  
    99   93   95 1  
   100   96   97 1  
   101   96  102 1  
   102   97   98 1  
   103   97  100 1  
   104   98   99 2  
   105   98  103 am 
   106  100  101 1  
   107  101  102 1  
   108    3  104 1  
   109    3  105 1  
   110    3  106 1  
   111    4  107 1  
   112    5  108 1  
   113    8  109 1  
   114    8  110 1  
   115   10  111 1  
   116   11  112 1  
   117   12  113 1  
   118   13  114 1  
   119   14  115 1  
   120   16  116 1  
   121   19  117 1  
   122   19  118 1  
   123   20  119 1  
   124   20  120 1  
   125   21  121 1  
   126   21  122 1  
   127   22  123 1  
   128   23  124 1  
   129   26  125 1  
   130   26  126 1  
   131   27  127 1  
   132   27  128 1  
   133   28  129 1  
   134   28  130 1  
   135   29  131 1  
   136   31  132 1  
   137   31  133 1  
   138   32  134 1  
   139   32  135 1  
   140   35  136 1  
   141   35  137 1  
   142   36  138 1  
   143   36  139 1  
   144   37  140 1  
   145   37  141 1  
   146   38  142 1  
   147   38  143 1  
   148   41  144 1  
   149   41  145 1  
   150   42  146 1  
   151   43  147 1  
   152   44  148 1  
   153   44  149 1  
   154   45  150 1  
   155   48  151 1  
   156   48  152 1  
   157   49  153 1  
   158   50  154 1  
   159   51  155 1  
   160   51  156 1  
   161   52  157 1  
   162   53  158 1  
   163   54  159 1  
   164   57  160 1  
   165   57  161 1  
   166   61  162 1  
   167   62  163 1  
   168   65  164 1  
   169   65  165 1  
   170   67  166 1  
   171   68  167 1  
   172   69  168 1  
   173   70  169 1  
   174   71  170 1  
   175   72  171 1  
   176   73  172 1  
   177   76  173 1  
   178   76  174 1  
   179   77  175 1  
   180   77  176 1  
   181   82  177 1  
   182   85  178 1  
   183   85  179 1  
   184   86  180 1  
   185   86  181 1  
   186   87  182 1  
   187   87  183 1  
   188   88  184 1  
   189   89  185 1  
   190   92  186 1  
   191   93  187 1  
   192   93  188 1  
   193   94  189 1  
   194   94  190 1  
   195   94  191 1  
   196   95  192 1  
   197   95  193 1  
   198   95  194 1  
   199   97  195 1  
   200  100  196 1  
   201  100  197 1  
   202  101  198 1  
   203  101  199 1  
   204  102  200 1  
   205  102  201 1  
   206  103  202 1  
   207  103  203 1  
@<TRIPOS>SUBSTRUCTURE
     1 ACE         1

