5n9s_ligand
  -I-interpret- 

 66 70  0  0  0  0  0  0  0  0999 V2000
   36.2710   43.6670   37.0410 C   0  0  0  0  0
   37.3930   41.9280   35.8720 C   0  0  0  0  0
   37.6410   41.2630   37.0680 C   0  0  0  0  0
   37.1700   41.8330   38.2440 C   0  0  0  0  0
   34.5140   45.7430   40.7320 C   0  0  0  0  0
   34.3750   44.8580   42.9930 C   0  0  0  0  0
   34.5420   44.6670   41.6270 C   0  0  0  0  0
   34.1110   46.1590   43.4800 C   0  0  0  0  0
   34.2710   47.1110   41.2660 C   0  0  0  0  0
   46.7940   34.6540   35.9290 F   0  0  0  0  0
   45.5150   34.5540   36.2560 C   0  0  0  0  0
   44.4840   34.7340   35.3140 C   0  0  0  0  0
   43.1640   34.6030   35.7190 C   0  0  0  0  0
   45.2600   34.1870   37.5370 C   0  0  0  0  0
   43.9490   34.0720   37.9380 C   0  0  0  0  0
   42.8910   34.2500   37.0400 C   0  0  0  0  0
   41.4810   34.1240   37.4890 C   0  0  0  0  0
   41.2430   33.2090   38.7200 C   0  0  0  0  0
   40.9730   35.5270   37.8460 C   0  0  0  0  0
   41.3510   36.0550   38.8780 O   0  0  0  0  0
   40.1340   36.1210   36.9900 N   0  0  0  0  0
   39.5700   37.3820   37.1370 C   0  0  0  0  0
   39.7240   38.2600   38.2580 C   0  0  0  0  0
   39.1160   39.5280   38.2310 C   0  0  0  0  0
   38.3550   39.9390   37.1270 C   0  0  0  0  0
   38.2230   39.0600   36.0420 C   0  0  0  0  0
   38.8470   37.7970   36.0170 C   0  0  0  0  0
   36.5430   43.0140   38.1840 N   0  0  0  0  0
   36.6850   43.1180   35.8500 C   0  0  0  0  0
   35.5700   44.7920   37.3850 N   0  0  0  0  0
   35.4750   44.7050   38.7370 C   0  0  0  0  0
   36.0380   43.6040   39.3020 N   0  0  0  0  0
   34.7830   45.6800   39.4000 N   0  0  0  0  0
   34.2250   48.1350   40.3560 O   0  0  0  0  0
   34.2440   49.5210   40.6880 C   0  0  0  0  0
   34.0630   47.2690   42.6230 C   0  0  0  0  0
   33.9080   46.4540   45.0510 S   0  0  0  0  0
   35.3880   46.8460   45.6860 C   0  0  0  0  0
   32.9150   47.4730   45.0860 O   0  0  0  0  0
   33.4830   45.3120   45.8280 O   0  0  0  0  0
   37.7617   41.5059   34.9371 H   0  0  0  0  0
   37.3087   41.3271   39.1994 H   0  0  0  0  0
   34.4466   44.0154   43.6808 H   0  0  0  0  0
   34.6981   43.6584   41.2443 H   0  0  0  0  0
   44.7208   34.9738   34.2774 H   0  0  0  0  0
   42.3506   34.7738   35.0138 H   0  0  0  0  0
   46.0752   33.9878   38.2326 H   0  0  0  0  0
   43.7295   33.8368   38.9794 H   0  0  0  0  0
   40.9490   33.6551   36.6612 H   0  0  0  0  0
   41.5818   32.1986   38.4910 H   0  0  0  0  0
   41.8012   33.5963   39.5723 H   0  0  0  0  0
   40.1795   33.1918   38.9581 H   0  0  0  0  0
   39.8849   35.5987   36.1500 H   0  0  0  0  0
   40.3073   37.9483   39.1245 H   0  0  0  0  0
   39.2380   40.2006   39.0800 H   0  0  0  0  0
   37.6168   39.3645   35.1888 H   0  0  0  0  0
   38.7668   37.1556   35.1393 H   0  0  0  0  0
   36.4596   43.6113   34.9045 H   0  0  0  0  0
   34.4277   46.4482   38.8307 H   0  0  0  0  0
   33.3854   49.7543   41.3177 H   0  0  0  0  0
   35.1638   49.7520   41.2253 H   0  0  0  0  0
   34.1972   50.1129   39.7739 H   0  0  0  0  0
   33.8608   48.2600   43.0293 H   0  0  0  0  0
   35.8054   47.6902   45.1371 H   0  0  0  0  0
   35.2717   47.1153   46.7358 H   0  0  0  0  0
   36.0567   45.9894   45.6012 H   0  0  0  0  0
 28  1  4  0  0  0
  1 29  4  0  0  0
 30  1  4  0  0  0
  3  2  4  0  0  0
 29  2  4  0  0  0
  4  3  4  0  0  0
  3 25  1  0  0  0
 28  4  4  0  0  0
  5  7  4  0  0  0
  5  9  4  0  0  0
 33  5  1  0  0  0
  7  6  4  0  0  0
  6  8  4  0  0  0
 36  8  4  0  0  0
  8 37  1  0  0  0
  9 34  1  0  0  0
  9 36  4  0  0  0
 11 10  1  0  0  0
 12 11  4  0  0  0
 14 11  4  0  0  0
 13 12  4  0  0  0
 16 13  4  0  0  0
 15 14  4  0  0  0
 16 15  4  0  0  0
 17 16  1  0  0  0
 17 18  1  0  0  0
 19 17  1  0  0  0
 19 20  2  0  0  0
 21 19  1  0  0  0
 22 21  1  0  0  0
 23 22  4  0  0  0
 27 22  4  0  0  0
 24 23  4  0  0  0
 25 24  4  0  0  0
 25 26  4  0  0  0
 26 27  4  0  0  0
 32 28  4  0  0  0
 31 30  4  0  0  0
 31 32  4  0  0  0
 31 33  1  0  0  0
 34 35  1  0  0  0
 37 38  1  0  0  0
 37 39  2  0  0  0
 37 40  2  0  0  0
  2 41  1  0  0  0
  4 42  1  0  0  0
  6 43  1  0  0  0
  7 44  1  0  0  0
 12 45  1  0  0  0
 13 46  1  0  0  0
 14 47  1  0  0  0
 15 48  1  0  0  0
 17 49  1  0  0  0
 18 50  1  0  0  0
 18 51  1  0  0  0
 18 52  1  0  0  0
 21 53  1  0  0  0
 23 54  1  0  0  0
 24 55  1  0  0  0
 26 56  1  0  0  0
 27 57  1  0  0  0
 29 58  1  0  0  0
 33 59  1  0  0  0
 35 60  1  0  0  0
 35 61  1  0  0  0
 35 62  1  0  0  0
 36 63  1  0  0  0
 38 64  1  0  0  0
 38 65  1  0  0  0
 38 66  1  0  0  0
M  END
$$$$
