2gm1_ligand
  -I-interpret- 

 67 71  0  0  0  0  0  0  0  0999 V2000
    6.3970   40.8070   28.9060 C   0  0  0  0  0
    7.8920   39.7690   30.7090 C   0  0  0  0  0
    7.9790   38.3350   30.0640 C   0  0  0  0  0
    8.0670   35.7620   29.1930 C   0  0  0  0  0
    7.7720   34.4930   28.9000 C   0  0  0  0  0
    6.4170   34.1960   29.3330 C   0  0  0  0  0
    9.2360   36.6080   28.9650 C   0  0  0  0  0
   10.2090   41.0440   28.1940 C   0  0  0  0  0
    9.6720   41.4030   25.8460 C   0  0  0  0  0
    9.5000   40.0260   25.6590 C   0  0  0  0  0
    9.6610   39.1650   26.7530 C   0  0  0  0  0
    6.5230   40.3570   30.3090 C   0  0  0  0  0
    6.3720   41.8060   30.0220 C   0  0  0  0  0
    6.8820   37.5070   30.1670 N   0  0  0  0  0
    6.9060   36.3170   29.8070 N   0  0  0  0  0
    5.8640   35.2940   29.8830 C   0  0  0  0  0
    8.7610   33.4300   28.0650 Cl  0  0  0  0  0
    9.1260   37.8830   29.4190 N   0  0  0  0  0
   10.2680   38.7380   29.1660 C   0  0  0  0  0
   10.0190   39.6640   28.0210 C   0  0  0  0  0
   10.0350   41.9060   27.1090 C   0  0  0  0  0
   10.2380   36.1850   28.3980 O   0  0  0  0  0
    8.1570   39.7310   32.2190 N   0  0  0  0  0
    7.2140   38.9430   33.0780 C   0  0  0  0  0
    7.7600   37.9830   34.2010 C   0  0  0  0  0
    9.1530   37.4080   33.9630 C   0  0  0  0  0
    9.3340   36.0730   34.4940 N   0  3  0  0  0
    9.1350   40.4410   32.9320 C   0  0  0  0  0
    9.1880   40.3440   34.1530 O   0  0  0  0  0
   10.1120   41.3110   32.2470 C   0  0  0  0  0
   11.3610   40.7850   31.8630 C   0  0  0  0  0
   12.2940   41.6210   31.2110 C   0  0  0  0  0
   12.0100   42.9890   30.9640 C   0  0  0  0  0
   10.7530   43.5090   31.3460 C   0  0  0  0  0
    9.8130   42.6830   31.9900 C   0  0  0  0  0
   13.0520   43.8680   30.3400 C   0  0  0  0  0
    5.8193   40.5595   28.0154 H   0  0  0  0  0
    6.9001   40.6593   27.9504 H   0  0  0  0  0
    8.6754   40.4275   30.3338 H   0  0  0  0  0
    5.9227   33.2302   29.2284 H   0  0  0  0  0
   10.4907   41.4405   29.1695 H   0  0  0  0  0
    9.5242   42.0874   25.0106 H   0  0  0  0  0
    9.2445   39.6293   24.6764 H   0  0  0  0  0
    9.5071   38.0940   26.6210 H   0  0  0  0  0
    5.9933   39.6773   30.9765 H   0  0  0  0  0
    5.7704   42.6517   30.3550 H   0  0  0  0  0
    6.8446   42.7509   30.2903 H   0  0  0  0  0
    4.8600   35.3974   30.2945 H   0  0  0  0  0
   11.1222   38.1074   28.9193 H   0  0  0  0  0
   10.4547   39.3360   30.0580 H   0  0  0  0  0
   10.1817   42.9779   27.2418 H   0  0  0  0  0
    6.7104   38.2758   32.3785 H   0  0  0  0  0
    6.6542   39.7017   33.6248 H   0  0  0  0  0
    7.0783   37.1333   34.2379 H   0  0  0  0  0
    7.8243   38.5792   35.1112 H   0  0  0  0  0
    9.8641   38.0589   34.4717 H   0  0  0  0  0
    9.3008   37.3512   32.8846 H   0  0  0  0  0
   10.2836   35.7564   34.2982 H   0  0  0  0  0
    9.1796   36.0856   35.5022 H   0  0  0  0  0
    8.6658   35.4400   34.0544 H   0  0  0  0  0
   11.6051   39.7425   32.0672 H   0  0  0  0  0
   13.2505   41.2074   30.8914 H   0  0  0  0  0
   10.5109   44.5519   31.1415 H   0  0  0  0  0
    8.8503   43.0936   32.2946 H   0  0  0  0  0
   13.9352   43.8917   30.9783 H   0  0  0  0  0
   13.3205   43.4720   29.3606 H   0  0  0  0  0
   12.6552   44.8771   30.2290 H   0  0  0  0  0
 12  1  1  0  0  0
 13  1  1  0  0  0
  3  2  1  0  0  0
  2 12  1  0  0  0
  2 23  1  0  0  0
  3 14  2  0  0  0
 18  3  1  0  0  0
  4  5  4  0  0  0
  7  4  1  0  0  0
  4 15  4  0  0  0
  5  6  4  0  0  0
  5 17  1  0  0  0
 16  6  4  0  0  0
 18  7  1  0  0  0
  7 22  2  0  0  0
 20  8  4  0  0  0
  8 21  4  0  0  0
 10  9  4  0  0  0
 21  9  4  0  0  0
 11 10  4  0  0  0
 20 11  4  0  0  0
 12 13  1  0  0  0
 14 15  1  0  0  0
 15 16  4  0  0  0
 19 18  1  0  0  0
 19 20  1  0  0  0
 23 24  1  0  0  0
 23 28  1  0  0  0
 24 25  1  0  0  0
 25 26  1  0  0  0
 26 27  1  0  0  0
 28 29  2  0  0  0
 28 30  1  0  0  0
 30 31  4  0  0  0
 30 35  4  0  0  0
 31 32  4  0  0  0
 32 33  4  0  0  0
 33 34  4  0  0  0
 33 36  1  0  0  0
 34 35  4  0  0  0
  1 37  1  0  0  0
  1 38  1  0  0  0
  2 39  1  0  0  0
  6 40  1  0  0  0
  8 41  1  0  0  0
  9 42  1  0  0  0
 10 43  1  0  0  0
 11 44  1  0  0  0
 12 45  1  0  0  0
 13 46  1  0  0  0
 13 47  1  0  0  0
 16 48  1  0  0  0
 19 49  1  0  0  0
 19 50  1  0  0  0
 21 51  1  0  0  0
 24 52  1  0  0  0
 24 53  1  0  0  0
 25 54  1  0  0  0
 25 55  1  0  0  0
 26 56  1  0  0  0
 26 57  1  0  0  0
 27 58  1  0  0  0
 27 59  1  0  0  0
 27 60  1  0  0  0
 31 61  1  0  0  0
 32 62  1  0  0  0
 34 63  1  0  0  0
 35 64  1  0  0  0
 36 65  1  0  0  0
 36 66  1  0  0  0
 36 67  1  0  0  0
M  END
$$$$
