4ysl_ligand
  -I-interpret- 

 38 37  0  0  0  0  0  0  0  0999 V2000
  -23.7780   25.5880  -21.1470 N   0  3  0  0  0
  -24.2470   24.8970  -19.9930 C   0  0  0  0  0
  -24.3150   23.4050  -20.2550 C   0  0  0  0  0
  -24.2760   22.9790  -21.4460 O   0  0  0  0  0
  -24.4250   22.5950  -19.2900 O   0  0  0  0  0
  -25.6290   25.3920  -19.6280 C   0  0  0  0  0
  -25.7200   25.1740  -18.1440 C   0  0  0  0  0
  -27.0030   25.6990  -17.5710 C   0  0  0  0  0
  -27.9230   26.0590  -18.2750 O   0  0  0  0  0
  -27.0770   25.7670  -16.1620 N   0  0  0  0  0
  -28.2600   26.2260  -15.5440 C   0  0  0  0  0
  -28.3310   27.7710  -15.4280 C   0  0  0  0  0
  -29.1810   28.2090  -14.6940 O   0  0  0  0  0
  -28.4600   25.4070  -14.2430 C   0  0  0  0  0
  -28.8850   23.6670  -14.5250 S   0  0  0  0  0
  -27.5800   28.8090  -16.1100 N   0  0  0  0  0
  -27.9630   30.1820  -15.7610 C   0  0  0  0  0
  -27.4880   31.4440  -16.5270 C   0  0  0  0  0
  -26.5470   31.3350  -17.3670 O   0  0  0  0  0
  -28.0120   32.6210  -16.3410 O   0  0  0  0  0
  -22.8463   25.2505  -21.3886 H   0  0  0  0  0
  -24.4148   25.4184  -21.9255 H   0  0  0  0  0
  -23.7383   26.5881  -20.9503 H   0  0  0  0  0
  -23.5525   25.0864  -19.1745 H   0  0  0  0  0
  -24.1912   23.7221  -22.0478 H   0  0  0  0  0
  -26.4119   24.8614  -20.1700 H   0  0  0  0  0
  -25.7760   26.4374  -19.8995 H   0  0  0  0  0
  -24.8948   25.7072  -17.6720 H   0  0  0  0  0
  -25.6789   24.1011  -17.9560 H   0  0  0  0  0
  -26.2784   25.4854  -15.5933 H   0  0  0  0  0
  -29.1323   26.0384  -16.1701 H   0  0  0  0  0
  -29.2906   25.8590  -13.7008 H   0  0  0  0  0
  -27.5145   25.4252  -13.7009 H   0  0  0  0  0
  -29.0348   23.0535  -13.3545 H   0  0  0  0  0
  -26.8413   28.5998  -16.7816 H   0  0  0  0  0
  -27.5069   30.3138  -14.7798 H   0  0  0  0  0
  -29.0374   30.1830  -15.9446 H   0  0  0  0  0
  -28.7086   32.5596  -15.6833 H   0  0  0  0  0
  1  2  1  0  0  0
  2  3  1  0  0  0
  2  6  1  0  0  0
  3  4  1  0  0  0
  3  5  2  0  0  0
  6  7  1  0  0  0
  7  8  1  0  0  0
  8  9  2  0  0  0
  8 10  1  0  0  0
 10 11  1  0  0  0
 11 12  1  0  0  0
 11 14  1  0  0  0
 12 13  2  0  0  0
 12 16  1  0  0  0
 14 15  1  0  0  0
 16 17  1  0  0  0
 17 18  1  0  0  0
 18 19  2  0  0  0
 18 20  1  0  0  0
  1 21  1  0  0  0
  1 22  1  0  0  0
  1 23  1  0  0  0
  2 24  1  0  0  0
  4 25  1  0  0  0
  6 26  1  0  0  0
  6 27  1  0  0  0
  7 28  1  0  0  0
  7 29  1  0  0  0
 10 30  1  0  0  0
 11 31  1  0  0  0
 14 32  1  0  0  0
 14 33  1  0  0  0
 15 34  1  0  0  0
 16 35  1  0  0  0
 17 36  1  0  0  0
 17 37  1  0  0  0
 20 38  1  0  0  0
M  END
$$$$
