5nr7_ligand
  -I-interpret- 

 60 64  0  0  0  0  0  0  0  0999 V2000
   -0.0400   23.4400   -8.8550 O   0  0  0  0  0
   -1.1210   23.8500   -8.4400 C   0  0  0  0  0
   -2.2520   23.0090   -8.1000 C   0  0  0  0  0
   -2.1060   21.5180   -8.2260 C   0  0  0  0  0
   -1.3280   25.2050   -8.2760 N   0  0  0  0  0
   -2.4730   25.8240   -7.8430 C   0  0  0  0  0
   -2.5540   27.0360   -7.7130 O   0  0  0  0  0
   -3.5170   24.9690   -7.5550 N   0  0  0  0  0
   -3.3780   23.6040   -7.6810 C   0  0  0  0  0
   -4.8080   25.5690   -7.1600 C   0  0  0  0  0
   -4.8000   26.0180   -5.7110 C   0  0  0  0  0
   -6.1420   26.6490   -5.3550 C   0  0  0  0  0
   -7.2570   25.7110   -5.5800 N   0  3  0  0  0
   -7.2730   25.2900   -6.9890 C   0  0  0  0  0
   -5.9670   24.6140   -7.3850 C   0  0  0  0  0
   -8.5420   26.3250   -5.2150 C   0  0  0  0  0
   -8.6860   26.5920   -3.7330 C   0  0  0  0  0
   -9.0630   27.8210   -3.3790 N   0  0  0  0  0
   -9.2030   28.0890   -2.0420 C   0  0  0  0  0
   -9.5930   29.3910   -1.6460 C   0  0  0  0  0
   -9.7450   29.6930   -0.3210 C   0  0  0  0  0
   -9.5230   28.7350    0.6540 C   0  0  0  0  0
   -9.1420   27.4730    0.3090 C   0  0  0  0  0
   -8.9650   27.1160   -1.0490 C   0  0  0  0  0
   -8.5480   25.8310   -1.4830 C   0  0  0  0  0
   -8.4210   25.5710   -2.8310 C   0  0  0  0  0
   -8.1930   24.9520   -0.4580 O   0  0  0  0  0
   -8.7250   23.6600   -0.4530 C   0  0  0  0  0
   -8.1900   22.8150    0.5060 C   0  0  0  0  0
   -8.6790   21.5290    0.5910 C   0  0  0  0  0
   -8.0230   20.4600    1.8000 Cl  0  0  0  0  0
   -9.6690   21.0680   -0.2480 C   0  0  0  0  0
  -10.1870   21.9250   -1.2030 C   0  0  0  0  0
   -9.7210   23.2240   -1.3130 C   0  0  0  0  0
   -2.2639   21.0551   -7.2519 H   0  0  0  0  0
   -2.8445   21.1404   -8.9332 H   0  0  0  0  0
   -1.1040   21.2813   -8.5840 H   0  0  0  0  0
   -0.5416   25.8140   -8.5021 H   0  0  0  0  0
   -4.2299   22.9736   -7.4261 H   0  0  0  0  0
   -4.9449   26.4423   -7.7977 H   0  0  0  0  0
   -4.0080   26.7529   -5.5670 H   0  0  0  0  0
   -4.6271   25.1548   -5.0683 H   0  0  0  0  0
   -6.2921   27.5223   -5.9898 H   0  0  0  0  0
   -6.1267   26.9202   -4.2994 H   0  0  0  0  0
   -7.1199   24.8931   -4.9862 H   0  0  0  0  0
   -7.4065   26.1745   -7.6119 H   0  0  0  0  0
   -8.0861   24.5773   -7.1270 H   0  0  0  0  0
   -5.8231   23.7213   -6.7764 H   0  0  0  0  0
   -6.0081   24.3374   -8.4385 H   0  0  0  0  0
   -9.3300   25.6278   -5.4997 H   0  0  0  0  0
   -8.6029   27.2850   -5.7276 H   0  0  0  0  0
   -9.7730   30.1564   -2.4009 H   0  0  0  0  0
  -10.0444   30.6995   -0.0289 H   0  0  0  0  0
   -9.6540   28.9923    1.7051 H   0  0  0  0  0
   -8.9716   26.7299    1.0880 H   0  0  0  0  0
   -8.1187   24.5840   -3.1811 H   0  0  0  0  0
   -7.4022   23.1586    1.1764 H   0  0  0  0  0
  -10.0380   20.0460   -0.1613 H   0  0  0  0  0
  -10.9697   21.5738   -1.8754 H   0  0  0  0  0
  -10.1322   23.8957   -2.0666 H   0  0  0  0  0
  1  2  2  0  0  0
  2  3  1  0  0  0
  2  5  1  0  0  0
  3  4  1  0  0  0
  3  9  2  0  0  0
  5  6  1  0  0  0
  6  7  2  0  0  0
  6  8  1  0  0  0
  8  9  1  0  0  0
  8 10  1  0  0  0
 10 11  1  0  0  0
 10 15  1  0  0  0
 11 12  1  0  0  0
 12 13  1  0  0  0
 13 14  1  0  0  0
 13 16  1  0  0  0
 14 15  1  0  0  0
 16 17  1  0  0  0
 17 18  4  0  0  0
 17 26  4  0  0  0
 18 19  4  0  0  0
 19 20  4  0  0  0
 19 24  4  0  0  0
 20 21  4  0  0  0
 21 22  4  0  0  0
 22 23  4  0  0  0
 23 24  4  0  0  0
 24 25  4  0  0  0
 25 26  4  0  0  0
 25 27  1  0  0  0
 27 28  1  0  0  0
 28 29  4  0  0  0
 28 34  4  0  0  0
 29 30  4  0  0  0
 30 31  1  0  0  0
 30 32  4  0  0  0
 32 33  4  0  0  0
 33 34  4  0  0  0
  4 35  1  0  0  0
  4 36  1  0  0  0
  4 37  1  0  0  0
  5 38  1  0  0  0
  9 39  1  0  0  0
 10 40  1  0  0  0
 11 41  1  0  0  0
 11 42  1  0  0  0
 12 43  1  0  0  0
 12 44  1  0  0  0
 13 45  1  0  0  0
 14 46  1  0  0  0
 14 47  1  0  0  0
 15 48  1  0  0  0
 15 49  1  0  0  0
 16 50  1  0  0  0
 16 51  1  0  0  0
 20 52  1  0  0  0
 21 53  1  0  0  0
 22 54  1  0  0  0
 23 55  1  0  0  0
 26 56  1  0  0  0
 29 57  1  0  0  0
 32 58  1  0  0  0
 33 59  1  0  0  0
 34 60  1  0  0  0
M  END
$$$$
