5vfn_ligand
  -I-interpret- 

 19 19  0  0  0  0  0  0  0  0999 V2000
   35.1350    1.9610  113.2350 C   0  0  0  0  0
   34.2060    1.2430  112.8200 O   0  0  0  0  0
   34.8660    2.9140  114.0020 O   0  0  0  0  0
   36.5600    1.6820  112.8170 C   0  0  0  0  0
   37.3360    2.7690  112.9150 C   0  0  0  0  0
   38.7930    2.9450  112.6270 C   0  0  0  0  0
   39.7430    1.9290  112.9000 C   0  0  0  0  0
   41.1100    2.1450  112.6160 C   0  0  0  0  0
   41.5290    3.3870  112.0760 C   0  0  0  0  0
   40.5760    4.4100  111.8250 C   0  0  0  0  0
   39.2150    4.1830  112.1020 C   0  0  0  0  0
   35.6759    3.3731  114.2363 H   0  0  0  0  0
   36.9149    0.7096  112.4756 H   0  0  0  0  0
   36.8247    3.6680  113.2592 H   0  0  0  0  0
   39.4188    0.9809  113.3291 H   0  0  0  0  0
   41.8400    1.3594  112.8114 H   0  0  0  0  0
   42.5824    3.5569  111.8534 H   0  0  0  0  0
   40.8981    5.3688  111.4187 H   0  0  0  0  0
   38.4839    4.9682  111.9096 H   0  0  0  0  0
  1  2  2  0  0  0
  1  3  1  0  0  0
  1  4  1  0  0  0
  4  5  2  0  0  0
  5  6  1  0  0  0
  6  7  4  0  0  0
  6 11  4  0  0  0
  7  8  4  0  0  0
  8  9  4  0  0  0
  9 10  4  0  0  0
 10 11  4  0  0  0
  3 12  1  0  0  0
  4 13  1  0  0  0
  5 14  1  0  0  0
  7 15  1  0  0  0
  8 16  1  0  0  0
  9 17  1  0  0  0
 10 18  1  0  0  0
 11 19  1  0  0  0
M  END
$$$$
