3qtu_ligand
  -I-interpret- 

 44 46  0  0  0  0  0  0  0  0999 V2000
  119.0990   10.0720  -50.8930 N   0  0  0  0  0
  117.9680   10.7430  -49.0780 N   0  0  0  0  0
  120.5090    9.1440  -52.4730 N   0  0  0  0  0
  115.1730    8.9970  -43.2680 N   0  0  0  0  0
  124.0330    2.7550  -46.2640 N   0  0  0  0  0
  120.7350    8.5230  -50.2260 C   0  0  0  0  0
  120.1350    9.2420  -51.2580 C   0  0  0  0  0
  118.8990   10.0100  -49.6080 C   0  0  0  0  0
  117.2200   10.5150  -48.0490 C   0  0  0  0  0
  121.7910    7.6170  -50.3730 C   0  0  0  0  0
  122.2480    6.8630  -49.3100 C   0  0  0  0  0
  116.2110   11.4830  -47.7490 C   0  0  0  0  0
  115.3520   11.2960  -46.6460 C   0  0  0  0  0
  115.4980   10.1370  -45.8330 C   0  0  0  0  0
  116.4910    9.1800  -46.1170 C   0  0  0  0  0
  117.3480    9.3610  -47.2110 C   0  0  0  0  0
  123.6470    6.8180  -49.0270 C   0  0  0  0  0
  124.1200    6.0500  -47.9410 C   0  0  0  0  0
  123.2100    5.3230  -47.1270 C   0  0  0  0  0
  121.8210    5.3550  -47.3940 C   0  0  0  0  0
  121.3390    6.1220  -48.4860 C   0  0  0  0  0
  122.3110    7.4670  -51.4650 O   0  0  0  0  0
  113.2990    9.1170  -44.9710 O   0  0  0  0  0
  113.9530   11.1630  -43.9800 O   0  0  0  0  0
  125.1160    4.9040  -45.3710 O   0  0  0  0  0
  122.8970    4.4110  -44.6600 O   0  0  0  0  0
  119.9550    8.9300  -48.7470 S   0  0  0  0  0
  114.4140    9.8830  -44.4770 S   0  0  0  0  0
  123.8310    4.3560  -45.7570 S   0  0  0  0  0
  117.8014   11.6346  -49.5446 H   0  0  0  0  0
  120.0382    9.6868  -53.1969 H   0  0  0  0  0
  121.2790    8.5228  -52.7211 H   0  0  0  0  0
  114.8155    8.0776  -43.0086 H   0  0  0  0  0
  115.9913    9.3785  -42.7934 H   0  0  0  0  0
  124.9613    2.3322  -46.2606 H   0  0  0  0  0
  123.2266    2.2123  -46.5731 H   0  0  0  0  0
  116.1053   12.3689  -48.3752 H   0  0  0  0  0
  114.5823   12.0334  -46.4180 H   0  0  0  0  0
  116.5933    8.2976  -45.4854 H   0  0  0  0  0
  118.1168    8.6187  -47.4253 H   0  0  0  0  0
  124.3481    7.3754  -49.6482 H   0  0  0  0  0
  125.1880    6.0145  -47.7259 H   0  0  0  0  0
  121.1274    4.7954  -46.7664 H   0  0  0  0  0
  120.2705    6.1479  -48.6997 H   0  0  0  0  0
  7  1  4  0  0  0
  8  1  4  0  0  0
  8  2  1  0  0  0
  2  9  1  0  0  0
  7  3  1  0  0  0
 28  4  1  0  0  0
 29  5  1  0  0  0
  6  7  4  0  0  0
 10  6  1  0  0  0
  6 27  4  0  0  0
 27  8  4  0  0  0
  9 12  4  0  0  0
  9 16  4  0  0  0
 11 10  1  0  0  0
 10 22  2  0  0  0
 17 11  4  0  0  0
 11 21  4  0  0  0
 12 13  4  0  0  0
 13 14  4  0  0  0
 15 14  4  0  0  0
 14 28  1  0  0  0
 16 15  4  0  0  0
 18 17  4  0  0  0
 19 18  4  0  0  0
 19 20  4  0  0  0
 19 29  1  0  0  0
 20 21  4  0  0  0
 28 23  2  0  0  0
 28 24  2  0  0  0
 29 25  2  0  0  0
 29 26  2  0  0  0
  2 30  1  0  0  0
  3 31  1  0  0  0
  3 32  1  0  0  0
  4 33  1  0  0  0
  4 34  1  0  0  0
  5 35  1  0  0  0
  5 36  1  0  0  0
 12 37  1  0  0  0
 13 38  1  0  0  0
 15 39  1  0  0  0
 16 40  1  0  0  0
 17 41  1  0  0  0
 18 42  1  0  0  0
 20 43  1  0  0  0
 21 44  1  0  0  0
M  END
$$$$
