6keb_ligand
  -I-interpret- 

 56 58  0  0  0  0  0  0  0  0999 V2000
   24.5880    4.2360  215.4820 C   0  0  0  0  0
   25.8340    2.5140  216.5690 C   0  0  0  0  0
   28.0730   -1.0710  216.5180 C   0  0  0  0  0
   29.6990   -0.1090  217.8530 C   0  0  0  0  0
   31.3510    0.5870  214.8330 C   0  0  0  0  0
   34.0060    9.7070  215.6460 C   0  0  0  0  0
   33.9270    8.7520  216.6550 O   0  0  0  0  0
   32.8770    7.8620  216.4570 C   0  0  0  0  0
   32.0290    7.4610  217.4790 C   0  0  0  0  0
   31.0050    6.5700  217.2050 C   0  0  0  0  0
   30.8430    6.0920  215.9190 C   0  0  0  0  0
   31.7020    6.4980  214.9310 C   0  0  0  0  0
   32.7120    7.3780  215.1910 C   0  0  0  0  0
   29.7400    5.1050  215.5280 C   0  0  0  0  0
   28.2520    5.7370  216.2910 S   0  0  0  0  0
   26.8720    4.6020  216.1850 C   0  0  0  0  0
   25.6990    5.0550  215.5970 C   0  0  0  0  0
   24.6640    2.9480  215.9860 C   0  0  0  0  0
   26.9730    3.3330  216.6540 C   0  0  0  0  0
   28.1860    2.8400  217.3480 N   0  0  0  0  0
   27.8300    2.0820  218.5360 C   0  0  0  0  0
   27.4970    0.6550  218.0930 C   0  0  0  0  0
   28.4840    0.1660  217.1420 N   0  3  0  0  0
   29.6320    2.9940  217.1400 C   0  0  0  0  0
   30.4060    2.4980  217.8950 O   0  0  0  0  0
   30.2550    3.7200  215.9480 C   0  0  0  0  0
   30.1740    2.8400  214.8560 O   0  0  0  0  0
   31.3320    2.0910  214.6330 C   0  0  0  0  0
   32.3130    2.6290  214.2780 O   0  0  0  0  0
   23.6758    4.5963  215.0064 H   0  0  0  0  0
   25.8779    1.5042  216.9770 H   0  0  0  0  0
   27.9324   -1.8336  217.2840 H   0  0  0  0  0
   27.1359   -0.9133  215.9841 H   0  0  0  0  0
   28.8418   -1.3958  215.8169 H   0  0  0  0  0
   30.0567    0.8056  218.3260 H   0  0  0  0  0
   29.5091   -0.8638  218.6160 H   0  0  0  0  0
   30.4514   -0.4770  217.1554 H   0  0  0  0  0
   31.6065    0.0998  213.8920 H   0  0  0  0  0
   32.0934    0.3317  215.5891 H   0  0  0  0  0
   30.3667    0.2529  215.1611 H   0  0  0  0  0
   34.1596    9.2099  214.6882 H   0  0  0  0  0
   33.0786   10.2789  215.6154 H   0  0  0  0  0
   34.8415   10.3776  215.8468 H   0  0  0  0  0
   32.1677    7.8443  218.4899 H   0  0  0  0  0
   30.3311    6.2479  217.9989 H   0  0  0  0  0
   31.5761    6.1111  213.9198 H   0  0  0  0  0
   33.3835    7.6929  214.3922 H   0  0  0  0  0
   29.4931    4.9982  214.4717 H   0  0  0  0  0
   25.6513    6.0759  215.2181 H   0  0  0  0  0
   23.8034    2.2822  215.9216 H   0  0  0  0  0
   26.9724    2.5354  219.0331 H   0  0  0  0  0
   28.6577    2.0763  219.2452 H   0  0  0  0  0
   26.5176    0.6548  217.6146 H   0  0  0  0  0
   27.5000    0.0054  218.9683 H   0  0  0  0  0
   28.5999    0.8797  216.4225 H   0  0  0  0  0
   31.2598    3.9708  216.2880 H   0  0  0  0  0
 17  1  4  0  0  0
 18  1  4  0  0  0
  2 18  4  0  0  0
 19  2  4  0  0  0
 23  3  1  0  0  0
 23  4  1  0  0  0
 28  5  1  0  0  0
  7  6  1  0  0  0
  8  7  1  0  0  0
  9  8  4  0  0  0
 13  8  4  0  0  0
 10  9  4  0  0  0
 11 10  4  0  0  0
 11 12  4  0  0  0
 14 11  1  0  0  0
 12 13  4  0  0  0
 14 15  1  0  0  0
 26 14  1  0  0  0
 15 16  1  0  0  0
 16 17  4  0  0  0
 19 16  4  0  0  0
 20 19  1  0  0  0
 20 21  1  0  0  0
 24 20  1  0  0  0
 21 22  1  0  0  0
 22 23  1  0  0  0
 24 25  2  0  0  0
 26 24  1  0  0  0
 27 26  1  0  0  0
 27 28  1  0  0  0
 28 29  2  0  0  0
  1 30  1  0  0  0
  2 31  1  0  0  0
  3 32  1  0  0  0
  3 33  1  0  0  0
  3 34  1  0  0  0
  4 35  1  0  0  0
  4 36  1  0  0  0
  4 37  1  0  0  0
  5 38  1  0  0  0
  5 39  1  0  0  0
  5 40  1  0  0  0
  6 41  1  0  0  0
  6 42  1  0  0  0
  6 43  1  0  0  0
  9 44  1  0  0  0
 10 45  1  0  0  0
 12 46  1  0  0  0
 13 47  1  0  0  0
 14 48  1  0  0  0
 17 49  1  0  0  0
 18 50  1  0  0  0
 21 51  1  0  0  0
 21 52  1  0  0  0
 22 53  1  0  0  0
 22 54  1  0  0  0
 23 55  1  0  0  0
 26 56  1  0  0  0
M  END
$$$$
