1bn3_ligand
  -I-interpret- 

 35 37  0  0  0  0  0  0  0  0999 V2000
   -5.2650    1.9590   15.9200 C   0  0  0  0  0
   -0.9340    9.4020   15.5110 O   0  0  0  0  0
   -2.4550    4.9840   13.7630 C   0  0  0  0  0
   -2.5930    3.7050   14.2800 C   0  0  0  0  0
   -2.9660    7.2090   13.5990 C   0  0  0  0  0
   -3.3770    8.0350   12.5370 C   0  0  0  0  0
   -2.9400    9.3550   12.4680 C   0  0  0  0  0
   -2.1020    9.8560   13.4610 C   0  0  0  0  0
   -1.7040    9.0120   14.5310 C   0  0  0  0  0
   -2.1320    7.6890   14.6040 C   0  0  0  0  0
   -5.2880    0.7240   18.0410 O   0  0  0  0  0
   -7.2870    0.7870   16.8540 O   0  0  0  0  0
   -5.4860   -0.7710   16.1350 N   0  0  0  0  0
   -5.8870    0.6240   16.7890 S   0  0  0  0  0
   -3.9950    2.0400   15.3980 C   0  0  0  0  0
   -3.8050    3.2560   14.7890 C   0  0  0  0  0
   -4.9210    4.0680   14.7970 C   0  0  0  0  0
   -6.1980    3.3560   15.6260 S   0  0  0  0  0
   -4.8740    5.5810   14.0070 S   0  0  0  0  0
   -5.4900    5.3090   12.7750 O   0  0  0  0  0
   -5.7290    6.4750   14.7310 O   0  0  0  0  0
   -3.4630    5.9640   13.6250 N   0  0  0  0  0
   -0.4480   10.7670   15.4990 C   0  0  0  0  0
   -1.4574    5.2647   13.4253 H   0  0  0  0  0
   -1.7316    3.0371   14.2872 H   0  0  0  0  0
   -4.0392    7.6405   11.7663 H   0  0  0  0  0
   -3.2521    9.9930   11.6411 H   0  0  0  0  0
   -1.7543   10.8881   13.4171 H   0  0  0  0  0
   -1.8216    7.0458   15.4274 H   0  0  0  0  0
   -4.8793   -1.4160   16.6413 H   0  0  0  0  0
   -5.8357   -1.0198   15.2097 H   0  0  0  0  0
   -3.2456    1.2508   15.4591 H   0  0  0  0  0
    0.1388   10.9345   14.5958 H   0  0  0  0  0
   -1.2949   11.4530   15.5160 H   0  0  0  0  0
    0.1764   10.9367   16.3762 H   0  0  0  0  0
  1 18  4  0  0  0
  1 15  4  0  0  0
  1 14  1  0  0  0
 14 11  2  0  0  0
 14 12  2  0  0  0
 14 13  1  0  0  0
 15 16  4  0  0  0
 16 17  4  0  0  0
 16  4  1  0  0  0
  4  3  2  0  0  0
  3 22  1  0  0  0
 22  5  1  0  0  0
 22 19  1  0  0  0
 19 21  2  0  0  0
 19 20  2  0  0  0
 19 17  1  0  0  0
 17 18  4  0  0  0
  5 10  4  0  0  0
  5  6  4  0  0  0
  6  7  4  0  0  0
  7  8  4  0  0  0
  8  9  4  0  0  0
  9 10  4  0  0  0
  9  2  1  0  0  0
  2 23  1  0  0  0
  3 24  1  0  0  0
  4 25  1  0  0  0
  6 26  1  0  0  0
  7 27  1  0  0  0
  8 28  1  0  0  0
 10 29  1  0  0  0
 13 30  1  0  0  0
 13 31  1  0  0  0
 15 32  1  0  0  0
 23 33  1  0  0  0
 23 34  1  0  0  0
 23 35  1  0  0  0
M  END
$$$$
