1jmg_ligand
  -I-interpret- 

 33 34  0  0  0  0  0  0  0  0999 V2000
   14.5260   46.3470  -51.8600 N   0  0  0  0  0
   14.3340   45.0180  -51.4840 C   0  0  0  0  0
   13.3750   44.6470  -50.6000 N   0  0  0  0  0
   12.5410   45.5310  -49.9970 C   0  0  0  0  0
   12.7810   46.9450  -50.3880 C   0  0  0  0  0
   13.7920   47.3070  -51.3240 C   0  0  0  0  0
   15.0320   44.1060  -51.8570 O   0  0  0  0  0
   11.6890   45.0810  -49.2300 O   0  0  0  0  0
   15.4420   46.5660  -53.0430 C   0  0  0  0  0
   14.7730   46.4380  -54.4170 C   0  0  0  0  0
   15.9640   46.5030  -55.3650 C   0  0  0  0  0
   16.8710   47.6390  -54.8440 C   0  0  0  0  0
   16.6440   45.2030  -55.2310 O   0  0  0  0  0
   16.3720   47.7110  -53.3790 O   0  0  0  0  0
   16.5920   48.9570  -55.5900 C   0  0  0  0  0
   16.9690   48.9830  -57.0440 O   0  0  0  0  0
   15.8090   49.3410  -58.1310 P   0  0  0  0  0
   16.2060   49.3070  -59.5510 O   0  0  0  0  0
   14.8070   48.2890  -57.8960 O   0  0  0  0  0
   15.2750   50.6750  -57.8100 O   0  0  0  0  0
   13.2760   43.6564  -50.3779 H   0  0  0  0  0
   12.1652   47.7279  -49.9454 H   0  0  0  0  0
   13.9565   48.3507  -51.5919 H   0  0  0  0  0
   16.0564   45.8060  -52.5603 H   0  0  0  0  0
   14.0309   47.2135  -54.6067 H   0  0  0  0  0
   14.1876   45.5250  -54.5257 H   0  0  0  0  0
   15.6993   46.6906  -56.4056 H   0  0  0  0  0
   17.9418   47.4753  -54.9655 H   0  0  0  0  0
   17.4100   45.1827  -55.8093 H   0  0  0  0  0
   17.1997   49.7193  -55.1025 H   0  0  0  0  0
   15.5133   49.1087  -55.5506 H   0  0  0  0  0
   16.8602   49.9900  -59.7156 H   0  0  0  0  0
   15.9509   51.3368  -57.9735 H   0  0  0  0  0
  1  2  1  0  0  0
  1  6  1  0  0  0
  1  9  1  0  0  0
  2  3  1  0  0  0
  2  7  2  0  0  0
  3  4  1  0  0  0
  4  5  1  0  0  0
  4  8  2  0  0  0
  5  6  2  0  0  0
  9 10  1  0  0  0
  9 14  1  0  0  0
 10 11  1  0  0  0
 11 12  1  0  0  0
 11 13  1  0  0  0
 12 14  1  0  0  0
 12 15  1  0  0  0
 15 16  1  0  0  0
 16 17  1  0  0  0
 17 18  1  0  0  0
 17 19  2  0  0  0
 17 20  1  0  0  0
  3 21  1  0  0  0
  5 22  1  0  0  0
  6 23  1  0  0  0
  9 24  1  0  0  0
 10 25  1  0  0  0
 10 26  1  0  0  0
 11 27  1  0  0  0
 12 28  1  0  0  0
 13 29  1  0  0  0
 15 30  1  0  0  0
 15 31  1  0  0  0
 18 32  1  0  0  0
 20 33  1  0  0  0
M  END
$$$$
