6f8w_ligand
  -I-interpret- 

 58 61  0  0  0  0  0  0  0  0999 V2000
  -31.7550   -1.3610  -25.7490 C   0  0  0  0  0
  -30.5790   -0.5560  -25.9530 C   0  0  0  0  0
  -28.9070    3.4510  -25.5860 C   0  0  0  0  0
  -30.5960    2.5240  -28.0340 C   0  0  0  0  0
  -28.7120    3.2800  -29.4730 C   0  0  0  0  0
  -28.6150    0.1930  -26.5710 C   0  0  0  0  0
  -29.4820   -0.8000  -26.8020 C   0  0  0  0  0
  -35.7060   -4.0550  -24.1850 C   0  0  0  0  0
  -34.8650   -3.9710  -25.2410 O   0  0  0  0  0
  -33.8910   -3.0600  -25.3200 C   0  0  0  0  0
  -33.0640   -3.3450  -26.3390 C   0  0  0  0  0
  -33.1160   -4.3510  -27.2100 O   0  0  0  0  0
  -32.9430   -4.1810  -28.5900 C   0  0  0  0  0
  -34.0790   -4.6400  -29.4950 C   0  0  0  0  0
  -33.5080   -5.8250  -30.0770 C   0  0  0  0  0
  -32.5320   -6.2420  -29.0480 C   0  0  0  0  0
  -31.8090   -4.9730  -28.7970 C   0  0  0  0  0
  -31.9730   -2.4880  -26.5400 C   0  0  0  0  0
  -32.6070   -1.1420  -24.7360 C   0  0  0  0  0
  -33.6580   -1.9810  -24.5470 C   0  0  0  0  0
  -30.2980    0.4660  -25.2610 N   0  0  0  0  0
  -29.1280    0.9400  -25.6310 N   0  0  0  0  0
  -28.4770    2.0850  -25.0850 C   0  0  0  0  0
  -28.4880    3.5680  -27.0550 C   0  0  0  0  0
  -29.2520    3.1130  -28.1120 N   0  0  0  0  0
  -30.9120    1.4320  -29.0580 C   0  0  0  0  0
  -30.4810    1.7970  -30.3680 O   0  0  0  0  0
  -29.0940    2.1270  -30.4110 C   0  0  0  0  0
  -27.3860    4.0800  -27.2700 O   0  0  0  0  0
  -28.4341    4.2355  -24.9952 H   0  0  0  0  0
  -29.9869    3.5646  -25.4916 H   0  0  0  0  0
  -31.2971    3.3360  -28.2271 H   0  0  0  0  0
  -30.6667    2.0531  -27.0535 H   0  0  0  0  0
  -27.6247    3.3040  -29.3997 H   0  0  0  0  0
  -29.1286    4.1984  -29.8867 H   0  0  0  0  0
  -27.6602    0.3488  -27.0731 H   0  0  0  0  0
  -29.3636   -1.6267  -27.5024 H   0  0  0  0  0
  -35.1312   -4.2450  -23.2786 H   0  0  0  0  0
  -36.2513   -3.1170  -24.0810 H   0  0  0  0  0
  -36.4108   -4.8704  -24.3474 H   0  0  0  0  0
  -32.8805   -3.1242  -28.8494 H   0  0  0  0  0
  -34.3865   -3.8941  -30.2279 H   0  0  0  0  0
  -35.0171   -4.8164  -28.9687 H   0  0  0  0  0
  -33.0542   -5.6481  -31.0521 H   0  0  0  0  0
  -34.2488   -6.5924  -30.3016 H   0  0  0  0  0
  -31.8838   -7.0585  -29.3661 H   0  0  0  0  0
  -32.9924   -6.6663  -28.1557 H   0  0  0  0  0
  -31.0760   -4.9865  -27.9904 H   0  0  0  0  0
  -31.1265   -4.6433  -29.5803 H   0  0  0  0  0
  -31.2704   -2.7107  -27.3430 H   0  0  0  0  0
  -32.4563   -0.2943  -24.0676 H   0  0  0  0  0
  -34.3475   -1.7712  -23.7293 H   0  0  0  0  0
  -28.7177    2.0766  -24.0220 H   0  0  0  0  0
  -27.4297    1.9874  -25.3707 H   0  0  0  0  0
  -31.9917    1.2840  -29.0803 H   0  0  0  0  0
  -30.3868    0.5232  -28.7643 H   0  0  0  0  0
  -28.5368    1.2460  -30.0923 H   0  0  0  0  0
  -28.8626    2.4412  -31.4288 H   0  0  0  0  0
  2  1  1  0  0  0
  1 18  4  0  0  0
  1 19  4  0  0  0
  2  7  4  0  0  0
 21  2  4  0  0  0
  3 23  1  0  0  0
 24  3  1  0  0  0
 25  4  1  0  0  0
  4 26  1  0  0  0
 25  5  1  0  0  0
  5 28  1  0  0  0
  6  7  4  0  0  0
 22  6  4  0  0  0
  9  8  1  0  0  0
 10  9  1  0  0  0
 11 10  4  0  0  0
 20 10  4  0  0  0
 11 12  1  0  0  0
 18 11  4  0  0  0
 12 13  1  0  0  0
 13 14  1  0  0  0
 13 17  1  0  0  0
 14 15  1  0  0  0
 16 15  1  0  0  0
 17 16  1  0  0  0
 19 20  4  0  0  0
 22 21  4  0  0  0
 23 22  1  0  0  0
 24 25  1  0  0  0
 24 29  2  0  0  0
 26 27  1  0  0  0
 27 28  1  0  0  0
  3 30  1  0  0  0
  3 31  1  0  0  0
  4 32  1  0  0  0
  4 33  1  0  0  0
  5 34  1  0  0  0
  5 35  1  0  0  0
  6 36  1  0  0  0
  7 37  1  0  0  0
  8 38  1  0  0  0
  8 39  1  0  0  0
  8 40  1  0  0  0
 13 41  1  0  0  0
 14 42  1  0  0  0
 14 43  1  0  0  0
 15 44  1  0  0  0
 15 45  1  0  0  0
 16 46  1  0  0  0
 16 47  1  0  0  0
 17 48  1  0  0  0
 17 49  1  0  0  0
 18 50  1  0  0  0
 19 51  1  0  0  0
 20 52  1  0  0  0
 23 53  1  0  0  0
 23 54  1  0  0  0
 26 55  1  0  0  0
 26 56  1  0  0  0
 28 57  1  0  0  0
 28 58  1  0  0  0
M  END
$$$$
