3kqy_ligand
  -I-interpret- 

 17 18  0  0  0  0  0  0  0  0999 V2000
   29.1910   46.5410   18.3960 N   0  0  0  0  0
   27.8280   41.6080   16.9250 O   0  0  0  0  0
   27.0200   43.5080   13.9220 C   0  0  0  0  0
   27.1680   42.4380   14.7950 C   0  0  0  0  0
   27.3840   44.7870   14.3240 C   0  0  0  0  0
   28.3160   46.0870   16.2350 N   0  0  0  0  0
   28.5440   44.4100   17.5980 N   0  0  0  0  0
   28.7110   45.7240   17.4590 C   0  0  0  0  0
   27.6790   42.6530   16.0700 C   0  0  0  0  0
   27.8950   44.9970   15.5980 C   0  0  0  0  0
   28.0420   43.9320   16.4680 C   0  0  0  0  0
   29.2819   47.5388   18.2047 H   0  0  0  0  0
   29.4675   46.1686   19.3044 H   0  0  0  0  0
   28.1898   41.9249   17.7559 H   0  0  0  0  0
   26.6185   43.3443   12.9220 H   0  0  0  0  0
   26.8845   41.4332   14.4817 H   0  0  0  0  0
   27.2684   45.6266   13.6386 H   0  0  0  0  0
  8  1  1  0  0  0
  9  2  1  0  0  0
  3  4  4  0  0  0
  5  3  4  0  0  0
  4  9  4  0  0  0
 10  5  4  0  0  0
  6  8  4  0  0  0
  6 10  4  0  0  0
  8  7  4  0  0  0
  7 11  4  0  0  0
  9 11  4  0  0  0
 10 11  4  0  0  0
  1 12  1  0  0  0
  1 13  1  0  0  0
  2 14  1  0  0  0
  3 15  1  0  0  0
  4 16  1  0  0  0
  5 17  1  0  0  0
M  END
$$$$
