### 
### Created by X-TOOL on Mon Sep 10 21:13:09 2018
### 

@<TRIPOS>MOLECULE
4dpu_ligand
   28    27     1     0     0
SMALL
GAST_HUCK


@<TRIPOS>ATOM
      1 OAA        17.0420  -24.2340  -18.7000 O.co2     1 FM0        -0.5689
      2 OAB        17.5580  -16.6470  -18.9670 O.co2     1 FM0        -0.5891
      3 OAC        18.0470  -19.1080  -19.6760 O.co2     1 FM0        -0.5556
      4 OAD        16.1790  -24.2440  -16.6830 O.co2     1 FM0        -0.5689
      5 OAE        15.4250  -24.0090  -20.8040 O.3       1 FM0        -0.3842
      6 OAF        16.3260  -15.2800  -20.5980 O.co2     1 FM0        -0.5891
      7 OAG        18.3500  -16.4970  -21.3020 O.co2     1 FM0        -0.5891
      8 OAH        17.2160  -19.7850  -21.9050 O.co2     1 FM0        -0.5556
      9 FAI        12.6390  -23.5170  -21.4900 F         1 FM0        -0.2460
     10 CAJ        13.1720  -24.1890  -20.4720 C.3       1 FM0         0.1204
     11 CAK        15.6510  -21.4220  -20.2150 C.3       1 FM0         0.0872
     12 CAL        14.4180  -22.1840  -19.7770 C.3       1 FM0         0.0087
     13 CAM        14.6390  -24.2970  -18.5220 C.3       1 FM0         0.0316
     14 OAN        15.7330  -20.0890  -19.8790 O.3       1 FM0        -0.2462
     15 OAO        16.2620  -17.7600  -20.7820 O.3       1 FM0        -0.1548
     16 CAP        16.0260  -24.2560  -17.9340 C.2       1 FM0         0.0376
     17 CAQ        14.4360  -23.6790  -19.8970 C.3       1 FM0         0.1077
     18 PAR        17.1260  -16.5380  -20.4100 P.3       1 FM0         0.2069
     19 PAS        16.8280  -19.1840  -20.5650 P.3       1 FM0         0.3275
     20 H          15.2345  -23.5942  -21.6485 H         1 FM0         0.2104
     21 H          13.4093  -25.1767  -20.8672 H         1 FM0         0.0645
     22 H          12.4398  -24.1273  -19.6669 H         1 FM0         0.0645
     23 H          15.6379  -21.4478  -21.3046 H         1 FM0         0.0622
     24 H          16.4868  -21.9028  -19.7066 H         1 FM0         0.0622
     25 H          13.6202  -21.8498  -20.4403 H         1 FM0         0.0321
     26 H          14.3151  -21.9803  -18.7112 H         1 FM0         0.0321
     27 H          14.0173  -23.7119  -17.8443 H         1 FM0         0.0459
     28 H          14.4030  -25.3546  -18.6396 H         1 FM0         0.0459
@<TRIPOS>BOND
     1   16    1 ar 
     2   18    2 ar 
     3   19    3 ar 
     4   16    4 ar 
     5   17    5 1  
     6   18    6 ar 
     7   18    7 ar 
     8   19    8 ar 
     9   10    9 1  
    10   17   10 1  
    11   11   12 1  
    12   14   11 1  
    13   12   17 1  
    14   13   16 1  
    15   17   13 1  
    16   19   14 1  
    17   15   18 1  
    18   15   19 1  
    19    5   20 1  
    20   10   21 1  
    21   10   22 1  
    22   11   23 1  
    23   11   24 1  
    24   12   25 1  
    25   12   26 1  
    26   13   27 1  
    27   13   28 1  
@<TRIPOS>SUBSTRUCTURE
     1 FM0         1

