3f5l_ligand
  -I-interpret- 

 45 46  0  0  0  0  0  0  0  0999 V2000
    5.6100    2.2490   42.7050 O   0  0  0  0  0
    4.7580    2.2460   41.5570 C   0  0  0  0  0
    5.5070    1.6310   40.3800 C   0  0  0  0  0
    6.7120    2.3620   40.1510 O   0  0  0  0  0
    3.6140    1.4430   41.8260 O   0  0  0  0  0
    2.6820    1.4860   40.7440 C   0  0  0  0  0
    1.4350    0.6990   41.1420 C   0  0  0  0  0
    1.8120   -0.5610   41.7180 O   0  0  0  0  0
    3.3160    0.9270   39.4680 C   0  0  0  0  0
    2.4170    1.1130   38.3710 O   0  0  0  0  0
    4.6490    1.5850   39.1250 C   0  0  0  0  0
    5.3210    0.7550   38.1710 O   0  0  0  0  0
    5.5420    1.3310   36.8470 C   0  0  0  0  0
    5.9900    0.4490   35.7000 C   0  0  0  0  0
    7.4010    0.1970   35.4640 O   0  0  0  0  0
    5.3620    0.9830   34.4290 C   0  0  0  0  0
    5.1660   -0.1510   33.5850 O   0  0  0  0  0
    4.0380    1.6380   34.8260 C   0  0  0  0  0
    3.2000    1.8160   33.6710 O   0  0  0  0  0
    5.2400    2.7400   36.6230 O   0  0  0  0  0
    4.3440    2.9640   35.5230 C   0  0  0  0  0
    3.1020    3.7190   36.0050 C   0  0  0  0  0
    2.2160    2.8640   36.7470 O   0  0  0  0  0
    6.3829    2.7899   42.5271 H   0  0  0  0  0
    4.4580    3.2677   41.3242 H   0  0  0  0  0
    5.7536    0.5989   40.6290 H   0  0  0  0  0
    7.2343    2.3762   40.9564 H   0  0  0  0  0
    2.3986    2.5176   40.5353 H   0  0  0  0  0
    0.8261    0.5201   40.2558 H   0  0  0  0  0
    0.8678    1.2728   41.8749 H   0  0  0  0  0
    1.0223   -1.0479   41.9647 H   0  0  0  0  0
    3.5088   -0.1305   39.6484 H   0  0  0  0  0
    1.5740    0.7023   38.5764 H   0  0  0  0  0
    4.4856    2.5886   38.7323 H   0  0  0  0  0
    6.6145    1.5100   36.9230 H   0  0  0  0  0
    5.6517   -0.5377   36.0165 H   0  0  0  0  0
    7.4990   -0.3784   34.7018 H   0  0  0  0  0
    5.9680    1.7233   33.9067 H   0  0  0  0  0
    4.7673    0.1316   32.7587 H   0  0  0  0  0
    3.4886    0.9978   35.5163 H   0  0  0  0  0
    2.3743    2.2275   33.9365 H   0  0  0  0  0
    4.8099    3.6016   34.7717 H   0  0  0  0  0
    2.5673    4.0939   35.1323 H   0  0  0  0  0
    3.4245    4.5298   36.6582 H   0  0  0  0  0
    1.4509    3.3686   37.0326 H   0  0  0  0  0
  1  2  1  0  0  0
  2  3  1  0  0  0
  2  5  1  0  0  0
  3  4  1  0  0  0
  3 11  1  0  0  0
  5  6  1  0  0  0
  6  7  1  0  0  0
  6  9  1  0  0  0
  7  8  1  0  0  0
  9 10  1  0  0  0
  9 11  1  0  0  0
 11 12  1  0  0  0
 12 13  1  0  0  0
 13 14  1  0  0  0
 13 20  1  0  0  0
 14 15  1  0  0  0
 14 16  1  0  0  0
 16 17  1  0  0  0
 16 18  1  0  0  0
 18 19  1  0  0  0
 18 21  1  0  0  0
 20 21  1  0  0  0
 21 22  1  0  0  0
 22 23  1  0  0  0
  1 24  1  0  0  0
  2 25  1  0  0  0
  3 26  1  0  0  0
  4 27  1  0  0  0
  6 28  1  0  0  0
  7 29  1  0  0  0
  7 30  1  0  0  0
  8 31  1  0  0  0
  9 32  1  0  0  0
 10 33  1  0  0  0
 11 34  1  0  0  0
 13 35  1  0  0  0
 14 36  1  0  0  0
 15 37  1  0  0  0
 16 38  1  0  0  0
 17 39  1  0  0  0
 18 40  1  0  0  0
 19 41  1  0  0  0
 21 42  1  0  0  0
 22 43  1  0  0  0
 22 44  1  0  0  0
 23 45  1  0  0  0
M  END
$$$$
