3ru1_ligand
  -I-interpret- 

 48 50  0  0  0  0  0  0  0  0999 V2000
   68.3050   49.1390   11.2690 C   0  0  0  0  0
   67.6540   48.9940   10.0480 C   0  0  0  0  0
   67.8870   49.9060    9.0280 C   0  0  0  0  0
   66.4110   48.7670    7.6130 C   0  0  0  0  0
   66.7700   47.9430    9.8380 C   0  0  0  0  0
   63.7440   47.1920    8.3830 C   0  0  0  0  0
   62.4030   49.1250   11.3750 C   0  0  0  0  0
   65.1770   51.0190   13.2230 C   0  0  0  0  0
   65.4010   52.1570   12.2260 C   0  0  0  0  0
   64.0930   52.5830   11.5690 C   0  0  0  0  0
   64.4670   49.8440   12.5550 C   0  0  0  0  0
   63.3630   51.3880   10.9430 C   0  0  0  0  0
   63.1270   50.3110   11.9940 C   0  0  0  0  0
   62.9330   48.7670   10.0520 N   0  0  0  0  0
   63.2410   47.5020    9.7970 C   0  0  0  0  0
   63.1320   46.6100   10.6320 O   0  0  0  0  0
   65.1740   46.6560    8.4160 C   0  0  0  0  0
   66.1380   47.8210    8.6040 C   0  0  0  0  0
   69.1870   50.1960   11.4650 C   0  0  0  0  0
   69.4240   51.1100   10.4480 C   0  0  0  0  0
   68.7700   50.9600    9.2310 C   0  0  0  0  0
   67.2690   49.7720    7.8460 N   0  0  0  0  0
   65.8220   48.6700    6.4180 N   0  0  0  0  0
   68.1237   48.4243   12.0717 H   0  0  0  0  0
   66.5735   47.2217   10.6312 H   0  0  0  0  0
   63.7284   48.1109    7.7970 H   0  0  0  0  0
   63.0969   46.4351    7.9398 H   0  0  0  0  0
   61.3548   49.3981   11.2537 H   0  0  0  0  0
   62.5393   48.2676   12.0341 H   0  0  0  0  0
   64.5564   51.3855   14.0407 H   0  0  0  0  0
   66.1448   50.6804   13.5927 H   0  0  0  0  0
   66.0822   51.8090   11.4495 H   0  0  0  0  0
   65.8147   53.0114   12.7617 H   0  0  0  0  0
   64.3203   53.3004   10.7804 H   0  0  0  0  0
   63.4492   53.0194   12.3326 H   0  0  0  0  0
   64.2985   49.0564   13.2895 H   0  0  0  0  0
   65.0858   49.4591   11.7444 H   0  0  0  0  0
   63.9736   50.9764   10.1393 H   0  0  0  0  0
   62.4025   51.7211   10.5497 H   0  0  0  0  0
   62.5153   50.7267   12.7947 H   0  0  0  0  0
   63.0627   49.4833    9.3375 H   0  0  0  0  0
   65.3956   46.1437    7.4797 H   0  0  0  0  0
   65.2832   45.9524    9.2413 H   0  0  0  0  0
   69.6951   50.3073   12.4229 H   0  0  0  0  0
   70.1164   51.9376   10.6023 H   0  0  0  0  0
   68.9511   51.6752    8.4286 H   0  0  0  0  0
   65.1734   47.9056    6.2296 H   0  0  0  0  0
   66.0208   49.3603    5.6939 H   0  0  0  0  0
  2  1  4  0  0  0
  1 19  4  0  0  0
  2  3  4  0  0  0
  5  2  4  0  0  0
  3 21  4  0  0  0
 22  3  4  0  0  0
 18  4  4  0  0  0
  4 22  4  0  0  0
  4 23  1  0  0  0
 18  5  4  0  0  0
  6 15  1  0  0  0
 17  6  1  0  0  0
  7 13  1  0  0  0
 14  7  1  0  0  0
  8  9  1  0  0  0
 11  8  1  0  0  0
 10  9  1  0  0  0
 12 10  1  0  0  0
 13 11  1  0  0  0
 13 12  1  0  0  0
 15 14  1  0  0  0
 15 16  2  0  0  0
 17 18  1  0  0  0
 19 20  4  0  0  0
 20 21  4  0  0  0
  1 24  1  0  0  0
  5 25  1  0  0  0
  6 26  1  0  0  0
  6 27  1  0  0  0
  7 28  1  0  0  0
  7 29  1  0  0  0
  8 30  1  0  0  0
  8 31  1  0  0  0
  9 32  1  0  0  0
  9 33  1  0  0  0
 10 34  1  0  0  0
 10 35  1  0  0  0
 11 36  1  0  0  0
 11 37  1  0  0  0
 12 38  1  0  0  0
 12 39  1  0  0  0
 13 40  1  0  0  0
 14 41  1  0  0  0
 17 42  1  0  0  0
 17 43  1  0  0  0
 19 44  1  0  0  0
 20 45  1  0  0  0
 21 46  1  0  0  0
 23 47  1  0  0  0
 23 48  1  0  0  0
M  END
$$$$
