4qna_ligand
  -I-interpret- 

 24 25  0  0  0  0  0  0  0  0999 V2000
   -0.6010    1.5680   16.9260 N   0  0  0  0  0
    0.5460    2.1630   17.3000 C   0  0  0  0  0
    0.7310    3.4630   17.0450 N   0  0  0  0  0
   -0.2330    4.1660   16.4240 C   0  0  0  0  0
   -1.3820    3.5810   16.0440 N   0  0  0  0  0
   -1.5670    2.2740   16.2940 C   0  0  0  0  0
    1.5740    1.4240   17.9690 N   0  0  0  0  0
   -0.0310    5.5500   16.1620 N   0  0  0  0  0
   -2.8230    1.5790   15.8900 C   0  0  0  0  0
   -3.7810    2.1750   15.0590 C   0  0  0  0  0
   -4.9220    1.4780   14.7120 C   0  0  0  0  0
   -5.1260    0.1910   15.1860 C   0  0  0  0  0
   -4.1770   -0.4000   16.0090 C   0  0  0  0  0
   -3.0280    0.2910   16.3610 C   0  0  0  0  0
   -3.6130    3.4500   14.5560 O   0  0  0  0  0
    1.4420    0.4324   18.1681 H   0  0  0  0  0
    2.4383    1.8892   18.2464 H   0  0  0  0  0
    0.8392    6.0009   16.4446 H   0  0  0  0  0
   -0.7564    6.0912   15.6916 H   0  0  0  0  0
   -5.6650    1.9416   14.0630 H   0  0  0  0  0
   -6.0290   -0.3552   14.9132 H   0  0  0  0  0
   -4.3361   -1.4124   16.3802 H   0  0  0  0  0
   -2.2862   -0.1778   17.0076 H   0  0  0  0  0
   -4.3699    3.6806   14.0124 H   0  0  0  0  0
  1  2  4  0  0  0
  1  6  4  0  0  0
  2  3  4  0  0  0
  2  7  1  0  0  0
  3  4  4  0  0  0
  4  5  4  0  0  0
  4  8  1  0  0  0
  5  6  4  0  0  0
  6  9  1  0  0  0
  9 10  4  0  0  0
  9 14  4  0  0  0
 10 11  4  0  0  0
 10 15  1  0  0  0
 11 12  4  0  0  0
 12 13  4  0  0  0
 13 14  4  0  0  0
  7 16  1  0  0  0
  7 17  1  0  0  0
  8 18  1  0  0  0
  8 19  1  0  0  0
 11 20  1  0  0  0
 12 21  1  0  0  0
 13 22  1  0  0  0
 14 23  1  0  0  0
 15 24  1  0  0  0
M  END
$$$$
