1akv_ligand
  -I-interpret- 

 54 56  0  0  0  0  0  0  0  0999 V2000
   51.7950   11.9870   21.4910 N   0  0  0  0  0
   50.7230   11.2320   21.0400 C   0  0  0  0  0
   50.9110   10.6170   19.8500 O   0  0  0  0  0
   49.5460   11.0760   21.7290 N   0  0  0  0  0
   49.3900   11.6930   22.9690 C   0  0  0  0  0
   48.2420   11.5800   23.7070 O   0  0  0  0  0
   50.4460   12.4910   23.4670 C   0  0  0  0  0
   50.2940   13.1160   24.6950 N   0  0  0  0  0
   51.4060   13.7270   25.2760 C   0  0  0  0  0
   51.3100   14.2050   26.6080 C   0  0  0  0  0
   52.4690   14.7630   27.1790 C   0  0  0  0  0
   52.4360   15.2210   28.5590 C   0  0  0  0  0
   53.6470   14.8770   26.4300 C   0  0  0  0  0
   54.8660   15.4090   26.9480 C   0  0  0  0  0
   53.7130   14.4190   25.0850 C   0  0  0  0  0
   52.5780   13.8140   24.5080 C   0  0  0  0  0
   52.6730   13.3940   23.1650 N   0  0  0  0  0
   51.6020   12.6600   22.6810 C   0  0  0  0  0
   53.8200   13.4500   22.3620 C   0  0  0  0  0
   53.9590   14.8180   21.6960 C   0  0  0  0  0
   52.8340   15.0020   20.8020 O   0  0  0  0  0
   55.3120   14.8180   20.9480 C   0  0  0  0  0
   56.3890   15.0320   21.8940 O   0  0  0  0  0
   55.4190   15.7990   19.8230 C   0  0  0  0  0
   56.6940   15.5730   19.1200 O   0  0  0  0  0
   55.4110   17.1850   20.1900 C   0  0  0  0  0
   55.1980   17.9400   18.9780 O   0  0  0  0  0
   55.2580   19.5780   18.9890 P   0  0  0  0  0
   54.1280   20.3430   19.9540 O   0  0  0  0  0
   54.9600   20.1180   17.3950 O   0  0  0  0  0
   56.7860   20.0360   19.3990 O   0  0  0  0  0
   52.6731   12.0419   20.9749 H   0  0  0  0  0
   48.7915   10.5129   21.3365 H   0  0  0  0  0
   49.3883   13.1290   25.1641 H   0  0  0  0  0
   50.3762   14.1427   27.1668 H   0  0  0  0  0
   51.6813   16.0004   28.6638 H   0  0  0  0  0
   52.1892   14.3842   29.2124 H   0  0  0  0  0
   53.4129   15.6204   28.8314 H   0  0  0  0  0
   54.7033   16.4366   27.2730 H   0  0  0  0  0
   55.1931   14.8061   27.7951 H   0  0  0  0  0
   55.6292   15.3891   26.1700 H   0  0  0  0  0
   54.6301   14.5344   24.5074 H   0  0  0  0  0
   53.7390   12.6903   21.5846 H   0  0  0  0  0
   54.6941   13.2773   22.9899 H   0  0  0  0  0
   53.9508   15.6422   22.4093 H   0  0  0  0  0
   52.9041   15.8581   20.3733 H   0  0  0  0  0
   55.3860   13.8372   20.4782 H   0  0  0  0  0
   57.2280   15.0316   21.4274 H   0  0  0  0  0
   54.5270   15.6205   19.2226 H   0  0  0  0  0
   56.7736   16.1975   18.3953 H   0  0  0  0  0
   56.3540   17.4657   20.6591 H   0  0  0  0  0
   54.6227   17.3880   20.9149 H   0  0  0  0  0
   53.2468   20.0615   19.6976 H   0  0  0  0  0
   54.0727   19.8623   17.1323 H   0  0  0  0  0
  1  2  1  0  0  0
  1 18  1  0  0  0
  2  3  2  0  0  0
  2  4  1  0  0  0
  4  5  1  0  0  0
  5  6  2  0  0  0
  5  7  1  0  0  0
  7  8  1  0  0  0
  7 18  2  0  0  0
  8  9  1  0  0  0
  9 10  4  0  0  0
  9 16  4  0  0  0
 10 11  4  0  0  0
 11 12  1  0  0  0
 11 13  4  0  0  0
 13 14  1  0  0  0
 13 15  4  0  0  0
 15 16  4  0  0  0
 16 17  1  0  0  0
 17 18  1  0  0  0
 17 19  1  0  0  0
 19 20  1  0  0  0
 20 21  1  0  0  0
 20 22  1  0  0  0
 22 23  1  0  0  0
 22 24  1  0  0  0
 24 25  1  0  0  0
 24 26  1  0  0  0
 26 27  1  0  0  0
 27 28  1  0  0  0
 28 29  1  0  0  0
 28 30  1  0  0  0
 28 31  2  0  0  0
  1 32  1  0  0  0
  4 33  1  0  0  0
  8 34  1  0  0  0
 10 35  1  0  0  0
 12 36  1  0  0  0
 12 37  1  0  0  0
 12 38  1  0  0  0
 14 39  1  0  0  0
 14 40  1  0  0  0
 14 41  1  0  0  0
 15 42  1  0  0  0
 19 43  1  0  0  0
 19 44  1  0  0  0
 20 45  1  0  0  0
 21 46  1  0  0  0
 22 47  1  0  0  0
 23 48  1  0  0  0
 24 49  1  0  0  0
 25 50  1  0  0  0
 26 51  1  0  0  0
 26 52  1  0  0  0
 29 53  1  0  0  0
 30 54  1  0  0  0
M  END
$$$$
