3ds9_ligand
  -I-interpret- 

146148  0  0  0  0  0  0  0  0999 V2000
  -14.2320   38.6990  -20.7520 O   0  0  0  0  0
  -13.6410   38.8020  -19.6920 N   0  0  0  0  0
  -13.9620   39.6870  -18.9250 O   0  0  0  0  0
  -12.6140   37.9030  -19.3360 C   0  0  0  0  0
  -12.0470   37.9710  -18.0660 C   0  0  0  0  0
  -11.0460   37.0760  -17.6970 C   0  0  0  0  0
  -12.1690   36.9300  -20.2300 C   0  0  0  0  0
  -11.1620   36.0410  -19.8620 C   0  0  0  0  0
  -10.7150   35.0630  -20.7690 N   0  0  0  0  0
   -9.5590   34.6740  -20.7340 O   0  0  0  0  0
  -11.4730   34.5970  -21.6050 O   0  0  0  0  0
  -10.6020   36.1090  -18.5950 C   0  0  0  0  0
   -9.6250   35.2320  -18.2480 N   0  0  0  0  0
   -9.2890   34.9570  -16.8620 C   0  0  0  0  0
  -10.4440   34.3170  -16.1030 C   0  0  0  0  0
  -10.1760   34.3610  -14.6080 C   0  0  0  0  0
  -11.2550   33.6630  -13.9440 N   0  3  0  0  0
  -10.2250   35.7970  -14.1390 C   0  0  0  0  0
  -11.2880   36.3370  -13.9460 O   0  0  0  0  0
   -9.0750   36.4270  -13.9680 N   0  0  0  0  0
   -9.0740   37.8130  -13.5080 C   0  0  0  0  0
   -9.0070   38.7540  -14.7000 C   0  0  0  0  0
   -8.6310   38.3460  -15.7980 O   0  0  0  0  0
   -7.9200   38.0600  -12.5300 C   0  0  0  0  0
   -6.5460   37.8690  -13.1290 C   0  0  0  0  0
   -5.4650   37.7360  -12.0380 C   0  0  0  0  0
   -5.5540   38.7840  -11.0160 N   0  0  0  0  0
   -6.0550   38.6100   -9.7920 C   0  0  0  0  0
   -6.5210   37.4230   -9.4200 N   0  0  0  0  0
   -6.0850   39.6250   -8.9340 N   0  0  0  0  0
   -9.3710   40.0180  -14.4910 N   0  0  0  0  0
   -9.4920   40.9300  -15.6160 C   0  0  0  0  0
   -8.1540   41.1620  -16.2870 C   0  0  0  0  0
   -8.0610   41.2120  -17.5100 O   0  0  0  0  0
  -10.1200   42.2620  -15.1930 C   0  0  0  0  0
  -10.6700   43.0350  -16.3700 C   0  0  0  0  0
  -11.3110   42.5150  -17.4580 C   0  0  0  0  0
  -10.6440   44.4560  -16.5650 C   0  0  0  0  0
  -11.6750   43.5170  -18.3190 N   0  0  0  0  0
  -11.2790   44.7170  -17.7940 C   0  0  0  0  0
  -10.1330   45.5250  -15.8250 C   0  0  0  0  0
  -11.4220   46.0100  -18.2980 C   0  0  0  0  0
  -10.2780   46.8090  -16.3280 C   0  0  0  0  0
  -10.9150   47.0390  -17.5520 C   0  0  0  0  0
   -7.1140   41.3090  -15.4760 N   0  0  0  0  0
   -5.7800   41.5350  -16.0010 C   0  0  0  0  0
   -5.4470   40.5090  -17.0780 C   0  0  0  0  0
   -4.7670   40.8160  -18.0450 O   0  0  0  0  0
   -4.7460   41.4870  -14.8740 C   0  0  0  0  0
   -5.1510   42.3920  -13.8370 O   0  0  0  0  0
   -3.3730   41.8810  -15.3850 C   0  0  0  0  0
   -5.9440   39.2900  -16.9200 N   0  0  0  0  0
   -5.6690   38.2230  -17.9260 C   0  0  0  0  0
   -6.0310   38.6360  -19.3300 C   0  0  0  0  0
   -5.4190   38.1190  -20.2910 O   0  0  0  0  0
   -6.3560   36.9130  -17.5550 C   0  0  0  0  0
   -5.9280   35.7650  -18.4730 C   0  0  0  0  0
   -4.4920   35.5300  -18.3950 N   0  3  0  0  0
   -6.9800   39.5560  -19.4810 N   0  0  0  0  0
   -7.4160   39.9980  -20.8080 C   0  0  0  0  0
   -6.3360   40.7500  -21.5740 C   0  0  0  0  0
   -6.4690   41.0010  -22.7740 O   0  0  0  0  0
   -8.6590   40.8760  -20.7020 C   0  0  0  0  0
   -9.8510   40.1560  -20.1370 C   0  0  0  0  0
  -11.3790   40.8700  -20.7410 S   0  0  0  0  0
  -11.1540   40.7220  -22.5130 C   0  0  0  0  0
   -5.2760   41.1240  -20.8710 N   0  0  0  0  0
   -4.1480   41.7980  -21.5020 C   0  0  0  0  0
   -3.1260   40.7860  -22.0250 C   0  0  0  0  0
   -2.3260   41.0930  -22.9080 O   0  0  0  0  0
   -3.4980   42.7650  -20.5160 C   0  0  0  0  0
   -4.4070   43.8940  -20.0380 C   0  0  0  0  0
   -3.7190   44.7110  -18.9570 C   0  0  0  0  0
   -4.8350   44.7820  -21.2170 C   0  0  0  0  0
   -3.1660   39.5750  -21.4780 N   0  0  0  0  0
  -12.3877   38.7270  -17.3586 H   0  0  0  0  0
  -10.6080   37.1327  -16.7005 H   0  0  0  0  0
  -12.6122   36.8646  -21.2237 H   0  0  0  0  0
   -9.1101   34.7504  -18.9851 H   0  0  0  0  0
   -9.0497   35.9038  -16.3779 H   0  0  0  0  0
   -8.4496   34.2618  -16.8492 H   0  0  0  0  0
  -10.5461   33.2783  -16.4173 H   0  0  0  0  0
  -11.3607   34.8661  -16.3180 H   0  0  0  0  0
   -9.2055   33.9152  -14.3899 H   0  0  0  0  0
  -11.0987   33.6781  -12.9362 H   0  0  0  0  0
  -12.1394   34.1234  -14.1591 H   0  0  0  0  0
  -11.2851   32.6970  -14.2702 H   0  0  0  0  0
   -8.1944   35.9480  -14.1562 H   0  0  0  0  0
  -10.0018   38.0098  -12.9708 H   0  0  0  0  0
   -8.0221   37.3340  -11.7234 H   0  0  0  0  0
   -7.9884   39.0994  -12.2090 H   0  0  0  0  0
   -6.3127   38.7405  -13.7406 H   0  0  0  0  0
   -6.5525   36.9537  -13.7209 H   0  0  0  0  0
   -4.4918   37.8237  -12.5210 H   0  0  0  0  0
   -5.6077   36.7753  -11.5432 H   0  0  0  0  0
   -5.2081   39.7124  -11.2585 H   0  0  0  0  0
   -6.4969   36.6386  -10.0716 H   0  0  0  0  0
   -6.4641   39.4895   -7.9968 H   0  0  0  0  0
   -5.7289   40.5392   -9.2129 H   0  0  0  0  0
   -9.5642   40.3449  -13.5443 H   0  0  0  0  0
  -10.1562   40.4588  -16.3404 H   0  0  0  0  0
   -9.3452   42.8674  -14.7226 H   0  0  0  0  0
  -10.9450   42.0469  -14.5139 H   0  0  0  0  0
  -11.5053   41.4545  -17.6186 H   0  0  0  0  0
   -9.6311   45.3535  -14.8727 H   0  0  0  0  0
  -11.9191   46.1937  -19.2505 H   0  0  0  0  0
   -9.8889   47.6538  -15.7598 H   0  0  0  0  0
  -11.0096   48.0607  -17.9197 H   0  0  0  0  0
   -7.2545   41.2624  -14.4668 H   0  0  0  0  0
   -5.7512   42.5267  -16.4525 H   0  0  0  0  0
   -4.6875   40.4696  -14.4871 H   0  0  0  0  0
   -4.5079   42.3690  -13.1246 H   0  0  0  0  0
   -3.0679   41.1913  -16.1720 H   0  0  0  0  0
   -3.4122   42.8947  -15.7836 H   0  0  0  0  0
   -2.6558   41.8390  -14.5653 H   0  0  0  0  0
   -6.5190   39.0800  -16.1041 H   0  0  0  0  0
   -4.5910   38.0627  -17.9090 H   0  0  0  0  0
   -7.4324   37.0501  -17.6579 H   0  0  0  0  0
   -6.0753   36.6569  -16.5334 H   0  0  0  0  0
   -6.1804   36.0299  -19.4997 H   0  0  0  0  0
   -6.4450   34.8585  -18.1582 H   0  0  0  0  0
   -4.2402   34.7614  -19.0165 H   0  0  0  0  0
   -3.9946   36.3744  -18.6779 H   0  0  0  0  0
   -4.2395   35.2903  -17.4363 H   0  0  0  0  0
   -7.4145   39.9634  -18.6530 H   0  0  0  0  0
   -7.6432   39.0900  -21.3665 H   0  0  0  0  0
   -8.9185   41.2015  -21.7094 H   0  0  0  0  0
   -8.4231   41.7001  -20.0287 H   0  0  0  0  0
   -9.8297   40.2437  -19.0507 H   0  0  0  0  0
   -9.8072   39.1116  -20.4460 H   0  0  0  0  0
  -10.2661   41.2786  -22.8130 H   0  0  0  0  0
  -11.0318   39.6713  -22.7759 H   0  0  0  0  0
  -12.0278   41.1265  -23.0239 H   0  0  0  0  0
   -5.2493   40.9364  -19.8688 H   0  0  0  0  0
   -4.5184   42.3656  -22.3557 H   0  0  0  0  0
   -2.6592   43.2303  -21.0337 H   0  0  0  0  0
   -3.2235   42.1840  -19.6356 H   0  0  0  0  0
   -5.3066   43.4549  -19.6067 H   0  0  0  0  0
   -3.4812   44.0655  -18.1115 H   0  0  0  0  0
   -2.8007   45.1407  -19.3572 H   0  0  0  0  0
   -4.3834   45.5107  -18.6296 H   0  0  0  0  0
   -3.9503   45.2147  -21.6842 H   0  0  0  0  0
   -5.3749   44.1790  -21.9471 H   0  0  0  0  0
   -5.4823   45.5799  -20.8530 H   0  0  0  0  0
   -2.5150   38.8536  -21.7881 H   0  0  0  0  0
   -3.8477   39.3673  -20.7482 H   0  0  0  0  0
  1  2  2  0  0  0
  2  3  2  0  0  0
  2  4  1  0  0  0
  4  5  4  0  0  0
  4  7  4  0  0  0
  5  6  4  0  0  0
  6 12  4  0  0  0
  7  8  4  0  0  0
  8  9  1  0  0  0
  8 12  4  0  0  0
  9 10  2  0  0  0
  9 11  2  0  0  0
 12 13  1  0  0  0
 13 14  1  0  0  0
 14 15  1  0  0  0
 15 16  1  0  0  0
 16 17  1  0  0  0
 16 18  1  0  0  0
 18 19  2  0  0  0
 18 20  1  0  0  0
 20 21  1  0  0  0
 21 22  1  0  0  0
 21 24  1  0  0  0
 22 23  2  0  0  0
 22 31  1  0  0  0
 24 25  1  0  0  0
 25 26  1  0  0  0
 26 27  1  0  0  0
 27 28  1  0  0  0
 28 29  2  0  0  0
 28 30  1  0  0  0
 31 32  1  0  0  0
 32 33  1  0  0  0
 32 35  1  0  0  0
 33 34  2  0  0  0
 33 45  1  0  0  0
 35 36  1  0  0  0
 36 37  4  0  0  0
 36 38  4  0  0  0
 37 39  4  0  0  0
 38 40  4  0  0  0
 38 41  4  0  0  0
 39 40  4  0  0  0
 40 42  4  0  0  0
 41 43  4  0  0  0
 42 44  4  0  0  0
 43 44  4  0  0  0
 45 46  1  0  0  0
 46 47  1  0  0  0
 46 49  1  0  0  0
 47 48  2  0  0  0
 47 52  1  0  0  0
 49 50  1  0  0  0
 49 51  1  0  0  0
 52 53  1  0  0  0
 53 54  1  0  0  0
 53 56  1  0  0  0
 54 55  2  0  0  0
 54 59  1  0  0  0
 56 57  1  0  0  0
 57 58  1  0  0  0
 59 60  1  0  0  0
 60 61  1  0  0  0
 60 63  1  0  0  0
 61 62  2  0  0  0
 61 67  1  0  0  0
 63 64  1  0  0  0
 64 65  1  0  0  0
 65 66  1  0  0  0
 67 68  1  0  0  0
 68 69  1  0  0  0
 68 71  1  0  0  0
 69 70  2  0  0  0
 69 75  1  0  0  0
 71 72  1  0  0  0
 72 73  1  0  0  0
 72 74  1  0  0  0
  5 76  1  0  0  0
  6 77  1  0  0  0
  7 78  1  0  0  0
 13 79  1  0  0  0
 14 80  1  0  0  0
 14 81  1  0  0  0
 15 82  1  0  0  0
 15 83  1  0  0  0
 16 84  1  0  0  0
 17 85  1  0  0  0
 17 86  1  0  0  0
 17 87  1  0  0  0
 20 88  1  0  0  0
 21 89  1  0  0  0
 24 90  1  0  0  0
 24 91  1  0  0  0
 25 92  1  0  0  0
 25 93  1  0  0  0
 26 94  1  0  0  0
 26 95  1  0  0  0
 27 96  1  0  0  0
 29 97  1  0  0  0
 30 98  1  0  0  0
 30 99  1  0  0  0
 31100  1  0  0  0
 32101  1  0  0  0
 35102  1  0  0  0
 35103  1  0  0  0
 37104  1  0  0  0
 41105  1  0  0  0
 42106  1  0  0  0
 43107  1  0  0  0
 44108  1  0  0  0
 45109  1  0  0  0
 46110  1  0  0  0
 49111  1  0  0  0
 50112  1  0  0  0
 51113  1  0  0  0
 51114  1  0  0  0
 51115  1  0  0  0
 52116  1  0  0  0
 53117  1  0  0  0
 56118  1  0  0  0
 56119  1  0  0  0
 57120  1  0  0  0
 57121  1  0  0  0
 58122  1  0  0  0
 58123  1  0  0  0
 58124  1  0  0  0
 59125  1  0  0  0
 60126  1  0  0  0
 63127  1  0  0  0
 63128  1  0  0  0
 64129  1  0  0  0
 64130  1  0  0  0
 66131  1  0  0  0
 66132  1  0  0  0
 66133  1  0  0  0
 67134  1  0  0  0
 68135  1  0  0  0
 71136  1  0  0  0
 71137  1  0  0  0
 72138  1  0  0  0
 73139  1  0  0  0
 73140  1  0  0  0
 73141  1  0  0  0
 74142  1  0  0  0
 74143  1  0  0  0
 74144  1  0  0  0
 75145  1  0  0  0
 75146  1  0  0  0
M  END
$$$$
