### 
### Created by X-TOOL on Mon Sep 10 21:12:58 2018
### 

@<TRIPOS>MOLECULE
3ds9_ligand
  148   150     1     0     0
SMALL
GAST_HUCK


@<TRIPOS>ATOM
      1 O52       -14.2320   38.6990  -20.7520 O.2       1 01W         0.1724
      2 N5        -13.6410   38.8020  -19.6920 N.2       1 01W         0.3062
      3 O5        -13.9620   39.6870  -18.9250 O.2       1 01W         0.1724
      4 C5        -12.6140   37.9030  -19.3360 C.ar      1 01W         0.1943
      5 C6        -12.0470   37.9710  -18.0660 C.ar      1 01W        -0.0246
      6 C7        -11.0460   37.0760  -17.6970 C.ar      1 01W        -0.0264
      7 C4        -12.1690   36.9300  -20.2300 C.ar      1 01W         0.0139
      8 C3        -11.1620   36.0410  -19.8620 C.ar      1 01W         0.2256
      9 N3        -10.7150   35.0630  -20.7690 N.2       1 01W         0.3082
     10 O32        -9.5590   34.6740  -20.7340 O.2       1 01W         0.1714
     11 O3        -11.4730   34.5970  -21.6050 O.2       1 01W         0.1714
     12 C2        -10.6020   36.1090  -18.5950 C.ar      1 01W         0.0904
     13 N13        -9.6250   35.2320  -18.2480 N.pl3     1 01W        -0.3122
     14 C1         -9.2890   34.9570  -16.8620 C.3       1 01W         0.0344
     15 CB        -10.4440   34.3170  -16.1030 C.3       1 01W         0.0279
     16 CA        -10.1760   34.3610  -14.6080 C.3       1 01W         0.0669
     17 N         -11.2550   33.6630  -13.9440 N.4       1 01W         0.2380
     18 C         -10.2250   35.7970  -14.1390 C.2       1 01W         0.2268
     19 O         -11.2880   36.3370  -13.9460 O.2       1 01W        -0.3907
     20 N          -9.0750   36.4270  -13.9680 N.am      1 ARG        -0.2610
     21 CA         -9.0740   37.8130  -13.5080 C.3       1 ARG         0.1312
     22 C          -9.0070   38.7540  -14.7000 C.2       1 ARG         0.2040
     23 O          -8.6310   38.3460  -15.7980 O.2       1 ARG        -0.3944
     24 CB         -7.9200   38.0600  -12.5300 C.3       1 ARG        -0.0092
     25 CG         -6.5460   37.8690  -13.1290 C.3       1 ARG        -0.0156
     26 CD         -5.4650   37.7360  -12.0380 C.3       1 ARG         0.0627
     27 NE         -5.5540   38.7840  -11.0160 N.pl3     1 ARG        -0.2723
     28 CZ         -6.0550   38.6100   -9.7920 C.cat     1 ARG         0.2882
     29 NH1        -6.5210   37.4230   -9.4200 N.pl3     1 ARG        -0.2849
     30 NH2        -6.0850   39.6250   -8.9340 N.pl3     1 ARG        -0.2849
     31 N          -9.3710   40.0180  -14.4910 N.am      1 TRP        -0.2627
     32 CA         -9.4920   40.9300  -15.6160 C.3       1 TRP         0.1352
     33 C          -8.1540   41.1620  -16.2870 C.2       1 TRP         0.2052
     34 O          -8.0610   41.2120  -17.5100 O.2       1 TRP        -0.3942
     35 CB        -10.1200   42.2620  -15.1930 C.3       1 TRP         0.0042
     36 CG        -10.6700   43.0350  -16.3700 C.2       1 TRP        -0.0418
     37 CD1       -11.3110   42.5150  -17.4580 C.2       1 TRP         0.0167
     38 CD2       -10.6440   44.4560  -16.5650 C.ar      1 TRP        -0.0214
     39 NE1       -11.6750   43.5170  -18.3190 N.pl3     1 TRP        -0.2890
     40 CE2       -11.2790   44.7170  -17.7940 C.ar      1 TRP         0.0603
     41 CE3       -10.1330   45.5250  -15.8250 C.ar      1 TRP        -0.0747
     42 CZ2       -11.4220   46.0100  -18.2980 C.ar      1 TRP        -0.0443
     43 CZ3       -10.2780   46.8090  -16.3280 C.ar      1 TRP        -0.0792
     44 CH2       -10.9150   47.0390  -17.5520 C.ar      1 TRP        -0.0768
     45 N          -7.1140   41.3090  -15.4760 N.am      1 THR        -0.2612
     46 CA         -5.7800   41.5350  -16.0010 C.3       1 THR         0.1565
     47 C          -5.4470   40.5090  -17.0780 C.2       1 THR         0.2065
     48 O          -4.7670   40.8160  -18.0450 O.2       1 THR        -0.3943
     49 CB         -4.7460   41.4870  -14.8740 C.3       1 THR         0.0924
     50 OG1        -5.1510   42.3920  -13.8370 O.3       1 THR        -0.3874
     51 CG2        -3.3730   41.8810  -15.3850 C.3       1 THR        -0.0346
     52 N          -5.9440   39.2900  -16.9200 N.am      1 DAB        -0.2635
     53 CA         -5.6690   38.2230  -17.9260 C.3       1 DAB         0.1358
     54 C          -6.0310   38.6360  -19.3300 C.2       1 DAB         0.2041
     55 O          -5.4190   38.1190  -20.2910 O.2       1 DAB        -0.3944
     56 CB         -6.3560   36.9130  -17.5550 C.3       1 DAB         0.0278
     57 CG         -5.9280   35.7650  -18.4730 C.3       1 DAB        -0.0311
     58 ND         -4.4920   35.5300  -18.3950 N.4       1 DAB         0.2187
     59 N          -6.9800   39.5560  -19.4810 N.am      1 MET        -0.2637
     60 CA         -7.4160   39.9980  -20.8080 C.3       1 MET         0.1317
     61 C          -6.3360   40.7500  -21.5740 C.2       1 MET         0.2039
     62 O          -6.4690   41.0010  -22.7740 O.2       1 MET        -0.3944
     63 CB         -8.6590   40.8760  -20.7020 C.3       1 MET        -0.0034
     64 CG         -9.8510   40.1560  -20.1370 C.3       1 MET        -0.0024
     65 SD        -11.3790   40.8700  -20.7410 S.3       1 MET        -0.1639
     66 CE        -11.1540   40.7220  -22.5130 C.3       1 MET        -0.0181
     67 N          -5.2760   41.1240  -20.8710 N.am      1 LEU        -0.2637
     68 CA         -4.1480   41.7980  -21.5020 C.3       1 LEU         0.1309
     69 C          -3.1260   40.7860  -22.0250 C.2       1 LEU         0.1992
     70 O          -2.3260   41.0930  -22.9080 O.2       1 LEU        -0.3947
     71 CB         -3.4980   42.7650  -20.5160 C.3       1 LEU        -0.0101
     72 CG         -4.4070   43.8940  -20.0380 C.3       1 LEU        -0.0425
     73 CD1        -3.7190   44.7110  -18.9570 C.3       1 LEU        -0.0625
     74 CD2        -4.8350   44.7820  -21.2170 C.3       1 LEU        -0.0625
     75 N          -3.1660   39.5750  -21.4780 N.am      1 GLY        -0.2990
     76 H1        -12.3858   38.7229  -17.3625 H         1 01W         0.0702
     77 H2        -10.6104   37.1324  -16.7060 H         1 01W         0.0551
     78 H3        -12.6098   36.8650  -21.2182 H         1 01W         0.0738
     79 H4         -9.1050   34.7457  -18.9924 H         1 01W         0.1813
     80 H5         -9.0224   35.9031  -16.3682 H         1 01W         0.0523
     81 H6         -8.4270   34.2741  -16.8358 H         1 01W         0.0523
     82 H7        -10.5531   33.2700  -16.4221 H         1 01W         0.0365
     83 H8        -11.3717   34.8658  -16.3224 H         1 01W         0.0365
     84 H9         -9.2033   33.9042  -14.3730 H         1 01W         0.1099
     85 H10       -11.1016   33.6772  -12.9478 H         1 01W         0.2015
     86 H11       -11.2857   32.7082  -14.2656 H         1 01W         0.2015
     87 H12       -12.1296   34.1172  -14.1558 H         1 01W         0.2015
     88 H13        -8.2116   35.9574  -14.1525 H         1 ARG         0.1884
     89 H14       -10.0176   38.0013  -12.9749 H         1 ARG         0.0800
     90 H15        -8.0280   37.3625  -11.6863 H         1 ARG         0.0313
     91 H16        -7.9950   39.0941  -12.1627 H         1 ARG         0.0313
     92 H17        -6.3090   38.7364  -13.7625 H         1 ARG         0.0301
     93 H18        -6.5479   36.9562  -13.7428 H         1 ARG         0.0301
     94 H19        -4.4756   37.7942  -12.5152 H         1 ARG         0.0689
     95 H20        -5.5790   36.7576  -11.5483 H         1 ARG         0.0689
     96 H21        -5.2047   39.7215  -11.2608 H         1 ARG         0.2642
     97 H22        -6.9067   37.2947   -8.4736 H         1 ARG         0.2615
     98 H23        -6.4967   36.6309  -10.0780 H         1 ARG         0.2615
     99 H24        -5.7254   40.5482   -9.2156 H         1 ARG         0.2615
    100 H25        -6.4679   39.4882   -7.9876 H         1 ARG         0.2615
    101 H26        -9.5604   40.3385  -13.5629 H         1 TRP         0.1884
    102 H27       -10.1611   40.4622  -16.3532 H         1 TRP         0.0815
    103 H28        -9.3524   42.8732  -14.6957 H         1 TRP         0.0397
    104 H29       -10.9401   42.0589  -14.4886 H         1 TRP         0.0397
    105 H30       -11.5051   41.4555  -17.6184 H         1 TRP         0.0795
    106 H31       -12.1664   43.3880  -19.2150 H         1 TRP         0.2216
    107 H32        -9.6339   45.3544  -14.8780 H         1 TRP         0.0540
    108 H33       -11.9163   46.1927  -19.2453 H         1 TRP         0.0541
    109 H34        -9.8910   47.6492  -15.7629 H         1 TRP         0.0510
    110 H35       -11.0091   48.0551  -17.9177 H         1 TRP         0.0530
    111 H36        -7.2518   41.2633  -14.4866 H         1 THR         0.1884
    112 H37        -5.7512   42.5362  -16.4556 H         1 THR         0.0826
    113 H38        -4.6986   40.4650  -14.4700 H         1 THR         0.0639
    114 H39        -4.5146   42.3693  -13.1320 H         1 THR         0.2101
    115 H40        -2.6483   41.8390  -14.5586 H         1 THR         0.0257
    116 H41        -3.4112   42.9040  -15.7875 H         1 THR         0.0257
    117 H42        -3.0639   41.1857  -16.1793 H         1 THR         0.0257
    118 H43        -6.5077   39.0841  -16.1201 H         1 DAB         0.1883
    119 H44        -4.5844   38.0404  -17.9117 H         1 DAB         0.0802
    120 H45        -7.4448   37.0467  -17.6365 H         1 DAB         0.0364
    121 H46        -6.0948   36.6555  -16.5180 H         1 DAB         0.0364
    122 H47        -6.1936   36.0178  -19.5101 H         1 DAB         0.0815
    123 H48        -6.4575   34.8491  -18.1717 H         1 DAB         0.0815
    124 H49        -4.2420   34.7705  -19.0088 H         1 DAB         0.1994
    125 H50        -4.2412   35.2930  -17.4479 H         1 DAB         0.1994
    126 H51        -3.9994   36.3639  -18.6744 H         1 DAB         0.1994
    127 H52        -7.4060   39.9555  -18.6692 H         1 MET         0.1883
    128 H53        -7.6759   39.0998  -21.3874 H         1 MET         0.0800
    129 H54        -8.9158   41.2399  -21.7078 H         1 MET         0.0320
    130 H55        -8.4273   41.7315  -20.0506 H         1 MET         0.0320
    131 H56        -9.8288   40.2297  -19.0397 H         1 MET         0.0378
    132 H57        -9.8063   39.0979  -20.4345 H         1 MET         0.0378
    133 H58       -12.0352   41.1299  -23.0298 H         1 MET         0.0340
    134 H59       -11.0306   39.6620  -22.7797 H         1 MET         0.0340
    135 H60       -10.2582   41.2833  -22.8170 H         1 MET         0.0340
    136 H61        -5.2498   40.9401  -19.8884 H         1 LEU         0.1883
    137 H62        -4.5258   42.3772  -22.3574 H         1 LEU         0.0800
    138 H63        -2.6209   43.2146  -21.0044 H         1 LEU         0.0315
    139 H64        -3.1733   42.1905  -19.6359 H         1 LEU         0.0315
    140 H65        -5.3121   43.4452  -19.6029 H         1 LEU         0.0298
    141 H66        -4.3885   45.5185  -18.6257 H         1 LEU         0.0232
    142 H67        -2.7921   45.1453  -19.3597 H         1 LEU         0.0232
    143 H68        -3.4785   44.0607  -18.1031 H         1 LEU         0.0232
    144 H69        -5.3288   44.1638  -21.9812 H         1 LEU         0.0232
    145 H70        -3.9482   45.2651  -21.6530 H         1 LEU         0.0232
    146 H71        -5.5345   45.5526  -20.8607 H         1 LEU         0.0232
    147 H72        -2.5236   38.8696  -21.7776 H         1 GLY         0.1815
    148 H73        -3.8385   39.3695  -20.7670 H         1 GLY         0.1815
@<TRIPOS>BOND
     1    1    2 2  
     2    2    3 2  
     3    2    4 1  
     4    4    5 ar 
     5    4    7 ar 
     6    5    6 ar 
     7    6   12 ar 
     8    7    8 ar 
     9    8    9 1  
    10    8   12 ar 
    11    9   10 2  
    12    9   11 2  
    13   12   13 1  
    14   13   14 1  
    15   14   15 1  
    16   15   16 1  
    17   16   17 1  
    18   16   18 1  
    19   18   19 2  
    20   18   20 am 
    21   20   21 1  
    22   21   22 1  
    23   21   24 1  
    24   22   23 2  
    25   22   31 am 
    26   24   25 1  
    27   25   26 1  
    28   26   27 1  
    29   27   28 ar 
    30   28   29 ar 
    31   28   30 ar 
    32   31   32 1  
    33   32   33 1  
    34   32   35 1  
    35   33   34 2  
    36   33   45 am 
    37   35   36 1  
    38   36   37 2  
    39   36   38 1  
    40   37   39 1  
    41   38   40 ar 
    42   38   41 ar 
    43   39   40 1  
    44   40   42 ar 
    45   41   43 ar 
    46   42   44 ar 
    47   43   44 ar 
    48   45   46 1  
    49   46   47 1  
    50   46   49 1  
    51   47   48 2  
    52   47   52 am 
    53   49   50 1  
    54   49   51 1  
    55   52   53 1  
    56   53   54 1  
    57   53   56 1  
    58   54   55 2  
    59   54   59 am 
    60   56   57 1  
    61   57   58 1  
    62   59   60 1  
    63   60   61 1  
    64   60   63 1  
    65   61   62 2  
    66   61   67 am 
    67   63   64 1  
    68   64   65 1  
    69   65   66 1  
    70   67   68 1  
    71   68   69 1  
    72   68   71 1  
    73   69   70 2  
    74   69   75 am 
    75   71   72 1  
    76   72   73 1  
    77   72   74 1  
    78    5   76 1  
    79    6   77 1  
    80    7   78 1  
    81   13   79 1  
    82   14   80 1  
    83   14   81 1  
    84   15   82 1  
    85   15   83 1  
    86   16   84 1  
    87   17   85 1  
    88   17   86 1  
    89   17   87 1  
    90   20   88 1  
    91   21   89 1  
    92   24   90 1  
    93   24   91 1  
    94   25   92 1  
    95   25   93 1  
    96   26   94 1  
    97   26   95 1  
    98   27   96 1  
    99   29   97 1  
   100   29   98 1  
   101   30   99 1  
   102   30  100 1  
   103   31  101 1  
   104   32  102 1  
   105   35  103 1  
   106   35  104 1  
   107   37  105 1  
   108   39  106 1  
   109   41  107 1  
   110   42  108 1  
   111   43  109 1  
   112   44  110 1  
   113   45  111 1  
   114   46  112 1  
   115   49  113 1  
   116   50  114 1  
   117   51  115 1  
   118   51  116 1  
   119   51  117 1  
   120   52  118 1  
   121   53  119 1  
   122   56  120 1  
   123   56  121 1  
   124   57  122 1  
   125   57  123 1  
   126   58  124 1  
   127   58  125 1  
   128   58  126 1  
   129   59  127 1  
   130   60  128 1  
   131   63  129 1  
   132   63  130 1  
   133   64  131 1  
   134   64  132 1  
   135   66  133 1  
   136   66  134 1  
   137   66  135 1  
   138   67  136 1  
   139   68  137 1  
   140   71  138 1  
   141   71  139 1  
   142   72  140 1  
   143   73  141 1  
   144   73  142 1  
   145   73  143 1  
   146   74  144 1  
   147   74  145 1  
   148   74  146 1  
   149   75  147 1  
   150   75  148 1  
@<TRIPOS>SUBSTRUCTURE
     1 01W         1

