4jrv_ligand
  -I-interpret- 

 74 78  0  0  0  0  0  0  0  0999 V2000
  -26.7360  -48.0110   -7.9210 C   0  0  0  0  0
  -26.4660  -49.4550   -8.0070 N   0  3  0  0  0
  -27.2270  -50.0130   -9.1360 C   0  0  0  0  0
  -25.0120  -49.6800   -8.1880 C   0  0  0  0  0
  -24.3630  -50.1710   -6.8890 C   0  0  0  0  0
  -22.8430  -50.0140   -6.9330 C   0  0  0  0  0
  -22.3710  -49.5790   -5.5370 C   0  0  0  0  0
  -21.9280  -48.4440   -5.3580 O   0  0  0  0  0
  -22.5020  -50.5280   -4.5800 N   0  0  0  0  0
  -22.1700  -50.2890   -3.2950 C   0  0  0  0  0
  -21.9650  -51.3770   -2.4500 C   0  0  0  0  0
  -22.0720  -48.9950   -2.7650 C   0  0  0  0  0
  -21.7520  -48.8160   -1.4230 C   0  0  0  0  0
  -21.5450  -49.9120   -0.5880 C   0  0  0  0  0
  -21.6490  -51.2070   -1.0970 C   0  0  0  0  0
  -21.4590  -52.2770   -0.3020 C   0  0  0  0  0
  -22.4300  -53.1510    0.0770 C   0  0  0  0  0
  -20.2980  -52.6620    0.2630 C   0  0  0  0  0
  -19.0500  -52.1600    0.2010 C   0  0  0  0  0
  -18.6110  -51.2790   -0.7990 C   0  0  0  0  0
  -17.2920  -50.8190   -0.8130 C   0  0  0  0  0
  -16.3880  -51.2480    0.1550 C   0  0  0  0  0
  -16.8060  -52.1360    1.1410 C   0  0  0  0  0
  -18.1230  -52.5910    1.1580 C   0  0  0  0  0
  -20.5380  -53.7420    0.9600 O   0  0  0  0  0
  -21.8100  -54.0550    0.8650 C   0  0  0  0  0
  -22.4590  -55.0910    1.4260 N   0  0  0  0  0
  -23.8190  -55.2580    1.2080 C   0  0  0  0  0
  -24.4560  -54.3310    0.3990 N   0  0  0  0  0
  -23.7660  -53.3120   -0.1530 C   0  0  0  0  0
  -24.4510  -52.4300   -0.9080 N   0  0  0  0  0
  -25.8790  -52.6430   -1.2730 C   0  0  0  0  0
  -26.3680  -51.5350   -2.1850 C   0  0  0  0  0
  -25.3670  -51.4590   -3.2060 O   0  0  0  0  0
  -26.7360  -52.6930   -0.1480 C   0  0  0  0  0
  -26.2830  -52.4990    1.1640 C   0  0  0  0  0
  -27.1710  -52.5690    2.2340 C   0  0  0  0  0
  -28.5210  -52.8220    2.0120 C   0  0  0  0  0
  -28.9790  -53.0110    0.7120 C   0  0  0  0  0
  -28.0900  -52.9470   -0.3600 C   0  0  0  0  0
  -26.1959  -47.5916   -7.0722 H   0  0  0  0  0
  -26.4056  -47.5256   -8.8393 H   0  0  0  0  0
  -27.8058  -47.8500   -7.7880 H   0  0  0  0  0
  -26.7559  -49.9209   -7.1472 H   0  0  0  0  0
  -26.9091  -49.5308  -10.0604 H   0  0  0  0  0
  -27.0428  -51.0853   -9.2020 H   0  0  0  0  0
  -28.2908  -49.8348   -8.9789 H   0  0  0  0  0
  -24.5465  -48.7373   -8.4755 H   0  0  0  0  0
  -24.8698  -50.4390   -8.9573 H   0  0  0  0  0
  -24.5990  -51.2275   -6.7612 H   0  0  0  0  0
  -24.7493  -49.5756   -6.0617 H   0  0  0  0  0
  -22.5626  -49.2669   -7.6755 H   0  0  0  0  0
  -22.3745  -50.9577   -7.2122 H   0  0  0  0  0
  -22.8610  -51.4473   -4.8377 H   0  0  0  0  0
  -22.0528  -52.3862   -2.8524 H   0  0  0  0  0
  -22.2464  -48.1294   -3.4041 H   0  0  0  0  0
  -21.6622  -47.8071   -1.0203 H   0  0  0  0  0
  -21.3017  -49.7577    0.4632 H   0  0  0  0  0
  -19.3056  -50.9505   -1.5721 H   0  0  0  0  0
  -16.9691  -50.1210   -1.5854 H   0  0  0  0  0
  -15.3585  -50.8901    0.1404 H   0  0  0  0  0
  -16.1026  -52.4762    1.9010 H   0  0  0  0  0
  -18.4369  -53.2943    1.9293 H   0  0  0  0  0
  -24.3658  -56.0875    1.6564 H   0  0  0  0  0
  -23.9763  -51.5903   -1.2397 H   0  0  0  0  0
  -25.9144  -53.6084   -1.7779 H   0  0  0  0  0
  -26.4916  -50.5896   -1.6567 H   0  0  0  0  0
  -27.3579  -51.7416   -2.5918 H   0  0  0  0  0
  -25.6032  -50.7720   -3.8336 H   0  0  0  0  0
  -25.2287  -52.2920    1.3479 H   0  0  0  0  0
  -26.8066  -52.4248    3.2511 H   0  0  0  0  0
  -29.2151  -52.8718    2.8510 H   0  0  0  0  0
  -30.0354  -53.2096    0.5312 H   0  0  0  0  0
  -28.4578  -53.0972   -1.3750 H   0  0  0  0  0
  1  2  1  0  0  0
  2  3  1  0  0  0
  2  4  1  0  0  0
  4  5  1  0  0  0
  5  6  1  0  0  0
  6  7  1  0  0  0
  7  8  2  0  0  0
  7  9  1  0  0  0
  9 10  1  0  0  0
 10 11  4  0  0  0
 10 12  4  0  0  0
 11 15  4  0  0  0
 12 13  4  0  0  0
 13 14  4  0  0  0
 14 15  4  0  0  0
 15 16  1  0  0  0
 16 17  4  0  0  0
 16 18  4  0  0  0
 17 26  4  0  0  0
 17 30  4  0  0  0
 18 19  1  0  0  0
 18 25  4  0  0  0
 19 20  4  0  0  0
 19 24  4  0  0  0
 20 21  4  0  0  0
 21 22  4  0  0  0
 22 23  4  0  0  0
 23 24  4  0  0  0
 25 26  4  0  0  0
 26 27  4  0  0  0
 27 28  4  0  0  0
 28 29  4  0  0  0
 29 30  4  0  0  0
 30 31  1  0  0  0
 31 32  1  0  0  0
 32 33  1  0  0  0
 32 35  1  0  0  0
 33 34  1  0  0  0
 35 36  4  0  0  0
 35 40  4  0  0  0
 36 37  4  0  0  0
 37 38  4  0  0  0
 38 39  4  0  0  0
 39 40  4  0  0  0
  1 41  1  0  0  0
  1 42  1  0  0  0
  1 43  1  0  0  0
  2 44  1  0  0  0
  3 45  1  0  0  0
  3 46  1  0  0  0
  3 47  1  0  0  0
  4 48  1  0  0  0
  4 49  1  0  0  0
  5 50  1  0  0  0
  5 51  1  0  0  0
  6 52  1  0  0  0
  6 53  1  0  0  0
  9 54  1  0  0  0
 11 55  1  0  0  0
 12 56  1  0  0  0
 13 57  1  0  0  0
 14 58  1  0  0  0
 20 59  1  0  0  0
 21 60  1  0  0  0
 22 61  1  0  0  0
 23 62  1  0  0  0
 24 63  1  0  0  0
 28 64  1  0  0  0
 31 65  1  0  0  0
 32 66  1  0  0  0
 33 67  1  0  0  0
 33 68  1  0  0  0
 34 69  1  0  0  0
 36 70  1  0  0  0
 37 71  1  0  0  0
 38 72  1  0  0  0
 39 73  1  0  0  0
 40 74  1  0  0  0
M  END
$$$$
