6dcg_ligand
  -I-interpret- 

 91 97  0  0  0  0  0  0  0  0999 V2000
   48.1660   20.0890    7.2260 O   0  0  0  0  0
   48.1740   20.6250    8.3260 C   0  0  0  0  0
   48.2860   21.9570    8.4640 N   0  0  0  0  0
   48.1670   22.8800    7.3370 C   0  0  0  0  0
   46.8770   23.6150    7.4820 C   0  0  0  0  0
   46.2050   23.7270    8.7050 C   0  0  0  0  0
   44.8310   24.3100    8.8370 C   0  0  0  0  0
   44.1140   24.1820   10.0280 C   0  0  0  0  0
   42.8190   24.6560   10.1300 C   0  0  0  0  0
   42.1920   25.2620    9.0450 C   0  0  0  0  0
   40.7490   25.6000    9.1040 C   0  0  0  0  0
   40.0660   25.6200   10.2410 N   0  0  0  0  0
   38.8340   26.0100    9.8300 N   0  0  0  0  0
   37.7810   26.2120   10.8150 C   0  0  0  0  0
   38.8360   26.1920    8.5000 C   0  0  0  0  0
   40.0350   25.9500    8.0020 N   0  0  0  0  0
   42.9130   25.4140    7.8610 C   0  0  0  0  0
   44.2170   24.9560    7.7620 C   0  0  0  0  0
   46.8430   23.1470    9.9750 C   0  0  0  0  0
   48.2710   22.6870    9.7320 C   0  0  0  0  0
   48.0290   19.7780    9.5850 C   0  0  0  0  0
   47.7000   18.3570    9.2500 N   0  3  0  0  0
   46.2880   18.1520    8.8370 C   0  0  0  0  0
   46.1430   16.6450    8.8340 C   0  0  0  0  0
   47.7930   17.4770   10.4770 C   0  0  0  0  0
   47.1200   16.2100    9.9390 C   0  0  0  0  0
   46.1010   15.4650   11.2870 S   0  0  0  0  0
   47.1980   14.8510   12.5660 C   0  0  0  0  0
   48.1450   15.2350    9.3770 C   0  0  0  0  0
   49.3050   15.5730    9.1840 O   0  0  0  0  0
   47.6750   13.9810    9.2090 N   0  0  0  0  0
   48.3580   12.8950    8.6060 C   0  0  0  0  0
   47.7640   11.6350    8.6980 C   0  0  0  0  0
   49.5870   13.0520    7.9560 C   0  0  0  0  0
   50.2460   11.9620    7.4230 C   0  0  0  0  0
   49.6810   10.7090    7.5740 C   0  0  0  0  0
   48.4480   10.5190    8.2300 C   0  0  0  0  0
   50.1000    9.4830    7.1840 N   0  0  0  0  0
   49.2350    8.5150    7.5630 N   0  0  0  0  0
   48.2110    9.0590    8.2130 C   0  0  0  0  0
   47.0890    8.2480    8.7670 C   0  0  0  0  0
   46.7870    7.0070    8.2230 C   0  0  0  0  0
   45.8140    6.2110    8.7940 C   0  0  0  0  0
   46.3730    8.6470    9.8900 C   0  0  0  0  0
   45.3940    7.9100   10.4550 N   0  0  0  0  0
   45.1330    6.7270    9.9040 C   0  0  0  0  0
   44.1540    6.0010   10.5180 O   0  0  0  0  0
   43.4020    4.9530    9.8110 C   0  0  0  0  0
   42.8640    4.0800   10.9060 C   0  0  0  0  0
   42.3120    5.5380    8.9480 C   0  0  0  0  0
   48.1854   22.3311    6.3955 H   0  0  0  0  0
   49.0024   23.5802    7.3321 H   0  0  0  0  0
   46.4401   24.0837    6.6002 H   0  0  0  0  0
   44.5809   23.7024   10.8883 H   0  0  0  0  0
   42.2818   24.5537   11.0729 H   0  0  0  0  0
   37.6035   25.2800   11.3516 H   0  0  0  0  0
   38.0875   26.9855   11.5192 H   0  0  0  0  0
   36.8664   26.5213   10.3090 H   0  0  0  0  0
   37.9694   26.4968    7.9133 H   0  0  0  0  0
   42.4455   25.8985    7.0038 H   0  0  0  0  0
   44.7700   25.1017    6.8341 H   0  0  0  0  0
   46.2550   22.2850   10.2900 H   0  0  0  0  0
   46.8599   23.9271   10.7361 H   0  0  0  0  0
   48.9455   23.5421    9.6884 H   0  0  0  0  0
   48.6094   22.0458   10.5459 H   0  0  0  0  0
   47.2191   20.1887   10.1879 H   0  0  0  0  0
   48.9749   19.7966   10.1264 H   0  0  0  0  0
   48.3589   18.1308    8.5049 H   0  0  0  0  0
   46.0648   18.5976    7.8676 H   0  0  0  0  0
   45.5794   18.6410    9.5055 H   0  0  0  0  0
   46.3690   16.1977    7.8660 H   0  0  0  0  0
   45.1201   16.3156    9.0166 H   0  0  0  0  0
   47.3260   17.8936   11.3694 H   0  0  0  0  0
   48.8057   17.3276   10.8514 H   0  0  0  0  0
   47.8612   14.0966   12.1427 H   0  0  0  0  0
   47.7901   15.6761   12.9619 H   0  0  0  0  0
   46.6072   14.4085   13.3680 H   0  0  0  0  0
   46.7320   13.7958    9.5509 H   0  0  0  0  0
   46.7708   11.5270    9.1338 H   0  0  0  0  0
   50.0287   14.0448    7.8695 H   0  0  0  0  0
   51.1912   12.0865    6.8946 H   0  0  0  0  0
   47.3216    6.6587    7.3392 H   0  0  0  0  0
   45.5852    5.2218    8.3974 H   0  0  0  0  0
   46.6163    9.6097   10.3395 H   0  0  0  0  0
   44.0230    4.3883    9.1156 H   0  0  0  0  0
   43.6932    3.6697   11.4824 H   0  0  0  0  0
   42.2235    4.6723   11.5595 H   0  0  0  0  0
   42.2858    3.2659   10.4689 H   0  0  0  0  0
   41.6171    6.0988    9.5731 H   0  0  0  0  0
   42.7548    6.2038    8.2072 H   0  0  0  0  0
   41.7792    4.7327    8.4423 H   0  0  0  0  0
  1  2  2  0  0  0
  2  3  1  0  0  0
  2 21  1  0  0  0
  3  4  1  0  0  0
  3 20  1  0  0  0
  4  5  1  0  0  0
  5  6  2  0  0  0
  6  7  1  0  0  0
  6 19  1  0  0  0
  7  8  4  0  0  0
  7 18  4  0  0  0
  8  9  4  0  0  0
  9 10  4  0  0  0
 10 11  1  0  0  0
 10 17  4  0  0  0
 11 12  4  0  0  0
 11 16  4  0  0  0
 12 13  4  0  0  0
 13 14  1  0  0  0
 13 15  4  0  0  0
 15 16  4  0  0  0
 17 18  4  0  0  0
 19 20  1  0  0  0
 21 22  1  0  0  0
 22 23  1  0  0  0
 22 25  1  0  0  0
 23 24  1  0  0  0
 24 26  1  0  0  0
 25 26  1  0  0  0
 26 27  1  0  0  0
 26 29  1  0  0  0
 27 28  1  0  0  0
 29 30  2  0  0  0
 29 31  1  0  0  0
 31 32  1  0  0  0
 32 33  4  0  0  0
 32 34  4  0  0  0
 33 37  4  0  0  0
 34 35  4  0  0  0
 35 36  4  0  0  0
 36 37  4  0  0  0
 36 38  4  0  0  0
 37 40  4  0  0  0
 38 39  4  0  0  0
 39 40  4  0  0  0
 40 41  1  0  0  0
 41 42  4  0  0  0
 41 44  4  0  0  0
 42 43  4  0  0  0
 43 46  4  0  0  0
 44 45  4  0  0  0
 45 46  4  0  0  0
 46 47  1  0  0  0
 47 48  1  0  0  0
 48 49  1  0  0  0
 48 50  1  0  0  0
  4 51  1  0  0  0
  4 52  1  0  0  0
  5 53  1  0  0  0
  8 54  1  0  0  0
  9 55  1  0  0  0
 14 56  1  0  0  0
 14 57  1  0  0  0
 14 58  1  0  0  0
 15 59  1  0  0  0
 17 60  1  0  0  0
 18 61  1  0  0  0
 19 62  1  0  0  0
 19 63  1  0  0  0
 20 64  1  0  0  0
 20 65  1  0  0  0
 21 66  1  0  0  0
 21 67  1  0  0  0
 22 68  1  0  0  0
 23 69  1  0  0  0
 23 70  1  0  0  0
 24 71  1  0  0  0
 24 72  1  0  0  0
 25 73  1  0  0  0
 25 74  1  0  0  0
 28 75  1  0  0  0
 28 76  1  0  0  0
 28 77  1  0  0  0
 31 78  1  0  0  0
 33 79  1  0  0  0
 34 80  1  0  0  0
 35 81  1  0  0  0
 42 82  1  0  0  0
 43 83  1  0  0  0
 44 84  1  0  0  0
 48 85  1  0  0  0
 49 86  1  0  0  0
 49 87  1  0  0  0
 49 88  1  0  0  0
 50 89  1  0  0  0
 50 90  1  0  0  0
 50 91  1  0  0  0
M  END
$$$$
