5a6n_ligand
  -I-interpret- 

 21 22  0  0  0  0  0  0  0  0999 V2000
    6.3650  112.6950  100.7620 O   0  0  0  0  0
    7.7250  113.1570  100.7240 S   0  0  0  0  0
    8.6140  112.0360  100.9430 O   0  0  0  0  0
    8.0650  113.8230   99.3200 N   0  0  0  0  0
    7.9160  114.2500  101.8830 C   0  0  0  0  0
    6.8380  114.7450  102.6040 C   0  0  0  0  0
    7.0560  115.6930  103.6130 C   0  0  0  0  0
    8.3460  116.1530  103.8860 C   0  0  0  0  0
    9.4320  115.6620  103.1590 C   0  0  0  0  0
    9.1990  114.7110  102.1670 C   0  0  0  0  0
   10.8400  116.1100  103.4020 C   0  0  0  0  0
   12.0050  115.8060  102.8070 N   0  0  0  0  0
   13.0200  116.5190  103.5020 N   0  0  0  0  0
   12.4250  117.2990  104.4900 N   0  0  0  0  0
   11.0570  117.0070  104.3790 N   0  0  0  0  0
    7.3506  113.8749   98.5938 H   0  0  0  0  0
    8.9974  114.1982   99.1459 H   0  0  0  0  0
    5.8277  114.3984  102.3867 H   0  0  0  0  0
    6.2126  116.0740  104.1888 H   0  0  0  0  0
    8.5051  116.8961  104.6674 H   0  0  0  0  0
   10.0424  114.3182  101.5991 H   0  0  0  0  0
  1  2  2  0  0  0
  2  3  2  0  0  0
  2  4  1  0  0  0
  2  5  1  0  0  0
  5  6  4  0  0  0
  5 10  4  0  0  0
  6  7  4  0  0  0
  7  8  4  0  0  0
  8  9  4  0  0  0
  9 10  4  0  0  0
  9 11  1  0  0  0
 11 12  4  0  0  0
 11 15  4  0  0  0
 12 13  4  0  0  0
 13 14  4  0  0  0
 14 15  4  0  0  0
  4 16  1  0  0  0
  4 17  1  0  0  0
  6 18  1  0  0  0
  7 19  1  0  0  0
  8 20  1  0  0  0
 10 21  1  0  0  0
M  END
$$$$
