### 
### Created by X-TOOL on Mon Sep 10 21:13:08 2018
### 

@<TRIPOS>MOLECULE
3rqg_ligand
  188   187     1     0     0
SMALL
GAST_HUCK


@<TRIPOS>ATOM
      1 N          27.5500   -8.5100   68.5920 N.4       1 ALA         0.2377
      2 CA         27.8040   -7.9540   67.2310 C.3       1 ALA         0.0621
      3 C          26.5250   -7.4140   66.5910 C.2       1 ALA         0.2265
      4 O          26.4990   -6.2800   66.1070 O.2       1 ALA        -0.3907
      5 CB         28.4580   -8.9990   66.3430 C.3       1 ALA        -0.0040
      6 N          25.4710   -8.2300   66.5930 N.am      1 THR        -0.2586
      7 CA         24.1510   -7.8000   66.1280 C.3       1 THR         0.1566
      8 C          23.4780   -6.9050   67.1640 C.2       1 THR         0.2065
      9 O          22.6480   -6.0640   66.8190 O.2       1 THR        -0.3943
     10 CB         23.2210   -8.9980   65.8230 C.3       1 THR         0.0924
     11 OG1        23.3090   -9.9620   66.8800 O.3       1 THR        -0.3874
     12 CG2        23.6020   -9.6570   64.5070 C.3       1 THR        -0.0346
     13 N          23.8600   -7.0940   68.4280 N.am      1 ARG        -0.2636
     14 CA         23.2720   -6.3930   69.5720 C.3       1 ARG         0.1311
     15 C          23.2860   -4.8700   69.4440 C.2       1 ARG         0.2039
     16 O          22.2420   -4.2310   69.5740 O.2       1 ARG        -0.3944
     17 CB         23.9660   -6.8130   70.8740 C.3       1 ARG        -0.0092
     18 CG         23.7050   -8.2500   71.3010 C.3       1 ARG        -0.0156
     19 CD         24.3150   -8.5360   72.6660 C.3       1 ARG         0.0627
     20 NE         23.9600   -9.8640   73.1660 N.pl3     1 ARG        -0.2723
     21 CZ         24.7640  -10.9250   73.1410 C.cat     1 ARG         0.2882
     22 NH1        25.9900  -10.8330   72.6420 N.pl3     1 ARG        -0.2849
     23 NH2        24.3380  -12.0840   73.6230 N.pl3     1 ARG        -0.2849
     24 N          24.4620   -4.2990   69.1840 N.am      1 GLU        -0.2636
     25 CA         24.6410   -2.8380   69.1380 C.3       1 GLU         0.1325
     26 C          23.8930   -2.1460   67.9950 C.2       1 GLU         0.2040
     27 O          23.5810   -0.9530   68.0810 O.2       1 GLU        -0.3944
     28 CB         26.1280   -2.4460   69.1260 C.3       1 GLU        -0.0008
     29 CG         27.0610   -3.4090   68.4000 C.3       1 GLU         0.0044
     30 CD         27.6490   -4.4660   69.3220 C.2       1 GLU         0.0350
     31 OE1        28.8840   -4.4730   69.5030 O.co2     1 GLU        -0.5690
     32 OE2        26.8810   -5.2840   69.8720 O.co2     1 GLU        -0.5690
     33 N          23.6120   -2.8950   66.9320 N.am      1 LEU        -0.2637
     34 CA         22.7810   -2.4000   65.8410 C.3       1 LEU         0.1312
     35 C          21.3250   -2.3480   66.2900 C.2       1 LEU         0.2040
     36 O          20.5960   -1.4230   65.9400 O.2       1 LEU        -0.3944
     37 CB         22.9400   -3.2770   64.5900 C.3       1 LEU        -0.0101
     38 CG         22.3650   -2.8410   63.2290 C.3       1 LEU        -0.0425
     39 CD1        20.9100   -3.2700   63.0550 C.3       1 LEU        -0.0625
     40 CD2        22.5330   -1.3470   62.9570 C.3       1 LEU        -0.0625
     41 N          20.9180   -3.3470   67.0710 N.am      1 ASP        -0.2622
     42 CA         19.5700   -3.4120   67.6320 C.3       1 ASP         0.1423
     43 C          19.3940   -2.3880   68.7530 C.2       1 ASP         0.2056
     44 O          18.2960   -1.8690   68.9620 O.2       1 ASP        -0.3943
     45 CB         19.2720   -4.8200   68.1590 C.3       1 ASP         0.0406
     46 CG         19.6730   -5.9170   67.1810 C.2       1 ASP         0.0393
     47 OD1        19.7670   -5.6500   65.9620 O.co2     1 ASP        -0.5688
     48 OD2        19.9010   -7.0550   67.6410 O.co2     1 ASP        -0.5688
     49 N          20.4840   -2.1110   69.4670 N.am      1 GLU        -0.2635
     50 CA         20.4950   -1.1340   70.5560 C.3       1 GLU         0.1325
     51 C          20.4420    0.2990   70.0320 C.2       1 GLU         0.2040
     52 O          19.9260    1.1940   70.7050 O.2       1 GLU        -0.3944
     53 CB         21.7330   -1.3260   71.4380 C.3       1 GLU        -0.0008
     54 CG         21.6820   -2.5610   72.3370 C.3       1 GLU         0.0044
     55 CD         23.0370   -2.9260   72.9210 C.2       1 GLU         0.0350
     56 OE1        23.6890   -2.0490   73.5290 O.co2     1 GLU        -0.5690
     57 OE2        23.4470   -4.0970   72.7810 O.co2     1 GLU        -0.5690
     58 N          20.9780    0.5070   68.8320 N.am      1 LEU        -0.2637
     59 CA         20.9760    1.8200   68.1960 C.3       1 LEU         0.1312
     60 C          19.5790    2.1680   67.6900 C.2       1 LEU         0.2039
     61 O          19.0920    3.2740   67.9220 O.2       1 LEU        -0.3944
     62 CB         21.9740    1.8560   67.0350 C.3       1 LEU        -0.0101
     63 CG         22.7290    3.1390   66.6590 C.3       1 LEU        -0.0425
     64 CD1        23.3410    2.9460   65.2880 C.3       1 LEU        -0.0625
     65 CD2        21.8790    4.4050   66.6660 C.3       1 LEU        -0.0625
     66 N          18.9410    1.2190   67.0060 N.am      1 MET        -0.2637
     67 CA         17.6050    1.4370   66.4480 C.3       1 MET         0.1317
     68 C          16.5320    1.5200   67.5390 C.2       1 MET         0.2039
     69 O          15.4310    2.0190   67.2950 O.2       1 MET        -0.3944
     70 CB         17.2420    0.3570   65.4190 C.3       1 MET        -0.0034
     71 CG         18.2940    0.0750   64.3340 C.3       1 MET        -0.0024
     72 SD         19.3150    1.4630   63.7710 S.3       1 MET        -0.1639
     73 CE         18.1370    2.4660   62.8730 C.3       1 MET        -0.0181
     74 N          16.8660    1.0290   68.7330 N.am      1 ALA        -0.2640
     75 CA         15.9920    1.1290   69.9020 C.3       1 ALA         0.1282
     76 C          15.9860    2.5480   70.4730 C.2       1 ALA         0.2037
     77 O          14.9530    3.0270   70.9440 O.2       1 ALA        -0.3944
     78 CB         16.4080    0.1230   70.9690 C.3       1 ALA        -0.0244
     79 N          17.1430    3.2090   70.4220 N.am      1 SER        -0.2616
     80 CA         17.2840    4.5960   70.8720 C.3       1 SER         0.1539
     81 C          16.5200    5.5660   69.9740 C.2       1 SER         0.2056
     82 O          16.0720    6.6200   70.4270 O.2       1 SER        -0.3943
     83 CB         18.7600    4.9970   70.9160 C.3       1 SER         0.0843
     84 OG         19.4920    4.1640   71.7960 O.3       1 SER        -0.3903
     85 N          16.3740    5.1930   68.7050 N.am      1 LEU        -0.2694
     86 CA         15.7340    6.0320   67.6930 C.3       1 LEU         0.0946
     87 C          14.2330    5.7650   67.5970 C.2       1 LEU         0.0601
     88 O          13.7884    4.5927   67.4723 O.co2     1 LEU        -0.5666
     89 CB         16.4010    5.8070   66.3290 C.3       1 LEU        -0.0156
     90 CG         17.7210    6.5050   65.9580 C.3       1 LEU        -0.0431
     91 CD1        18.7570    6.5310   67.0860 C.3       1 LEU        -0.0625
     92 CD2        18.3110    5.8560   64.7140 C.3       1 LEU        -0.0625
     93 H          27.1114   -7.7958   69.1733 H         1 ALA         0.2015
     94 H          26.9309   -9.3173   68.5181 H         1 ALA         0.2015
     95 H          28.4346   -8.7957   69.0118 H         1 ALA         0.2015
     96 H          28.4892   -7.1132   67.3391 H         1 ALA         0.1095
     97 H          27.7666   -9.8275   66.1893 H         1 ALA         0.0310
     98 H          28.7097   -8.5510   65.3817 H         1 ALA         0.0310
     99 H          29.3653   -9.3655   66.8231 H         1 ALA         0.0310
    100 H          25.5880   -9.1857   66.9297 H         1 THR         0.1885
    101 H          24.3135   -7.2440   65.2047 H         1 THR         0.0826
    102 H          22.1990   -8.6269   65.7458 H         1 THR         0.0639
    103 H          22.7301  -10.7026   66.6852 H         1 THR         0.2101
    104 H          24.6226  -10.0341   64.5730 H         1 THR         0.0257
    105 H          22.9203  -10.4832   64.3051 H         1 THR         0.0257
    106 H          23.5353   -8.9245   63.7026 H         1 THR         0.0257
    107 H          24.6055   -7.7663   68.6086 H         1 ARG         0.1883
    108 H          22.2233   -6.6897   69.5914 H         1 ARG         0.0800
    109 H          23.5732   -6.1719   71.6632 H         1 ARG         0.0313
    110 H          25.0389   -6.7231   70.7041 H         1 ARG         0.0313
    111 H          24.1584   -8.9189   70.5695 H         1 ARG         0.0301
    112 H          22.6278   -8.4057   71.3610 H         1 ARG         0.0301
    113 H          23.9317   -7.7965   73.3691 H         1 ARG         0.0689
    114 H          25.3996   -8.4907   72.5677 H         1 ARG         0.0689
    115 H          23.0283   -9.9862   73.5629 H         1 ARG         0.2642
    116 H          26.3248   -9.9431   72.2726 H         1 ARG         0.2615
    117 H          26.5976  -11.6521   72.6278 H         1 ARG         0.2615
    118 H          23.3978  -12.1604   74.0110 H         1 ARG         0.2615
    119 H          24.9504  -12.8995   73.6059 H         1 ARG         0.2615
    120 H          25.2695   -4.8974   69.0101 H         1 GLU         0.1883
    121 H          24.1861   -2.4744   70.0594 H         1 GLU         0.0801
    122 H          26.4509   -2.4298   70.1669 H         1 GLU         0.0330
    123 H          26.1921   -1.4959   68.5955 H         1 GLU         0.0330
    124 H          27.8864   -2.8281   67.9884 H         1 GLU         0.0433
    125 H          26.4812   -3.9208   67.6319 H         1 GLU         0.0433
    126 H          23.9883   -3.8416   66.8788 H         1 LEU         0.1883
    127 H          23.1046   -1.3928   65.5785 H         1 LEU         0.0800
    128 H          22.3828   -4.1820   64.8320 H         1 LEU         0.0315
    129 H          24.0169   -3.3028   64.4233 H         1 LEU         0.0315
    130 H          22.9594   -3.3648   62.4804 H         1 LEU         0.0298
    131 H          20.8425   -4.3560   63.1202 H         1 LEU         0.0232
    132 H          20.3032   -2.8192   63.8403 H         1 LEU         0.0232
    133 H          20.5493   -2.9401   62.0808 H         1 LEU         0.0232
    134 H          22.0179   -0.7779   63.7309 H         1 LEU         0.0232
    135 H          23.5934   -1.0948   62.9638 H         1 LEU         0.0232
    136 H          22.1072   -1.1062   61.9830 H         1 LEU         0.0232
    137 H          21.5741   -4.0977   67.2865 H         1 ASP         0.1884
    138 H          18.8652   -3.1771   66.8344 H         1 ASP         0.0819
    139 H          18.1965   -4.8944   68.3196 H         1 ASP         0.0478
    140 H          19.8487   -4.9621   69.0730 H         1 ASP         0.0478
    141 H          21.3498   -2.6021   69.2445 H         1 GLU         0.1883
    142 H          19.5999   -1.3041   71.1543 H         1 GLU         0.0801
    143 H          21.7978   -0.4565   72.0921 H         1 GLU         0.0330
    144 H          22.5853   -1.4513   70.7702 H         1 GLU         0.0330
    145 H          21.3450   -3.4007   71.7292 H         1 GLU         0.0433
    146 H          21.0109   -2.3403   73.1671 H         1 GLU         0.0433
    147 H          21.4047   -0.2781   68.3401 H         1 LEU         0.1883
    148 H          21.2747    2.5582   68.9403 H         1 LEU         0.0800
    149 H          21.3586    1.6520   66.1588 H         1 LEU         0.0315
    150 H          22.7637    1.1748   67.3518 H         1 LEU         0.0315
    151 H          23.4851    3.2948   67.4285 H         1 LEU         0.0298
    152 H          24.0289    2.1009   65.3143 H         1 LEU         0.0232
    153 H          22.5508    2.7505   64.5630 H         1 LEU         0.0232
    154 H          23.8824    3.8481   65.0029 H         1 LEU         0.0232
    155 H          21.0637    4.2977   65.9505 H         1 LEU         0.0232
    156 H          21.4699    4.5609   67.6642 H         1 LEU         0.0232
    157 H          22.4979    5.2582   66.3883 H         1 LEU         0.0232
    158 H          19.3955    0.3165   66.8674 H         1 MET         0.1883
    159 H          17.6341    2.3999   65.9380 H         1 MET         0.0800
    160 H          16.3554    0.7180   64.8978 H         1 MET         0.0320
    161 H          17.1250   -0.5708   65.9790 H         1 MET         0.0320
    162 H          17.7310   -0.2475   63.4582 H         1 MET         0.0378
    163 H          18.9890   -0.6370   64.7791 H         1 MET         0.0378
    164 H          17.7195    1.8851   62.0506 H         1 MET         0.0340
    165 H          17.3362    2.7734   63.5456 H         1 MET         0.0340
    166 H          18.6400    3.3485   62.4776 H         1 MET         0.0340
    167 H          17.7683    0.5644   68.8355 H         1 ALA         0.1883
    168 H          14.9770    0.8954   69.5807 H         1 ALA         0.0797
    169 H          16.3405   -0.8857   70.5615 H         1 ALA         0.0277
    170 H          17.4344    0.3243   71.2759 H         1 ALA         0.0277
    171 H          15.7456    0.2136   71.8299 H         1 ALA         0.0277
    172 H          17.9643    2.7288   70.0542 H         1 SER         0.1884
    173 H          16.8586    4.6531   71.8739 H         1 SER         0.0823
    174 H          18.8303    6.0250   71.2716 H         1 SER         0.0606
    175 H          19.1775    4.8961   69.9142 H         1 SER         0.0606
    176 H          19.4306    3.2534   71.4981 H         1 SER         0.2097
    177 H          16.7256    4.2774   68.4247 H         1 LEU         0.1875
    178 H          15.8621    7.0717   67.9942 H         1 LEU         0.0726
    179 O          13.4269    6.7323   67.6432 O.co2     1 LEU        -0.5666
    180 H          15.6821    6.2119   65.6167 H         1 LEU         0.0308
    181 H          16.6584    4.7478   66.3355 H         1 LEU         0.0308
    182 H          17.4719    7.5483   65.7643 H         1 LEU         0.0297
    183 H          18.3445    7.0614   67.9443 H         1 LEU         0.0232
    184 H          19.0049    5.5093   67.3735 H         1 LEU         0.0232
    185 H          19.6562    7.0408   66.7400 H         1 LEU         0.0232
    186 H          18.5019    4.8012   64.9118 H         1 LEU         0.0232
    187 H          17.6065    5.9503   63.8877 H         1 LEU         0.0232
    188 H          19.2456    6.3534   64.4548 H         1 LEU         0.0232
@<TRIPOS>BOND
     1    1    2 1  
     2    2    3 1  
     3    2    5 1  
     4    3    4 2  
     5    3    6 am 
     6    6    7 1  
     7    7    8 1  
     8    7   10 1  
     9    8    9 2  
    10    8   13 am 
    11   10   11 1  
    12   10   12 1  
    13   13   14 1  
    14   14   15 1  
    15   14   17 1  
    16   15   16 2  
    17   15   24 am 
    18   17   18 1  
    19   18   19 1  
    20   19   20 1  
    21   20   21 ar 
    22   21   22 ar 
    23   21   23 ar 
    24   24   25 1  
    25   25   26 1  
    26   25   28 1  
    27   26   27 2  
    28   26   33 am 
    29   28   29 1  
    30   29   30 1  
    31   30   31 ar 
    32   30   32 ar 
    33   33   34 1  
    34   34   35 1  
    35   34   37 1  
    36   35   36 2  
    37   35   41 am 
    38   37   38 1  
    39   38   39 1  
    40   38   40 1  
    41   41   42 1  
    42   42   43 1  
    43   42   45 1  
    44   43   44 2  
    45   43   49 am 
    46   45   46 1  
    47   46   47 ar 
    48   46   48 ar 
    49   49   50 1  
    50   50   51 1  
    51   50   53 1  
    52   51   52 2  
    53   51   58 am 
    54   53   54 1  
    55   54   55 1  
    56   55   56 ar 
    57   55   57 ar 
    58   58   59 1  
    59   59   60 1  
    60   59   62 1  
    61   60   61 2  
    62   60   66 am 
    63   62   63 1  
    64   63   64 1  
    65   63   65 1  
    66   66   67 1  
    67   67   68 1  
    68   67   70 1  
    69   68   69 2  
    70   68   74 am 
    71   70   71 1  
    72   71   72 1  
    73   72   73 1  
    74   74   75 1  
    75   75   76 1  
    76   75   78 1  
    77   76   77 2  
    78   76   79 am 
    79   79   80 1  
    80   80   81 1  
    81   80   83 1  
    82   81   82 2  
    83   81   85 am 
    84   83   84 1  
    85   85   86 1  
    86   86   87 1  
    87   86   89 1  
    88   87   88 ar 
    89   89   90 1  
    90   90   91 1  
    91   90   92 1  
    92    1   93 1  
    93    1   94 1  
    94    1   95 1  
    95    2   96 1  
    96    5   97 1  
    97    5   98 1  
    98    5   99 1  
    99    6  100 1  
   100    7  101 1  
   101   10  102 1  
   102   11  103 1  
   103   12  104 1  
   104   12  105 1  
   105   12  106 1  
   106   13  107 1  
   107   14  108 1  
   108   17  109 1  
   109   17  110 1  
   110   18  111 1  
   111   18  112 1  
   112   19  113 1  
   113   19  114 1  
   114   20  115 1  
   115   22  116 1  
   116   22  117 1  
   117   23  118 1  
   118   23  119 1  
   119   24  120 1  
   120   25  121 1  
   121   28  122 1  
   122   28  123 1  
   123   29  124 1  
   124   29  125 1  
   125   33  126 1  
   126   34  127 1  
   127   37  128 1  
   128   37  129 1  
   129   38  130 1  
   130   39  131 1  
   131   39  132 1  
   132   39  133 1  
   133   40  134 1  
   134   40  135 1  
   135   40  136 1  
   136   41  137 1  
   137   42  138 1  
   138   45  139 1  
   139   45  140 1  
   140   49  141 1  
   141   50  142 1  
   142   53  143 1  
   143   53  144 1  
   144   54  145 1  
   145   54  146 1  
   146   58  147 1  
   147   59  148 1  
   148   62  149 1  
   149   62  150 1  
   150   63  151 1  
   151   64  152 1  
   152   64  153 1  
   153   64  154 1  
   154   65  155 1  
   155   65  156 1  
   156   65  157 1  
   157   66  158 1  
   158   67  159 1  
   159   70  160 1  
   160   70  161 1  
   161   71  162 1  
   162   71  163 1  
   163   73  164 1  
   164   73  165 1  
   165   73  166 1  
   166   74  167 1  
   167   75  168 1  
   168   78  169 1  
   169   78  170 1  
   170   78  171 1  
   171   79  172 1  
   172   80  173 1  
   173   83  174 1  
   174   83  175 1  
   175   84  176 1  
   176   85  177 1  
   177   86  178 1  
   178   87  179 ar 
   179   89  180 1  
   180   89  181 1  
   181   90  182 1  
   182   91  183 1  
   183   91  184 1  
   184   91  185 1  
   185   92  186 1  
   186   92  187 1  
   187   92  188 1  
@<TRIPOS>SUBSTRUCTURE
     1 ALA         1

