3rqg_ligand
  -I-interpret- 

191190  0  0  0  0  0  0  0  0999 V2000
   27.5500   -8.5100   68.5920 N   0  3  0  0  0
   27.8040   -7.9540   67.2310 C   0  0  0  0  0
   26.5250   -7.4140   66.5910 C   0  0  0  0  0
   26.4990   -6.2800   66.1070 O   0  0  0  0  0
   28.4580   -8.9990   66.3430 C   0  0  0  0  0
   25.4710   -8.2300   66.5930 N   0  0  0  0  0
   24.1510   -7.8000   66.1280 C   0  0  0  0  0
   23.4780   -6.9050   67.1640 C   0  0  0  0  0
   22.6480   -6.0640   66.8190 O   0  0  0  0  0
   23.2210   -8.9980   65.8230 C   0  0  0  0  0
   23.3090   -9.9620   66.8800 O   0  0  0  0  0
   23.6020   -9.6570   64.5070 C   0  0  0  0  0
   23.8600   -7.0940   68.4280 N   0  0  0  0  0
   23.2720   -6.3930   69.5720 C   0  0  0  0  0
   23.2860   -4.8700   69.4440 C   0  0  0  0  0
   22.2420   -4.2310   69.5740 O   0  0  0  0  0
   23.9660   -6.8130   70.8740 C   0  0  0  0  0
   23.7050   -8.2500   71.3010 C   0  0  0  0  0
   24.3150   -8.5360   72.6660 C   0  0  0  0  0
   23.9600   -9.8640   73.1660 N   0  0  0  0  0
   24.7640  -10.9250   73.1410 C   0  0  0  0  0
   25.9900  -10.8330   72.6420 N   0  0  0  0  0
   24.3380  -12.0840   73.6230 N   0  0  0  0  0
   24.4620   -4.2990   69.1840 N   0  0  0  0  0
   24.6410   -2.8380   69.1380 C   0  0  0  0  0
   23.8930   -2.1460   67.9950 C   0  0  0  0  0
   23.5810   -0.9530   68.0810 O   0  0  0  0  0
   26.1280   -2.4460   69.1260 C   0  0  0  0  0
   27.0610   -3.4090   68.4000 C   0  0  0  0  0
   27.6490   -4.4660   69.3220 C   0  0  0  0  0
   28.8840   -4.4730   69.5030 O   0  0  0  0  0
   26.8810   -5.2840   69.8720 O   0  0  0  0  0
   23.6120   -2.8950   66.9320 N   0  0  0  0  0
   22.7810   -2.4000   65.8410 C   0  0  0  0  0
   21.3250   -2.3480   66.2900 C   0  0  0  0  0
   20.5960   -1.4230   65.9400 O   0  0  0  0  0
   22.9400   -3.2770   64.5900 C   0  0  0  0  0
   22.3650   -2.8410   63.2290 C   0  0  0  0  0
   20.9100   -3.2700   63.0550 C   0  0  0  0  0
   22.5330   -1.3470   62.9570 C   0  0  0  0  0
   20.9180   -3.3470   67.0710 N   0  0  0  0  0
   19.5700   -3.4120   67.6320 C   0  0  0  0  0
   19.3940   -2.3880   68.7530 C   0  0  0  0  0
   18.2960   -1.8690   68.9620 O   0  0  0  0  0
   19.2720   -4.8200   68.1590 C   0  0  0  0  0
   19.6730   -5.9170   67.1810 C   0  0  0  0  0
   19.7670   -5.6500   65.9620 O   0  0  0  0  0
   19.9010   -7.0550   67.6410 O   0  0  0  0  0
   20.4840   -2.1110   69.4670 N   0  0  0  0  0
   20.4950   -1.1340   70.5560 C   0  0  0  0  0
   20.4420    0.2990   70.0320 C   0  0  0  0  0
   19.9260    1.1940   70.7050 O   0  0  0  0  0
   21.7330   -1.3260   71.4380 C   0  0  0  0  0
   21.6820   -2.5610   72.3370 C   0  0  0  0  0
   23.0370   -2.9260   72.9210 C   0  0  0  0  0
   23.6890   -2.0490   73.5290 O   0  0  0  0  0
   23.4470   -4.0970   72.7810 O   0  0  0  0  0
   20.9780    0.5070   68.8320 N   0  0  0  0  0
   20.9760    1.8200   68.1960 C   0  0  0  0  0
   19.5790    2.1680   67.6900 C   0  0  0  0  0
   19.0920    3.2740   67.9220 O   0  0  0  0  0
   21.9740    1.8560   67.0350 C   0  0  0  0  0
   22.7290    3.1390   66.6590 C   0  0  0  0  0
   23.3410    2.9460   65.2880 C   0  0  0  0  0
   21.8790    4.4050   66.6660 C   0  0  0  0  0
   18.9410    1.2190   67.0060 N   0  0  0  0  0
   17.6050    1.4370   66.4480 C   0  0  0  0  0
   16.5320    1.5200   67.5390 C   0  0  0  0  0
   15.4310    2.0190   67.2950 O   0  0  0  0  0
   17.2420    0.3570   65.4190 C   0  0  0  0  0
   18.2940    0.0750   64.3340 C   0  0  0  0  0
   19.3150    1.4630   63.7710 S   0  0  0  0  0
   18.1370    2.4660   62.8730 C   0  0  0  0  0
   16.8660    1.0290   68.7330 N   0  0  0  0  0
   15.9920    1.1290   69.9020 C   0  0  0  0  0
   15.9860    2.5480   70.4730 C   0  0  0  0  0
   14.9530    3.0270   70.9440 O   0  0  0  0  0
   16.4080    0.1230   70.9690 C   0  0  0  0  0
   17.1430    3.2090   70.4220 N   0  0  0  0  0
   17.2840    4.5960   70.8720 C   0  0  0  0  0
   16.5200    5.5660   69.9740 C   0  0  0  0  0
   16.0720    6.6200   70.4270 O   0  0  0  0  0
   18.7600    4.9970   70.9160 C   0  0  0  0  0
   19.4920    4.1640   71.7960 O   0  0  0  0  0
   16.3740    5.1930   68.7050 N   0  0  0  0  0
   15.7340    6.0320   67.6930 C   0  0  0  0  0
   14.2330    5.7650   67.5970 C   0  0  0  0  0
   13.7884    4.5927   67.4723 O   0  0  0  0  0
   16.4010    5.8070   66.3290 C   0  0  0  0  0
   17.7210    6.5050   65.9580 C   0  0  0  0  0
   18.7570    6.5310   67.0860 C   0  0  0  0  0
   18.3110    5.8560   64.7140 C   0  0  0  0  0
   13.4269    6.7323   67.6432 O   0  0  0  0  0
   27.1114   -7.7958   69.1733 H   0  0  0  0  0
   26.9309   -9.3173   68.5181 H   0  0  0  0  0
   28.4346   -8.7957   69.0118 H   0  0  0  0  0
   28.4892   -7.1132   67.3391 H   0  0  0  0  0
   27.7666   -9.8275   66.1893 H   0  0  0  0  0
   28.7097   -8.5510   65.3817 H   0  0  0  0  0
   29.3653   -9.3655   66.8231 H   0  0  0  0  0
   25.5880   -9.1857   66.9297 H   0  0  0  0  0
   24.3135   -7.2440   65.2047 H   0  0  0  0  0
   22.1990   -8.6269   65.7458 H   0  0  0  0  0
   22.7301  -10.7026   66.6852 H   0  0  0  0  0
   24.6226  -10.0341   64.5730 H   0  0  0  0  0
   22.9203  -10.4832   64.3051 H   0  0  0  0  0
   23.5353   -8.9245   63.7026 H   0  0  0  0  0
   24.6055   -7.7663   68.6086 H   0  0  0  0  0
   22.2233   -6.6897   69.5914 H   0  0  0  0  0
   23.5732   -6.1719   71.6632 H   0  0  0  0  0
   25.0389   -6.7231   70.7041 H   0  0  0  0  0
   24.1584   -8.9189   70.5695 H   0  0  0  0  0
   22.6278   -8.4057   71.3610 H   0  0  0  0  0
   23.9317   -7.7965   73.3691 H   0  0  0  0  0
   25.3996   -8.4907   72.5677 H   0  0  0  0  0
   23.0283   -9.9862   73.5629 H   0  0  0  0  0
   26.5988  -11.6513   72.6308 H   0  0  0  0  0
   26.3237   -9.9440   72.2696 H   0  0  0  0  0
   23.3978  -12.1604   74.0110 H   0  0  0  0  0
   25.2695   -4.8974   69.0101 H   0  0  0  0  0
   24.1861   -2.4744   70.0594 H   0  0  0  0  0
   26.4509   -2.4298   70.1669 H   0  0  0  0  0
   26.1921   -1.4959   68.5955 H   0  0  0  0  0
   27.8864   -2.8281   67.9884 H   0  0  0  0  0
   26.4812   -3.9208   67.6319 H   0  0  0  0  0
   25.9777   -5.1058   69.6002 H   0  0  0  0  0
   23.9883   -3.8416   66.8788 H   0  0  0  0  0
   23.1046   -1.3928   65.5785 H   0  0  0  0  0
   22.3828   -4.1820   64.8320 H   0  0  0  0  0
   24.0169   -3.3028   64.4233 H   0  0  0  0  0
   22.9594   -3.3648   62.4804 H   0  0  0  0  0
   20.8425   -4.3560   63.1202 H   0  0  0  0  0
   20.3032   -2.8192   63.8403 H   0  0  0  0  0
   20.5493   -2.9401   62.0808 H   0  0  0  0  0
   22.0179   -0.7779   63.7309 H   0  0  0  0  0
   23.5934   -1.0948   62.9638 H   0  0  0  0  0
   22.1072   -1.1062   61.9830 H   0  0  0  0  0
   21.5741   -4.0977   67.2865 H   0  0  0  0  0
   18.8652   -3.1771   66.8344 H   0  0  0  0  0
   18.1965   -4.8944   68.3196 H   0  0  0  0  0
   19.8487   -4.9621   69.0730 H   0  0  0  0  0
   19.5509   -4.7254   65.8205 H   0  0  0  0  0
   21.3498   -2.6021   69.2445 H   0  0  0  0  0
   19.5999   -1.3041   71.1543 H   0  0  0  0  0
   21.7978   -0.4565   72.0921 H   0  0  0  0  0
   22.5853   -1.4513   70.7702 H   0  0  0  0  0
   21.3450   -3.4007   71.7292 H   0  0  0  0  0
   21.0109   -2.3403   73.1671 H   0  0  0  0  0
   23.1980   -1.2241   73.5216 H   0  0  0  0  0
   21.4047   -0.2781   68.3401 H   0  0  0  0  0
   21.2747    2.5582   68.9403 H   0  0  0  0  0
   21.3586    1.6520   66.1588 H   0  0  0  0  0
   22.7637    1.1748   67.3518 H   0  0  0  0  0
   23.4851    3.2948   67.4285 H   0  0  0  0  0
   24.0289    2.1009   65.3143 H   0  0  0  0  0
   22.5508    2.7505   64.5630 H   0  0  0  0  0
   23.8824    3.8481   65.0029 H   0  0  0  0  0
   21.0637    4.2977   65.9505 H   0  0  0  0  0
   21.4699    4.5609   67.6642 H   0  0  0  0  0
   22.4979    5.2582   66.3883 H   0  0  0  0  0
   19.3955    0.3165   66.8674 H   0  0  0  0  0
   17.6341    2.3999   65.9380 H   0  0  0  0  0
   16.3554    0.7180   64.8978 H   0  0  0  0  0
   17.1250   -0.5708   65.9790 H   0  0  0  0  0
   17.7310   -0.2475   63.4582 H   0  0  0  0  0
   18.9890   -0.6370   64.7791 H   0  0  0  0  0
   17.7195    1.8851   62.0506 H   0  0  0  0  0
   17.3362    2.7734   63.5456 H   0  0  0  0  0
   18.6400    3.3485   62.4776 H   0  0  0  0  0
   17.7683    0.5644   68.8355 H   0  0  0  0  0
   14.9770    0.8954   69.5807 H   0  0  0  0  0
   16.3405   -0.8857   70.5615 H   0  0  0  0  0
   17.4344    0.3243   71.2759 H   0  0  0  0  0
   15.7456    0.2136   71.8299 H   0  0  0  0  0
   17.9643    2.7288   70.0542 H   0  0  0  0  0
   16.8586    4.6531   71.8739 H   0  0  0  0  0
   18.8303    6.0250   71.2716 H   0  0  0  0  0
   19.1775    4.8961   69.9142 H   0  0  0  0  0
   20.4120    4.4382   71.8033 H   0  0  0  0  0
   16.7256    4.2774   68.4247 H   0  0  0  0  0
   15.8621    7.0717   67.9942 H   0  0  0  0  0
   15.6821    6.2119   65.6167 H   0  0  0  0  0
   16.6584    4.7478   66.3355 H   0  0  0  0  0
   17.4719    7.5483   65.7643 H   0  0  0  0  0
   18.3445    7.0614   67.9443 H   0  0  0  0  0
   19.0049    5.5093   67.3735 H   0  0  0  0  0
   19.6562    7.0408   66.7400 H   0  0  0  0  0
   18.5019    4.8012   64.9118 H   0  0  0  0  0
   17.6065    5.9503   63.8877 H   0  0  0  0  0
   19.2456    6.3534   64.4548 H   0  0  0  0  0
   13.9175    7.5519   67.7391 H   0  0  0  0  0
  1  2  1  0  0  0
  2  3  1  0  0  0
  2  5  1  0  0  0
  3  4  2  0  0  0
  3  6  1  0  0  0
  6  7  1  0  0  0
  7  8  1  0  0  0
  7 10  1  0  0  0
  8  9  2  0  0  0
  8 13  1  0  0  0
 10 11  1  0  0  0
 10 12  1  0  0  0
 13 14  1  0  0  0
 14 15  1  0  0  0
 14 17  1  0  0  0
 15 16  2  0  0  0
 15 24  1  0  0  0
 17 18  1  0  0  0
 18 19  1  0  0  0
 19 20  1  0  0  0
 20 21  1  0  0  0
 21 22  1  0  0  0
 21 23  2  0  0  0
 24 25  1  0  0  0
 25 26  1  0  0  0
 25 28  1  0  0  0
 26 27  2  0  0  0
 26 33  1  0  0  0
 28 29  1  0  0  0
 29 30  1  0  0  0
 30 31  2  0  0  0
 30 32  1  0  0  0
 33 34  1  0  0  0
 34 35  1  0  0  0
 34 37  1  0  0  0
 35 36  2  0  0  0
 35 41  1  0  0  0
 37 38  1  0  0  0
 38 39  1  0  0  0
 38 40  1  0  0  0
 41 42  1  0  0  0
 42 43  1  0  0  0
 42 45  1  0  0  0
 43 44  2  0  0  0
 43 49  1  0  0  0
 45 46  1  0  0  0
 46 47  1  0  0  0
 46 48  2  0  0  0
 49 50  1  0  0  0
 50 51  1  0  0  0
 50 53  1  0  0  0
 51 52  2  0  0  0
 51 58  1  0  0  0
 53 54  1  0  0  0
 54 55  1  0  0  0
 55 56  1  0  0  0
 55 57  2  0  0  0
 58 59  1  0  0  0
 59 60  1  0  0  0
 59 62  1  0  0  0
 60 61  2  0  0  0
 60 66  1  0  0  0
 62 63  1  0  0  0
 63 64  1  0  0  0
 63 65  1  0  0  0
 66 67  1  0  0  0
 67 68  1  0  0  0
 67 70  1  0  0  0
 68 69  2  0  0  0
 68 74  1  0  0  0
 70 71  1  0  0  0
 71 72  1  0  0  0
 72 73  1  0  0  0
 74 75  1  0  0  0
 75 76  1  0  0  0
 75 78  1  0  0  0
 76 77  2  0  0  0
 76 79  1  0  0  0
 79 80  1  0  0  0
 80 81  1  0  0  0
 80 83  1  0  0  0
 81 82  2  0  0  0
 81 85  1  0  0  0
 83 84  1  0  0  0
 85 86  1  0  0  0
 86 87  1  0  0  0
 86 89  1  0  0  0
 87 88  2  0  0  0
 89 90  1  0  0  0
 90 91  1  0  0  0
 90 92  1  0  0  0
 87 93  1  0  0  0
  1 94  1  0  0  0
  1 95  1  0  0  0
  1 96  1  0  0  0
  2 97  1  0  0  0
  5 98  1  0  0  0
  5 99  1  0  0  0
  5100  1  0  0  0
  6101  1  0  0  0
  7102  1  0  0  0
 10103  1  0  0  0
 11104  1  0  0  0
 12105  1  0  0  0
 12106  1  0  0  0
 12107  1  0  0  0
 13108  1  0  0  0
 14109  1  0  0  0
 17110  1  0  0  0
 17111  1  0  0  0
 18112  1  0  0  0
 18113  1  0  0  0
 19114  1  0  0  0
 19115  1  0  0  0
 20116  1  0  0  0
 22117  1  0  0  0
 22118  1  0  0  0
 23119  1  0  0  0
 24120  1  0  0  0
 25121  1  0  0  0
 28122  1  0  0  0
 28123  1  0  0  0
 29124  1  0  0  0
 29125  1  0  0  0
 32126  1  0  0  0
 33127  1  0  0  0
 34128  1  0  0  0
 37129  1  0  0  0
 37130  1  0  0  0
 38131  1  0  0  0
 39132  1  0  0  0
 39133  1  0  0  0
 39134  1  0  0  0
 40135  1  0  0  0
 40136  1  0  0  0
 40137  1  0  0  0
 41138  1  0  0  0
 42139  1  0  0  0
 45140  1  0  0  0
 45141  1  0  0  0
 47142  1  0  0  0
 49143  1  0  0  0
 50144  1  0  0  0
 53145  1  0  0  0
 53146  1  0  0  0
 54147  1  0  0  0
 54148  1  0  0  0
 56149  1  0  0  0
 58150  1  0  0  0
 59151  1  0  0  0
 62152  1  0  0  0
 62153  1  0  0  0
 63154  1  0  0  0
 64155  1  0  0  0
 64156  1  0  0  0
 64157  1  0  0  0
 65158  1  0  0  0
 65159  1  0  0  0
 65160  1  0  0  0
 66161  1  0  0  0
 67162  1  0  0  0
 70163  1  0  0  0
 70164  1  0  0  0
 71165  1  0  0  0
 71166  1  0  0  0
 73167  1  0  0  0
 73168  1  0  0  0
 73169  1  0  0  0
 74170  1  0  0  0
 75171  1  0  0  0
 78172  1  0  0  0
 78173  1  0  0  0
 78174  1  0  0  0
 79175  1  0  0  0
 80176  1  0  0  0
 83177  1  0  0  0
 83178  1  0  0  0
 84179  1  0  0  0
 85180  1  0  0  0
 86181  1  0  0  0
 89182  1  0  0  0
 89183  1  0  0  0
 90184  1  0  0  0
 91185  1  0  0  0
 91186  1  0  0  0
 91187  1  0  0  0
 92188  1  0  0  0
 92189  1  0  0  0
 92190  1  0  0  0
 93191  1  0  0  0
M  END
$$$$
