6hp5_ligand
  -I-interpret- 

 82 82  0  0  0  0  0  0  0  0999 V2000
   29.1180    1.0110   72.0390 N   0  3  0  0  0
   29.3630    2.4590   71.8260 C   0  0  0  0  0
   29.0020    3.3760   72.9840 C   0  0  0  0  0
   28.4060    2.9470   73.9760 O   0  0  0  0  0
   29.3980    4.6440   72.8410 N   0  0  0  0  0
   29.1110    5.7090   73.7960 C   0  0  0  0  0
   27.8150    6.3910   73.3760 C   0  0  0  0  0
   27.7150    6.8640   72.2390 O   0  0  0  0  0
   30.2750    6.7180   73.7990 C   0  0  0  0  0
   30.1170    7.9030   74.7310 C   0  0  0  0  0
   31.3760    9.1740   74.4480 S   0  0  0  0  0
   30.7920    9.9330   72.9140 C   0  0  0  0  0
   26.8180    6.4500   74.2840 N   0  0  0  0  0
   25.5900    7.1680   73.9250 C   0  0  0  0  0
   25.8670    8.6530   73.7150 C   0  0  0  0  0
   26.6410    9.2420   74.4620 O   0  0  0  0  0
   24.6920    6.9630   75.1460 C   0  0  0  0  0
   25.6420    6.7520   76.2710 C   0  0  0  0  0
   26.7880    5.9730   75.6810 C   0  0  0  0  0
   25.2720    9.2180   72.6690 N   0  0  0  0  0
   25.2610   10.6650   72.4470 C   0  0  0  0  0
   23.8360   11.1730   72.3630 C   0  0  0  0  0
   22.9050   10.4230   72.0600 O   0  0  0  0  0
   25.9920   11.0300   71.1580 C   0  0  0  0  0
   27.5110   11.0270   71.2690 C   0  0  0  0  0
   28.1230   10.9430   69.8780 C   0  0  0  0  0
   29.5090   11.3980   69.8370 N   0  0  0  0  0
   30.5440   10.6220   69.5340 C   0  0  0  0  0
   30.3710    9.3410   69.2600 N   0  0  0  0  0
   31.7620   11.1300   69.5110 N   0  0  0  0  0
   23.6520   12.4530   72.6240 N   0  0  0  0  0
   22.3370   13.0280   72.4570 C   0  0  0  0  0
   22.3510   14.4980   72.7290 C   0  0  0  0  0
   23.2100   15.0060   73.4650 O   0  0  0  0  0
   21.3970   15.1710   72.1010 N   0  0  0  0  0
   21.0680   16.5540   72.3970 C   0  0  0  0  0
   19.5460   16.7230   72.4200 C   0  0  0  0  0
   18.7950   15.9140   71.8460 O   0  0  0  0  0
   21.7080   17.4830   71.3860 C   0  0  0  0  0
   19.0280   17.6620   73.0380 O   0  0  0  0  0
   29.3942    0.4942   71.2041 H   0  0  0  0  0
   29.6657    0.6884   72.8367 H   0  0  0  0  0
   28.1262    0.8585   72.2221 H   0  0  0  0  0
   28.7279    2.7565   70.9916 H   0  0  0  0  0
   30.4368    2.5677   71.6739 H   0  0  0  0  0
   29.9369    4.8834   72.0087 H   0  0  0  0  0
   29.0008    5.3050   74.8023 H   0  0  0  0  0
   30.3324    7.1253   72.7896 H   0  0  0  0  0
   31.1548    6.1726   74.1404 H   0  0  0  0  0
   30.2233    7.5442   75.7548 H   0  0  0  0  0
   29.1395    8.3490   74.5477 H   0  0  0  0  0
   30.7574    9.1792   72.1274 H   0  0  0  0  0
   29.7943   10.3432   73.0700 H   0  0  0  0  0
   31.4735   10.7324   72.6233 H   0  0  0  0  0
   25.1472    6.8086   72.9961 H   0  0  0  0  0
   24.0134    6.1195   75.0188 H   0  0  0  0  0
   24.0345    7.8150   75.3190 H   0  0  0  0  0
   25.1743    6.2153   77.0964 H   0  0  0  0  0
   25.9765    7.6979   76.6970 H   0  0  0  0  0
   27.7288    6.1360   76.2067 H   0  0  0  0  0
   26.6544    4.8941   75.7596 H   0  0  0  0  0
   24.8026    8.6171   71.9915 H   0  0  0  0  0
   25.7721   11.1310   73.2895 H   0  0  0  0  0
   25.6936   12.0460   70.8994 H   0  0  0  0  0
   25.7254   10.2769   70.4165 H   0  0  0  0  0
   27.8299   10.1671   71.8581 H   0  0  0  0  0
   27.8409   11.9449   71.7556 H   0  0  0  0  0
   27.5417   11.5887   69.2197 H   0  0  0  0  0
   28.1074    9.8973   69.5707 H   0  0  0  0  0
   29.6955   12.3767   70.0555 H   0  0  0  0  0
   31.1745    8.7549   69.0335 H   0  0  0  0  0
   29.4340    8.9383   69.2750 H   0  0  0  0  0
   31.9073   12.1165   69.7256 H   0  0  0  0  0
   24.4304   13.0311   72.9406 H   0  0  0  0  0
   21.6564   12.5503   73.1618 H   0  0  0  0  0
   22.0154   12.8677   71.4279 H   0  0  0  0  0
   20.8669   14.6928   71.3725 H   0  0  0  0  0
   21.4631   16.8163   73.3784 H   0  0  0  0  0
   19.3240   15.2423   71.4094 H   0  0  0  0  0
   22.7908   17.3625   71.4183 H   0  0  0  0  0
   21.3435   17.2386   70.3882 H   0  0  0  0  0
   21.4485   18.5140   71.6266 H   0  0  0  0  0
  1  2  1  0  0  0
  2  3  1  0  0  0
  3  4  2  0  0  0
  3  5  1  0  0  0
  5  6  1  0  0  0
  6  7  1  0  0  0
  6  9  1  0  0  0
  7  8  2  0  0  0
  7 13  1  0  0  0
  9 10  1  0  0  0
 10 11  1  0  0  0
 11 12  1  0  0  0
 13 14  1  0  0  0
 13 19  1  0  0  0
 14 15  1  0  0  0
 14 17  1  0  0  0
 15 16  2  0  0  0
 15 20  1  0  0  0
 17 18  1  0  0  0
 18 19  1  0  0  0
 20 21  1  0  0  0
 21 22  1  0  0  0
 21 24  1  0  0  0
 22 23  2  0  0  0
 22 31  1  0  0  0
 24 25  1  0  0  0
 25 26  1  0  0  0
 26 27  1  0  0  0
 27 28  1  0  0  0
 28 29  1  0  0  0
 28 30  2  0  0  0
 31 32  1  0  0  0
 32 33  1  0  0  0
 33 34  2  0  0  0
 33 35  1  0  0  0
 35 36  1  0  0  0
 36 37  1  0  0  0
 36 39  1  0  0  0
 37 38  1  0  0  0
 37 40  2  0  0  0
  1 41  1  0  0  0
  1 42  1  0  0  0
  1 43  1  0  0  0
  2 44  1  0  0  0
  2 45  1  0  0  0
  5 46  1  0  0  0
  6 47  1  0  0  0
  9 48  1  0  0  0
  9 49  1  0  0  0
 10 50  1  0  0  0
 10 51  1  0  0  0
 12 52  1  0  0  0
 12 53  1  0  0  0
 12 54  1  0  0  0
 14 55  1  0  0  0
 17 56  1  0  0  0
 17 57  1  0  0  0
 18 58  1  0  0  0
 18 59  1  0  0  0
 19 60  1  0  0  0
 19 61  1  0  0  0
 20 62  1  0  0  0
 21 63  1  0  0  0
 24 64  1  0  0  0
 24 65  1  0  0  0
 25 66  1  0  0  0
 25 67  1  0  0  0
 26 68  1  0  0  0
 26 69  1  0  0  0
 27 70  1  0  0  0
 29 71  1  0  0  0
 29 72  1  0  0  0
 30 73  1  0  0  0
 31 74  1  0  0  0
 32 75  1  0  0  0
 32 76  1  0  0  0
 35 77  1  0  0  0
 36 78  1  0  0  0
 38 79  1  0  0  0
 39 80  1  0  0  0
 39 81  1  0  0  0
 39 82  1  0  0  0
M  END
$$$$
