4mwc_ligand
  -I-interpret- 

 46 48  0  0  0  0  0  0  0  0999 V2000
  -45.5890   13.4810   13.2360 O   0  0  0  0  0
  -44.3920   13.6620   13.0110 C   0  0  0  0  0
  -43.6580   14.6570   13.6440 N   0  0  0  0  0
  -44.1070   15.6750   14.5170 C   0  0  0  0  0
  -43.1330   16.5250   15.1290 C   0  0  0  0  0
  -43.6740   17.4850   15.9090 C   0  0  0  0  0
  -45.3810   17.3820   15.9050 S   0  0  0  0  0
  -45.3910   16.0380   14.8680 C   0  0  0  0  0
  -43.6780   12.8800   12.1810 N   0  0  0  0  0
  -44.2880   11.8140   11.3980 C   0  0  0  0  0
  -43.3300   11.2250   10.3810 C   0  0  0  0  0
  -43.1330   12.1350    9.1940 C   0  0  0  0  0
  -42.3140   11.5300    8.1450 N   0  3  0  0  0
  -42.0680   12.2960    6.9120 C   0  0  0  0  0
  -41.6870   13.7470    7.0920 C   0  0  0  0  0
  -40.3030   14.1190    7.0650 C   0  0  0  0  0
  -39.1230   13.3830    6.9660 C   0  0  0  0  0
  -37.8970   14.0320    6.9590 C   0  0  0  0  0
  -37.8270   15.4090    7.0500 C   0  0  0  0  0
  -38.9800   16.1640    7.1520 C   0  0  0  0  0
  -40.2130   15.5190    7.1560 C   0  0  0  0  0
  -41.7760   16.2720    7.2630 S   0  0  0  0  0
  -42.5900   14.7400    7.2030 C   0  0  0  0  0
  -44.0840   14.7300    7.2720 C   0  0  0  0  0
  -42.6561   14.6528   13.4526 H   0  0  0  0  0
  -42.0594   16.4091   14.9803 H   0  0  0  0  0
  -43.1003   18.2257   16.4661 H   0  0  0  0  0
  -46.2920   15.5294   14.5250 H   0  0  0  0  0
  -42.6740   13.0393   12.0971 H   0  0  0  0  0
  -45.1367   12.2344   10.8586 H   0  0  0  0  0
  -44.5844   11.0193   12.0826 H   0  0  0  0  0
  -43.7498   10.2850   10.0229 H   0  0  0  0  0
  -42.3639   11.0841   10.8656 H   0  0  0  0  0
  -42.6198   13.0313    9.5425 H   0  0  0  0  0
  -44.1145   12.3473    8.7700 H   0  0  0  0  0
  -42.8330   10.7045    7.8457 H   0  0  0  0  0
  -41.3940   11.4027    8.5666 H   0  0  0  0  0
  -43.0082   12.2946    6.3604 H   0  0  0  0  0
  -41.2206   11.8177    6.4208 H   0  0  0  0  0
  -39.1639   12.2961    6.8940 H   0  0  0  0  0
  -36.9790   13.4495    6.8809 H   0  0  0  0  0
  -36.8555   15.9032    7.0413 H   0  0  0  0  0
  -38.9243   17.2499    7.2283 H   0  0  0  0  0
  -44.4853   14.2763    6.3658 H   0  0  0  0  0
  -44.4025   14.1532    8.1403 H   0  0  0  0  0
  -44.4492   15.7532    7.3600 H   0  0  0  0  0
  1  2  2  0  0  0
  2  3  1  0  0  0
  2  9  1  0  0  0
  3  4  1  0  0  0
  4  5  4  0  0  0
  4  8  4  0  0  0
  5  6  4  0  0  0
  6  7  4  0  0  0
  7  8  4  0  0  0
  9 10  1  0  0  0
 10 11  1  0  0  0
 11 12  1  0  0  0
 12 13  1  0  0  0
 13 14  1  0  0  0
 14 15  1  0  0  0
 15 16  4  0  0  0
 15 23  4  0  0  0
 16 17  4  0  0  0
 16 21  4  0  0  0
 17 18  4  0  0  0
 18 19  4  0  0  0
 19 20  4  0  0  0
 20 21  4  0  0  0
 21 22  4  0  0  0
 22 23  4  0  0  0
 23 24  1  0  0  0
  3 25  1  0  0  0
  5 26  1  0  0  0
  6 27  1  0  0  0
  8 28  1  0  0  0
  9 29  1  0  0  0
 10 30  1  0  0  0
 10 31  1  0  0  0
 11 32  1  0  0  0
 11 33  1  0  0  0
 12 34  1  0  0  0
 12 35  1  0  0  0
 13 36  1  0  0  0
 13 37  1  0  0  0
 14 38  1  0  0  0
 14 39  1  0  0  0
 17 40  1  0  0  0
 18 41  1  0  0  0
 19 42  1  0  0  0
 20 43  1  0  0  0
 24 44  1  0  0  0
 24 45  1  0  0  0
 24 46  1  0  0  0
M  END
$$$$
