3kf4_ligand
  -I-interpret- 

 53 57  0  0  0  0  0  0  0  0999 V2000
   34.2750   -7.8030  -17.4230 N   0  0  0  0  0
   34.6230   -8.2210  -18.6310 C   0  0  0  0  0
   35.0800   -9.5950  -18.4450 C   0  0  0  0  0
   34.9610   -9.9030  -17.0400 C   0  0  0  0  0
   34.4640   -8.7540  -16.5000 N   0  0  0  0  0
   35.5730  -10.5790  -19.3290 C   0  0  0  0  0
   35.9430  -11.8760  -18.8160 C   0  0  0  0  0
   35.8120  -12.1370  -17.4220 C   0  0  0  0  0
   35.3190  -11.1430  -16.5450 C   0  0  0  0  0
   36.4690  -12.9690  -19.7130 C   0  0  0  0  0
   35.7100  -10.2770  -20.7860 C   0  0  0  0  0
   34.6530  -10.0660  -21.5910 C   0  0  0  0  0
   34.7920   -9.9020  -23.0510 N   0  0  0  0  0
   34.0260  -10.5100  -23.9910 C   0  0  0  0  0
   34.3870  -10.1680  -25.2330 N   0  0  0  0  0
   35.4560   -9.2820  -25.0910 C   0  0  0  0  0
   35.7130   -9.1000  -23.7070 C   0  0  0  0  0
   36.2650   -8.5690  -25.9620 C   0  0  0  0  0
   37.2640   -7.7440  -25.4940 N   0  0  0  0  0
   37.4390   -7.6350  -24.1440 C   0  0  0  0  0
   36.7000   -8.2890  -23.2350 N   0  0  0  0  0
   36.0390   -8.7250  -27.2980 N   0  0  0  0  0
   36.7240   -8.1820  -28.3700 C   0  0  0  0  0
   36.1840   -8.4100  -29.6670 C   0  0  0  0  0
   36.8140   -7.8760  -30.8100 C   0  0  0  0  0
   37.9860   -7.1120  -30.6780 C   0  0  0  0  0
   38.5470   -6.8800  -29.3980 C   0  0  0  0  0
   37.9220   -7.4110  -28.2470 C   0  0  0  0  0
   38.7440   -6.4260  -32.1840 P   0  0  0  0  0
   40.4190   -5.7360  -31.7720 C   0  0  0  0  0
   37.8000   -4.9630  -32.8030 C   0  0  0  0  0
   38.8470   -7.4690  -33.2170 O   0  0  0  0  0
   34.5778   -7.6593  -19.5640 H   0  0  0  0  0
   36.0946  -13.1128  -17.0270 H   0  0  0  0  0
   35.2215  -11.3544  -15.4802 H   0  0  0  0  0
   35.7206  -13.2091  -20.4682 H   0  0  0  0  0
   37.3828  -12.6290  -20.2004 H   0  0  0  0  0
   36.6823  -13.8558  -19.1162 H   0  0  0  0  0
   36.7105  -10.2254  -21.2155 H   0  0  0  0  0
   33.6580  -10.0143  -21.1489 H   0  0  0  0  0
   33.2115  -11.1970  -23.7613 H   0  0  0  0  0
   38.2281   -6.9757  -23.7825 H   0  0  0  0  0
   35.2530   -9.3279  -27.5412 H   0  0  0  0  0
   35.2758   -9.0024  -29.7777 H   0  0  0  0  0
   36.3909   -8.0563  -31.7982 H   0  0  0  0  0
   39.4599   -6.2924  -29.3009 H   0  0  0  0  0
   38.3545   -7.2323  -27.2626 H   0  0  0  0  0
   41.0590   -6.5365  -31.4009 H   0  0  0  0  0
   40.8617   -5.3009  -32.6680 H   0  0  0  0  0
   40.3155   -4.9672  -31.0063 H   0  0  0  0  0
   38.3093   -4.5444  -33.6710 H   0  0  0  0  0
   36.7942   -5.2741  -33.0853 H   0  0  0  0  0
   37.7417   -4.2106  -32.0165 H   0  0  0  0  0
  1  2  4  0  0  0
  1  5  4  0  0  0
  2  3  4  0  0  0
  3  4  4  0  0  0
  3  6  4  0  0  0
  4  5  4  0  0  0
  4  9  4  0  0  0
  6  7  4  0  0  0
  6 11  1  0  0  0
  7  8  4  0  0  0
  7 10  1  0  0  0
  8  9  4  0  0  0
 11 12  2  0  0  0
 12 13  1  0  0  0
 13 14  4  0  0  0
 13 17  4  0  0  0
 14 15  4  0  0  0
 15 16  4  0  0  0
 16 17  4  0  0  0
 16 18  4  0  0  0
 17 21  4  0  0  0
 18 19  4  0  0  0
 18 22  1  0  0  0
 19 20  4  0  0  0
 20 21  4  0  0  0
 22 23  1  0  0  0
 23 24  4  0  0  0
 23 28  4  0  0  0
 24 25  4  0  0  0
 25 26  4  0  0  0
 26 27  4  0  0  0
 26 29  1  0  0  0
 27 28  4  0  0  0
 29 30  1  0  0  0
 29 31  1  0  0  0
 29 32  2  0  0  0
  2 33  1  0  0  0
  8 34  1  0  0  0
  9 35  1  0  0  0
 10 36  1  0  0  0
 10 37  1  0  0  0
 10 38  1  0  0  0
 11 39  1  0  0  0
 12 40  1  0  0  0
 14 41  1  0  0  0
 20 42  1  0  0  0
 22 43  1  0  0  0
 24 44  1  0  0  0
 25 45  1  0  0  0
 27 46  1  0  0  0
 28 47  1  0  0  0
 30 48  1  0  0  0
 30 49  1  0  0  0
 30 50  1  0  0  0
 31 51  1  0  0  0
 31 52  1  0  0  0
 31 53  1  0  0  0
M  END
$$$$
