2pjl_ligand
  -I-interpret- 

 54 57  0  0  0  0  0  0  0  0999 V2000
  -10.7060   -8.1570    7.7670 N   0  0  0  0  0
  -11.4770   -7.3940    8.5860 C   0  0  0  0  0
  -12.7810   -7.8860    8.5740 C   0  0  0  0  0
  -12.6940   -9.0680    7.6420 C   0  0  0  0  0
  -11.4160   -9.1330    7.2320 C   0  0  0  0  0
  -13.8280   -9.9920    7.2580 C   0  0  0  0  0
  -14.8930   -9.3050    6.4870 N   0  3  0  0  0
  -14.5360   -8.8910    5.1120 C   0  0  0  0  0
  -15.3780   -7.6800    4.6040 C   0  0  0  0  0
  -16.8840   -8.0390    4.3870 C   0  0  0  0  0
  -17.6740   -6.8420    3.7910 C   0  0  0  0  0
  -17.4510   -5.5250    4.5910 C   0  0  0  0  0
  -15.9300   -5.2290    4.8000 C   0  0  0  0  0
  -15.2500   -6.4300    5.5240 C   0  0  0  0  0
  -13.8120   -7.3010    9.3180 C   0  0  0  0  0
  -13.4690   -6.1870   10.0890 C   0  0  0  0  0
  -12.1600   -5.6780   10.1020 C   0  0  0  0  0
  -11.1390   -6.2790    9.3600 C   0  0  0  0  0
   -9.3690   -8.0080    7.5380 C   0  0  0  0  0
   -8.5690   -9.1470    7.6630 C   0  0  0  0  0
   -7.1920   -9.0840    7.4430 C   0  0  0  0  0
   -6.5890   -7.8740    7.0880 C   0  0  0  0  0
   -7.3820   -6.7210    6.9490 C   0  0  0  0  0
   -8.7680   -6.7900    7.1700 C   0  0  0  0  0
   -5.0710   -7.8710    6.8660 C   0  0  0  0  0
  -11.0203   -9.8872    6.5518 H   0  0  0  0  0
  -14.2739  -10.3731    8.1767 H   0  0  0  0  0
  -13.4169  -10.7816    6.6290 H   0  0  0  0  0
  -15.1077   -8.4481    6.9970 H   0  0  0  0  0
  -15.6566   -9.9749    6.3947 H   0  0  0  0  0
  -14.7321   -9.7339    4.4493 H   0  0  0  0  0
  -13.4886   -8.5893    5.1168 H   0  0  0  0  0
  -14.9519   -7.4263    3.6334 H   0  0  0  0  0
  -17.3207   -8.2946    5.3524 H   0  0  0  0  0
  -16.9429   -8.8738    3.6886 H   0  0  0  0  0
  -18.7357   -7.0853    3.8318 H   0  0  0  0  0
  -17.3228   -6.6806    2.7718 H   0  0  0  0  0
  -17.9184   -5.6333    5.5697 H   0  0  0  0  0
  -17.8878   -4.7011    4.0266 H   0  0  0  0  0
  -15.8189   -4.3323    5.4096 H   0  0  0  0  0
  -15.4564   -5.0794    3.8297 H   0  0  0  0  0
  -14.2000   -6.2091    5.7159 H   0  0  0  0  0
  -15.7348   -6.6160    6.4824 H   0  0  0  0  0
  -14.8287   -7.6935    9.2972 H   0  0  0  0  0
  -14.2349   -5.7020   10.6942 H   0  0  0  0  0
  -11.9357   -4.7966   10.7028 H   0  0  0  0  0
  -10.1196   -5.8939    9.3837 H   0  0  0  0  0
   -9.0266  -10.0978    7.9361 H   0  0  0  0  0
   -6.5841   -9.9826    7.5485 H   0  0  0  0  0
   -6.9214   -5.7734    6.6697 H   0  0  0  0  0
   -9.3806   -5.8957    7.0558 H   0  0  0  0  0
   -4.5704   -8.1825    7.7828 H   0  0  0  0  0
   -4.8214   -8.5625    6.0612 H   0  0  0  0  0
   -4.7464   -6.8659    6.5968 H   0  0  0  0  0
  1  2  4  0  0  0
  1  5  4  0  0  0
  1 19  1  0  0  0
  2  3  4  0  0  0
  2 18  4  0  0  0
  3  4  4  0  0  0
  3 15  4  0  0  0
  4  5  4  0  0  0
  4  6  1  0  0  0
  6  7  1  0  0  0
  7  8  1  0  0  0
  8  9  1  0  0  0
  9 10  1  0  0  0
  9 14  1  0  0  0
 10 11  1  0  0  0
 11 12  1  0  0  0
 12 13  1  0  0  0
 13 14  1  0  0  0
 15 16  4  0  0  0
 16 17  4  0  0  0
 17 18  4  0  0  0
 19 20  4  0  0  0
 19 24  4  0  0  0
 20 21  4  0  0  0
 21 22  4  0  0  0
 22 23  4  0  0  0
 22 25  1  0  0  0
 23 24  4  0  0  0
  5 26  1  0  0  0
  6 27  1  0  0  0
  6 28  1  0  0  0
  7 29  1  0  0  0
  7 30  1  0  0  0
  8 31  1  0  0  0
  8 32  1  0  0  0
  9 33  1  0  0  0
 10 34  1  0  0  0
 10 35  1  0  0  0
 11 36  1  0  0  0
 11 37  1  0  0  0
 12 38  1  0  0  0
 12 39  1  0  0  0
 13 40  1  0  0  0
 13 41  1  0  0  0
 14 42  1  0  0  0
 14 43  1  0  0  0
 15 44  1  0  0  0
 16 45  1  0  0  0
 17 46  1  0  0  0
 18 47  1  0  0  0
 20 48  1  0  0  0
 21 49  1  0  0  0
 23 50  1  0  0  0
 24 51  1  0  0  0
 25 52  1  0  0  0
 25 53  1  0  0  0
 25 54  1  0  0  0
M  END
$$$$
