### 
### Created by X-TOOL on Mon Sep 10 21:12:56 2018
### 

@<TRIPOS>MOLECULE
2qpj_ligand
   73    74     1     0     0
SMALL
GAST_HUCK


@<TRIPOS>ATOM
      1 C1         26.7960   50.8820   31.3780 C.3       1 I20        -0.0253
      2 C2         26.2050   50.0660   30.2300 C.3       1 I20         0.1036
      3 O5         24.2910   48.4160   29.5940 O.co2     1 I20        -0.6175
      4 C7         24.8460   48.5540   32.0420 C.3       1 I20         0.0370
      5 C8         23.6360   48.2430   32.9010 C.3       1 I20         0.0741
      6 C9         23.8280   46.9640   33.7170 C.3       1 I20         0.0021
      7 C10        23.3770   49.3880   33.8340 C.2       1 I20         0.1842
      8 C11        22.6180   46.6560   34.5830 C.ar      1 I20        -0.0405
      9 C12        22.6740   46.8380   35.9620 C.ar      1 I20        -0.0602
     10 C13        21.5670   46.5400   36.7580 C.ar      1 I20        -0.0686
     11 C14        20.3930   46.0660   36.1890 C.ar      1 I20        -0.0687
     12 C15        20.3360   45.8880   34.8130 C.ar      1 I20        -0.0686
     13 C16        21.4450   46.1770   34.0200 C.ar      1 I20        -0.0602
     14 C27        25.1750   51.0460   25.9240 C.3       1 I20         0.0247
     15 N29        26.4870   50.1680   24.1380 N.4       1 I20         0.2380
     16 C30        26.5920   50.5130   27.8970 C.2       1 I20         0.1777
     17 C32        26.4240   51.4310   26.7090 C.3       1 I20         0.0446
     18 C35        24.2860   50.9160   35.4740 C.3       1 I20         0.0915
     19 NZ         26.6190   56.1920   22.8970 N.1       1 I20        -0.3011
     20 CE         27.0060   55.0960   22.7310 C.1       1 I20         0.1184
     21 CD         27.4810   53.8570   22.5450 C.3       1 I20         0.1685
     22 CG         28.6830   53.5900   21.7400 C.3       1 I20        -0.0031
     23 CB         28.6850   51.9510   21.4740 C.3       1 I20        -0.0283
     24 CA         27.6150   51.3850   22.5400 C.3       1 I20         0.0366
     25 N          26.9210   52.5720   23.0640 N.am      1 I20        -0.2419
     26 C          25.8780   52.4860   24.0200 C.2       1 I20         0.2289
     27 O          25.3870   53.4860   24.5150 O.2       1 I20        -0.3906
     28 C28        25.4250   51.1200   24.4210 C.3       1 I20         0.0672
     29 O31        27.1920   49.4560   27.7810 O.2       1 I20        -0.3970
     30 N3         26.0600   50.9080   29.0510 N.am      1 I20        -0.2684
     31 P4         24.6650   49.4170   30.6560 P.3       1 I20         0.0130
     32 O6         23.7260   50.5600   30.9520 O.co2     1 I20        -0.6175
     33 N34        24.4470   49.9240   34.4160 N.am      1 I20        -0.2713
     34 C37        25.2400   52.0490   35.2530 C.2       1 I20         0.0598
     35 O39        25.0200   53.1410   35.7630 O.co2     1 I20        -0.5666
     36 O38        26.2330   51.8760   34.5530 O.co2     1 I20        -0.5666
     37 C36        24.5360   50.2830   36.8390 C.3       1 I20        -0.0300
     38 O33        22.2340   49.7760   34.0280 O.2       1 I20        -0.3964
     39 H1         27.7756   51.2819   31.0772 H         1 I20         0.0268
     40 H2         26.9185   50.2375   32.2609 H         1 I20         0.0268
     41 H3         26.1196   51.7143   31.6225 H         1 I20         0.0268
     42 H4         26.8885   49.2359   29.9981 H         1 I20         0.0762
     43 H5         25.2926   47.5891   31.7600 H         1 I20         0.0495
     44 H6         25.5506   49.1131   32.6752 H         1 I20         0.0495
     45 H7         22.7646   48.1115   32.2427 H         1 I20         0.0576
     46 H8         24.7079   47.0851   34.3659 H         1 I20         0.0454
     47 H9         23.9942   46.1237   33.0269 H         1 I20         0.0454
     48 H10        23.5821   47.2131   36.4199 H         1 I20         0.0557
     49 H11        21.6246   46.6801   37.8314 H         1 I20         0.0599
     50 H12        19.5337   45.8382   36.8094 H         1 I20         0.0559
     51 H13        19.4247   45.5226   34.3536 H         1 I20         0.0599
     52 H14        21.3897   46.0252   32.9481 H         1 I20         0.0557
     53 H15        24.3591   51.7355   26.1866 H         1 I20         0.0370
     54 H16        24.8865   50.0183   26.1898 H         1 I20         0.0370
     55 H17        26.6924   50.1773   23.1512 H         1 I20         0.2015
     56 H18        26.1913   49.2438   24.4109 H         1 I20         0.2015
     57 H19        27.3135   50.4229   24.6556 H         1 I20         0.2015
     58 H20        26.3272   52.4685   27.0614 H         1 I20         0.0506
     59 H21        27.3051   51.3462   26.0559 H         1 I20         0.0506
     60 H22        23.2570   51.3038   35.4453 H         1 I20         0.0723
     61 H23        28.0771   53.9831   23.4608 H         1 I20         0.0863
     62 H24        29.5876   53.8913   22.2885 H         1 I20         0.0310
     63 H25        28.6348   54.1341   20.7852 H         1 I20         0.0310
     64 H26        29.6828   51.5258   21.6573 H         1 I20         0.0286
     65 H27        28.3717   51.7209   20.4450 H         1 I20         0.0286
     66 H28        28.1275   50.8489   23.3523 H         1 I20         0.0523
     67 H29        26.9015   50.7083   22.0470 H         1 I20         0.0523
     68 H30        24.5104   50.8561   23.8698 H         1 I20         0.1100
     69 H31        25.5652   51.7751   29.1080 H         1 I20         0.1869
     70 H32        25.3634   49.6464   34.1277 H         1 I20         0.1875
     71 H33        24.4108   51.0432   37.6241 H         1 I20         0.0270
     72 H34        25.5601   49.8832   36.8758 H         1 I20         0.0270
     73 H35        23.8174   49.4662   37.0016 H         1 I20         0.0270
@<TRIPOS>BOND
     1    2    1 1  
     2   30    2 1  
     3    2   31 1  
     4   31    3 ar 
     5    4    5 1  
     6   31    4 1  
     7    5    6 1  
     8    5    7 1  
     9    6    8 1  
    10    7   33 am 
    11    7   38 2  
    12    8    9 ar 
    13    8   13 ar 
    14    9   10 ar 
    15   10   11 ar 
    16   12   11 ar 
    17   13   12 ar 
    18   14   17 1  
    19   28   14 1  
    20   28   15 1  
    21   17   16 1  
    22   16   29 2  
    23   16   30 am 
    24   33   18 1  
    25   18   34 1  
    26   18   37 1  
    27   20   19 3  
    28   21   20 1  
    29   21   22 1  
    30   25   21 1  
    31   23   22 1  
    32   24   23 1  
    33   25   24 1  
    34   26   25 am 
    35   26   27 2  
    36   26   28 1  
    37   31   32 ar 
    38   34   35 ar 
    39   34   36 ar 
    40    1   39 1  
    41    1   40 1  
    42    1   41 1  
    43    2   42 1  
    44    4   43 1  
    45    4   44 1  
    46    5   45 1  
    47    6   46 1  
    48    6   47 1  
    49    9   48 1  
    50   10   49 1  
    51   11   50 1  
    52   12   51 1  
    53   13   52 1  
    54   14   53 1  
    55   14   54 1  
    56   15   55 1  
    57   15   56 1  
    58   15   57 1  
    59   17   58 1  
    60   17   59 1  
    61   18   60 1  
    62   21   61 1  
    63   22   62 1  
    64   22   63 1  
    65   23   64 1  
    66   23   65 1  
    67   24   66 1  
    68   24   67 1  
    69   28   68 1  
    70   30   69 1  
    71   33   70 1  
    72   37   71 1  
    73   37   72 1  
    74   37   73 1  
@<TRIPOS>SUBSTRUCTURE
     1 I20         1

