2qpj_ligand
  -I-interpret- 

 75 76  0  0  0  0  0  0  0  0999 V2000
   26.7960   50.8820   31.3780 C   0  0  0  0  0
   26.2050   50.0660   30.2300 C   0  0  0  0  0
   24.2910   48.4160   29.5940 O   0  0  0  0  0
   24.8460   48.5540   32.0420 C   0  0  0  0  0
   23.6360   48.2430   32.9010 C   0  0  0  0  0
   23.8280   46.9640   33.7170 C   0  0  0  0  0
   23.3770   49.3880   33.8340 C   0  0  0  0  0
   22.6180   46.6560   34.5830 C   0  0  0  0  0
   22.6740   46.8380   35.9620 C   0  0  0  0  0
   21.5670   46.5400   36.7580 C   0  0  0  0  0
   20.3930   46.0660   36.1890 C   0  0  0  0  0
   20.3360   45.8880   34.8130 C   0  0  0  0  0
   21.4450   46.1770   34.0200 C   0  0  0  0  0
   25.1750   51.0460   25.9240 C   0  0  0  0  0
   26.4870   50.1680   24.1380 N   0  3  0  0  0
   26.5920   50.5130   27.8970 C   0  0  0  0  0
   26.4240   51.4310   26.7090 C   0  0  0  0  0
   24.2860   50.9160   35.4740 C   0  0  0  0  0
   26.6190   56.1920   22.8970 N   0  0  0  0  0
   27.0060   55.0960   22.7310 C   0  0  0  0  0
   27.4810   53.8570   22.5450 C   0  0  0  0  0
   28.6830   53.5900   21.7400 C   0  0  0  0  0
   28.6850   51.9510   21.4740 C   0  0  0  0  0
   27.6150   51.3850   22.5400 C   0  0  0  0  0
   26.9210   52.5720   23.0640 N   0  0  0  0  0
   25.8780   52.4860   24.0200 C   0  0  0  0  0
   25.3870   53.4860   24.5150 O   0  0  0  0  0
   25.4250   51.1200   24.4210 C   0  0  0  0  0
   27.1920   49.4560   27.7810 O   0  0  0  0  0
   26.0600   50.9080   29.0510 N   0  0  0  0  0
   24.6650   49.4170   30.6560 P   0  0  0  0  0
   23.7260   50.5600   30.9520 O   0  0  0  0  0
   24.4470   49.9240   34.4160 N   0  0  0  0  0
   25.2400   52.0490   35.2530 C   0  0  0  0  0
   25.0200   53.1410   35.7630 O   0  0  0  0  0
   26.2330   51.8760   34.5530 O   0  0  0  0  0
   24.5360   50.2830   36.8390 C   0  0  0  0  0
   22.2340   49.7760   34.0280 O   0  0  0  0  0
   27.7737   51.2644   31.0846 H   0  0  0  0  0
   26.1327   51.7156   31.6087 H   0  0  0  0  0
   26.9019   50.2463   32.2571 H   0  0  0  0  0
   26.8843   49.2403   30.0182 H   0  0  0  0  0
   25.2055   47.5792   31.7124 H   0  0  0  0  0
   25.4765   49.1798   32.6737 H   0  0  0  0  0
   22.7866   48.0933   32.2345 H   0  0  0  0  0
   24.6893   47.1021   34.3706 H   0  0  0  0  0
   23.9715   46.1352   33.0238 H   0  0  0  0  0
   23.5871   47.2152   36.4225 H   0  0  0  0  0
   21.6249   46.6809   37.8373 H   0  0  0  0  0
   19.5290   45.8370   36.8128 H   0  0  0  0  0
   19.4197   45.5206   34.3510 H   0  0  0  0  0
   21.3894   46.0243   32.9422 H   0  0  0  0  0
   24.3753   51.7414   26.1788 H   0  0  0  0  0
   24.9031   50.0225   26.1820 H   0  0  0  0  0
   26.6940   50.1783   23.1393 H   0  0  0  0  0
   27.3227   50.4270   24.6623 H   0  0  0  0  0
   26.1867   49.2333   24.4146 H   0  0  0  0  0
   26.3237   52.4577   27.0609 H   0  0  0  0  0
   27.2960   51.3419   26.0611 H   0  0  0  0  0
   23.2644   51.2952   35.4490 H   0  0  0  0  0
   26.8754   54.6594   22.9663 H   0  0  0  0  0
   29.5880   53.9117   22.2553 H   0  0  0  0  0
   28.6673   54.1464   20.8028 H   0  0  0  0  0
   29.6735   51.5111   21.6057 H   0  0  0  0  0
   28.4209   51.6975   20.4473 H   0  0  0  0  0
   28.1022   50.8220   23.3361 H   0  0  0  0  0
   26.9188   50.6863   22.0762 H   0  0  0  0  0
   24.5101   50.8979   23.8716 H   0  0  0  0  0
   25.5553   51.7925   29.1091 H   0  0  0  0  0
   24.0994   51.1078   31.6464 H   0  0  0  0  0
   25.3817   49.6408   34.1219 H   0  0  0  0  0
   26.2473   50.9692   34.2383 H   0  0  0  0  0
   23.8234   49.4738   36.9988 H   0  0  0  0  0
   25.5510   49.8872   36.8741 H   0  0  0  0  0
   24.4116   51.0372   37.6161 H   0  0  0  0  0
  2  1  1  0  0  0
 30  2  1  0  0  0
  2 31  1  0  0  0
 31  3  2  0  0  0
  4  5  1  0  0  0
 31  4  1  0  0  0
  5  6  1  0  0  0
  5  7  1  0  0  0
  6  8  1  0  0  0
  7 33  1  0  0  0
  7 38  2  0  0  0
  8  9  4  0  0  0
  8 13  4  0  0  0
  9 10  4  0  0  0
 10 11  4  0  0  0
 12 11  4  0  0  0
 13 12  4  0  0  0
 14 17  1  0  0  0
 28 14  1  0  0  0
 28 15  1  0  0  0
 17 16  1  0  0  0
 16 29  2  0  0  0
 16 30  1  0  0  0
 33 18  1  0  0  0
 18 34  1  0  0  0
 18 37  1  0  0  0
 20 19  3  0  0  0
 21 20  1  0  0  0
 21 22  1  0  0  0
 25 21  1  0  0  0
 23 22  1  0  0  0
 24 23  1  0  0  0
 25 24  1  0  0  0
 26 25  1  0  0  0
 26 27  2  0  0  0
 26 28  1  0  0  0
 31 32  1  0  0  0
 34 35  2  0  0  0
 34 36  1  0  0  0
  1 39  1  0  0  0
  1 40  1  0  0  0
  1 41  1  0  0  0
  2 42  1  0  0  0
  4 43  1  0  0  0
  4 44  1  0  0  0
  5 45  1  0  0  0
  6 46  1  0  0  0
  6 47  1  0  0  0
  9 48  1  0  0  0
 10 49  1  0  0  0
 11 50  1  0  0  0
 12 51  1  0  0  0
 13 52  1  0  0  0
 14 53  1  0  0  0
 14 54  1  0  0  0
 15 55  1  0  0  0
 15 56  1  0  0  0
 15 57  1  0  0  0
 17 58  1  0  0  0
 17 59  1  0  0  0
 18 60  1  0  0  0
 21 61  1  0  0  0
 22 62  1  0  0  0
 22 63  1  0  0  0
 23 64  1  0  0  0
 23 65  1  0  0  0
 24 66  1  0  0  0
 24 67  1  0  0  0
 28 68  1  0  0  0
 30 69  1  0  0  0
 32 70  1  0  0  0
 33 71  1  0  0  0
 36 72  1  0  0  0
 37 73  1  0  0  0
 37 74  1  0  0  0
 37 75  1  0  0  0
M  END
$$$$
