3ip9_ligand
  -I-interpret- 

 17 16  0  0  0  0  0  0  0  0999 V2000
   23.2710   20.8850   16.0950 N   0  3  0  0  0
   23.2420   19.5810   16.7240 C   0  0  0  0  0
   23.0550   19.5790   18.2340 C   0  0  0  0  0
   23.7890   18.4570   18.9450 C   0  0  0  0  0
   23.1120   17.0970   19.0140 C   0  0  0  0  0
   23.2950   16.4220   20.2110 O   0  0  0  0  0
   22.8190   16.4840   18.0250 O   0  0  0  0  0
   23.3998   20.7733   15.0893 H   0  0  0  0  0
   22.3905   21.3675   16.2747 H   0  0  0  0  0
   24.0431   21.4295   16.4794 H   0  0  0  0  0
   24.2136   19.1253   16.5333 H   0  0  0  0  0
   22.3825   19.0566   16.3064 H   0  0  0  0  0
   21.9910   19.4434   18.4280 H   0  0  0  0  0
   23.4578   20.5190   18.6111 H   0  0  0  0  0
   23.8883   18.7848   19.9798 H   0  0  0  0  0
   24.7022   18.2981   18.3714 H   0  0  0  0  0
   23.5235   17.0505   20.8998 H   0  0  0  0  0
  1  2  1  0  0  0
  2  3  1  0  0  0
  3  4  1  0  0  0
  4  5  1  0  0  0
  5  6  1  0  0  0
  5  7  2  0  0  0
  1  8  1  0  0  0
  1  9  1  0  0  0
  1 10  1  0  0  0
  2 11  1  0  0  0
  2 12  1  0  0  0
  3 13  1  0  0  0
  3 14  1  0  0  0
  4 15  1  0  0  0
  4 16  1  0  0  0
  6 17  1  0  0  0
M  END
$$$$
