2o4l_ligand
  -I-interpret- 

 75 78  0  0  0  0  0  0  0  0999 V2000
  -16.0880   22.0460   17.0640 O   0  0  0  0  0
  -17.3050   21.3080   17.2500 C   0  0  0  0  0
  -17.2570   19.9700   17.8440 C   0  0  0  0  0
  -16.0410   19.4140   18.0920 C   0  0  0  0  0
  -14.7450   20.1290   17.7510 C   0  0  0  0  0
  -14.8580   21.6540   17.6830 C   0  0  0  0  0
  -18.3210   21.8640   16.8750 O   0  0  0  0  0
  -15.9190   18.1980   18.6100 O   0  0  0  0  0
  -14.7790   22.2010   19.1190 C   0  0  0  0  0
  -14.9540   23.7160   19.2320 C   0  0  0  0  0
  -14.8230   24.1530   20.6710 C   0  0  0  0  0
  -13.7470   22.2220   16.7960 C   0  0  0  0  0
  -13.8150   21.7920   15.3290 C   0  0  0  0  0
  -12.7100   22.4940   14.5620 C   0  0  0  0  0
  -11.4090   21.9960   14.6290 C   0  0  0  0  0
  -10.3780   22.6300   13.9420 C   0  0  0  0  0
  -10.6470   23.7590   13.1720 C   0  0  0  0  0
  -11.9520   24.2610   13.0980 C   0  0  0  0  0
  -12.9830   23.6270   13.7910 C   0  0  0  0  0
  -18.5930   19.2740   18.0760 C   0  0  0  0  0
  -18.6860   18.4680   19.3850 C   0  0  0  0  0
  -18.5710   19.3060   20.6440 C   0  0  0  0  0
  -18.9780   18.4390   16.8780 C   0  0  0  0  0
  -18.0340   18.0090   15.9410 C   0  0  0  0  0
  -18.4250   17.2430   14.8460 C   0  0  0  0  0
  -19.7590   16.8950   14.6730 C   0  0  0  0  0
  -20.7190   17.3000   15.5930 C   0  0  0  0  0
  -22.0280   16.9480   15.4050 N   0  0  0  0  0
  -20.3210   18.0740   16.6870 C   0  0  0  0  0
  -22.6400   15.5980   16.0560 S   0  0  0  0  0
  -21.7500   14.5110   15.6780 O   0  0  0  0  0
  -24.0140   15.4550   15.6110 O   0  0  0  0  0
  -22.5560   15.8920   17.6470 C   0  0  0  0  0
  -21.5050   15.4150   18.3750 N   0  0  0  0  0
  -21.3790   15.6760   19.6930 C   0  0  0  0  0
  -22.3150   16.4520   20.3730 C   0  0  0  0  0
  -23.3950   16.9690   19.6480 C   0  0  0  0  0
  -23.5280   16.6890   18.2820 C   0  0  0  0  0
  -22.1310   16.7670   21.8380 C   0  0  0  0  0
  -21.4310   15.8570   22.4940 F   0  0  0  0  0
  -23.2750   16.9800   22.4520 F   0  0  0  0  0
  -21.4210   17.8850   21.8740 F   0  0  0  0  0
  -14.4442   19.7876   16.7605 H   0  0  0  0  0
  -14.0353   19.8975   18.5452 H   0  0  0  0  0
  -14.9881   17.9856   18.7092 H   0  0  0  0  0
  -13.7832   21.9663   19.4951 H   0  0  0  0  0
  -15.5941   21.7434   19.6796 H   0  0  0  0  0
  -15.9442   23.9880   18.8664 H   0  0  0  0  0
  -14.1831   24.2083   18.6391 H   0  0  0  0  0
  -15.5887   23.6602   21.2702 H   0  0  0  0  0
  -13.8360   23.8795   21.0440 H   0  0  0  0  0
  -14.9501   25.2337   20.7342 H   0  0  0  0  0
  -12.8030   21.8479   17.1922 H   0  0  0  0  0
  -13.8515   23.3068   16.8132 H   0  0  0  0  0
  -14.7844   22.0614   14.9097 H   0  0  0  0  0
  -13.6879   20.7120   15.2544 H   0  0  0  0  0
  -11.1987   21.1061   15.2222 H   0  0  0  0  0
   -9.3609   22.2434   14.0065 H   0  0  0  0  0
   -9.8417   24.2517   12.6271 H   0  0  0  0  0
  -12.1621   25.1471   12.4989 H   0  0  0  0  0
  -14.0000   24.0146   13.7313 H   0  0  0  0  0
  -19.3200   20.0767   18.1997 H   0  0  0  0  0
  -17.8517   17.7665   19.3895 H   0  0  0  0  0
  -19.6687   17.9968   19.4022 H   0  0  0  0  0
  -17.6086   19.8177   20.6517 H   0  0  0  0  0
  -19.3752   20.0415   20.6640 H   0  0  0  0  0
  -18.6469   18.6589   21.5178 H   0  0  0  0  0
  -16.9847   18.2752   16.0684 H   0  0  0  0  0
  -17.6806   16.9146   14.1206 H   0  0  0  0  0
  -20.0550   16.2998   13.8091 H   0  0  0  0  0
  -22.6308   17.5489   14.8429 H   0  0  0  0  0
  -21.0698   18.4017   17.4082 H   0  0  0  0  0
  -20.5261   15.2707   20.2375 H   0  0  0  0  0
  -24.1359   17.5923   20.1487 H   0  0  0  0  0
  -24.3732   17.0830   17.7176 H   0  0  0  0  0
  1  2  1  0  0  0
  1  6  1  0  0  0
  2  3  1  0  0  0
  2  7  2  0  0  0
  3  4  2  0  0  0
  3 20  1  0  0  0
  4  5  1  0  0  0
  4  8  1  0  0  0
  5  6  1  0  0  0
  6  9  1  0  0  0
  6 12  1  0  0  0
  9 10  1  0  0  0
 10 11  1  0  0  0
 12 13  1  0  0  0
 13 14  1  0  0  0
 14 15  4  0  0  0
 14 19  4  0  0  0
 15 16  4  0  0  0
 16 17  4  0  0  0
 17 18  4  0  0  0
 18 19  4  0  0  0
 20 21  1  0  0  0
 20 23  1  0  0  0
 21 22  1  0  0  0
 23 24  4  0  0  0
 23 29  4  0  0  0
 24 25  4  0  0  0
 25 26  4  0  0  0
 26 27  4  0  0  0
 27 28  1  0  0  0
 27 29  4  0  0  0
 28 30  1  0  0  0
 30 31  2  0  0  0
 30 32  2  0  0  0
 30 33  1  0  0  0
 33 34  4  0  0  0
 33 38  4  0  0  0
 34 35  4  0  0  0
 35 36  4  0  0  0
 36 37  4  0  0  0
 36 39  1  0  0  0
 37 38  4  0  0  0
 39 40  1  0  0  0
 39 41  1  0  0  0
 39 42  1  0  0  0
  5 43  1  0  0  0
  5 44  1  0  0  0
  8 45  1  0  0  0
  9 46  1  0  0  0
  9 47  1  0  0  0
 10 48  1  0  0  0
 10 49  1  0  0  0
 11 50  1  0  0  0
 11 51  1  0  0  0
 11 52  1  0  0  0
 12 53  1  0  0  0
 12 54  1  0  0  0
 13 55  1  0  0  0
 13 56  1  0  0  0
 15 57  1  0  0  0
 16 58  1  0  0  0
 17 59  1  0  0  0
 18 60  1  0  0  0
 19 61  1  0  0  0
 20 62  1  0  0  0
 21 63  1  0  0  0
 21 64  1  0  0  0
 22 65  1  0  0  0
 22 66  1  0  0  0
 22 67  1  0  0  0
 24 68  1  0  0  0
 25 69  1  0  0  0
 26 70  1  0  0  0
 28 71  1  0  0  0
 29 72  1  0  0  0
 35 73  1  0  0  0
 37 74  1  0  0  0
 38 75  1  0  0  0
M  END
$$$$
