6g2r_ligand
  -I-interpret- 

 45 47  0  0  0  0  0  0  0  0999 V2000
    7.1310    6.5140    1.6190 C   0  0  0  0  0
    5.9450    6.1300    2.4820 C   0  0  0  0  0
    5.4620    4.7450    2.1110 C   0  0  0  0  0
    7.5500    7.9130    2.0160 C   0  0  0  0  0
    6.7190    7.4630    4.2860 C   0  0  0  0  0
    7.9320    7.9010    3.4810 C   0  0  0  0  0
    4.4320    8.1820    4.5920 C   0  0  0  0  0
    4.0870    7.1690    5.4660 C   0  0  0  0  0
    2.7950    7.1410    5.9830 C   0  0  0  0  0
    1.8030    8.0180    5.5310 C   0  0  0  0  0
    2.2110    9.0700    4.7190 C   0  0  0  0  0
    3.5060    9.1420    4.2440 C   0  0  0  0  0
    0.5010    8.0600    6.0550 C   0  0  0  0  0
    0.1480    7.4430    7.2570 C   0  0  0  0  0
   -1.1660    7.4440    7.7100 C   0  0  0  0  0
   -2.1860    7.9010    6.8970 C   0  0  0  0  0
   -1.8770    8.4000    5.6460 C   0  0  0  0  0
   -0.5600    8.4450    5.2110 C   0  0  0  0  0
   -3.5390    7.8600    7.3340 C   0  0  0  0  0
    1.0270    7.0680    8.0560 F   0  0  0  0  0
   -1.4640    6.9560    8.9330 F   0  0  0  0  0
   -2.8720    8.8530    4.8320 F   0  0  0  0  0
   -0.3700    8.9450    3.9720 F   0  0  0  0  0
   -4.6310    7.8310    7.6780 N   0  0  0  0  0
    5.6560    8.3780    4.0340 O   0  0  0  0  0
    9.0220    6.9890    3.7150 O   0  0  0  0  0
    8.6660    8.3420    1.2300 O   0  0  0  0  0
    6.7210    6.5170    0.2570 O   0  0  0  0  0
    6.2870    6.1480    3.8830 O   0  0  0  0  0
    6.5740    3.9060    2.4150 O   0  0  0  0  0
    3.9430   10.3890    3.1620 Cl  0  0  0  0  0
    7.9562    5.8140    1.7500 H   0  0  0  0  0
    5.1566    6.8616    2.3052 H   0  0  0  0  0
    5.1626    4.6755    1.0652 H   0  0  0  0  0
    4.5633    4.4581    2.6571 H   0  0  0  0  0
    6.7246    8.6042    1.8456 H   0  0  0  0  0
    6.9846    7.4437    5.3430 H   0  0  0  0  0
    8.2524    8.8984    3.7820 H   0  0  0  0  0
    4.8133    6.4058    5.7455 H   0  0  0  0  0
    2.5497    6.4171    6.7601 H   0  0  0  0  0
    1.4978    9.8502    4.4530 H   0  0  0  0  0
    9.7863    7.2681    3.2055 H   0  0  0  0  0
    8.4191    8.3480    0.3023 H   0  0  0  0  0
    6.4546    5.6306    0.0022 H   0  0  0  0  0
    6.3525    2.9953    2.2072 H   0  0  0  0  0
  2  1  1  0  0  0
  4  1  1  0  0  0
  1 28  1  0  0  0
  2  3  1  0  0  0
 29  2  1  0  0  0
  3 30  1  0  0  0
  6  4  1  0  0  0
  4 27  1  0  0  0
  5  6  1  0  0  0
 25  5  1  0  0  0
  5 29  1  0  0  0
  6 26  1  0  0  0
  7  8  4  0  0  0
  7 12  4  0  0  0
  7 25  1  0  0  0
  8  9  4  0  0  0
  9 10  4  0  0  0
 10 11  4  0  0  0
 10 13  1  0  0  0
 11 12  4  0  0  0
 12 31  1  0  0  0
 13 14  4  0  0  0
 13 18  4  0  0  0
 14 15  4  0  0  0
 14 20  1  0  0  0
 15 16  4  0  0  0
 15 21  1  0  0  0
 16 17  4  0  0  0
 16 19  1  0  0  0
 17 18  4  0  0  0
 17 22  1  0  0  0
 18 23  1  0  0  0
 19 24  3  0  0  0
  1 32  1  0  0  0
  2 33  1  0  0  0
  3 34  1  0  0  0
  3 35  1  0  0  0
  4 36  1  0  0  0
  5 37  1  0  0  0
  6 38  1  0  0  0
  8 39  1  0  0  0
  9 40  1  0  0  0
 11 41  1  0  0  0
 26 42  1  0  0  0
 27 43  1  0  0  0
 28 44  1  0  0  0
 30 45  1  0  0  0
M  END
$$$$
