3n1w_ligand
  -I-interpret- 

 21 22  0  0  0  0  0  0  0  0999 V2000
    1.8190   73.6730   28.3820 Cl  0  0  0  0  0
    2.1990   75.3580   28.2910 C   0  0  0  0  0
    3.5410   75.7690   28.4230 C   0  0  0  0  0
    3.7950   77.1350   28.3030 C   0  0  0  0  0
    2.7840   78.0600   28.0790 C   0  0  0  0  0
    3.2650   79.6710   27.9700 S   0  0  0  0  0
    4.9790   79.1280   28.1970 C   0  0  0  0  0
    5.1240   77.8050   28.3500 C   0  0  0  0  0
    6.4400   77.0470   28.4890 C   0  0  0  0  0
    6.7500   76.1200   27.2700 C   0  0  0  0  0
    5.9150   75.7910   26.4370 O   0  0  0  0  0
    8.0070   75.6450   27.1610 O   0  0  0  0  0
    1.4440   77.6780   27.9430 C   0  0  0  0  0
    1.1610   76.3010   28.0500 C   0  0  0  0  0
    4.3417   75.0534   28.6099 H   0  0  0  0  0
    5.8213   79.8198   28.2081 H   0  0  0  0  0
    6.3643   76.4144   29.3734 H   0  0  0  0  0
    7.2400   77.7845   28.5543 H   0  0  0  0  0
    8.5412   75.9885   27.8808 H   0  0  0  0  0
    0.6570   78.4103   27.7630 H   0  0  0  0  0
    0.1329   75.9540   27.9467 H   0  0  0  0  0
  1  2  1  0  0  0
  2  3  4  0  0  0
  2 14  4  0  0  0
  3  4  4  0  0  0
  4  5  4  0  0  0
  4  8  4  0  0  0
  5  6  4  0  0  0
  5 13  4  0  0  0
  6  7  4  0  0  0
  7  8  4  0  0  0
  8  9  1  0  0  0
  9 10  1  0  0  0
 10 11  2  0  0  0
 10 12  1  0  0  0
 13 14  4  0  0  0
  3 15  1  0  0  0
  7 16  1  0  0  0
  9 17  1  0  0  0
  9 18  1  0  0  0
 12 19  1  0  0  0
 13 20  1  0  0  0
 14 21  1  0  0  0
M  END
$$$$
