4w9n_ligand
  -I-interpret- 

 24 25  0  0  0  0  0  0  0  0999 V2000
  -34.8170    4.5180   45.0830 C   0  0  0  0  0
  -34.6480    4.3130   43.7290 C   0  0  0  0  0
  -34.4040    3.5530   45.9880 C   0  0  0  0  0
  -33.8090    2.3790   45.5320 C   0  0  0  0  0
  -33.6490    2.1730   44.1690 C   0  0  0  0  0
  -34.0640    3.1430   43.2710 C   0  0  0  0  0
  -29.6580   -0.0820   45.6230 C   0  0  0  0  0
  -30.7380   -0.9260   45.7780 C   0  0  0  0  0
  -31.9870   -0.4080   46.0510 C   0  0  0  0  0
  -32.1720    0.9640   46.1620 C   0  0  0  0  0
  -29.8280    1.2890   45.7420 C   0  0  0  0  0
  -31.0810    1.8130   46.0160 C   0  0  0  0  0
  -33.4180    1.4400   46.4440 O   0  0  0  0  0
  -35.1710    5.5340   42.6100 Cl  0  0  0  0  0
  -28.0970   -0.7590   45.2820 Cl  0  0  0  0  0
  -33.3300   -1.4880   46.2420 Cl  0  0  0  0  0
  -34.5760    3.7660   47.3210 O   0  0  0  0  0
  -35.2757    5.4396   45.4411 H   0  0  0  0  0
  -33.1977    1.2498   43.8056 H   0  0  0  0  0
  -33.9306    2.9852   42.2008 H   0  0  0  0  0
  -30.6043   -2.0037   45.6846 H   0  0  0  0  0
  -28.9744    1.9557   45.6198 H   0  0  0  0  0
  -31.2112    2.8905   46.1170 H   0  0  0  0  0
  -34.2413    3.0109   47.8104 H   0  0  0  0  0
  1  2  4  0  0  0
  3  1  4  0  0  0
  6  2  4  0  0  0
  2 14  1  0  0  0
  4  3  4  0  0  0
  3 17  1  0  0  0
  4  5  4  0  0  0
 13  4  1  0  0  0
  5  6  4  0  0  0
  8  7  4  0  0  0
  7 11  4  0  0  0
  7 15  1  0  0  0
  9  8  4  0  0  0
 10  9  4  0  0  0
  9 16  1  0  0  0
 10 12  4  0  0  0
 10 13  1  0  0  0
 11 12  4  0  0  0
  1 18  1  0  0  0
  5 19  1  0  0  0
  6 20  1  0  0  0
  8 21  1  0  0  0
 11 22  1  0  0  0
 12 23  1  0  0  0
 17 24  1  0  0  0
M  END
$$$$
