5hz5_ligand
  -I-interpret- 

 46 50  0  0  0  0  0  0  0  0999 V2000
  -13.3280    7.3030   -9.8340 C   0  0  0  0  0
  -12.3290    8.2410  -10.4290 C   0  0  0  0  0
  -10.0650    9.0630  -10.5940 C   0  0  0  0  0
  -11.7820   10.0700  -11.9070 C   0  0  0  0  0
  -12.7120    9.1990  -11.3650 C   0  0  0  0  0
  -13.7520    8.8370   -7.9710 C   0  0  0  0  0
  -14.9230    6.6820   -5.7080 C   0  0  0  0  0
  -15.2940    7.7310   -4.6920 C   0  0  0  0  0
  -16.8000    7.8570   -4.5720 C   0  0  0  0  0
  -17.4370    8.0850   -5.9240 C   0  0  0  0  0
  -17.0110    7.0230   -6.9010 C   0  0  0  0  0
  -13.3300    4.4410  -12.2200 C   0  0  0  0  0
  -14.2570    3.5980  -11.6400 C   0  0  0  0  0
  -14.8720    3.9660  -10.4830 C   0  0  0  0  0
  -14.5700    5.1990   -9.8630 C   0  0  0  0  0
  -13.6170    6.0560  -10.4730 C   0  0  0  0  0
  -12.9990    5.6430  -11.6710 C   0  0  0  0  0
  -15.2190    5.5160   -8.7010 N   0  0  0  0  0
  -14.9200    6.6650   -8.1490 C   0  0  0  0  0
  -13.9860    7.5960   -8.6610 C   0  0  0  0  0
  -10.9900    8.1910  -10.0460 C   0  0  0  0  0
  -10.4610   10.0020  -11.5220 C   0  0  0  0  0
  -15.5520    6.9740   -6.9970 N   0  0  0  0  0
  -12.5630    3.9520  -13.7020 Cl  0  0  0  0  0
  -14.6180    9.8540   -7.9250 N   0  0  0  0  0
  -14.0870   10.8470   -7.1840 N   0  0  0  0  0
  -12.9260   10.4280   -6.7950 N   0  0  0  0  0
  -12.6860    9.1740   -7.2620 N   0  0  0  0  0
   -9.0196    9.0068  -10.2905 H   0  0  0  0  0
  -12.0962   10.8121  -12.6409 H   0  0  0  0  0
  -13.7552    9.2637  -11.6741 H   0  0  0  0  0
  -15.2688    5.7099   -5.3566 H   0  0  0  0  0
  -13.8404    6.6778   -5.8344 H   0  0  0  0  0
  -14.8859    8.6897   -5.0121 H   0  0  0  0  0
  -14.8877    7.4406   -3.7231 H   0  0  0  0  0
  -17.0286    8.7083   -3.9309 H   0  0  0  0  0
  -17.1949    6.9319   -4.1521 H   0  0  0  0  0
  -17.1212    9.0574   -6.3019 H   0  0  0  0  0
  -18.5207    8.0463   -5.8131 H   0  0  0  0  0
  -17.4237    7.2572   -7.8823 H   0  0  0  0  0
  -17.3768    6.0559   -6.5560 H   0  0  0  0  0
  -14.4952    2.6422  -12.1066 H   0  0  0  0  0
  -15.6068    3.3011  -10.0290 H   0  0  0  0  0
  -12.2605    6.2819  -12.1552 H   0  0  0  0  0
  -10.6676    7.4574   -9.3070 H   0  0  0  0  0
   -9.7310   10.6889  -11.9501 H   0  0  0  0  0
  1  2  1  0  0  0
  1 16  4  0  0  0
 20  1  4  0  0  0
  2  5  4  0  0  0
  2 21  4  0  0  0
 21  3  4  0  0  0
  3 22  4  0  0  0
  5  4  4  0  0  0
  4 22  4  0  0  0
 20  6  1  0  0  0
  6 25  4  0  0  0
  6 28  4  0  0  0
  7  8  1  0  0  0
 23  7  1  0  0  0
  8  9  1  0  0  0
 10  9  1  0  0  0
 11 10  1  0  0  0
 23 11  1  0  0  0
 13 12  4  0  0  0
 17 12  4  0  0  0
 12 24  1  0  0  0
 14 13  4  0  0  0
 15 14  4  0  0  0
 15 16  4  0  0  0
 18 15  4  0  0  0
 16 17  4  0  0  0
 19 18  4  0  0  0
 19 20  4  0  0  0
 19 23  1  0  0  0
 25 26  4  0  0  0
 26 27  4  0  0  0
 27 28  4  0  0  0
  3 29  1  0  0  0
  4 30  1  0  0  0
  5 31  1  0  0  0
  7 32  1  0  0  0
  7 33  1  0  0  0
  8 34  1  0  0  0
  8 35  1  0  0  0
  9 36  1  0  0  0
  9 37  1  0  0  0
 10 38  1  0  0  0
 10 39  1  0  0  0
 11 40  1  0  0  0
 11 41  1  0  0  0
 13 42  1  0  0  0
 14 43  1  0  0  0
 17 44  1  0  0  0
 21 45  1  0  0  0
 22 46  1  0  0  0
M  END
$$$$
