1sw2_ligand
  -I-interpret- 

 20 19  0  0  0  0  0  0  0  0999 V2000
   14.4560   19.2630   12.7090 N   0  3  0  0  0
   15.3860   18.8190   11.6390 C   0  0  0  0  0
   15.5120   17.2950   11.5620 C   0  0  0  0  0
   16.3830   16.7740   12.1950 O   0  0  0  0  0
   14.7100   16.5320   10.8410 O   0  0  0  0  0
   13.0970   18.8000   12.4060 C   0  0  0  0  0
   14.9070   18.7800   14.0190 C   0  0  0  0  0
   14.4350   20.7400   12.7360 C   0  0  0  0  0
   16.3723   19.2259   11.8622 H   0  0  0  0  0
   14.9924   19.1713   10.6855 H   0  0  0  0  0
   14.0654   17.0828   10.3909 H   0  0  0  0  0
   13.0791   17.7102   12.3982 H   0  0  0  0  0
   12.4102   19.1705   13.1670 H   0  0  0  0  0
   12.7957   19.1766   11.4285 H   0  0  0  0  0
   15.9071   19.1633   14.2215 H   0  0  0  0  0
   14.2198   19.1289   14.7898 H   0  0  0  0  0
   14.9280   17.6902   14.0155 H   0  0  0  0  0
   13.7504   21.0782   13.5138 H   0  0  0  0  0
   15.4377   21.1126   12.9456 H   0  0  0  0  0
   14.1015   21.1151   11.7684 H   0  0  0  0  0
  1  2  1  0  0  0
  1  6  1  0  0  0
  1  7  1  0  0  0
  1  8  1  0  0  0
  2  3  1  0  0  0
  3  4  2  0  0  0
  3  5  1  0  0  0
  2  9  1  0  0  0
  2 10  1  0  0  0
  5 11  1  0  0  0
  6 12  1  0  0  0
  6 13  1  0  0  0
  6 14  1  0  0  0
  7 15  1  0  0  0
  7 16  1  0  0  0
  7 17  1  0  0  0
  8 18  1  0  0  0
  8 19  1  0  0  0
  8 20  1  0  0  0
M  END
$$$$
