5jcj_ligand
  -I-interpret- 

 31 33  0  0  0  0  0  0  0  0999 V2000
    3.9700  -15.0730   15.1360 C   0  0  0  0  0
    2.6920  -15.5520   15.4410 C   0  0  0  0  0
    1.6980  -14.7210   15.8850 O   0  0  0  0  0
    2.4030  -16.9260   15.3420 C   0  0  0  0  0
    1.1180  -17.3100   15.6820 O   0  0  0  0  0
    3.3980  -17.8340   14.9220 C   0  0  0  0  0
    4.6750  -17.3240   14.6000 C   0  0  0  0  0
    4.9820  -15.9410   14.6860 C   0  0  0  0  0
    6.2620  -15.4100   14.4000 C   0  0  0  0  0
    6.5450  -14.2120   15.0070 O   0  0  0  0  0
    7.7670  -13.5820   14.8280 C   0  0  0  0  0
    7.9470  -12.3620   15.4250 C   0  0  0  0  0
    9.1730  -11.7340   15.2780 C   0  0  0  0  0
   10.2010  -12.2770   14.5320 C   0  0  0  0  0
   11.3530  -11.5690   14.4730 O   0  0  0  0  0
   10.0340  -13.5200   13.8950 C   0  0  0  0  0
    8.8060  -14.1900   14.0850 C   0  0  0  0  0
    8.5870  -15.4160   13.4690 C   0  0  0  0  0
    9.4830  -15.9450   12.7650 O   0  0  0  0  0
    7.3120  -15.9820   13.6350 C   0  0  0  0  0
    7.0390  -17.0490   12.8910 O   0  0  0  0  0
    4.1856  -14.0105   15.2486 H   0  0  0  0  0
    0.9001  -15.2321   16.0390 H   0  0  0  0  0
    1.0314  -18.2605   15.5789 H   0  0  0  0  0
    3.1867  -18.9008   14.8480 H   0  0  0  0  0
    5.4514  -18.0162   14.2743 H   0  0  0  0  0
    7.1463  -11.8976   16.0007 H   0  0  0  0  0
    9.3326  -10.7745   15.7699 H   0  0  0  0  0
   11.9898  -12.0406   13.9311 H   0  0  0  0  0
   10.8231  -13.9497   13.2779 H   0  0  0  0  0
    7.8337  -17.3287   12.4308 H   0  0  0  0  0
  1  2  4  0  0  0
  1  8  4  0  0  0
  2  3  1  0  0  0
  2  4  4  0  0  0
  4  5  1  0  0  0
  4  6  4  0  0  0
  6  7  4  0  0  0
  7  8  4  0  0  0
  8  9  1  0  0  0
  9 10  1  0  0  0
  9 20  2  0  0  0
 10 11  1  0  0  0
 11 12  4  0  0  0
 11 17  4  0  0  0
 12 13  4  0  0  0
 13 14  4  0  0  0
 14 15  1  0  0  0
 14 16  4  0  0  0
 16 17  4  0  0  0
 17 18  1  0  0  0
 18 19  2  0  0  0
 18 20  1  0  0  0
 20 21  1  0  0  0
  1 22  1  0  0  0
  3 23  1  0  0  0
  5 24  1  0  0  0
  6 25  1  0  0  0
  7 26  1  0  0  0
 12 27  1  0  0  0
 13 28  1  0  0  0
 15 29  1  0  0  0
 16 30  1  0  0  0
 21 31  1  0  0  0
M  END
$$$$
