3pcj_ligand
  -I-interpret- 

 16 16  0  0  0  0  0  0  0  0999 V2000
   13.3610    9.7970   41.4810 N   0  0  0  0  0
   14.3500    9.5850   40.6410 C   0  0  0  0  0
   15.1420   10.6250   40.1820 C   0  0  0  0  0
   14.8770   11.9410   40.6080 C   0  0  0  0  0
   13.7720   12.1530   41.4500 C   0  0  0  0  0
   13.0390   11.0370   41.8950 C   0  0  0  0  0
   15.7860   13.1060   40.1640 C   0  0  0  0  0
   16.7390   12.8800   39.4340 O   0  0  0  0  0
   15.5690   14.2670   40.5150 O   0  0  0  0  0
   14.5980    8.4430   40.2390 O   0  0  0  0  0
   12.6050    8.7900   41.8880 O   0  0  0  0  0
   15.9650   10.4260   39.4955 H   0  0  0  0  0
   13.4884   13.1611   41.7522 H   0  0  0  0  0
   12.2035   11.1778   42.5807 H   0  0  0  0  0
   14.7943   14.2893   41.0815 H   0  0  0  0  0
   11.9360    9.1179   42.4934 H   0  0  0  0  0
  1 11  1  0  0  0
  1  6  1  0  0  0
  1  2  1  0  0  0
  2 10  2  0  0  0
  2  3  1  0  0  0
  3  4  2  0  0  0
  4  7  1  0  0  0
  4  5  1  0  0  0
  5  6  2  0  0  0
  7  9  1  0  0  0
  7  8  2  0  0  0
  3 12  1  0  0  0
  5 13  1  0  0  0
  6 14  1  0  0  0
  9 15  1  0  0  0
 11 16  1  0  0  0
M  END
$$$$
