4a7b_ligand
  -I-interpret- 

 66 70  0  0  0  0  0  0  0  0999 V2000
   23.9110   14.2050   12.7810 C   0  0  0  0  0
   24.2880   13.6590   13.9850 C   0  0  0  0  0
   23.3660   12.9000   14.6890 C   0  0  0  0  0
   22.0840   12.6880   14.2450 C   0  0  0  0  0
   21.7000   13.2360   13.0350 C   0  0  0  0  0
   22.6330   13.9790   12.3350 C   0  0  0  0  0
   22.1850   14.4810   11.1120 C   0  0  0  0  0
   21.8400   14.8780   10.0370 C   0  0  0  0  0
   21.3920   15.2990    8.7370 C   0  0  0  0  0
   19.8850   15.0890    8.7540 C   0  0  0  0  0
   19.5190   14.2480    7.5690 N   0  3  0  0  0
   19.8790   14.9550    6.2870 C   0  0  0  0  0
   21.4000   15.0780    6.2760 C   0  0  0  0  0
   22.0220   14.5120    7.5660 C   0  0  0  0  0
   21.6320   13.0120    7.6580 C   0  0  0  0  0
   20.0880   12.8560    7.6960 C   0  0  0  0  0
   21.7950   16.6640    8.6780 O   0  0  0  0  0
   23.6460   12.3080   15.8780 O   0  0  0  0  0
   24.2550   12.9870   16.9000 C   0  0  0  0  0
   24.3350   14.3600   17.0040 C   0  0  0  0  0
   24.9580   14.9150   18.1110 C   0  0  0  0  0
   25.4850   14.1000   19.0830 C   0  0  0  0  0
   25.4220   12.7390   18.9790 C   0  0  0  0  0
   24.7890   12.1780   17.8800 C   0  0  0  0  0
   26.2000   14.6530   20.2400 C   0  0  0  0  0
   26.2290   14.0410   21.3000 O   0  0  0  0  0
   26.8850   15.8210   19.8930 N   0  0  0  0  0
   27.3570   16.8950   20.7520 C   0  0  0  0  0
   26.4420   17.2620   21.8930 C   0  0  0  0  0
   26.9780   18.4060   22.7550 C   0  0  0  0  0
   28.0140   17.8530   23.7070 C   0  0  0  0  0
   29.3260   17.5900   22.5720 S   0  0  0  0  0
   30.4500   16.8140   23.0920 O   0  0  0  0  0
   29.3980   18.9400   22.0280 O   0  0  0  0  0
   28.7340   16.5410   21.2380 C   0  0  0  0  0
   24.6096   14.8024   12.1953 H   0  0  0  0  0
   25.2918   13.8197   14.3782 H   0  0  0  0  0
   21.3823   12.0988   14.8353 H   0  0  0  0  0
   20.6931   13.0870   12.6450 H   0  0  0  0  0
   19.3712   16.0492    8.7064 H   0  0  0  0  0
   19.5855   14.5902    9.6757 H   0  0  0  0  0
   18.5073   14.1212    7.5400 H   0  0  0  0  0
   19.4067   15.9360    6.2351 H   0  0  0  0  0
   19.5252   14.3973    5.4199 H   0  0  0  0  0
   21.6602   16.1339    6.2019 H   0  0  0  0  0
   21.7859   14.5106    5.4291 H   0  0  0  0  0
   23.1080   14.6032    7.5870 H   0  0  0  0  0
   22.0541   12.5906    8.5704 H   0  0  0  0  0
   22.0203   12.4898    6.7835 H   0  0  0  0  0
   19.7386   12.2141    6.8873 H   0  0  0  0  0
   19.7642   12.3830    8.6231 H   0  0  0  0  0
   21.5349   17.0370    7.8326 H   0  0  0  0  0
   23.9147   14.9990   16.2274 H   0  0  0  0  0
   25.0297   15.9981   18.2101 H   0  0  0  0  0
   25.8624   12.1042   19.7478 H   0  0  0  0  0
   24.7135   11.0943   17.7909 H   0  0  0  0  0
   27.0811   15.9359   18.8986 H   0  0  0  0  0
   27.3756   17.8006   20.1457 H   0  0  0  0  0
   26.3455   16.3849   22.5329 H   0  0  0  0  0
   25.4951   17.5891   21.4635 H   0  0  0  0  0
   26.1619   18.8581   23.3186 H   0  0  0  0  0
   27.4292   19.1679   22.1194 H   0  0  0  0  0
   27.7016   16.9666   24.2591 H   0  0  0  0  0
   28.2583   18.5041   24.5464 H   0  0  0  0  0
   29.4171   16.6674   20.3981 H   0  0  0  0  0
   28.6908   15.5216   21.6215 H   0  0  0  0  0
  1  2  4  0  0  0
  1  6  4  0  0  0
  2  3  4  0  0  0
  3  4  4  0  0  0
  3 18  1  0  0  0
  4  5  4  0  0  0
  5  6  4  0  0  0
  6  7  1  0  0  0
  7  8  3  0  0  0
  8  9  1  0  0  0
  9 10  1  0  0  0
  9 14  1  0  0  0
  9 17  1  0  0  0
 10 11  1  0  0  0
 11 12  1  0  0  0
 11 16  1  0  0  0
 12 13  1  0  0  0
 13 14  1  0  0  0
 14 15  1  0  0  0
 15 16  1  0  0  0
 18 19  1  0  0  0
 19 20  4  0  0  0
 19 24  4  0  0  0
 20 21  4  0  0  0
 21 22  4  0  0  0
 22 23  4  0  0  0
 22 25  1  0  0  0
 23 24  4  0  0  0
 25 26  2  0  0  0
 25 27  1  0  0  0
 27 28  1  0  0  0
 28 29  1  0  0  0
 28 35  1  0  0  0
 29 30  1  0  0  0
 30 31  1  0  0  0
 31 32  1  0  0  0
 32 33  2  0  0  0
 32 34  2  0  0  0
 32 35  1  0  0  0
  1 36  1  0  0  0
  2 37  1  0  0  0
  4 38  1  0  0  0
  5 39  1  0  0  0
 10 40  1  0  0  0
 10 41  1  0  0  0
 11 42  1  0  0  0
 12 43  1  0  0  0
 12 44  1  0  0  0
 13 45  1  0  0  0
 13 46  1  0  0  0
 14 47  1  0  0  0
 15 48  1  0  0  0
 15 49  1  0  0  0
 16 50  1  0  0  0
 16 51  1  0  0  0
 17 52  1  0  0  0
 20 53  1  0  0  0
 21 54  1  0  0  0
 23 55  1  0  0  0
 24 56  1  0  0  0
 27 57  1  0  0  0
 28 58  1  0  0  0
 29 59  1  0  0  0
 29 60  1  0  0  0
 30 61  1  0  0  0
 30 62  1  0  0  0
 31 63  1  0  0  0
 31 64  1  0  0  0
 35 65  1  0  0  0
 35 66  1  0  0  0
M  END
$$$$
