5a8x_ligand
  -I-interpret- 

 52 55  0  0  0  0  0  0  0  0999 V2000
   27.7150  -21.6670    4.4360 C   0  0  0  0  0
   28.6740  -22.4690    5.2890 C   0  0  0  0  0
   27.4010  -22.0160    3.1510 C   0  0  0  0  0
   27.9170  -23.1500    2.5470 N   0  0  0  0  0
   26.4270  -21.1760    2.3450 C   0  0  0  0  0
   27.9460  -23.2930    6.3450 C   0  0  0  0  0
   28.1440  -23.0720    7.7130 C   0  0  0  0  0
   27.4710  -23.8400    8.6640 C   0  0  0  0  0
   26.5950  -24.8680    8.2380 C   0  0  0  0  0
   26.4160  -25.1010    6.8750 C   0  0  0  0  0
   27.0900  -24.3280    5.9340 C   0  0  0  0  0
   27.1640  -20.5120    5.0630 C   0  0  0  0  0
   26.3630  -19.7680    4.4990 O   0  0  0  0  0
   27.5160  -20.2410    6.3470 O   0  0  0  0  0
   26.7090  -19.2790    7.0500 C   0  0  0  0  0
   27.0330  -19.2880    8.5590 C   0  0  0  0  0
   25.9150  -25.6920    9.1840 C   0  0  0  0  0
   25.3880  -26.3640    9.9330 N   0  0  0  0  0
   29.3540  -23.4700    4.4550 N   0  0  0  0  0
   28.9650  -23.7930    3.1800 C   0  0  0  0  0
   29.7220  -24.7430    2.7240 N   0  0  0  0  0
   30.6180  -25.0880    3.6740 C   0  0  0  0  0
   30.3940  -24.3120    4.7660 C   0  0  0  0  0
   27.4590  -23.7080    1.3350 C   0  0  0  0  0
   28.0790  -23.3780    0.1280 C   0  0  0  0  0
   27.6440  -23.9140   -1.0630 C   0  0  0  0  0
   26.5830  -24.8080   -1.0540 C   0  0  0  0  0
   25.9550  -25.1710    0.1330 C   0  0  0  0  0
   26.3950  -24.6340    1.3330 C   0  0  0  0  0
   24.8110  -26.1620    0.1320 C   0  0  0  0  0
   24.0530  -26.1020   -1.0200 F   0  0  0  0  0
   25.3060  -27.4540    0.2410 F   0  0  0  0  0
   23.9680  -25.8950    1.1850 F   0  0  0  0  0
   29.3507  -21.7472    5.7465 H   0  0  0  0  0
   25.4625  -21.1533    2.8523 H   0  0  0  0  0
   26.8143  -20.1613    2.2526 H   0  0  0  0  0
   26.3072  -21.6123    1.3533 H   0  0  0  0  0
   28.8314  -22.2914    8.0390 H   0  0  0  0  0
   27.6185  -23.6501    9.7271 H   0  0  0  0  0
   25.7443  -25.8932    6.5444 H   0  0  0  0  0
   26.9526  -24.5271    4.8712 H   0  0  0  0  0
   25.6585  -19.5366    6.9150 H   0  0  0  0  0
   26.9194  -18.2864    6.6518 H   0  0  0  0  0
   26.8332  -20.2791    8.9663 H   0  0  0  0  0
   28.0840  -19.0389    8.7051 H   0  0  0  0  0
   26.4098  -18.5524    9.0675 H   0  0  0  0  0
   31.3866  -25.8552    3.5806 H   0  0  0  0  0
   30.9368  -24.3501    5.7105 H   0  0  0  0  0
   28.9205  -22.6852    0.1290 H   0  0  0  0  0
   28.1268  -23.6396   -2.0009 H   0  0  0  0  0
   26.2349  -25.2340   -1.9950 H   0  0  0  0  0
   25.9211  -24.9259    2.2702 H   0  0  0  0  0
  1  2  1  0  0  0
  1  3  2  0  0  0
  1 12  1  0  0  0
  2  6  1  0  0  0
  2 19  1  0  0  0
  3  4  1  0  0  0
  3  5  1  0  0  0
  4 20  1  0  0  0
  4 24  1  0  0  0
  6  7  4  0  0  0
  6 11  4  0  0  0
  7  8  4  0  0  0
  8  9  4  0  0  0
  9 10  4  0  0  0
  9 17  1  0  0  0
 10 11  4  0  0  0
 12 13  2  0  0  0
 12 14  1  0  0  0
 14 15  1  0  0  0
 15 16  1  0  0  0
 17 18  3  0  0  0
 19 20  4  0  0  0
 19 23  4  0  0  0
 20 21  4  0  0  0
 21 22  4  0  0  0
 22 23  4  0  0  0
 24 25  4  0  0  0
 24 29  4  0  0  0
 25 26  4  0  0  0
 26 27  4  0  0  0
 27 28  4  0  0  0
 28 29  4  0  0  0
 28 30  1  0  0  0
 30 31  1  0  0  0
 30 32  1  0  0  0
 30 33  1  0  0  0
  2 34  1  0  0  0
  5 35  1  0  0  0
  5 36  1  0  0  0
  5 37  1  0  0  0
  7 38  1  0  0  0
  8 39  1  0  0  0
 10 40  1  0  0  0
 11 41  1  0  0  0
 15 42  1  0  0  0
 15 43  1  0  0  0
 16 44  1  0  0  0
 16 45  1  0  0  0
 16 46  1  0  0  0
 22 47  1  0  0  0
 23 48  1  0  0  0
 25 49  1  0  0  0
 26 50  1  0  0  0
 27 51  1  0  0  0
 29 52  1  0  0  0
M  END
$$$$
