3u0p_ligand
  -I-interpret- 

 88 87  0  0  0  0  0  0  0  0999 V2000
  -20.5680   53.0630   59.4310 C   0  0  0  0  0
  -19.3830   52.9590   58.4920 C   0  0  0  0  0
  -18.0730   53.0760   59.2590 C   0  0  0  0  0
  -16.8860   52.9990   58.3110 C   0  0  0  0  0
  -15.6710   53.6930   58.9130 C   0  0  0  0  0
  -14.6760   52.7090   59.5130 C   0  0  0  0  0
  -13.3990   53.4690   59.8330 C   0  0  0  0  0
  -12.3420   52.6330   60.5440 C   0  0  0  0  0
  -11.0810   53.4600   60.5280 C   0  0  0  0  0
  -10.7340   54.1180   61.6270 C   0  0  0  0  0
   -9.4850   54.9640   61.6520 C   0  0  0  0  0
   -9.6680   56.0880   62.6670 C   0  0  0  0  0
  -10.8570   56.9690   62.2920 C   0  0  0  0  0
  -11.0720   58.0930   63.3020 C   0  0  0  0  0
  -10.5350   59.4210   62.7800 C   0  0  0  0  0
   -9.0760   59.6100   63.1750 C   0  0  0  0  0
   -8.5450   58.4080   63.9540 C   0  0  0  0  0
   -7.1840   58.7540   64.5130 C   0  0  0  0  0
   -6.8350   60.1570   64.6290 O   0  0  0  0  0
   -7.6390   61.0370   65.4100 C   0  0  0  0  0
   -7.5270   62.4230   64.7790 C   0  0  0  0  0
   -7.7760   63.5130   65.8200 C   0  0  0  0  0
   -8.9970   64.2120   65.5840 O   0  0  0  0  0
   -9.2710   65.0730   64.2470 P   0  0  0  0  0
   -9.8590   64.1290   63.2250 O   0  0  0  0  0
   -6.6010   65.3260   64.3800 C   0  0  0  0  0
   -5.4420   65.2870   63.3890 C   0  0  0  0  0
   -5.0570   66.6420   62.9760 N   0  3  0  0  0
   -6.3790   57.8970   64.8490 O   0  0  0  0  0
   -6.2370   67.5190   62.9280 C   0  0  0  0  0
   -8.4530   62.5370   63.6880 O   0  0  0  0  0
   -4.4600   66.5740   61.6340 C   0  0  0  0  0
  -10.0610   66.3030   64.6260 O   0  0  0  0  0
   -4.0750   67.1790   63.9280 C   0  0  0  0  0
   -7.8330   65.5570   63.6930 O   0  0  0  0  0
  -20.5183   52.2605   60.1669 H   0  0  0  0  0
  -20.5431   54.0265   59.9400 H   0  0  0  0  0
  -21.4918   52.9765   58.8590 H   0  0  0  0  0
  -19.4383   53.7696   57.7654 H   0  0  0  0  0
  -19.4133   51.9898   57.9941 H   0  0  0  0  0
  -18.0079   52.2545   59.9725 H   0  0  0  0  0
  -18.0508   54.0364   59.7740 H   0  0  0  0  0
  -17.1483   53.4950   57.3765 H   0  0  0  0  0
  -16.6425   51.9512   58.1353 H   0  0  0  0  0
  -16.0191   54.3485   59.7113 H   0  0  0  0  0
  -15.1658   54.2385   58.1160 H   0  0  0  0  0
  -14.4689   51.9049   58.8068 H   0  0  0  0  0
  -15.0865   52.2637   60.4193 H   0  0  0  0  0
  -13.6682   54.2866   60.5017 H   0  0  0  0  0
  -12.9702   53.7944   58.8852 H   0  0  0  0  0
  -12.1934   51.6755   60.0449 H   0  0  0  0  0
  -12.6459   52.3948   61.5633 H   0  0  0  0  0
  -10.4657   53.5163   59.6300 H   0  0  0  0  0
  -11.3565   54.0467   62.5189 H   0  0  0  0  0
   -9.3070   55.3866   60.6631 H   0  0  0  0  0
   -8.6299   54.3495   61.9337 H   0  0  0  0  0
   -8.7666   56.7007   62.6791 H   0  0  0  0  0
   -9.8512   55.6493   63.6479 H   0  0  0  0  0
  -11.7521   56.3472   62.2763 H   0  0  0  0  0
  -10.6573   57.4171   61.3187 H   0  0  0  0  0
  -10.5392   57.8408   64.2189 H   0  0  0  0  0
  -12.1423   58.1984   63.4796 H   0  0  0  0  0
  -11.1229   60.2310   63.2118 H   0  0  0  0  0
  -10.6072   59.4252   61.6924 H   0  0  0  0  0
   -9.0025   60.4925   63.8106 H   0  0  0  0  0
   -8.4844   59.7205   62.2662 H   0  0  0  0  0
   -8.4648   57.5450   63.2930 H   0  0  0  0  0
   -9.2278   58.1638   64.7678 H   0  0  0  0  0
   -7.2967   61.0557   66.4447 H   0  0  0  0  0
   -8.6762   60.7021   65.4231 H   0  0  0  0  0
   -6.5154   62.5547   64.3949 H   0  0  0  0  0
   -6.9573   64.2304   65.7635 H   0  0  0  0  0
   -7.8394   63.0393   66.7996 H   0  0  0  0  0
   -9.2544   63.3972   63.0819 H   0  0  0  0  0
   -6.4335   66.1341   65.0921 H   0  0  0  0  0
   -6.6572   64.3696   64.8999 H   0  0  0  0  0
   -5.7548   64.7283   62.5069 H   0  0  0  0  0
   -4.5869   64.8117   63.8696 H   0  0  0  0  0
   -6.9557   67.1201   62.2121 H   0  0  0  0  0
   -6.6942   67.5652   63.9164 H   0  0  0  0  0
   -5.9324   68.5192   62.6200 H   0  0  0  0  0
   -8.3778   63.4100   63.2958 H   0  0  0  0  0
   -3.5805   65.9306   61.6611 H   0  0  0  0  0
   -5.1888   66.1659   60.9338 H   0  0  0  0  0
   -4.1696   67.5752   61.3158 H   0  0  0  0  0
   -4.5168   67.2120   64.9239 H   0  0  0  0  0
   -3.1945   66.5367   63.9409 H   0  0  0  0  0
   -3.7878   68.1853   63.6230 H   0  0  0  0  0
  2  1  1  0  0  0
  3  2  1  0  0  0
  4  3  1  0  0  0
  5  4  1  0  0  0
  6  5  1  0  0  0
  7  6  1  0  0  0
  8  7  1  0  0  0
  9  8  1  0  0  0
 10  9  2  0  0  0
 11 10  1  0  0  0
 12 11  1  0  0  0
 13 12  1  0  0  0
 14 13  1  0  0  0
 15 14  1  0  0  0
 16 15  1  0  0  0
 17 16  1  0  0  0
 18 17  1  0  0  0
 19 18  1  0  0  0
 18 29  2  0  0  0
 20 19  1  0  0  0
 21 20  1  0  0  0
 22 21  1  0  0  0
 21 31  1  0  0  0
 23 22  1  0  0  0
 24 23  1  0  0  0
 24 25  1  0  0  0
 24 33  2  0  0  0
 35 24  1  0  0  0
 26 27  1  0  0  0
 26 35  1  0  0  0
 27 28  1  0  0  0
 28 30  1  0  0  0
 28 32  1  0  0  0
 28 34  1  0  0  0
  1 36  1  0  0  0
  1 37  1  0  0  0
  1 38  1  0  0  0
  2 39  1  0  0  0
  2 40  1  0  0  0
  3 41  1  0  0  0
  3 42  1  0  0  0
  4 43  1  0  0  0
  4 44  1  0  0  0
  5 45  1  0  0  0
  5 46  1  0  0  0
  6 47  1  0  0  0
  6 48  1  0  0  0
  7 49  1  0  0  0
  7 50  1  0  0  0
  8 51  1  0  0  0
  8 52  1  0  0  0
  9 53  1  0  0  0
 10 54  1  0  0  0
 11 55  1  0  0  0
 11 56  1  0  0  0
 12 57  1  0  0  0
 12 58  1  0  0  0
 13 59  1  0  0  0
 13 60  1  0  0  0
 14 61  1  0  0  0
 14 62  1  0  0  0
 15 63  1  0  0  0
 15 64  1  0  0  0
 16 65  1  0  0  0
 16 66  1  0  0  0
 17 67  1  0  0  0
 17 68  1  0  0  0
 20 69  1  0  0  0
 20 70  1  0  0  0
 21 71  1  0  0  0
 22 72  1  0  0  0
 22 73  1  0  0  0
 25 74  1  0  0  0
 26 75  1  0  0  0
 26 76  1  0  0  0
 27 77  1  0  0  0
 27 78  1  0  0  0
 30 79  1  0  0  0
 30 80  1  0  0  0
 30 81  1  0  0  0
 31 82  1  0  0  0
 32 83  1  0  0  0
 32 84  1  0  0  0
 32 85  1  0  0  0
 34 86  1  0  0  0
 34 87  1  0  0  0
 34 88  1  0  0  0
M  END
$$$$
