### 
### Created by X-TOOL on Mon Sep 10 21:13:11 2018
### 

@<TRIPOS>MOLECULE
3u0p_ligand
   87    86     1     0     0
SMALL
GAST_HUCK


@<TRIPOS>ATOM
      1 C1        -20.5680   53.0630   59.4310 C.3       1 LSC        -0.0653
      2 C2        -19.3830   52.9590   58.4920 C.3       1 LSC        -0.0559
      3 C3        -18.0730   53.0760   59.2590 C.3       1 LSC        -0.0533
      4 C4        -16.8860   52.9990   58.3110 C.3       1 LSC        -0.0531
      5 C5        -15.6710   53.6930   58.9130 C.3       1 LSC        -0.0529
      6 C6        -14.6760   52.7090   59.5130 C.3       1 LSC        -0.0515
      7 C7        -13.3990   53.4690   59.8330 C.3       1 LSC        -0.0464
      8 C8        -12.3420   52.6330   60.5440 C.3       1 LSC        -0.0365
      9 C9        -11.0810   53.4600   60.5280 C.2       1 LSC        -0.0987
     10 C10       -10.7340   54.1180   61.6270 C.2       1 LSC        -0.0987
     11 C11        -9.4850   54.9640   61.6520 C.3       1 LSC        -0.0365
     12 C12        -9.6680   56.0880   62.6670 C.3       1 LSC        -0.0464
     13 C13       -10.8570   56.9690   62.2920 C.3       1 LSC        -0.0515
     14 C14       -11.0720   58.0930   63.3020 C.3       1 LSC        -0.0528
     15 C15       -10.5350   59.4210   62.7800 C.3       1 LSC        -0.0509
     16 C16        -9.0760   59.6100   63.1750 C.3       1 LSC        -0.0348
     17 C17        -8.5450   58.4080   63.9540 C.3       1 LSC         0.0487
     18 C18        -7.1840   58.7540   64.5130 C.2       1 LSC         0.2338
     19 O19        -6.8350   60.1570   64.6290 O.3       1 LSC        -0.2742
     20 C20        -7.6390   61.0370   65.4100 C.3       1 LSC         0.1051
     21 C21        -7.5270   62.4230   64.7790 C.3       1 LSC         0.1111
     22 C22        -7.7760   63.5130   65.8200 C.3       1 LSC         0.1120
     23 O23        -8.9970   64.2120   65.5840 O.3       1 LSC        -0.2514
     24 P24        -9.2710   65.0730   64.2470 P.3       1 LSC         0.2554
     25 O25        -9.8590   64.1290   63.2250 O.co2     1 LSC        -0.6177
     26 C30        -6.6010   65.3260   64.3800 C.3       1 LSC         0.1234
     27 C31        -5.4420   65.2870   63.3890 C.3       1 LSC        -0.0017
     28 N32        -5.0570   66.6420   62.9760 N.4       1 LSC         0.2388
     29 O32        -6.3790   57.8970   64.8490 O.2       1 LSC        -0.3704
     30 C33        -6.2370   67.5190   62.9280 C.3       1 LSC        -0.0417
     31 O33        -8.4530   62.5370   63.6880 O.3       1 LSC        -0.3865
     32 C34        -4.4600   66.5740   61.6340 C.3       1 LSC        -0.0417
     33 O34       -10.0610   66.3030   64.6260 O.co2     1 LSC        -0.6177
     34 C35        -4.0750   67.1790   63.9280 C.3       1 LSC        -0.0417
     35 O35        -7.8330   65.5570   63.6930 O.3       1 LSC        -0.2488
     36 H         -20.5183   52.2605   60.1669 H         1 LSC         0.0230
     37 H         -20.5431   54.0265   59.9400 H         1 LSC         0.0230
     38 H         -21.4918   52.9765   58.8590 H         1 LSC         0.0230
     39 H         -19.4383   53.7696   57.7654 H         1 LSC         0.0263
     40 H         -19.4133   51.9898   57.9941 H         1 LSC         0.0263
     41 H         -18.0079   52.2545   59.9725 H         1 LSC         0.0265
     42 H         -18.0508   54.0364   59.7740 H         1 LSC         0.0265
     43 H         -17.1483   53.4950   57.3765 H         1 LSC         0.0265
     44 H         -16.6425   51.9512   58.1353 H         1 LSC         0.0265
     45 H         -16.0191   54.3485   59.7113 H         1 LSC         0.0265
     46 H         -15.1658   54.2385   58.1160 H         1 LSC         0.0265
     47 H         -14.4689   51.9049   58.8068 H         1 LSC         0.0267
     48 H         -15.0865   52.2637   60.4193 H         1 LSC         0.0267
     49 H         -13.6682   54.2866   60.5017 H         1 LSC         0.0285
     50 H         -12.9702   53.7944   58.8852 H         1 LSC         0.0285
     51 H         -12.1934   51.6755   60.0449 H         1 LSC         0.0388
     52 H         -12.6459   52.3948   61.5633 H         1 LSC         0.0388
     53 H         -10.4657   53.5163   59.6300 H         1 LSC         0.0450
     54 H         -11.3565   54.0467   62.5189 H         1 LSC         0.0450
     55 H          -9.3070   55.3866   60.6631 H         1 LSC         0.0388
     56 H          -8.6299   54.3495   61.9337 H         1 LSC         0.0388
     57 H          -8.7666   56.7007   62.6791 H         1 LSC         0.0285
     58 H          -9.8512   55.6493   63.6479 H         1 LSC         0.0285
     59 H         -11.7521   56.3472   62.2763 H         1 LSC         0.0267
     60 H         -10.6573   57.4171   61.3187 H         1 LSC         0.0267
     61 H         -10.5392   57.8408   64.2189 H         1 LSC         0.0265
     62 H         -12.1423   58.1984   63.4796 H         1 LSC         0.0265
     63 H         -11.1229   60.2310   63.2118 H         1 LSC         0.0267
     64 H         -10.6072   59.4252   61.6924 H         1 LSC         0.0267
     65 H          -9.0025   60.4925   63.8106 H         1 LSC         0.0291
     66 H          -8.4844   59.7205   62.2662 H         1 LSC         0.0291
     67 H          -8.4648   57.5450   63.2930 H         1 LSC         0.0518
     68 H          -9.2278   58.1638   64.7678 H         1 LSC         0.0518
     69 H          -7.2967   61.0557   66.4447 H         1 LSC         0.0640
     70 H          -8.6762   60.7021   65.4231 H         1 LSC         0.0640
     71 H          -6.5154   62.5547   64.3949 H         1 LSC         0.0647
     72 H          -6.9573   64.2304   65.7635 H         1 LSC         0.0647
     73 H          -7.8394   63.0393   66.7996 H         1 LSC         0.0647
     74 H          -6.4335   66.1341   65.0921 H         1 LSC         0.0674
     75 H          -6.6572   64.3696   64.8999 H         1 LSC         0.0674
     76 H          -5.7548   64.7283   62.5069 H         1 LSC         0.0841
     77 H          -4.5869   64.8117   63.8696 H         1 LSC         0.0841
     78 H          -6.9557   67.1201   62.2121 H         1 LSC         0.0778
     79 H          -6.6942   67.5652   63.9164 H         1 LSC         0.0778
     80 H          -5.9324   68.5192   62.6200 H         1 LSC         0.0778
     81 H          -8.3485   63.3945   63.2693 H         1 LSC         0.2100
     82 H          -3.5805   65.9306   61.6611 H         1 LSC         0.0778
     83 H          -5.1888   66.1659   60.9338 H         1 LSC         0.0778
     84 H          -4.1696   67.5752   61.3158 H         1 LSC         0.0778
     85 H          -4.5168   67.2120   64.9239 H         1 LSC         0.0778
     86 H          -3.1945   66.5367   63.9409 H         1 LSC         0.0778
     87 H          -3.7878   68.1853   63.6230 H         1 LSC         0.0778
@<TRIPOS>BOND
     1    2    1 1  
     2    3    2 1  
     3    4    3 1  
     4    5    4 1  
     5    6    5 1  
     6    7    6 1  
     7    8    7 1  
     8    9    8 1  
     9   10    9 2  
    10   11   10 1  
    11   12   11 1  
    12   13   12 1  
    13   14   13 1  
    14   15   14 1  
    15   16   15 1  
    16   17   16 1  
    17   18   17 1  
    18   19   18 1  
    19   18   29 2  
    20   20   19 1  
    21   21   20 1  
    22   22   21 1  
    23   21   31 1  
    24   23   22 1  
    25   24   23 1  
    26   24   25 ar 
    27   24   33 ar 
    28   35   24 1  
    29   26   27 1  
    30   26   35 1  
    31   27   28 1  
    32   28   30 1  
    33   28   32 1  
    34   28   34 1  
    35    1   36 1  
    36    1   37 1  
    37    1   38 1  
    38    2   39 1  
    39    2   40 1  
    40    3   41 1  
    41    3   42 1  
    42    4   43 1  
    43    4   44 1  
    44    5   45 1  
    45    5   46 1  
    46    6   47 1  
    47    6   48 1  
    48    7   49 1  
    49    7   50 1  
    50    8   51 1  
    51    8   52 1  
    52    9   53 1  
    53   10   54 1  
    54   11   55 1  
    55   11   56 1  
    56   12   57 1  
    57   12   58 1  
    58   13   59 1  
    59   13   60 1  
    60   14   61 1  
    61   14   62 1  
    62   15   63 1  
    63   15   64 1  
    64   16   65 1  
    65   16   66 1  
    66   17   67 1  
    67   17   68 1  
    68   20   69 1  
    69   20   70 1  
    70   21   71 1  
    71   22   72 1  
    72   22   73 1  
    73   26   74 1  
    74   26   75 1  
    75   27   76 1  
    76   27   77 1  
    77   30   78 1  
    78   30   79 1  
    79   30   80 1  
    80   31   81 1  
    81   32   82 1  
    82   32   83 1  
    83   32   84 1  
    84   34   85 1  
    85   34   86 1  
    86   34   87 1  
@<TRIPOS>SUBSTRUCTURE
     1 LSC         1

