4k3p_ligand
  -I-interpret- 

 93 93  0  0  0  0  0  0  0  0999 V2000
   -3.4220   -8.3730  -12.8630 C   0  0  0  0  0
   -2.9700   -7.9080  -13.9000 O   0  0  0  0  0
   -4.7910   -9.0070  -12.8620 C   0  0  0  0  0
   -2.7650   -8.4150  -11.6990 N   0  0  0  0  0
   -1.6020   -7.5340  -11.3670 C   0  0  0  0  0
   -0.4240   -7.8540  -12.2650 C   0  0  0  0  0
    0.0320   -8.9990  -12.3110 O   0  0  0  0  0
   -1.1990   -7.7010   -9.8920 C   0  0  0  0  0
    0.1080   -7.0150   -9.4930 C   0  0  0  0  0
    0.0020   -5.4960   -9.4610 C   0  0  0  0  0
   -0.7870   -4.9240   -8.6970 O   0  0  0  0  0
    0.7970   -4.8340  -10.2900 N   0  0  0  0  0
    0.0710   -6.8450  -12.9790 N   0  0  0  0  0
    1.2690   -7.0190  -13.8040 C   0  0  0  0  0
    2.5400   -6.8090  -12.9850 C   0  0  0  0  0
    2.5230   -6.1150  -11.9730 O   0  0  0  0  0
    1.2440   -6.0820  -15.0130 C   0  0  0  0  0
    0.0860   -6.3010  -15.9960 C   0  0  0  0  0
   -0.0300   -5.1210  -16.9540 C   0  0  0  0  0
    0.2360   -7.6270  -16.7450 C   0  0  0  0  0
    3.6340   -7.4270  -13.4260 N   0  0  0  0  0
    4.9300   -7.3080  -12.7540 C   0  0  0  0  0
    5.6430   -6.0420  -13.2220 C   0  0  0  0  0
    5.6120   -5.7200  -14.4110 O   0  0  0  0  0
    5.7850   -8.5390  -13.0270 C   0  0  0  0  0
    6.2680   -5.3220  -12.2850 N   0  0  0  0  0
    7.1280   -4.1700  -12.6230 C   0  0  0  0  0
    8.3890   -4.5910  -13.3750 C   0  0  0  0  0
    8.9220   -3.8290  -14.1830 O   0  0  0  0  0
    7.5490   -3.3960  -11.3670 C   0  0  0  0  0
    7.0220   -1.9910  -11.0670 C   0  0  0  0  0
    7.6920   -1.4570   -9.8040 C   0  0  0  0  0
    7.2440   -1.0320  -12.2230 C   0  0  0  0  0
    8.8640   -5.7980  -13.0650 N   0  0  0  0  0
   10.0870   -6.3640  -13.6180 C   0  0  0  0  0
   10.1990   -7.8410  -13.2070 C   0  0  0  0  0
    9.4640   -8.3680  -12.3610 O   0  0  0  0  0
   11.3160   -5.5840  -13.1270 C   0  0  0  0  0
   11.4390   -5.5290  -11.6290 C   0  0  0  0  0
   12.0230   -6.5880  -10.9230 C   0  0  0  0  0
   10.9630   -4.4310  -10.9210 C   0  0  0  0  0
   12.1270   -6.5510   -9.5430 C   0  0  0  0  0
   11.0600   -4.3850   -9.5390 C   0  0  0  0  0
   11.6400   -5.4490   -8.8500 C   0  0  0  0  0
   11.0550   -8.5620  -13.7050 O   0  0  0  0  0
   -5.5320   -8.2689  -13.1689 H   0  0  0  0  0
   -4.8020   -9.8459  -13.5579 H   0  0  0  0  0
   -5.0246   -9.3626  -11.8585 H   0  0  0  0  0
   -3.0747   -9.0867  -10.9966 H   0  0  0  0  0
   -1.9007   -6.4987  -11.5316 H   0  0  0  0  0
   -1.0558   -8.7686   -9.7255 H   0  0  0  0  0
   -1.9883   -7.2407   -9.2977 H   0  0  0  0  0
    0.8600   -7.2783  -10.2368 H   0  0  0  0  0
    0.3636   -7.3498   -8.4877 H   0  0  0  0  0
    0.7729   -3.8146  -10.3146 H   0  0  0  0  0
    1.4327   -5.3441  -10.9032 H   0  0  0  0  0
   -0.3914   -5.9363  -12.9511 H   0  0  0  0  0
    1.2708   -8.0458  -14.1696 H   0  0  0  0  0
    2.1625   -6.2691  -15.5693 H   0  0  0  0  0
    1.1302   -5.0717  -14.6200 H   0  0  0  0  0
   -0.8411   -6.3611  -15.4260 H   0  0  0  0  0
   -0.2146   -4.2097  -16.3852 H   0  0  0  0  0
    0.8983   -5.0183  -17.5160 H   0  0  0  0  0
   -0.8564   -5.2942  -17.6434 H   0  0  0  0  0
    1.1711   -7.6227  -17.3051 H   0  0  0  0  0
    0.2438   -8.4486  -16.0287 H   0  0  0  0  0
   -0.6004   -7.7509  -17.4328 H   0  0  0  0  0
    3.5669   -8.0052  -14.2636 H   0  0  0  0  0
    4.7666   -7.2398  -11.6785 H   0  0  0  0  0
    5.2719   -9.4259  -12.6553 H   0  0  0  0  0
    5.9486   -8.6354  -14.1003 H   0  0  0  0  0
    6.7441   -8.4333  -12.5200 H   0  0  0  0  0
    6.1470   -5.5766  -11.3047 H   0  0  0  0  0
    6.5265   -3.5295  -13.2681 H   0  0  0  0  0
    8.6194   -3.2443  -11.5058 H   0  0  0  0  0
    7.1530   -3.9985  -10.5495 H   0  0  0  0  0
    5.9449   -2.0644  -10.9165 H   0  0  0  0  0
    7.4656   -2.1176   -8.9671 H   0  0  0  0  0
    8.7707   -1.4171   -9.9556 H   0  0  0  0  0
    7.3165   -0.4562   -9.5904 H   0  0  0  0  0
    8.3114   -0.9553  -12.4299 H   0  0  0  0  0
    6.7271   -1.4050  -13.1072 H   0  0  0  0  0
    6.8523   -0.0497  -11.9589 H   0  0  0  0  0
    8.3369   -6.3612  -12.3976 H   0  0  0  0  0
   10.0496   -6.2914  -14.7049 H   0  0  0  0  0
    8.8342   -7.7197  -12.0376 H   0  0  0  0  0
   11.2149   -4.5589  -13.4834 H   0  0  0  0  0
   12.2000   -6.0955  -13.5078 H   0  0  0  0  0
   12.4009   -7.4533  -11.4675 H   0  0  0  0  0
   10.5091   -3.5982  -11.4581 H   0  0  0  0  0
   12.5871   -7.3794   -9.0043 H   0  0  0  0  0
   10.6840   -3.5198   -8.9929 H   0  0  0  0  0
   11.7119   -5.4166   -7.7629 H   0  0  0  0  0
  1  2  2  0  0  0
  1  3  1  0  0  0
  1  4  1  0  0  0
  4  5  1  0  0  0
  5  6  1  0  0  0
  5  8  1  0  0  0
  6  7  2  0  0  0
  6 13  1  0  0  0
  8  9  1  0  0  0
  9 10  1  0  0  0
 10 11  2  0  0  0
 10 12  1  0  0  0
 13 14  1  0  0  0
 14 15  1  0  0  0
 14 17  1  0  0  0
 15 16  2  0  0  0
 15 21  1  0  0  0
 17 18  1  0  0  0
 18 19  1  0  0  0
 18 20  1  0  0  0
 21 22  1  0  0  0
 22 23  1  0  0  0
 22 25  1  0  0  0
 23 24  2  0  0  0
 23 26  1  0  0  0
 26 27  1  0  0  0
 27 28  1  0  0  0
 27 30  1  0  0  0
 28 29  2  0  0  0
 28 34  1  0  0  0
 30 31  1  0  0  0
 31 32  1  0  0  0
 31 33  1  0  0  0
 34 35  1  0  0  0
 35 36  1  0  0  0
 35 38  1  0  0  0
 36 37  1  0  0  0
 36 45  2  0  0  0
 38 39  1  0  0  0
 39 40  4  0  0  0
 39 41  4  0  0  0
 40 42  4  0  0  0
 41 43  4  0  0  0
 42 44  4  0  0  0
 43 44  4  0  0  0
  3 46  1  0  0  0
  3 47  1  0  0  0
  3 48  1  0  0  0
  4 49  1  0  0  0
  5 50  1  0  0  0
  8 51  1  0  0  0
  8 52  1  0  0  0
  9 53  1  0  0  0
  9 54  1  0  0  0
 12 55  1  0  0  0
 12 56  1  0  0  0
 13 57  1  0  0  0
 14 58  1  0  0  0
 17 59  1  0  0  0
 17 60  1  0  0  0
 18 61  1  0  0  0
 19 62  1  0  0  0
 19 63  1  0  0  0
 19 64  1  0  0  0
 20 65  1  0  0  0
 20 66  1  0  0  0
 20 67  1  0  0  0
 21 68  1  0  0  0
 22 69  1  0  0  0
 25 70  1  0  0  0
 25 71  1  0  0  0
 25 72  1  0  0  0
 26 73  1  0  0  0
 27 74  1  0  0  0
 30 75  1  0  0  0
 30 76  1  0  0  0
 31 77  1  0  0  0
 32 78  1  0  0  0
 32 79  1  0  0  0
 32 80  1  0  0  0
 33 81  1  0  0  0
 33 82  1  0  0  0
 33 83  1  0  0  0
 34 84  1  0  0  0
 35 85  1  0  0  0
 37 86  1  0  0  0
 38 87  1  0  0  0
 38 88  1  0  0  0
 40 89  1  0  0  0
 41 90  1  0  0  0
 42 91  1  0  0  0
 43 92  1  0  0  0
 44 93  1  0  0  0
M  END
$$$$
