4lkd_ligand
  -I-interpret- 

 89 90  0  0  0  0  0  0  0  0999 V2000
  -19.4200   20.7010   22.7950 N   0  0  0  0  0
  -19.1300   19.6850   21.7890 C   0  0  0  0  0
  -20.3220   18.7440   21.6310 C   0  0  0  0  0
  -20.3960   17.7040   22.2830 O   0  0  0  0  0
  -17.8710   18.8960   22.1600 C   0  0  0  0  0
  -17.0920   18.3650   20.9610 C   0  0  0  0  0
  -16.3950   19.4660   20.1770 C   0  0  0  0  0
  -16.8930   20.5880   20.0760 O   0  0  0  0  0
  -15.2300   19.1490   19.6250 N   0  0  0  0  0
  -21.2510   19.1210   20.7560 N   0  0  0  0  0
  -22.5010   18.3890   20.5870 C   0  0  0  0  0
  -23.1260   18.1650   21.9580 C   0  0  0  0  0
  -23.5090   17.0440   22.3030 O   0  0  0  0  0
  -22.2530   17.0550   19.8720 C   0  0  0  0  0
  -21.2750   17.1610   18.7150 C   0  0  0  0  0
  -21.6880   18.2530   17.7420 C   0  0  0  0  0
  -20.5610   18.7170   16.9370 N   0  0  0  0  0
  -19.7830   19.7440   17.2650 C   0  0  0  0  0
  -20.0110   20.4190   18.3830 N   0  0  0  0  0
  -18.7770   20.0970   16.4770 N   0  0  0  0  0
  -23.2160   19.2480   22.7280 N   0  0  0  0  0
  -23.7140   19.2290   24.1020 C   0  0  0  0  0
  -22.6520   18.6560   25.0350 C   0  0  0  0  0
  -21.9700   17.6900   24.6910 O   0  0  0  0  0
  -25.0260   18.4610   24.2320 C   0  0  0  0  0
  -25.9970   18.9590   23.3460 O   0  0  0  0  0
  -22.5080   19.2620   26.2100 N   0  0  0  0  0
  -24.9370   25.0130   24.8140 C   0  0  0  0  0
  -25.6080   25.8960   25.8980 C   0  0  0  0  0
  -27.1020   25.5500   25.8690 C   0  0  0  0  0
  -27.6830   25.8320   24.4710 C   0  0  0  0  0
  -26.8880   25.0220   23.4150 C   0  0  0  0  0
  -27.2930   25.3600   21.9690 C   0  0  0  0  0
  -25.1350   25.5910   27.2020 O   0  0  0  0  0
  -27.7520   26.2860   26.8950 O   0  0  0  0  0
  -27.6320   27.2210   24.1590 O   0  0  0  0  0
  -25.4820   25.2720   23.5500 O   0  0  0  0  0
  -26.7200   24.4130   21.0850 O   0  0  0  0  0
  -20.1470   21.5400   22.0580 C   0  0  0  0  0
  -20.1270   21.5400   20.8260 O   0  0  0  0  0
  -21.0140   22.5140   22.8030 C   0  0  0  0  0
  -22.4100   22.3170   22.8810 C   0  0  0  0  0
  -23.2210   23.2320   23.5770 C   0  0  0  0  0
  -22.6620   24.3640   24.2040 C   0  0  0  0  0
  -21.2600   24.5610   24.1220 C   0  0  0  0  0
  -20.4480   23.6470   23.4300 C   0  0  0  0  0
  -23.5480   25.2020   24.8590 O   0  0  0  0  0
  -19.1462   20.7537   23.7761 H   0  0  0  0  0
  -18.9492   20.1848   20.8374 H   0  0  0  0  0
  -18.1918   18.0331   22.7436 H   0  0  0  0  0
  -17.2108   19.5768   22.6973 H   0  0  0  0  0
  -17.8006   17.8762   20.2923 H   0  0  0  0  0
  -16.3263   17.6852   21.3348 H   0  0  0  0  0
  -14.7112   19.8473   19.0924 H   0  0  0  0  0
  -14.8537   18.2072   19.7335 H   0  0  0  0  0
  -21.0833   19.9492   20.1847 H   0  0  0  0  0
  -23.1860   18.9686   19.9682 H   0  0  0  0  0
  -23.2068   16.7189   19.4652 H   0  0  0  0  0
  -21.8249   16.3670   20.6010 H   0  0  0  0  0
  -21.2614   16.2094   18.1836 H   0  0  0  0  0
  -20.2905   17.4055   19.1138 H   0  0  0  0  0
  -22.0694   19.0973   18.3163 H   0  0  0  0  0
  -22.4439   17.8456   17.0706 H   0  0  0  0  0
  -20.3581   18.2220   16.0686 H   0  0  0  0  0
  -20.7838   20.1505   18.9922 H   0  0  0  0  0
  -18.1819   20.8852   16.7318 H   0  0  0  0  0
  -18.5981   19.5803   15.6159 H   0  0  0  0  0
  -22.9204   20.1422   22.3363 H   0  0  0  0  0
  -23.9245   20.2586   24.3912 H   0  0  0  0  0
  -25.3952   18.5734   25.2514 H   0  0  0  0  0
  -24.8411   17.4138   23.9925 H   0  0  0  0  0
  -26.8096   18.4585   23.4494 H   0  0  0  0  0
  -21.8076   18.9296   26.8728 H   0  0  0  0  0
  -23.0980   20.0592   26.4484 H   0  0  0  0  0
  -25.1365   23.9608   25.0168 H   0  0  0  0  0
  -25.3918   26.9439   25.6902 H   0  0  0  0  0
  -27.2612   24.4887   26.0596 H   0  0  0  0  0
  -28.7296   25.5274   24.4624 H   0  0  0  0  0
  -27.1216   23.9740   23.6027 H   0  0  0  0  0
  -26.9348   26.3576   21.7149 H   0  0  0  0  0
  -28.3789   25.3304   21.8793 H   0  0  0  0  0
  -25.5736   26.1575   27.8409 H   0  0  0  0  0
  -28.6897   26.0801   26.8900 H   0  0  0  0  0
  -28.0000   27.3650   23.2841 H   0  0  0  0  0
  -26.9731   24.6245   20.1834 H   0  0  0  0  0
  -22.8623   21.4504   22.3988 H   0  0  0  0  0
  -24.2964   23.0632   23.6322 H   0  0  0  0  0
  -20.8081   25.4299   24.6005 H   0  0  0  0  0
  -19.3721   23.8132   23.3762 H   0  0  0  0  0
  1  2  1  0  0  0
 39  1  1  0  0  0
  2  3  1  0  0  0
  2  5  1  0  0  0
  3  4  2  0  0  0
  3 10  1  0  0  0
  5  6  1  0  0  0
  6  7  1  0  0  0
  7  8  2  0  0  0
  7  9  1  0  0  0
 10 11  1  0  0  0
 11 12  1  0  0  0
 11 14  1  0  0  0
 12 13  2  0  0  0
 12 21  1  0  0  0
 14 15  1  0  0  0
 15 16  1  0  0  0
 16 17  1  0  0  0
 17 18  1  0  0  0
 18 19  2  0  0  0
 18 20  1  0  0  0
 21 22  1  0  0  0
 22 23  1  0  0  0
 22 25  1  0  0  0
 23 24  2  0  0  0
 23 27  1  0  0  0
 25 26  1  0  0  0
 28 29  1  0  0  0
 28 37  1  0  0  0
 47 28  1  0  0  0
 29 30  1  0  0  0
 29 34  1  0  0  0
 30 31  1  0  0  0
 30 35  1  0  0  0
 32 31  1  0  0  0
 31 36  1  0  0  0
 32 33  1  0  0  0
 37 32  1  0  0  0
 33 38  1  0  0  0
 39 40  2  0  0  0
 41 39  1  0  0  0
 42 41  4  0  0  0
 41 46  4  0  0  0
 43 42  4  0  0  0
 44 43  4  0  0  0
 44 45  4  0  0  0
 44 47  1  0  0  0
 45 46  4  0  0  0
  1 48  1  0  0  0
  2 49  1  0  0  0
  5 50  1  0  0  0
  5 51  1  0  0  0
  6 52  1  0  0  0
  6 53  1  0  0  0
  9 54  1  0  0  0
  9 55  1  0  0  0
 10 56  1  0  0  0
 11 57  1  0  0  0
 14 58  1  0  0  0
 14 59  1  0  0  0
 15 60  1  0  0  0
 15 61  1  0  0  0
 16 62  1  0  0  0
 16 63  1  0  0  0
 17 64  1  0  0  0
 19 65  1  0  0  0
 20 66  1  0  0  0
 20 67  1  0  0  0
 21 68  1  0  0  0
 22 69  1  0  0  0
 25 70  1  0  0  0
 25 71  1  0  0  0
 26 72  1  0  0  0
 27 73  1  0  0  0
 27 74  1  0  0  0
 28 75  1  0  0  0
 29 76  1  0  0  0
 30 77  1  0  0  0
 31 78  1  0  0  0
 32 79  1  0  0  0
 33 80  1  0  0  0
 33 81  1  0  0  0
 34 82  1  0  0  0
 35 83  1  0  0  0
 36 84  1  0  0  0
 38 85  1  0  0  0
 42 86  1  0  0  0
 43 87  1  0  0  0
 45 88  1  0  0  0
 46 89  1  0  0  0
M  END
$$$$
