2rvn_ligand
  -I-interpret- 

297298  0  0  0  0  0  0  0  0999 V2000
   -2.5890  -35.7860    5.3320 N   0  3  0  0  0
   -3.6340  -35.1330    6.1100 C   0  0  0  0  0
   -3.4660  -33.6180    6.0920 C   0  0  0  0  0
   -2.3610  -33.1090    5.9070 O   0  0  0  0  0
   -3.6270  -35.6500    7.5410 C   0  0  0  0  0
   -4.5700  -32.9030    6.2850 N   0  0  0  0  0
   -4.5440  -31.4450    6.2890 C   0  0  0  0  0
   -5.2460  -30.8920    7.5260 C   0  0  0  0  0
   -6.3490  -31.3200    7.8710 O   0  0  0  0  0
   -5.2100  -30.8990    5.0250 C   0  0  0  0  0
   -6.6640  -31.3160    4.8730 C   0  0  0  0  0
   -7.1790  -31.0420    3.4690 C   0  0  0  0  0
   -7.3160  -29.6120    3.2050 N   0  0  0  0  0
   -8.3570  -28.8880    3.6000 C   0  0  0  0  0
   -9.3480  -29.4580    4.2720 N   0  0  0  0  0
   -8.4090  -27.5920    3.3220 N   0  0  0  0  0
   -4.6000  -29.9390    8.1900 N   0  0  0  0  0
   -5.1610  -29.3290    9.3890 C   0  0  0  0  0
   -5.0700  -27.8090    9.3260 C   0  0  0  0  0
   -6.0660  -27.1090    9.5140 O   0  0  0  0  0
   -4.4420  -29.8220   10.6590 C   0  0  0  0  0
   -3.0280  -29.6460   10.5220 O   0  0  0  0  0
   -4.7520  -31.2880   10.9220 C   0  0  0  0  0
   -3.8710  -27.3020    9.0600 N   0  0  0  0  0
   -3.6500  -25.8640    8.9700 C   0  0  0  0  0
   -4.5290  -25.2450    7.8870 C   0  0  0  0  0
   -4.9730  -25.9330    6.9680 O   0  0  0  0  0
   -2.1770  -25.5710    8.6750 C   0  0  0  0  0
   -1.6870  -26.1720    7.3690 C   0  0  0  0  0
   -0.2730  -25.7210    7.0430 C   0  0  0  0  0
    0.7590  -26.5110    7.8330 C   0  0  0  0  0
    2.0740  -25.8130    7.8820 N   0  3  0  0  0
   -4.7750  -23.9440    8.0030 N   0  0  0  0  0
   -5.6000  -23.2340    7.0330 C   0  0  0  0  0
   -4.9010  -23.1530    5.6800 C   0  0  0  0  0
   -3.8180  -22.5790    5.5600 O   0  0  0  0  0
   -5.9210  -21.8270    7.5390 C   0  0  0  0  0
   -7.1750  -21.2290    6.9200 C   0  0  0  0  0
   -8.4300  -21.9970    7.2870 C   0  0  0  0  0
   -9.0570  -21.7290    8.3120 O   0  0  0  0  0
   -8.8030  -22.9580    6.4500 N   0  0  0  0  0
   -5.5280  -23.7330    4.6600 N   0  0  0  0  0
   -4.9670  -23.7280    3.3150 C   0  0  0  0  0
   -6.0590  -23.5650    2.2640 C   0  0  0  0  0
   -7.1560  -24.1030    2.4080 O   0  0  0  0  0
   -4.1830  -25.0230    3.0290 C   0  0  0  0  0
   -3.3900  -25.3770    4.1680 O   0  0  0  0  0
   -3.2860  -24.8540    1.8120 C   0  0  0  0  0
   -5.7500  -22.8210    1.2070 N   0  0  0  0  0
   -6.7050  -22.5910    0.1300 C   0  0  0  0  0
   -6.0050  -22.5440   -1.2240 C   0  0  0  0  0
   -4.7930  -22.3390   -1.3000 O   0  0  0  0  0
   -7.4740  -21.3010    0.3740 C   0  0  0  0  0
   -6.7750  -22.7350   -2.2900 N   0  0  0  0  0
   -6.2270  -22.7170   -3.6410 C   0  0  0  0  0
   -6.1030  -21.2860   -4.1570 C   0  0  0  0  0
   -6.5560  -20.3290   -3.5080 O   0  0  0  0  0
   -7.1110  -23.5360   -4.5840 C   0  0  0  0  0
   -6.8710  -25.0340   -4.4950 C   0  0  0  0  0
   -7.7580  -25.7980   -5.4660 C   0  0  0  0  0
   -9.1230  -25.9390   -4.9660 N   0  0  0  0  0
  -10.0990  -26.5280   -5.6480 C   0  0  0  0  0
   -9.8610  -27.0280   -6.8530 N   0  0  0  0  0
  -11.3150  -26.6180   -5.1250 N   0  0  0  0  0
   -5.4880  -21.1360   -5.3270 N   0  0  0  0  0
   -4.4690  -20.0500   -5.5570 C   0  0  0  0  0
   -3.7940  -20.2130   -6.9240 C   0  0  0  0  0
   -2.4470  -19.4800   -7.0130 C   0  0  0  0  0
   -1.3180  -20.1900   -6.2530 C   0  0  0  0  0
   -0.9220  -21.4950   -6.9490 C   0  0  0  0  0
    0.5030  -21.5680   -7.3300 N   0  3  0  0  0
   -5.1580  -18.7270   -5.5290 C   0  0  0  0  0
   -4.7120  -17.8290   -4.8150 O   0  0  0  0  0
    0.7470  -22.8930   -7.9030 C   0  0  0  0  0
    1.3770  -21.4530   -6.1550 C   0  0  0  0  0
    0.8510  -20.5220   -8.3100 C   0  0  0  0  0
   -6.2290  -18.5720   -6.3020 N   0  0  0  0  0
   -6.9550  -17.3090   -6.3590 C   0  0  0  0  0
   -8.4080  -17.5350   -6.7650 C   0  0  0  0  0
   -8.7000  -17.8670   -7.9140 O   0  0  0  0  0
   -6.2800  -16.3530   -7.3450 C   0  0  0  0  0
   -6.4550  -16.7920   -8.6810 O   0  0  0  0  0
   -9.3170  -17.3530   -5.8120 N   0  0  0  0  0
  -10.7400  -17.5380   -6.0680 C   0  0  0  0  0
  -11.5140  -16.2460   -5.8310 C   0  0  0  0  0
  -11.0860  -15.3880   -5.0600 O   0  0  0  0  0
  -11.3310  -18.6480   -5.1790 C   0  0  0  0  0
  -10.4300  -19.7590   -5.1180 O   0  0  0  0  0
  -12.6780  -19.1090   -5.7140 C   0  0  0  0  0
  -12.6560  -16.1140   -6.4980 N   0  0  0  0  0
  -13.4720  -14.9240   -6.3450 C   0  0  0  0  0
  -13.2160  -13.9020   -7.4350 C   0  0  0  0  0
  -12.6010  -12.8650   -7.1920 O   0  0  0  0  0
  -13.6890  -14.1960   -8.6430 N   0  0  0  0  0
  -13.4970  -13.2850   -9.7570 C   0  0  0  0  0
  -14.5530  -13.4520  -10.8300 C   0  0  0  0  0
  -14.5310  -14.4210  -11.5900 O   0  0  0  0  0
  -15.4840  -12.5050  -10.8940 N   0  0  0  0  0
  -16.5550  -12.5500  -11.8820 C   0  0  0  0  0
  -16.0390  -12.1580  -13.2630 C   0  0  0  0  0
  -15.0930  -11.3810  -13.3840 O   0  0  0  0  0
  -17.6970  -11.6180  -11.4690 C   0  0  0  0  0
  -18.5010  -12.1280  -10.2860 C   0  0  0  0  0
  -19.5240  -11.1040   -9.8240 C   0  0  0  0  0
  -20.7600  -11.1120  -10.7100 C   0  0  0  0  0
  -21.8920  -10.3680  -10.0910 N   0  3  0  0  0
  -16.6670  -12.7000  -14.3010 N   0  0  0  0  0
  -16.2730  -12.4040  -15.6720 C   0  0  0  0  0
  -17.3560  -11.6100  -16.3950 C   0  0  0  0  0
  -18.1150  -12.1440  -17.2050 O   0  0  0  0  0
  -15.9690  -13.6920  -16.4240 C   0  0  0  0  0
  -17.4320  -10.3050  -16.0980 N   0  0  0  0  0
  -18.4190   -9.4100  -16.7090 C   0  0  0  0  0
  -18.1360   -9.1570  -18.1860 C   0  0  0  0  0
  -17.0460   -9.4500  -18.6780 O   0  0  0  0  0
  -18.2680   -8.1150  -15.9070 C   0  0  0  0  0
  -16.8720   -8.1510  -15.3880 C   0  0  0  0  0
  -16.5590   -9.6010  -15.1430 C   0  0  0  0  0
  -19.1240   -8.6120  -18.8880 N   0  0  0  0  0
  -18.9810   -8.3210  -20.3100 C   0  0  0  0  0
  -17.9740   -7.1960  -20.5360 C   0  0  0  0  0
  -17.0240   -7.3460  -21.3040 O   0  0  0  0  0
  -20.3340   -7.9370  -20.9120 C   0  0  0  0  0
  -21.3360   -9.0790  -20.9360 C   0  0  0  0  0
  -22.7010   -8.6130  -21.4160 C   0  0  0  0  0
  -23.7140   -9.6570  -21.2840 N   0  0  0  0  0
  -24.3130   -9.9590  -20.1380 C   0  0  0  0  0
  -24.0020   -9.3000  -19.0300 N   0  0  0  0  0
  -25.2250  -10.9220  -20.0980 N   0  0  0  0  0
  -18.1900   -6.0720  -19.8620 N   0  0  0  0  0
  -17.3030   -4.9220  -19.9920 C   0  0  0  0  0
  -15.9720   -5.1780  -19.2920 C   0  0  0  0  0
  -15.9370   -5.5380  -18.1170 O   0  0  0  0  0
  -17.9660   -3.6720  -19.4090 C   0  0  0  0  0
  -17.2440   -2.3890  -19.7500 C   0  0  0  0  0
  -16.2180   -1.9110  -18.9430 C   0  0  0  0  0
  -17.5870   -1.6530  -20.8770 C   0  0  0  0  0
  -15.5560   -0.7380  -19.2500 C   0  0  0  0  0
  -16.9290   -0.4810  -21.1930 C   0  0  0  0  0
  -15.9140   -0.0270  -20.3760 C   0  0  0  0  0
  -15.2570    1.1420  -20.6860 O   0  0  0  0  0
  -14.9070   -5.0290  -19.8890 O   0  0  0  0  0
   -2.6056  -35.4301    4.3763 H   0  0  0  0  0
   -1.6808  -35.5905    5.7531 H   0  0  0  0  0
   -2.7517  -36.7929    5.3240 H   0  0  0  0  0
   -4.5950  -35.3709    5.6539 H   0  0  0  0  0
   -2.6800  -35.3914    8.0148 H   0  0  0  0  0
   -4.4480  -35.1944    8.0946 H   0  0  0  0  0
   -3.7480  -36.7333    7.5352 H   0  0  0  0  0
   -5.4562  -33.3856    6.4338 H   0  0  0  0  0
   -3.5022  -31.1251    6.3102 H   0  0  0  0  0
   -4.6647  -31.2988    4.1701 H   0  0  0  0  0
   -5.1874  -29.8111    5.0881 H   0  0  0  0  0
   -7.2635  -30.7410    5.5788 H   0  0  0  0  0
   -6.7378  -32.3864    5.0648 H   0  0  0  0  0
   -8.1623  -31.5021    3.3711 H   0  0  0  0  0
   -6.4627  -31.4526    2.7573 H   0  0  0  0  0
   -6.5712  -29.1437    2.6889 H   0  0  0  0  0
   -9.3118  -30.4545    4.4866 H   0  0  0  0  0
   -9.2095  -27.0371    3.6249 H   0  0  0  0  0
   -7.6485  -27.1503    2.8053 H   0  0  0  0  0
   -3.6895  -29.6269    7.8523 H   0  0  0  0  0
   -6.2086  -29.6265    9.4344 H   0  0  0  0  0
   -4.8006  -29.2336   11.5036 H   0  0  0  0  0
   -2.5895  -29.9559   11.3178 H   0  0  0  0  0
   -5.8266  -31.4125   11.0556 H   0  0  0  0  0
   -4.4182  -31.8864   10.0743 H   0  0  0  0  0
   -4.2325  -31.6118   11.8239 H   0  0  0  0  0
   -3.0848  -27.9355    8.9150 H   0  0  0  0  0
   -3.9177  -25.4199    9.9287 H   0  0  0  0  0
   -1.5886  -26.0128    9.4791 H   0  0  0  0  0
   -2.0681  -24.4892    8.5980 H   0  0  0  0  0
   -2.3478  -25.8412    6.5678 H   0  0  0  0  0
   -1.6888  -27.2576    7.4668 H   0  0  0  0  0
   -0.1770  -24.6675    7.3057 H   0  0  0  0  0
   -0.0943  -25.8848    5.9803 H   0  0  0  0  0
    0.9012  -27.4740    7.3425 H   0  0  0  0  0
    0.3942  -26.6250    8.8538 H   0  0  0  0  0
    2.7355  -26.3738    8.4190 H   0  0  0  0  0
    2.4258  -25.6861    6.9330 H   0  0  0  0  0
    1.9580  -24.9028    8.3274 H   0  0  0  0  0
   -4.3772  -23.4302    8.7892 H   0  0  0  0  0
   -6.5298  -23.7891    6.9085 H   0  0  0  0  0
   -5.0840  -21.1834    7.2684 H   0  0  0  0  0
   -6.0881  -21.8963    8.6139 H   0  0  0  0  0
   -7.0643  -21.2657    5.8363 H   0  0  0  0  0
   -7.2823  -20.2117    7.2963 H   0  0  0  0  0
   -9.6394  -23.5082    6.6453 H   0  0  0  0  0
   -8.2531  -23.1460    5.6118 H   0  0  0  0  0
   -6.4238  -24.1927    4.8234 H   0  0  0  0  0
   -4.2850  -22.8795    3.2600 H   0  0  0  0  0
   -4.8995  -25.8186    2.8247 H   0  0  0  0  0
   -2.9055  -26.1843    3.9807 H   0  0  0  0  0
   -3.8973  -24.6133    0.9423 H   0  0  0  0  0
   -2.5771  -24.0463    1.9941 H   0  0  0  0  0
   -2.7432  -25.7817    1.6307 H   0  0  0  0  0
   -4.8224  -22.4009    1.1480 H   0  0  0  0  0
   -7.4082  -23.4237    0.1169 H   0  0  0  0  0
   -8.0125  -21.3737    1.3189 H   0  0  0  0  0
   -6.7753  -20.4654    0.4159 H   0  0  0  0  0
   -8.1831  -21.1430   -0.4386 H   0  0  0  0  0
   -7.7734  -22.8981   -2.1600 H   0  0  0  0  0
   -5.2324  -23.1617   -3.6094 H   0  0  0  0  0
   -6.8762  -23.2273   -5.6027 H   0  0  0  0  0
   -8.1477  -23.3537   -4.3009 H   0  0  0  0  0
   -7.1045  -25.3620   -3.4821 H   0  0  0  0  0
   -5.8297  -25.2329   -4.7482 H   0  0  0  0  0
   -7.3387  -26.7955   -5.5977 H   0  0  0  0  0
   -7.7942  -25.2428   -6.4033 H   0  0  0  0  0
   -9.3388  -25.5645   -4.0421 H   0  0  0  0  0
   -8.9272  -26.9607   -7.2578 H   0  0  0  0  0
  -12.0635  -27.0708   -5.6495 H   0  0  0  0  0
  -11.5013  -26.2344   -4.1984 H   0  0  0  0  0
   -5.7126  -21.7743   -6.0902 H   0  0  0  0  0
   -3.7118  -20.1148   -4.7756 H   0  0  0  0  0
   -4.4568  -19.7865   -7.6769 H   0  0  0  0  0
   -3.6071  -21.2755   -7.0798 H   0  0  0  0  0
   -2.5776  -18.4952   -6.5644 H   0  0  0  0  0
   -2.1623  -19.4405   -8.0644 H   0  0  0  0  0
   -1.6670  -20.4228   -5.2470 H   0  0  0  0  0
   -0.4493  -19.5323   -6.2239 H   0  0  0  0  0
   -1.5048  -21.5597   -7.8678 H   0  0  0  0  0
   -1.1090  -22.3054   -6.2445 H   0  0  0  0  0
    0.5141  -23.6568   -7.1610 H   0  0  0  0  0
    0.1135  -23.0308   -8.7793 H   0  0  0  0  0
    1.7943  -22.9744   -8.1938 H   0  0  0  0  0
    1.1979  -20.4971   -5.6627 H   0  0  0  0  0
    1.1609  -22.2662   -5.4621 H   0  0  0  0  0
    2.4185  -21.5107   -6.4714 H   0  0  0  0  0
    0.2450  -20.6502   -9.2069 H   0  0  0  0  0
    0.6576  -19.5408   -7.8764 H   0  0  0  0  0
    1.9067  -20.6047   -8.5684 H   0  0  0  0  0
   -6.5506  -19.3564   -6.8692 H   0  0  0  0  0
   -6.9397  -16.8640   -5.3641 H   0  0  0  0  0
   -5.2129  -16.3208   -7.1251 H   0  0  0  0  0
   -6.7317  -15.3666   -7.2397 H   0  0  0  0  0
   -6.0233  -16.1765   -9.2780 H   0  0  0  0  0
   -9.0111  -17.0772   -4.8789 H   0  0  0  0  0
  -10.8376  -17.8299   -7.1136 H   0  0  0  0  0
  -11.4750  -18.2431   -4.1773 H   0  0  0  0  0
  -10.8068  -20.4450   -4.5621 H   0  0  0  0  0
  -13.3688  -18.2660   -5.7303 H   0  0  0  0  0
  -12.5525  -19.4972   -6.7248 H   0  0  0  0  0
  -13.0747  -19.8930   -5.0690 H   0  0  0  0  0
  -12.9624  -16.8580   -7.1248 H   0  0  0  0  0
  -13.2226  -14.4654   -5.3881 H   0  0  0  0  0
  -14.5184  -15.2235   -6.4032 H   0  0  0  0  0
  -14.1922  -15.0713   -8.7883 H   0  0  0  0  0
  -12.5262  -13.4993  -10.2038 H   0  0  0  0  0
  -13.5638  -12.2665   -9.3745 H   0  0  0  0  0
  -15.4480  -11.7272  -10.2351 H   0  0  0  0  0
  -16.9280  -13.5731  -11.9302 H   0  0  0  0  0
  -18.3774  -11.5395  -12.3169 H   0  0  0  0  0
  -17.2526  -10.6668  -11.1762 H   0  0  0  0  0
  -17.8150  -12.3262   -9.4624 H   0  0  0  0  0
  -19.0302  -13.0305  -10.5919 H   0  0  0  0  0
  -19.0693  -10.1147   -9.8746 H   0  0  0  0  0
  -19.8267  -11.3530   -8.8069 H   0  0  0  0  0
  -21.0699  -12.1469  -10.8550 H   0  0  0  0  0
  -20.5076  -10.6273  -11.6531 H   0  0  0  0  0
  -22.6983  -10.3974  -10.7150 H   0  0  0  0  0
  -22.1345  -10.8004   -9.1996 H   0  0  0  0  0
  -21.6157   -9.3984   -9.9359 H   0  0  0  0  0
  -17.4442  -13.3391  -14.1338 H   0  0  0  0  0
  -15.3708  -11.7931  -15.6407 H   0  0  0  0  0
  -15.1557  -14.2191  -15.9253 H   0  0  0  0  0
  -16.8582  -14.3223  -16.4368 H   0  0  0  0  0
  -15.6762  -13.4537  -17.4465 H   0  0  0  0  0
  -19.4239   -9.8312  -16.6799 H   0  0  0  0  0
  -18.9993   -8.0483  -15.1015 H   0  0  0  0  0
  -18.4505   -7.2332  -16.5211 H   0  0  0  0  0
  -16.7754   -7.5660  -14.4734 H   0  0  0  0  0
  -16.1742   -7.7111  -16.1005 H   0  0  0  0  0
  -15.5042   -9.8324  -15.2910 H   0  0  0  0  0
  -16.7409   -9.8999  -14.1107 H   0  0  0  0  0
  -20.0037   -8.3919  -18.4210 H   0  0  0  0  0
  -18.6128   -9.2200  -20.8043 H   0  0  0  0  0
  -20.1582   -7.6351  -21.9445 H   0  0  0  0  0
  -20.7550   -7.1461  -20.2912 H   0  0  0  0  0
  -21.4406   -9.4677  -19.9231 H   0  0  0  0  0
  -20.9715   -9.8436  -21.6220 H   0  0  0  0  0
  -22.6194   -8.3490  -22.4704 H   0  0  0  0  0
  -23.0055   -7.7638  -20.8043 H   0  0  0  0  0
  -23.9756  -10.1829  -22.1179 H   0  0  0  0  0
  -23.3013   -8.5593  -19.0568 H   0  0  0  0  0
  -25.6842  -11.1532  -19.2171 H   0  0  0  0  0
  -25.4668  -11.4310  -20.9482 H   0  0  0  0  0
  -18.9953   -6.0119  -19.2388 H   0  0  0  0  0
  -17.1100   -4.7625  -21.0528 H   0  0  0  0  0
  -17.9571   -3.7734  -18.3238 H   0  0  0  0  0
  -18.9679   -3.6057  -19.8330 H   0  0  0  0  0
  -15.9310   -2.4711  -18.0531 H   0  0  0  0  0
  -18.3900   -2.0070  -21.5235 H   0  0  0  0  0
  -14.7548   -0.3763  -18.6055 H   0  0  0  0  0
  -17.2098    0.0824  -22.0829 H   0  0  0  0  0
  -15.6240    1.5096  -21.4933 H   0  0  0  0  0
  -15.0831   -4.7483  -20.7900 H   0  0  0  0  0
  1  2  1  0  0  0
  2  3  1  0  0  0
  2  5  1  0  0  0
  3  4  2  0  0  0
  3  6  1  0  0  0
  6  7  1  0  0  0
  7  8  1  0  0  0
  7 10  1  0  0  0
  8  9  2  0  0  0
  8 17  1  0  0  0
 10 11  1  0  0  0
 11 12  1  0  0  0
 12 13  1  0  0  0
 13 14  1  0  0  0
 14 15  2  0  0  0
 14 16  1  0  0  0
 17 18  1  0  0  0
 18 19  1  0  0  0
 18 21  1  0  0  0
 19 20  2  0  0  0
 19 24  1  0  0  0
 21 22  1  0  0  0
 21 23  1  0  0  0
 24 25  1  0  0  0
 25 26  1  0  0  0
 25 28  1  0  0  0
 26 27  2  0  0  0
 26 33  1  0  0  0
 28 29  1  0  0  0
 29 30  1  0  0  0
 30 31  1  0  0  0
 31 32  1  0  0  0
 33 34  1  0  0  0
 34 35  1  0  0  0
 34 37  1  0  0  0
 35 36  2  0  0  0
 35 42  1  0  0  0
 37 38  1  0  0  0
 38 39  1  0  0  0
 39 40  2  0  0  0
 39 41  1  0  0  0
 42 43  1  0  0  0
 43 44  1  0  0  0
 43 46  1  0  0  0
 44 45  2  0  0  0
 44 49  1  0  0  0
 46 47  1  0  0  0
 46 48  1  0  0  0
 49 50  1  0  0  0
 50 51  1  0  0  0
 50 53  1  0  0  0
 51 52  2  0  0  0
 51 54  1  0  0  0
 54 55  1  0  0  0
 55 56  1  0  0  0
 55 58  1  0  0  0
 56 57  2  0  0  0
 56 65  1  0  0  0
 58 59  1  0  0  0
 59 60  1  0  0  0
 60 61  1  0  0  0
 61 62  1  0  0  0
 62 63  2  0  0  0
 62 64  1  0  0  0
 65 66  1  0  0  0
 66 67  1  0  0  0
 66 72  1  0  0  0
 67 68  1  0  0  0
 68 69  1  0  0  0
 69 70  1  0  0  0
 70 71  1  0  0  0
 71 74  1  0  0  0
 71 75  1  0  0  0
 71 76  1  0  0  0
 72 73  2  0  0  0
 72 77  1  0  0  0
 77 78  1  0  0  0
 78 79  1  0  0  0
 78 81  1  0  0  0
 79 80  2  0  0  0
 79 83  1  0  0  0
 81 82  1  0  0  0
 83 84  1  0  0  0
 84 85  1  0  0  0
 84 87  1  0  0  0
 85 86  2  0  0  0
 85 90  1  0  0  0
 87 88  1  0  0  0
 87 89  1  0  0  0
 90 91  1  0  0  0
 91 92  1  0  0  0
 92 93  2  0  0  0
 92 94  1  0  0  0
 94 95  1  0  0  0
 95 96  1  0  0  0
 96 97  2  0  0  0
 96 98  1  0  0  0
 98 99  1  0  0  0
 99100  1  0  0  0
 99102  1  0  0  0
100101  2  0  0  0
100107  1  0  0  0
102103  1  0  0  0
103104  1  0  0  0
104105  1  0  0  0
105106  1  0  0  0
107108  1  0  0  0
108109  1  0  0  0
108111  1  0  0  0
109110  2  0  0  0
109112  1  0  0  0
112113  1  0  0  0
112118  1  0  0  0
113114  1  0  0  0
113116  1  0  0  0
114115  2  0  0  0
114119  1  0  0  0
116117  1  0  0  0
117118  1  0  0  0
119120  1  0  0  0
120121  1  0  0  0
120123  1  0  0  0
121122  2  0  0  0
121130  1  0  0  0
123124  1  0  0  0
124125  1  0  0  0
125126  1  0  0  0
126127  1  0  0  0
127128  2  0  0  0
127129  1  0  0  0
130131  1  0  0  0
131132  1  0  0  0
131134  1  0  0  0
132133  2  0  0  0
132142  1  0  0  0
134135  1  0  0  0
135136  4  0  0  0
135137  4  0  0  0
136138  4  0  0  0
137139  4  0  0  0
138140  4  0  0  0
139140  4  0  0  0
140141  1  0  0  0
  1143  1  0  0  0
  1144  1  0  0  0
  1145  1  0  0  0
  2146  1  0  0  0
  5147  1  0  0  0
  5148  1  0  0  0
  5149  1  0  0  0
  6150  1  0  0  0
  7151  1  0  0  0
 10152  1  0  0  0
 10153  1  0  0  0
 11154  1  0  0  0
 11155  1  0  0  0
 12156  1  0  0  0
 12157  1  0  0  0
 13158  1  0  0  0
 15159  1  0  0  0
 16160  1  0  0  0
 16161  1  0  0  0
 17162  1  0  0  0
 18163  1  0  0  0
 21164  1  0  0  0
 22165  1  0  0  0
 23166  1  0  0  0
 23167  1  0  0  0
 23168  1  0  0  0
 24169  1  0  0  0
 25170  1  0  0  0
 28171  1  0  0  0
 28172  1  0  0  0
 29173  1  0  0  0
 29174  1  0  0  0
 30175  1  0  0  0
 30176  1  0  0  0
 31177  1  0  0  0
 31178  1  0  0  0
 32179  1  0  0  0
 32180  1  0  0  0
 32181  1  0  0  0
 33182  1  0  0  0
 34183  1  0  0  0
 37184  1  0  0  0
 37185  1  0  0  0
 38186  1  0  0  0
 38187  1  0  0  0
 41188  1  0  0  0
 41189  1  0  0  0
 42190  1  0  0  0
 43191  1  0  0  0
 46192  1  0  0  0
 47193  1  0  0  0
 48194  1  0  0  0
 48195  1  0  0  0
 48196  1  0  0  0
 49197  1  0  0  0
 50198  1  0  0  0
 53199  1  0  0  0
 53200  1  0  0  0
 53201  1  0  0  0
 54202  1  0  0  0
 55203  1  0  0  0
 58204  1  0  0  0
 58205  1  0  0  0
 59206  1  0  0  0
 59207  1  0  0  0
 60208  1  0  0  0
 60209  1  0  0  0
 61210  1  0  0  0
 63211  1  0  0  0
 64212  1  0  0  0
 64213  1  0  0  0
 65214  1  0  0  0
 66215  1  0  0  0
 67216  1  0  0  0
 67217  1  0  0  0
 68218  1  0  0  0
 68219  1  0  0  0
 69220  1  0  0  0
 69221  1  0  0  0
 70222  1  0  0  0
 70223  1  0  0  0
 74224  1  0  0  0
 74225  1  0  0  0
 74226  1  0  0  0
 75227  1  0  0  0
 75228  1  0  0  0
 75229  1  0  0  0
 76230  1  0  0  0
 76231  1  0  0  0
 76232  1  0  0  0
 77233  1  0  0  0
 78234  1  0  0  0
 81235  1  0  0  0
 81236  1  0  0  0
 82237  1  0  0  0
 83238  1  0  0  0
 84239  1  0  0  0
 87240  1  0  0  0
 88241  1  0  0  0
 89242  1  0  0  0
 89243  1  0  0  0
 89244  1  0  0  0
 90245  1  0  0  0
 91246  1  0  0  0
 91247  1  0  0  0
 94248  1  0  0  0
 95249  1  0  0  0
 95250  1  0  0  0
 98251  1  0  0  0
 99252  1  0  0  0
102253  1  0  0  0
102254  1  0  0  0
103255  1  0  0  0
103256  1  0  0  0
104257  1  0  0  0
104258  1  0  0  0
105259  1  0  0  0
105260  1  0  0  0
106261  1  0  0  0
106262  1  0  0  0
106263  1  0  0  0
107264  1  0  0  0
108265  1  0  0  0
111266  1  0  0  0
111267  1  0  0  0
111268  1  0  0  0
113269  1  0  0  0
116270  1  0  0  0
116271  1  0  0  0
117272  1  0  0  0
117273  1  0  0  0
118274  1  0  0  0
118275  1  0  0  0
119276  1  0  0  0
120277  1  0  0  0
123278  1  0  0  0
123279  1  0  0  0
124280  1  0  0  0
124281  1  0  0  0
125282  1  0  0  0
125283  1  0  0  0
126284  1  0  0  0
128285  1  0  0  0
129286  1  0  0  0
129287  1  0  0  0
130288  1  0  0  0
131289  1  0  0  0
134290  1  0  0  0
134291  1  0  0  0
136292  1  0  0  0
137293  1  0  0  0
138294  1  0  0  0
139295  1  0  0  0
141296  1  0  0  0
142297  1  0  0  0
M  END
$$$$
