### 
### Created by X-TOOL on Mon Sep 10 21:13:30 2018
### 

@<TRIPOS>MOLECULE
2rvn_ligand
  299   300     1     0     0
SMALL
GAST_HUCK


@<TRIPOS>ATOM
      1 N          -2.5890  -35.7860    5.3320 N.4       1 ALA         0.2377
      2 CA         -3.6340  -35.1330    6.1100 C.3       1 ALA         0.0621
      3 C          -3.4660  -33.6180    6.0920 C.2       1 ALA         0.2264
      4 O          -2.3610  -33.1090    5.9070 O.2       1 ALA        -0.3907
      5 CB         -3.6270  -35.6500    7.5410 C.3       1 ALA        -0.0040
      6 N          -4.5700  -32.9030    6.2850 N.am      1 ARG        -0.2610
      7 CA         -4.5440  -31.4450    6.2890 C.3       1 ARG         0.1312
      8 C          -5.2460  -30.8920    7.5260 C.2       1 ARG         0.2040
      9 O          -6.3490  -31.3200    7.8710 O.2       1 ARG        -0.3944
     10 CB         -5.2100  -30.8990    5.0250 C.3       1 ARG        -0.0092
     11 CG         -6.6640  -31.3160    4.8730 C.3       1 ARG        -0.0156
     12 CD         -7.1790  -31.0420    3.4690 C.3       1 ARG         0.0627
     13 NE         -7.3160  -29.6120    3.2050 N.pl3     1 ARG        -0.2723
     14 CZ         -8.3570  -28.8880    3.6000 C.cat     1 ARG         0.2882
     15 NH1        -9.3480  -29.4580    4.2720 N.pl3     1 ARG        -0.2849
     16 NH2        -8.4090  -27.5920    3.3220 N.pl3     1 ARG        -0.2849
     17 N          -4.6000  -29.9390    8.1900 N.am      1 THR        -0.2613
     18 CA         -5.1610  -29.3290    9.3890 C.3       1 THR         0.1565
     19 C          -5.0700  -27.8090    9.3260 C.2       1 THR         0.2065
     20 O          -6.0660  -27.1090    9.5140 O.2       1 THR        -0.3943
     21 CB         -4.4420  -29.8220   10.6590 C.3       1 THR         0.0924
     22 OG1        -3.0280  -29.6460   10.5220 O.3       1 THR        -0.3874
     23 CG2        -4.7520  -31.2880   10.9220 C.3       1 THR        -0.0346
     24 N          -3.8710  -27.3020    9.0600 N.am      1 LYS        -0.2637
     25 CA         -3.6500  -25.8640    8.9700 C.3       1 LYS         0.1310
     26 C          -4.5290  -25.2450    7.8870 C.2       1 LYS         0.2039
     27 O          -4.9730  -25.9330    6.9680 O.2       1 LYS        -0.3944
     28 CB         -2.1770  -25.5710    8.6750 C.3       1 LYS        -0.0122
     29 CG         -1.6870  -26.1720    7.3690 C.3       1 LYS        -0.0440
     30 CD         -0.2730  -25.7210    7.0430 C.3       1 LYS        -0.0124
     31 CE          0.7590  -26.5110    7.8330 C.3       1 LYS        -0.0354
     32 NZ          2.0740  -25.8130    7.8820 N.4       1 LYS         0.2185
     33 N          -4.7750  -23.9440    8.0030 N.am      1 GLN        -0.2636
     34 CA         -5.6000  -23.2340    7.0330 C.3       1 GLN         0.1330
     35 C          -4.9010  -23.1530    5.6800 C.2       1 GLN         0.2041
     36 O          -3.8180  -22.5790    5.5600 O.2       1 GLN        -0.3944
     37 CB         -5.9210  -21.8270    7.5390 C.3       1 GLN         0.0045
     38 CG         -7.1750  -21.2290    6.9200 C.3       1 GLN         0.0412
     39 CD         -8.4300  -21.9970    7.2870 C.2       1 GLN         0.1737
     40 OE1        -9.0570  -21.7290    8.3120 O.2       1 GLN        -0.3973
     41 NE2        -8.8030  -22.9580    6.4500 N.am      1 GLN        -0.3009
     42 N          -5.5280  -23.7330    4.6600 N.am      1 THR        -0.2613
     43 CA         -4.9670  -23.7280    3.3150 C.3       1 THR         0.1565
     44 C          -6.0590  -23.5650    2.2640 C.2       1 THR         0.2065
     45 O          -7.1560  -24.1030    2.4080 O.2       1 THR        -0.3943
     46 CB         -4.1830  -25.0230    3.0290 C.3       1 THR         0.0924
     47 OG1        -3.3900  -25.3770    4.1680 O.3       1 THR        -0.3874
     48 CG2        -3.2860  -24.8540    1.8120 C.3       1 THR        -0.0346
     49 N          -5.7500  -22.8210    1.2070 N.am      1 ALA        -0.2639
     50 CA         -6.7050  -22.5910    0.1300 C.3       1 ALA         0.1282
     51 C          -6.0050  -22.5440   -1.2240 C.2       1 ALA         0.2036
     52 O          -4.7930  -22.3390   -1.3000 O.2       1 ALA        -0.3944
     53 CB         -7.4740  -21.3010    0.3740 C.3       1 ALA        -0.0244
     54 N          -6.7750  -22.7350   -2.2900 N.am      1 ARG        -0.2637
     55 CA         -6.2270  -22.7170   -3.6410 C.3       1 ARG         0.1311
     56 C          -6.1030  -21.2860   -4.1570 C.2       1 ARG         0.2039
     57 O          -6.5560  -20.3290   -3.5080 O.2       1 ARG        -0.3944
     58 CB         -7.1110  -23.5360   -4.5840 C.3       1 ARG        -0.0092
     59 CG         -6.8710  -25.0340   -4.4950 C.3       1 ARG        -0.0156
     60 CD         -7.7580  -25.7980   -5.4660 C.3       1 ARG         0.0627
     61 NE         -9.1230  -25.9390   -4.9660 N.pl3     1 ARG        -0.2723
     62 CZ        -10.0990  -26.5280   -5.6480 C.cat     1 ARG         0.2882
     63 NH1        -9.8610  -27.0280   -6.8530 N.pl3     1 ARG        -0.2849
     64 NH2       -11.3150  -26.6180   -5.1250 N.pl3     1 ARG        -0.2849
     65 N          -5.4880  -21.1360   -5.3270 N.am      1 M3L        -0.2637
     66 CA         -4.4690  -20.0500   -5.5570 C.3       1 M3L         0.1310
     67 CB         -3.7940  -20.2130   -6.9240 C.3       1 M3L        -0.0122
     68 CG         -2.4470  -19.4800   -7.0130 C.3       1 M3L        -0.0440
     69 CD         -1.3180  -20.1900   -6.2530 C.3       1 M3L        -0.0123
     70 CE         -0.9220  -21.4950   -6.9490 C.3       1 M3L        -0.0309
     71 NZ          0.5030  -21.5680   -7.3300 N.4       1 M3L         0.2369
     72 C          -5.1580  -18.7270   -5.5290 C.2       1 M3L         0.2040
     73 O          -4.7120  -17.8290   -4.8150 O.2       1 M3L        -0.3944
     74 CM1         0.7470  -22.8930   -7.9030 C.3       1 M3L        -0.0418
     75 CM2         1.3770  -21.4530   -6.1550 C.3       1 M3L        -0.0418
     76 CM3         0.8510  -20.5220   -8.3100 C.3       1 M3L        -0.0418
     77 N          -6.2290  -18.5720   -6.3020 N.am      1 SER        -0.2616
     78 CA         -6.9550  -17.3090   -6.3590 C.3       1 SER         0.1539
     79 C          -8.4080  -17.5350   -6.7650 C.2       1 SER         0.2063
     80 O          -8.7000  -17.8670   -7.9140 O.2       1 SER        -0.3943
     81 CB         -6.2800  -16.3530   -7.3450 C.3       1 SER         0.0843
     82 OG         -6.4550  -16.7920   -8.6810 O.3       1 SER        -0.3903
     83 N          -9.3170  -17.3530   -5.8120 N.am      1 THR        -0.2613
     84 CA        -10.7400  -17.5380   -6.0680 C.3       1 THR         0.1565
     85 C         -11.5140  -16.2460   -5.8310 C.2       1 THR         0.2063
     86 O         -11.0860  -15.3880   -5.0600 O.2       1 THR        -0.3943
     87 CB        -11.3310  -18.6480   -5.1790 C.3       1 THR         0.0924
     88 OG1       -10.4300  -19.7590   -5.1180 O.3       1 THR        -0.3874
     89 CG2       -12.6780  -19.1090   -5.7140 C.3       1 THR        -0.0346
     90 N         -12.6560  -16.1140   -6.4980 N.am      1 GLY        -0.2663
     91 CA        -13.4720  -14.9240   -6.3450 C.3       1 GLY         0.1201
     92 C         -13.2160  -13.9020   -7.4350 C.2       1 GLY         0.2005
     93 O         -12.6010  -12.8650   -7.1920 O.2       1 GLY        -0.3947
     94 N         -13.6890  -14.1960   -8.6430 N.am      1 GLY        -0.2666
     95 CA        -13.4970  -13.2850   -9.7570 C.3       1 GLY         0.1201
     96 C         -14.5530  -13.4520  -10.8300 C.2       1 GLY         0.2007
     97 O         -14.5310  -14.4210  -11.5900 O.2       1 GLY        -0.3947
     98 N         -15.4840  -12.5050  -10.8940 N.am      1 LYS        -0.2640
     99 CA        -16.5550  -12.5500  -11.8820 C.3       1 LYS         0.1310
    100 C         -16.0390  -12.1580  -13.2630 C.2       1 LYS         0.2039
    101 O         -15.0930  -11.3810  -13.3840 O.2       1 LYS        -0.3944
    102 CB        -17.6970  -11.6180  -11.4690 C.3       1 LYS        -0.0122
    103 CG        -18.5010  -12.1280  -10.2860 C.3       1 LYS        -0.0440
    104 CD        -19.5240  -11.1040   -9.8240 C.3       1 LYS        -0.0124
    105 CE        -20.7600  -11.1120  -10.7100 C.3       1 LYS        -0.0354
    106 NZ        -21.8920  -10.3680  -10.0910 N.4       1 LYS         0.2185
    107 N         -16.6670  -12.7000  -14.3010 N.am      1 ALA        -0.2640
    108 CA        -16.2730  -12.4040  -15.6720 C.3       1 ALA         0.1284
    109 C         -17.3560  -11.6100  -16.3950 C.2       1 ALA         0.2061
    110 O         -18.1150  -12.1440  -17.2050 O.2       1 ALA        -0.3942
    111 CB        -15.9690  -13.6920  -16.4240 C.3       1 ALA        -0.0244
    112 N         -17.4320  -10.3050  -16.0980 N.am      1 PRO        -0.2498
    113 CA        -18.4190   -9.4100  -16.7090 C.3       1 PRO         0.1338
    114 C         -18.1360   -9.1570  -18.1860 C.2       1 PRO         0.2041
    115 O         -17.0460   -9.4500  -18.6780 O.2       1 PRO        -0.3944
    116 CB        -18.2680   -8.1150  -15.9070 C.3       1 PRO        -0.0104
    117 CG        -16.8720   -8.1510  -15.3880 C.3       1 PRO        -0.0281
    118 CD        -16.5590   -9.6010  -15.1430 C.3       1 PRO         0.0369
    119 N         -19.1240   -8.6120  -18.8880 N.am      1 ARG        -0.2637
    120 CA        -18.9810   -8.3210  -20.3100 C.3       1 ARG         0.1311
    121 C         -17.9740   -7.1960  -20.5360 C.2       1 ARG         0.2035
    122 O         -17.0240   -7.3460  -21.3040 O.2       1 ARG        -0.3944
    123 CB        -20.3340   -7.9370  -20.9120 C.3       1 ARG        -0.0092
    124 CG        -21.3360   -9.0790  -20.9360 C.3       1 ARG        -0.0156
    125 CD        -22.7010   -8.6130  -21.4160 C.3       1 ARG         0.0627
    126 NE        -23.7140   -9.6570  -21.2840 N.pl3     1 ARG        -0.2723
    127 CZ        -24.3130   -9.9590  -20.1380 C.cat     1 ARG         0.2882
    128 NH1       -24.0020   -9.3000  -19.0300 N.pl3     1 ARG        -0.2849
    129 NH2       -25.2250  -10.9220  -20.0980 N.pl3     1 ARG        -0.2849
    130 N         -18.1900   -6.0720  -19.8620 N.am      1 TYR        -0.2679
    131 CA        -17.3030   -4.9220  -19.9920 C.3       1 TYR         0.1025
    132 C         -15.9720   -5.1780  -19.2920 C.2       1 TYR         0.0619
    133 O         -15.9370   -5.5380  -18.1170 O.co2     1 TYR        -0.5665
    134 CB        -17.9660   -3.6720  -19.4090 C.3       1 TYR         0.0108
    135 CG        -17.2440   -2.3890  -19.7500 C.ar      1 TYR        -0.0499
    136 CD1       -16.2180   -1.9110  -18.9430 C.ar      1 TYR        -0.0686
    137 CD2       -17.5870   -1.6530  -20.8770 C.ar      1 TYR        -0.0686
    138 CE1       -15.5560   -0.7380  -19.2500 C.ar      1 TYR        -0.0398
    139 CE2       -16.9290   -0.4810  -21.1930 C.ar      1 TYR        -0.0398
    140 CZ        -15.9140   -0.0270  -20.3760 C.ar      1 TYR         0.0805
    141 OH        -15.2570    1.1420  -20.6860 O.3       1 TYR        -0.3376
    142 OXT       -14.9070   -5.0290  -19.8890 O.co2     1 TYR        -0.5665
    143 H1         -2.7233  -36.7846    5.3604 H         1 ALA         0.2015
    144 H2         -1.6877  -35.5570    5.7210 H         1 ALA         0.2015
    145 H3         -2.6332  -35.4682    4.3765 H         1 ALA         0.2015
    146 H4         -4.6059  -35.3776    5.6566 H         1 ALA         0.1095
    147 H5         -4.4199  -35.1490    8.1157 H         1 ALA         0.0310
    148 H6         -2.6509  -35.4393    8.0023 H         1 ALA         0.0310
    149 H7         -3.8053  -36.7354    7.5396 H         1 ALA         0.0310
    150 H8         -5.4388  -33.3762    6.4309 H         1 ARG         0.1884
    151 H9         -3.4948  -31.1150    6.3049 H         1 ARG         0.0800
    152 H10        -4.6504  -31.2650    4.1515 H         1 ARG         0.0313
    153 H11        -5.1650  -29.8004    5.0553 H         1 ARG         0.0313
    154 H12        -7.2746  -30.7525    5.5938 H         1 ARG         0.0301
    155 H13        -6.7507  -32.3925    5.0816 H         1 ARG         0.0301
    156 H14        -8.1626  -31.5204    3.3520 H         1 ARG         0.0689
    157 H15        -6.4737  -31.4712    2.7421 H         1 ARG         0.0689
    158 H16        -6.5639  -29.1391    2.6838 H         1 ARG         0.2642
    159 H17       -10.1543  -28.8944    4.5773 H         1 ARG         0.2615
    160 H18        -9.3114  -30.4643    4.4887 H         1 ARG         0.2615
    161 H19        -7.6411  -27.1460    2.8002 H         1 ARG         0.2615
    162 H20        -9.2173  -27.0317    3.6279 H         1 ARG         0.2615
    163 H21        -3.7074  -29.6330    7.8589 H         1 THR         0.1884
    164 H22        -6.2213  -29.6145    9.4542 H         1 THR         0.0826
    165 H23        -4.7934  -29.2277   11.5153 H         1 THR         0.0639
    166 H24        -2.5941  -29.9527   11.3094 H         1 THR         0.2101
    167 H25        -4.2283  -31.6160   11.8320 H         1 THR         0.0257
    168 H26        -4.4156  -31.8930   10.0672 H         1 THR         0.0257
    169 H27        -5.8363  -31.4150   11.0570 H         1 THR         0.0257
    170 H28        -3.1002  -27.9230    8.9179 H         1 LYS         0.1883
    171 H29        -3.9129  -25.4096    9.9366 H         1 LYS         0.0800
    172 H30        -1.5698  -25.9807    9.4957 H         1 LYS         0.0312
    173 H31        -2.0420  -24.4803    8.6281 H         1 LYS         0.0312
    174 H32        -2.3585  -25.8571    6.5567 H         1 LYS         0.0269
    175 H33        -1.7017  -27.2687    7.4527 H         1 LYS         0.0269
    176 H34        -0.1721  -24.6538    7.2899 H         1 LYS         0.0317
    177 H35        -0.0896  -25.8677    5.9684 H         1 LYS         0.0317
    178 H36         0.8953  -27.4934    7.3573 H         1 LYS         0.0813
    179 H37         0.3911  -26.6490    8.8604 H         1 LYS         0.0813
    180 H38         2.7285  -26.3664    8.4125 H         1 LYS         0.1994
    181 H39         1.9607  -24.9133    8.3221 H         1 LYS         0.1994
    182 H40         2.4227  -25.6871    6.9447 H         1 LYS         0.1994
    183 H41        -4.3850  -23.4402    8.7738 H         1 GLN         0.1883
    184 H42        -6.5429  -23.7863    6.9070 H         1 GLN         0.0801
    185 H43        -5.0702  -21.1704    7.3043 H         1 GLN         0.0337
    186 H44        -6.0591  -21.8726    8.6293 H         1 GLN         0.0337
    187 H45        -7.0653  -21.2359    5.8255 H         1 GLN         0.0504
    188 H46        -7.2812  -20.1921    7.2714 H         1 GLN         0.0504
    189 H47        -9.6231  -23.4973    6.6414 H         1 GLN         0.1814
    190 H48        -8.2638  -23.1424    5.6282 H         1 GLN         0.1814
    191 H49        -6.4062  -24.1837    4.8202 H         1 THR         0.1884
    192 H50        -4.2753  -22.8763    3.2363 H         1 THR         0.0826
    193 H51        -4.9006  -25.8324    2.8292 H         1 THR         0.0639
    194 H52        -3.9575  -25.5136    4.9175 H         1 THR         0.2101
    195 H53        -2.7376  -25.7896    1.6280 H         1 THR         0.0257
    196 H54        -2.5700  -24.0392    1.9945 H         1 THR         0.0257
    197 H55        -3.9018  -24.6111    0.9335 H         1 THR         0.0257
    198 H56        -4.8406  -22.4091    1.1491 H         1 ALA         0.1883
    199 H57        -7.4210  -23.4260    0.1192 H         1 ALA         0.0797
    200 H58        -8.1900  -21.1404   -0.4455 H         1 ALA         0.0277
    201 H59        -6.7700  -20.4569    0.4164 H         1 ALA         0.0277
    202 H60        -8.0180  -21.3731    1.3273 H         1 ALA         0.0277
    203 H61        -7.7539  -22.8949   -2.1626 H         1 ARG         0.1883
    204 H62        -5.2244  -23.1689   -3.6169 H         1 ARG         0.0800
    205 H63        -6.9115  -23.2126   -5.6163 H         1 ARG         0.0313
    206 H64        -8.1637  -23.3371   -4.3344 H         1 ARG         0.0313
    207 H65        -7.0888  -25.3709   -3.4708 H         1 ARG         0.0301
    208 H66        -5.8175  -25.2423   -4.7333 H         1 ARG         0.0301
    209 H67        -7.3321  -26.8000   -5.6228 H         1 ARG         0.0689
    210 H68        -7.7848  -25.2570   -6.4234 H         1 ARG         0.0689
    211 H69        -9.3409  -25.5608   -4.0330 H         1 ARG         0.2642
    212 H70       -10.6191  -27.4843   -7.3802 H         1 ARG         0.2615
    213 H71        -8.9180  -26.9600   -7.2617 H         1 ARG         0.2615
    214 H72       -11.5031  -26.2307   -4.1893 H         1 ARG         0.2615
    215 H73       -12.0709  -27.0752   -5.6547 H         1 ARG         0.2615
    216 H74        -5.7082  -21.7618   -6.0752 H         1 M3L         0.1883
    217 H75        -3.7070  -20.0915   -4.7647 H         1 M3L         0.0800
    218 H76        -4.4648  -19.8110   -7.6976 H         1 M3L         0.0312
    219 H77        -3.6240  -21.2843   -7.1067 H         1 M3L         0.0312
    220 H78        -2.5701  -18.4710   -6.5926 H         1 M3L         0.0269
    221 H79        -2.1605  -19.4035   -8.0722 H         1 M3L         0.0269
    222 H80        -1.6589  -20.4164   -5.2320 H         1 M3L         0.0317
    223 H81        -0.4419  -19.5263   -6.2084 H         1 M3L         0.0317
    224 H82        -1.5288  -21.5980   -7.8607 H         1 M3L         0.0815
    225 H83        -1.1402  -22.3300   -6.2670 H         1 M3L         0.0815
    226 H84         1.8037  -22.9764   -8.1969 H         1 M3L         0.0778
    227 H85         0.1083  -23.0333   -8.7875 H         1 M3L         0.0778
    228 H86         0.5124  -23.6648   -7.1552 H         1 M3L         0.0778
    229 H87         1.2315  -20.4693   -5.6847 H         1 M3L         0.0778
    230 H88         2.4265  -21.5587   -6.4669 H         1 M3L         0.0778
    231 H89         1.1274  -22.2448   -5.4334 H         1 M3L         0.0778
    232 H90         0.1953  -20.6102   -9.1888 H         1 M3L         0.0778
    233 H91         1.8990  -20.6447   -8.6208 H         1 M3L         0.0778
    234 H92         0.7181  -19.5310   -7.8514 H         1 M3L         0.0778
    235 H93        -6.5443  -19.3410   -6.8581 H         1 SER         0.1884
    236 H94        -6.9384  -16.8520   -5.3586 H         1 SER         0.0823
    237 H95        -5.2042  -16.3055   -7.1203 H         1 SER         0.0606
    238 H96        -6.7222  -15.3518   -7.2349 H         1 SER         0.0606
    239 H97        -7.3828  -16.8312   -8.8813 H         1 SER         0.2097
    240 H98        -9.0171  -17.0826   -4.8972 H         1 THR         0.1884
    241 H99       -10.8625  -17.8315   -7.1210 H         1 THR         0.0826
    242 H100      -11.4723  -18.2482   -4.1640 H         1 THR         0.0639
    243 H101      -10.8029  -20.4379   -4.5679 H         1 THR         0.2101
    244 H102      -13.0794  -19.9003   -5.0638 H         1 THR         0.0257
    245 H103      -12.5527  -19.5010   -6.7341 H         1 THR         0.0257
    246 H104      -13.3762  -18.2592   -5.7309 H         1 THR         0.0257
    247 H105      -12.9564  -16.8434   -7.1126 H         1 GLY         0.1881
    248 H106      -13.2475  -14.4649   -5.3709 H         1 GLY         0.0763
    249 H107      -14.5320  -15.2163   -6.3771 H         1 GLY         0.0763
    250 H108      -14.1823  -15.0541   -8.7854 H         1 GLY         0.1881
    251 H109      -12.5089  -13.4745  -10.2017 H         1 GLY         0.0763
    252 H110      -13.5374  -12.2525   -9.3797 H         1 GLY         0.0763
    253 H111      -15.4487  -11.7425  -10.2480 H         1 LYS         0.1883
    254 H112      -16.9405  -13.5790  -11.9316 H         1 LYS         0.0800
    255 H113      -18.3764  -11.4997  -12.3260 H         1 LYS         0.0312
    256 H114      -17.2689  -10.6403  -11.2028 H         1 LYS         0.0312
    257 H115      -17.8143  -12.3469   -9.4550 H         1 LYS         0.0269
    258 H116      -19.0254  -13.0489  -10.5807 H         1 LYS         0.0269
    259 H117      -19.0679  -10.1035   -9.8559 H         1 LYS         0.0317
    260 H118      -19.8229  -11.3380   -8.7916 H         1 LYS         0.0317
    261 H119      -21.0695  -12.1539  -10.8792 H         1 LYS         0.0813
    262 H120      -20.5103  -10.6426  -11.6730 H         1 LYS         0.0813
    263 H121      -22.6895  -10.3964  -10.7069 H         1 LYS         0.1994
    264 H122      -21.6202   -9.4096   -9.9373 H         1 LYS         0.1994
    265 H123      -22.1326  -10.7945   -9.2099 H         1 LYS         0.1994
    266 H124      -17.4289  -13.3266  -14.1371 H         1 ALA         0.1883
    267 H125      -15.3584  -11.7935  -15.6441 H         1 ALA         0.0797
    268 H126      -15.6734  -13.4529  -17.4562 H         1 ALA         0.0277
    269 H127      -16.8657  -14.3290  -16.4377 H         1 ALA         0.0277
    270 H128      -15.1482  -14.2249  -15.9217 H         1 ALA         0.0277
    271 H129      -19.4329   -9.8229  -16.6013 H         1 PRO         0.0802
    272 H130      -18.9895   -8.0865  -15.0772 H         1 PRO         0.0313
    273 H131      -18.4185   -7.2383  -16.5541 H         1 PRO         0.0313
    274 H132      -16.7977   -7.5802  -14.4506 H         1 PRO         0.0287
    275 H133      -16.1773   -7.7300  -16.1297 H         1 PRO         0.0287
    276 H134      -15.4994   -9.8148  -15.3469 H         1 PRO         0.0524
    277 H135      -16.7979   -9.8857  -14.1077 H         1 PRO         0.0524
    278 H136      -19.9864   -8.3962  -18.4302 H         1 ARG         0.1883
    279 H137      -18.6144   -9.2262  -20.8162 H         1 ARG         0.0800
    280 H138      -20.1707   -7.5961  -21.9450 H         1 ARG         0.0313
    281 H139      -20.7584   -7.1147  -20.3172 H         1 ARG         0.0313
    282 H140      -21.4352   -9.4888  -19.9200 H         1 ARG         0.0301
    283 H141      -20.9677   -9.8635  -21.6134 H         1 ARG         0.0301
    284 H142      -22.6253   -8.3237  -22.4745 H         1 ARG         0.0689
    285 H143      -23.0090   -7.7420  -20.8189 H         1 ARG         0.0689
    286 H144      -23.9782  -10.1881  -22.1260 H         1 ARG         0.2642
    287 H145      -24.4680   -9.5361  -18.1423 H         1 ARG         0.2615
    288 H146      -23.2944   -8.5520  -19.0571 H         1 ARG         0.2615
    289 H147      -25.4692  -11.4360  -20.9565 H         1 ARG         0.2615
    290 H148      -25.6888  -11.1555  -19.2084 H         1 ARG         0.2615
    291 H149      -18.9795   -6.0131  -19.2511 H         1 TYR         0.1877
    292 H150      -17.1086   -4.7512  -21.0611 H         1 TYR         0.0747
    293 H151      -17.9967   -3.7732  -18.3141 H         1 TYR         0.0446
    294 H152      -18.9921   -3.6080  -19.8002 H         1 TYR         0.0446
    295 H153      -15.9326   -2.4680  -18.0579 H         1 TYR         0.0530
    296 H154      -18.3856   -2.0051  -21.5199 H         1 TYR         0.0530
    297 H155      -14.7592   -0.3783  -18.6090 H         1 TYR         0.0525
    298 H156      -17.2082    0.0793  -22.0780 H         1 TYR         0.0525
    299 H157      -14.5918    1.3137  -20.0299 H         1 TYR         0.2458
@<TRIPOS>BOND
     1    1    2 1  
     2    2    3 1  
     3    2    5 1  
     4    3    4 2  
     5    3    6 am 
     6    6    7 1  
     7    7    8 1  
     8    7   10 1  
     9    8    9 2  
    10    8   17 am 
    11   10   11 1  
    12   11   12 1  
    13   12   13 1  
    14   13   14 ar 
    15   14   15 ar 
    16   14   16 ar 
    17   17   18 1  
    18   18   19 1  
    19   18   21 1  
    20   19   20 2  
    21   19   24 am 
    22   21   22 1  
    23   21   23 1  
    24   24   25 1  
    25   25   26 1  
    26   25   28 1  
    27   26   27 2  
    28   26   33 am 
    29   28   29 1  
    30   29   30 1  
    31   30   31 1  
    32   31   32 1  
    33   33   34 1  
    34   34   35 1  
    35   34   37 1  
    36   35   36 2  
    37   35   42 am 
    38   37   38 1  
    39   38   39 1  
    40   39   40 2  
    41   39   41 am 
    42   42   43 1  
    43   43   44 1  
    44   43   46 1  
    45   44   45 2  
    46   44   49 am 
    47   46   47 1  
    48   46   48 1  
    49   49   50 1  
    50   50   51 1  
    51   50   53 1  
    52   51   52 2  
    53   51   54 am 
    54   54   55 1  
    55   55   56 1  
    56   55   58 1  
    57   56   57 2  
    58   56   65 am 
    59   58   59 1  
    60   59   60 1  
    61   60   61 1  
    62   61   62 ar 
    63   62   63 ar 
    64   62   64 ar 
    65   65   66 1  
    66   66   67 1  
    67   66   72 1  
    68   67   68 1  
    69   68   69 1  
    70   69   70 1  
    71   70   71 1  
    72   71   74 1  
    73   71   75 1  
    74   71   76 1  
    75   72   73 2  
    76   72   77 am 
    77   77   78 1  
    78   78   79 1  
    79   78   81 1  
    80   79   80 2  
    81   79   83 am 
    82   81   82 1  
    83   83   84 1  
    84   84   85 1  
    85   84   87 1  
    86   85   86 2  
    87   85   90 am 
    88   87   88 1  
    89   87   89 1  
    90   90   91 1  
    91   91   92 1  
    92   92   93 2  
    93   92   94 am 
    94   94   95 1  
    95   95   96 1  
    96   96   97 2  
    97   96   98 am 
    98   98   99 1  
    99   99  100 1  
   100   99  102 1  
   101  100  101 2  
   102  100  107 am 
   103  102  103 1  
   104  103  104 1  
   105  104  105 1  
   106  105  106 1  
   107  107  108 1  
   108  108  109 1  
   109  108  111 1  
   110  109  110 2  
   111  109  112 am 
   112  112  113 1  
   113  112  118 1  
   114  113  114 1  
   115  113  116 1  
   116  114  115 2  
   117  114  119 am 
   118  116  117 1  
   119  117  118 1  
   120  119  120 1  
   121  120  121 1  
   122  120  123 1  
   123  121  122 2  
   124  121  130 am 
   125  123  124 1  
   126  124  125 1  
   127  125  126 1  
   128  126  127 ar 
   129  127  128 ar 
   130  127  129 ar 
   131  130  131 1  
   132  131  132 1  
   133  131  134 1  
   134  132  133 ar 
   135  132  142 ar 
   136  134  135 1  
   137  135  136 ar 
   138  135  137 ar 
   139  136  138 ar 
   140  137  139 ar 
   141  138  140 ar 
   142  139  140 ar 
   143  140  141 1  
   144    1  143 1  
   145    1  144 1  
   146    1  145 1  
   147    2  146 1  
   148    5  147 1  
   149    5  148 1  
   150    5  149 1  
   151    6  150 1  
   152    7  151 1  
   153   10  152 1  
   154   10  153 1  
   155   11  154 1  
   156   11  155 1  
   157   12  156 1  
   158   12  157 1  
   159   13  158 1  
   160   15  159 1  
   161   15  160 1  
   162   16  161 1  
   163   16  162 1  
   164   17  163 1  
   165   18  164 1  
   166   21  165 1  
   167   22  166 1  
   168   23  167 1  
   169   23  168 1  
   170   23  169 1  
   171   24  170 1  
   172   25  171 1  
   173   28  172 1  
   174   28  173 1  
   175   29  174 1  
   176   29  175 1  
   177   30  176 1  
   178   30  177 1  
   179   31  178 1  
   180   31  179 1  
   181   32  180 1  
   182   32  181 1  
   183   32  182 1  
   184   33  183 1  
   185   34  184 1  
   186   37  185 1  
   187   37  186 1  
   188   38  187 1  
   189   38  188 1  
   190   41  189 1  
   191   41  190 1  
   192   42  191 1  
   193   43  192 1  
   194   46  193 1  
   195   47  194 1  
   196   48  195 1  
   197   48  196 1  
   198   48  197 1  
   199   49  198 1  
   200   50  199 1  
   201   53  200 1  
   202   53  201 1  
   203   53  202 1  
   204   54  203 1  
   205   55  204 1  
   206   58  205 1  
   207   58  206 1  
   208   59  207 1  
   209   59  208 1  
   210   60  209 1  
   211   60  210 1  
   212   61  211 1  
   213   63  212 1  
   214   63  213 1  
   215   64  214 1  
   216   64  215 1  
   217   65  216 1  
   218   66  217 1  
   219   67  218 1  
   220   67  219 1  
   221   68  220 1  
   222   68  221 1  
   223   69  222 1  
   224   69  223 1  
   225   70  224 1  
   226   70  225 1  
   227   74  226 1  
   228   74  227 1  
   229   74  228 1  
   230   75  229 1  
   231   75  230 1  
   232   75  231 1  
   233   76  232 1  
   234   76  233 1  
   235   76  234 1  
   236   77  235 1  
   237   78  236 1  
   238   81  237 1  
   239   81  238 1  
   240   82  239 1  
   241   83  240 1  
   242   84  241 1  
   243   87  242 1  
   244   88  243 1  
   245   89  244 1  
   246   89  245 1  
   247   89  246 1  
   248   90  247 1  
   249   91  248 1  
   250   91  249 1  
   251   94  250 1  
   252   95  251 1  
   253   95  252 1  
   254   98  253 1  
   255   99  254 1  
   256  102  255 1  
   257  102  256 1  
   258  103  257 1  
   259  103  258 1  
   260  104  259 1  
   261  104  260 1  
   262  105  261 1  
   263  105  262 1  
   264  106  263 1  
   265  106  264 1  
   266  106  265 1  
   267  107  266 1  
   268  108  267 1  
   269  111  268 1  
   270  111  269 1  
   271  111  270 1  
   272  113  271 1  
   273  116  272 1  
   274  116  273 1  
   275  117  274 1  
   276  117  275 1  
   277  118  276 1  
   278  118  277 1  
   279  119  278 1  
   280  120  279 1  
   281  123  280 1  
   282  123  281 1  
   283  124  282 1  
   284  124  283 1  
   285  125  284 1  
   286  125  285 1  
   287  126  286 1  
   288  128  287 1  
   289  128  288 1  
   290  129  289 1  
   291  129  290 1  
   292  130  291 1  
   293  131  292 1  
   294  134  293 1  
   295  134  294 1  
   296  136  295 1  
   297  137  296 1  
   298  138  297 1  
   299  139  298 1  
   300  141  299 1  
@<TRIPOS>SUBSTRUCTURE
     1 ALA         1

