3s72_ligand
  -I-interpret- 

 19 20  0  0  0  0  0  0  0  0999 V2000
   15.5820   -0.3750   16.2530 N   0  0  0  0  0
   15.0500    0.9700   16.8670 S   0  0  0  0  0
   15.0080    3.2680   15.3490 N   0  0  0  0  0
   15.5490    1.1130   18.1900 O   0  0  0  0  0
   15.7310    2.2650   15.9790 C   0  0  0  0  0
   17.0990    2.4290   15.8280 N   0  0  0  0  0
   13.6300    1.1000   16.6920 O   0  0  0  0  0
   15.8260    5.2200   14.0690 C   0  0  0  0  0
   17.0480    5.7890   13.6630 C   0  0  0  0  0
   18.3300    5.3130   13.9600 C   0  0  0  0  0
   18.4910    4.1920   14.7530 C   0  0  0  0  0
   17.2520    3.5660   15.0970 C   0  0  0  0  0
   15.9790    4.0500   14.8240 C   0  0  0  0  0
   16.1883   -0.9826   16.8041 H   0  0  0  0  0
   15.3211   -0.6405   15.3034 H   0  0  0  0  0
   14.8551    5.6483   13.8200 H   0  0  0  0  0
   16.9897    6.6922   13.0555 H   0  0  0  0  0
   19.2053    5.8282   13.5645 H   0  0  0  0  0
   19.4624    3.8232   15.0822 H   0  0  0  0  0
  2  1  1  0  0  0
  2  4  2  0  0  0
  5  2  1  0  0  0
  2  7  2  0  0  0
  3  5  4  0  0  0
 13  3  4  0  0  0
  5  6  4  0  0  0
  6 12  4  0  0  0
  8  9  4  0  0  0
  8 13  4  0  0  0
  9 10  4  0  0  0
 10 11  4  0  0  0
 11 12  4  0  0  0
 12 13  4  0  0  0
  1 14  1  0  0  0
  1 15  1  0  0  0
  8 16  1  0  0  0
  9 17  1  0  0  0
 10 18  1  0  0  0
 11 19  1  0  0  0
M  END
$$$$
