### 
### Created by X-TOOL on Mon Sep 10 21:13:12 2018
### 

@<TRIPOS>MOLECULE
4dhs_ligand
   33    34     1     0     0
SMALL
GAST_HUCK


@<TRIPOS>ATOM
      1 OAS        20.8860   14.6260   -9.7690 O.co2     1 Y03        -0.5643
      2 PAR        21.9410   13.5980  -10.3920 P.3       1 Y03         0.0783
      3 OAU        21.6920   13.0790  -11.8370 O.co2     1 Y03        -0.5643
      4 OAT        21.8810   12.3940   -9.4770 O.co2     1 Y03        -0.5643
      5 CAM        23.6140   14.4080  -10.4240 C.ar      1 Y03         0.0641
      6 CAN        23.7700   15.7720  -10.1540 C.ar      1 Y03        -0.0499
      7 CAO        25.0530   16.3370  -10.1640 C.ar      1 Y03        -0.0681
      8 CAP        26.1900   15.5680  -10.4690 C.ar      1 Y03        -0.0672
      9 CAQ        26.0070   14.2050  -10.7500 C.ar      1 Y03        -0.0277
     10 CAL        24.7220   13.6490  -10.7170 C.ar      1 Y03         0.1159
     11 OAK        24.4660   12.3360  -10.9890 O.3       1 Y03        -0.2925
     12 CAA        25.4990   11.3430  -10.8430 C.3       1 Y03         0.1661
     13 CAB        24.8090   10.0180  -10.4850 C.2       1 Y03         0.2347
     14 OAD        25.4490    8.9680  -10.4670 O.2       1 Y03        -0.3819
     15 NAC        23.4970   10.1220  -10.2160 N.am      1 Y03        -0.2317
     16 CAE        22.7850    9.0630   -9.8190 C.ar      1 Y03         0.0672
     17 CAF        22.2880    8.1670  -10.7450 C.ar      1 Y03        -0.0273
     18 CAG        21.5300    7.0940  -10.3000 C.ar      1 Y03         0.0275
     19 CL1        20.9800    6.0360  -11.4110 Cl        1 Y03        -0.0748
     20 CAH        21.2590    6.8870   -8.9590 C.ar      1 Y03        -0.0494
     21 CAI        21.7490    7.7820   -8.0360 C.ar      1 Y03         0.0275
     22 CL2        21.4120    7.5160   -6.3830 Cl        1 Y03        -0.0748
     23 CAJ        22.5060    8.8770   -8.4590 C.ar      1 Y03        -0.0273
     24 H1         22.9044   16.3879   -9.9385 H         1 Y03         0.0634
     25 H2         25.1710   17.3892   -9.9316 H         1 Y03         0.0533
     26 H3         27.1778   16.0142  -10.4866 H         1 Y03         0.0616
     27 H4         26.8606   13.5825  -10.9927 H         1 Y03         0.0552
     28 H5         26.1922   11.6356  -10.0406 H         1 Y03         0.0867
     29 H6         26.0544   11.2356  -11.7864 H         1 Y03         0.0867
     30 H7         23.0446   11.0084  -10.3147 H         1 Y03         0.2257
     31 H8         22.4870    8.3001  -11.8022 H         1 Y03         0.0509
     32 H9         20.6705    6.0340   -8.6410 H         1 Y03         0.0500
     33 H10        22.8799    9.5872   -7.7303 H         1 Y03         0.0509
@<TRIPOS>BOND
     1    1    2 ar 
     2    2    3 ar 
     3    2    4 ar 
     4    2    5 1  
     5    5    6 ar 
     6    5   10 ar 
     7    6    7 ar 
     8    7    8 ar 
     9    8    9 ar 
    10    9   10 ar 
    11   10   11 1  
    12   11   12 1  
    13   12   13 1  
    14   13   14 2  
    15   13   15 am 
    16   15   16 1  
    17   16   17 ar 
    18   16   23 ar 
    19   17   18 ar 
    20   18   19 1  
    21   18   20 ar 
    22   20   21 ar 
    23   21   22 1  
    24   21   23 ar 
    25    6   24 1  
    26    7   25 1  
    27    8   26 1  
    28    9   27 1  
    29   12   28 1  
    30   12   29 1  
    31   15   30 1  
    32   17   31 1  
    33   20   32 1  
    34   23   33 1  
@<TRIPOS>SUBSTRUCTURE
     1 Y03         1

