4dhs_ligand
  -I-interpret- 

 35 36  0  0  0  0  0  0  0  0999 V2000
   20.8860   14.6260   -9.7690 O   0  0  0  0  0
   21.9410   13.5980  -10.3920 P   0  0  0  0  0
   21.6920   13.0790  -11.8370 O   0  0  0  0  0
   21.8810   12.3940   -9.4770 O   0  0  0  0  0
   23.6140   14.4080  -10.4240 C   0  0  0  0  0
   23.7700   15.7720  -10.1540 C   0  0  0  0  0
   25.0530   16.3370  -10.1640 C   0  0  0  0  0
   26.1900   15.5680  -10.4690 C   0  0  0  0  0
   26.0070   14.2050  -10.7500 C   0  0  0  0  0
   24.7220   13.6490  -10.7170 C   0  0  0  0  0
   24.4660   12.3360  -10.9890 O   0  0  0  0  0
   25.4990   11.3430  -10.8430 C   0  0  0  0  0
   24.8090   10.0180  -10.4850 C   0  0  0  0  0
   25.4490    8.9680  -10.4670 O   0  0  0  0  0
   23.4970   10.1220  -10.2160 N   0  0  0  0  0
   22.7850    9.0630   -9.8190 C   0  0  0  0  0
   22.2880    8.1670  -10.7450 C   0  0  0  0  0
   21.5300    7.0940  -10.3000 C   0  0  0  0  0
   20.9800    6.0360  -11.4110 Cl  0  0  0  0  0
   21.2590    6.8870   -8.9590 C   0  0  0  0  0
   21.7490    7.7820   -8.0360 C   0  0  0  0  0
   21.4120    7.5160   -6.3830 Cl  0  0  0  0  0
   22.5060    8.8770   -8.4590 C   0  0  0  0  0
   20.8667   15.4248  -10.3011 H   0  0  0  0  0
   21.7224   13.8168  -12.4505 H   0  0  0  0  0
   22.8996   16.3913   -9.9373 H   0  0  0  0  0
   25.1717   17.3950   -9.9303 H   0  0  0  0  0
   27.1832   16.0166  -10.4867 H   0  0  0  0  0
   26.8653   13.5790  -10.9940 H   0  0  0  0  0
   26.2020   11.6327  -10.0620 H   0  0  0  0  0
   26.0674   11.2419  -11.7676 H   0  0  0  0  0
   23.0356   11.0261  -10.3166 H   0  0  0  0  0
   22.4881    8.3008  -11.8081 H   0  0  0  0  0
   20.6673    6.0293   -8.6392 H   0  0  0  0  0
   22.8819    9.5911   -7.7263 H   0  0  0  0  0
  1  2  1  0  0  0
  2  3  1  0  0  0
  2  4  2  0  0  0
  2  5  1  0  0  0
  5  6  4  0  0  0
  5 10  4  0  0  0
  6  7  4  0  0  0
  7  8  4  0  0  0
  8  9  4  0  0  0
  9 10  4  0  0  0
 10 11  1  0  0  0
 11 12  1  0  0  0
 12 13  1  0  0  0
 13 14  2  0  0  0
 13 15  1  0  0  0
 15 16  1  0  0  0
 16 17  4  0  0  0
 16 23  4  0  0  0
 17 18  4  0  0  0
 18 19  1  0  0  0
 18 20  4  0  0  0
 20 21  4  0  0  0
 21 22  1  0  0  0
 21 23  4  0  0  0
  1 24  1  0  0  0
  3 25  1  0  0  0
  6 26  1  0  0  0
  7 27  1  0  0  0
  8 28  1  0  0  0
  9 29  1  0  0  0
 12 30  1  0  0  0
 12 31  1  0  0  0
 15 32  1  0  0  0
 17 33  1  0  0  0
 20 34  1  0  0  0
 23 35  1  0  0  0
M  END
$$$$
