4kot_ligand
  -I-interpret- 

 47 49  0  0  0  0  0  0  0  0999 V2000
   15.2910    3.1760   10.0850 C   0  0  0  0  0
   13.9770    2.3460   10.2780 C   0  0  0  0  0
   16.5530    2.5640    8.9800 S   0  0  0  0  0
   17.2930    4.2130    8.6790 C   0  0  0  0  0
   16.2560    5.3100    8.3970 C   0  0  0  0  0
   14.9840    5.2630    8.6440 C   0  0  0  0  0
   14.4620    4.1790    9.3760 N   0  0  0  0  0
   13.2700    3.5830    9.6730 C   0  0  0  0  0
   12.1190    3.8880    9.5090 O   0  0  0  0  0
   13.8030    1.1300    9.5420 N   0  0  0  0  0
   14.3070   -0.0430    9.9210 C   0  0  0  0  0
   15.0250   -0.1460   10.8730 O   0  0  0  0  0
   13.7680   -1.1920    9.1830 C   0  0  0  0  0
   12.7820   -1.9260    9.6200 N   0  0  0  0  0
   12.2540   -1.5390   10.8770 O   0  0  0  0  0
   10.8070   -1.6520   10.8610 C   0  0  0  0  0
   14.3520   -1.5460    7.9030 C   0  0  0  0  0
   13.8920   -2.6690    7.2060 N   0  0  0  0  0
   14.5700   -2.7910    6.0800 C   0  0  0  0  0
   14.4330   -3.7520    5.1290 N   0  0  0  0  0
   15.8250   -1.6450    5.8080 S   0  0  0  0  0
   15.3710   -0.9020    7.2790 C   0  0  0  0  0
   16.8500    6.5030    7.7280 C   0  0  0  0  0
   17.7180    7.2080    8.7180 O   0  0  0  0  0
   18.1860    8.5040    8.4320 C   0  0  0  0  0
   17.8900    9.0320    7.3790 O   0  0  0  0  0
   19.0490    9.0180    9.5400 C   0  0  0  0  0
   13.9150    6.2080    8.1360 C   0  0  0  0  0
   13.0290    5.7490    7.3080 O   0  0  0  0  0
   13.9880    7.3920    8.5170 O   0  0  0  0  0
   15.9138    3.3524   10.9620 H   0  0  0  0  0
   13.7328    1.8966   11.2406 H   0  0  0  0  0
   17.9288    4.1299    7.7976 H   0  0  0  0  0
   17.8334    4.4984    9.5815 H   0  0  0  0  0
   13.2620    1.1642    8.6779 H   0  0  0  0  0
   10.4017   -1.0028   10.0848 H   0  0  0  0  0
   10.5268   -2.6851   10.6553 H   0  0  0  0  0
   10.4097   -1.3526   11.8309 H   0  0  0  0  0
   13.7401   -4.4911    5.2470 H   0  0  0  0  0
   15.0231   -3.7342    4.2972 H   0  0  0  0  0
   15.8493   -0.0058    7.6742 H   0  0  0  0  0
   16.0609    7.1693    7.3795 H   0  0  0  0  0
   17.4398    6.1942    6.8649 H   0  0  0  0  0
   20.0524    9.2080    9.1590 H   0  0  0  0  0
   18.6254    9.9439    9.9291 H   0  0  0  0  0
   19.0960    8.2755   10.3366 H   0  0  0  0  0
   13.1776    4.8107    7.1698 H   0  0  0  0  0
  1  2  1  0  0  0
  1  3  1  0  0  0
  1  7  1  0  0  0
  2  8  1  0  0  0
  2 10  1  0  0  0
  3  4  1  0  0  0
  4  5  1  0  0  0
  5  6  2  0  0  0
  5 23  1  0  0  0
  6  7  1  0  0  0
  6 28  1  0  0  0
  7  8  1  0  0  0
  8  9  2  0  0  0
 10 11  1  0  0  0
 11 12  2  0  0  0
 11 13  1  0  0  0
 13 14  2  0  0  0
 13 17  1  0  0  0
 14 15  1  0  0  0
 15 16  1  0  0  0
 17 18  4  0  0  0
 17 22  4  0  0  0
 18 19  4  0  0  0
 19 20  1  0  0  0
 19 21  4  0  0  0
 21 22  4  0  0  0
 23 24  1  0  0  0
 24 25  1  0  0  0
 25 26  2  0  0  0
 25 27  1  0  0  0
 28 29  1  0  0  0
 28 30  2  0  0  0
  1 31  1  0  0  0
  2 32  1  0  0  0
  4 33  1  0  0  0
  4 34  1  0  0  0
 10 35  1  0  0  0
 16 36  1  0  0  0
 16 37  1  0  0  0
 16 38  1  0  0  0
 20 39  1  0  0  0
 20 40  1  0  0  0
 22 41  1  0  0  0
 23 42  1  0  0  0
 23 43  1  0  0  0
 27 44  1  0  0  0
 27 45  1  0  0  0
 27 46  1  0  0  0
 29 47  1  0  0  0
M  END
$$$$
