3vhe_ligand
  -I-interpret- 

 47 50  0  0  0  0  0  0  0  0999 V2000
  -20.6780    2.5390  -14.1850 C   0  0  0  0  0
  -21.7270    3.4780  -14.0570 N   0  0  0  0  0
  -22.9850    2.8900  -13.6920 C   0  0  0  0  0
  -23.1220    1.4970  -13.4870 N   0  0  0  0  0
  -22.0180    0.6260  -13.6410 C   0  0  0  0  0
  -20.7980    1.1440  -13.9820 C   0  0  0  0  0
  -19.5290    0.5860  -14.1970 N   0  0  0  0  0
  -18.6960    1.6110  -14.5090 C   0  0  0  0  0
  -19.3540    2.8170  -14.5130 C   0  0  0  0  0
  -19.1690   -0.8340  -14.1030 C   0  0  0  0  0
  -22.1300   -0.7600  -13.4810 O   0  0  0  0  0
  -23.2890   -1.2090  -12.8270 C   0  0  0  0  0
  -23.1630   -1.8300  -11.5210 C   0  0  0  0  0
  -24.3060   -2.4190  -10.8890 C   0  0  0  0  0
  -25.5800   -2.3780  -11.5670 C   0  0  0  0  0
  -25.6940   -1.7520  -12.8580 C   0  0  0  0  0
  -24.5820   -1.1690  -13.4980 C   0  0  0  0  0
  -26.6790   -2.9510  -11.0040 N   0  0  0  0  0
  -26.9740   -2.7780   -9.7050 C   0  0  0  0  0
  -28.0750   -3.5030   -9.2940 N   0  0  0  0  0
  -28.5160   -3.5970   -7.9810 C   0  0  0  0  0
  -26.3220   -2.0400   -8.9630 O   0  0  0  0  0
  -26.9090   -1.7630  -13.4120 F   0  0  0  0  0
  -29.3820   -4.7080   -7.6210 C   0  0  0  0  0
  -29.9100   -4.8400   -6.2850 C   0  0  0  0  0
  -29.5760   -3.8650   -5.2960 C   0  0  0  0  0
  -28.7000   -2.7360   -5.6290 C   0  0  0  0  0
  -28.1690   -2.6050   -6.9880 C   0  0  0  0  0
  -28.3190   -1.6970   -4.5400 C   0  0  0  0  0
  -28.8140   -0.5380   -4.9040 F   0  0  0  0  0
  -26.9990   -1.6490   -4.4650 F   0  0  0  0  0
  -28.8280   -2.0770   -3.3960 F   0  0  0  0  0
  -23.8565    3.5332  -13.5698 H   0  0  0  0  0
  -17.6352    1.4920  -14.7294 H   0  0  0  0  0
  -18.9253    3.7955  -14.7296 H   0  0  0  0  0
  -19.3732   -1.1933  -13.0944 H   0  0  0  0  0
  -19.7588   -1.4053  -14.8199 H   0  0  0  0  0
  -18.1087   -0.9542  -14.3252 H   0  0  0  0  0
  -22.1955   -1.8483  -11.0194 H   0  0  0  0  0
  -24.2151   -2.8911   -9.9108 H   0  0  0  0  0
  -24.6869   -0.6977  -14.4752 H   0  0  0  0  0
  -27.2928   -3.5251  -11.5820 H   0  0  0  0  0
  -28.6028   -4.0062  -10.0072 H   0  0  0  0  0
  -29.6367   -5.4542   -8.3736 H   0  0  0  0  0
  -30.5594   -5.6781   -6.0320 H   0  0  0  0  0
  -29.9750   -3.9604   -4.2861 H   0  0  0  0  0
  -27.5196   -1.7690   -7.2477 H   0  0  0  0  0
  1  2  4  0  0  0
  1  6  4  0  0  0
  1  9  4  0  0  0
  2  3  4  0  0  0
  3  4  4  0  0  0
  4  5  4  0  0  0
  5  6  4  0  0  0
  5 11  1  0  0  0
  6  7  4  0  0  0
  7  8  4  0  0  0
  7 10  1  0  0  0
  8  9  4  0  0  0
 11 12  1  0  0  0
 12 13  4  0  0  0
 12 17  4  0  0  0
 13 14  4  0  0  0
 14 15  4  0  0  0
 15 16  4  0  0  0
 15 18  1  0  0  0
 16 17  4  0  0  0
 16 23  1  0  0  0
 18 19  1  0  0  0
 19 20  1  0  0  0
 19 22  2  0  0  0
 20 21  1  0  0  0
 21 24  4  0  0  0
 21 28  4  0  0  0
 24 25  4  0  0  0
 25 26  4  0  0  0
 26 27  4  0  0  0
 27 28  4  0  0  0
 27 29  1  0  0  0
 29 30  1  0  0  0
 29 31  1  0  0  0
 29 32  1  0  0  0
  3 33  1  0  0  0
  8 34  1  0  0  0
  9 35  1  0  0  0
 10 36  1  0  0  0
 10 37  1  0  0  0
 10 38  1  0  0  0
 13 39  1  0  0  0
 14 40  1  0  0  0
 17 41  1  0  0  0
 18 42  1  0  0  0
 20 43  1  0  0  0
 24 44  1  0  0  0
 25 45  1  0  0  0
 26 46  1  0  0  0
 28 47  1  0  0  0
M  END
$$$$
