5ttu_ligand
  -I-interpret- 

 42 45  0  0  0  0  0  0  0  0999 V2000
    1.3870   11.9200   -3.5900 N   0  0  0  0  0
    1.4790   13.2770   -3.5430 C   0  0  0  0  0
    2.5470   13.9950   -3.1630 N   0  0  0  0  0
   -3.0560   16.3160   -5.5760 C   0  0  0  0  0
   -0.6000   12.6320   -4.3280 C   0  0  0  0  0
   -2.5350   17.5340   -4.8060 C   0  0  0  0  0
   -2.9470   18.9230   -5.3190 C   0  0  0  0  0
   -2.0970   15.1910   -5.1920 C   0  0  0  0  0
   -0.6820   19.2230   -6.3100 N   0  0  0  0  0
   -0.2300   21.7690   -8.1900 C   0  0  0  0  0
    1.2870   15.9830   -3.7230 N   0  0  0  0  0
    2.3690   15.3170   -3.3030 C   0  0  0  0  0
    0.2490   15.2060   -4.0840 C   0  0  0  0  0
    0.2170   13.7890   -4.0310 C   0  0  0  0  0
    0.1560   11.5400   -4.0610 C   0  0  0  0  0
   -0.9400   15.8690   -4.5950 N   0  0  0  0  0
   -1.0130   17.3290   -4.7930 C   0  0  0  0  0
   -0.2610   17.8520   -6.0130 C   0  0  0  0  0
   -2.1260   19.2880   -6.5650 C   0  0  0  0  0
    0.1810   20.2620   -6.2740 C   0  0  0  0  0
    1.3390   20.1190   -5.9110 O   0  0  0  0  0
   -0.3290   21.6240   -6.6850 C   0  0  0  0  0
   -3.0777   16.4884   -6.6521 H   0  0  0  0  0
   -4.0893   16.0801   -5.3217 H   0  0  0  0  0
   -1.6261   12.6380   -4.6957 H   0  0  0  0  0
   -2.9925   17.5634   -3.8171 H   0  0  0  0  0
   -2.7631   19.6622   -4.5393 H   0  0  0  0  0
   -4.0056   18.9099   -5.5784 H   0  0  0  0  0
   -1.8127   14.5890   -6.0550 H   0  0  0  0  0
   -2.5561   14.4867   -4.4982 H   0  0  0  0  0
    0.8107   21.6630   -8.4963 H   0  0  0  0  0
   -0.8314   20.9961   -8.6685 H   0  0  0  0  0
   -0.5983   22.7519   -8.4840 H   0  0  0  0  0
    3.2261   15.9358   -3.0373 H   0  0  0  0  0
   -0.1672   10.5084   -4.2003 H   0  0  0  0  0
   -0.5029   17.9128   -4.0267 H   0  0  0  0  0
    0.8092   17.8419   -5.8065 H   0  0  0  0  0
   -0.4806   17.2154   -6.8701 H   0  0  0  0  0
   -2.3761   20.3097   -6.8509 H   0  0  0  0  0
   -2.3657   18.5736   -7.3526 H   0  0  0  0  0
   -1.3695   21.7296   -6.3780 H   0  0  0  0  0
    0.2725   22.3964   -6.2058 H   0  0  0  0  0
  2  1  4  0  0  0
 15  1  4  0  0  0
  2  3  4  0  0  0
 14  2  4  0  0  0
 12  3  4  0  0  0
  6  4  1  0  0  0
  4  8  1  0  0  0
 14  5  4  0  0  0
  5 15  4  0  0  0
  7  6  1  0  0  0
 17  6  1  0  0  0
 19  7  1  0  0  0
 16  8  1  0  0  0
  9 18  1  0  0  0
  9 19  1  0  0  0
 20  9  1  0  0  0
 22 10  1  0  0  0
 11 12  4  0  0  0
 13 11  4  0  0  0
 13 14  4  0  0  0
 16 13  1  0  0  0
 17 16  1  0  0  0
 18 17  1  0  0  0
 20 21  2  0  0  0
 20 22  1  0  0  0
  4 23  1  0  0  0
  4 24  1  0  0  0
  5 25  1  0  0  0
  6 26  1  0  0  0
  7 27  1  0  0  0
  7 28  1  0  0  0
  8 29  1  0  0  0
  8 30  1  0  0  0
 10 31  1  0  0  0
 10 32  1  0  0  0
 10 33  1  0  0  0
 12 34  1  0  0  0
 15 35  1  0  0  0
 17 36  1  0  0  0
 18 37  1  0  0  0
 18 38  1  0  0  0
 19 39  1  0  0  0
 19 40  1  0  0  0
 22 41  1  0  0  0
 22 42  1  0  0  0
M  END
$$$$
