2pk5_ligand
  -I-interpret- 

101106  0  0  0  0  0  0  0  0999 V2000
   10.0340  -19.7240  -17.1200 O   0  0  0  0  0
   10.0270  -18.7220  -17.8540 C   0  0  0  0  0
    9.3720  -17.5850  -17.5960 N   0  0  0  0  0
    8.5260  -17.4410  -16.4250 C   0  0  0  0  0
    9.1530  -16.8350  -15.2460 C   0  0  0  0  0
   10.4160  -17.1180  -14.7360 C   0  0  0  0  0
   10.8140  -16.4180  -13.5920 C   0  0  0  0  0
    9.9450  -15.4730  -13.0280 C   0  0  0  0  0
    8.6710  -15.2120  -13.5510 C   0  0  0  0  0
    8.2950  -15.9260  -14.6780 C   0  0  0  0  0
    6.9880  -15.8100  -15.4400 C   0  0  0  0  0
    7.4060  -16.4440  -16.7670 C   0  0  0  0  0
    7.8910  -15.3880  -17.6250 O   0  0  0  0  0
   10.7880  -18.6900  -19.1530 C   0  0  0  0  0
    9.9260  -19.2400  -20.3010 C   0  0  0  0  0
   10.3100  -18.5520  -21.5920 C   0  0  0  0  0
    8.4110  -19.1100  -20.1450 C   0  0  0  0  0
   10.3640  -20.9290  -20.3420 S   0  0  0  0  0
   12.0150  -20.7250  -19.7810 C   0  0  0  0  0
   12.0510  -19.4310  -19.0760 N   0  0  0  0  0
   13.0950  -18.9080  -18.4150 C   0  0  0  0  0
   13.0460  -17.8590  -17.7830 O   0  0  0  0  0
   14.3830  -19.6820  -18.4760 C   0  0  0  0  0
   15.4980  -18.7890  -18.5700 O   0  0  0  0  0
   14.5160  -20.5850  -17.2560 C   0  0  0  0  0
   15.0670  -19.8190  -16.0530 C   0  0  0  0  0
   15.3330  -20.8100  -14.9630 C   0  0  0  0  0
   16.6580  -21.0600  -14.5970 C   0  0  0  0  0
   16.9310  -21.9870  -13.5940 C   0  0  0  0  0
   15.8770  -22.6420  -12.9570 C   0  0  0  0  0
   14.5530  -22.3880  -13.3250 C   0  0  0  0  0
   14.2670  -21.4720  -14.3370 C   0  0  0  0  0
   15.5010  -21.5970  -17.6440 N   0  0  0  0  0
   15.1570  -22.8160  -18.0880 C   0  0  0  0  0
   13.9920  -23.1920  -18.1930 O   0  0  0  0  0
   16.3240  -23.7100  -18.4450 C   0  0  0  0  0
   15.9440  -24.9760  -19.2370 C   0  0  0  0  0
   17.1910  -25.6790  -20.1170 S   0  0  0  0  0
   17.9750  -24.6800  -20.7930 O   0  0  0  0  0
   18.1460  -26.5960  -19.0980 C   0  0  0  0  0
   16.6470  -26.5340  -21.1190 O   0  0  0  0  0
   16.9770  -24.1510  -17.2210 N   0  0  0  0  0
   18.2540  -23.8690  -16.9850 C   0  0  0  0  0
   18.9520  -23.2530  -17.7650 O   0  0  0  0  0
   18.8850  -24.3620  -15.6970 C   0  0  0  0  0
   17.9290  -24.7770  -14.7250 O   0  0  0  0  0
   18.3430  -25.1600  -13.4730 C   0  0  0  0  0
   17.4720  -25.8340  -12.6250 C   0  0  0  0  0
   16.1680  -26.1380  -13.0060 C   0  0  0  0  0
   17.8960  -26.2190  -11.3520 C   0  0  0  0  0
   17.0110  -26.9070  -10.5150 C   0  0  0  0  0
   15.7640  -27.1940  -10.9230 N   0  0  0  0  0
   15.3200  -26.8240  -12.1370 C   0  0  0  0  0
   19.1930  -25.9250  -10.9270 C   0  0  0  0  0
   20.0700  -25.2340  -11.7630 C   0  0  0  0  0
   19.6400  -24.8560  -13.0410 C   0  0  0  0  0
    9.4693  -16.7987  -18.2384 H   0  0  0  0  0
    8.2268  -18.4616  -16.1864 H   0  0  0  0  0
   11.0676  -17.8536  -15.2076 H   0  0  0  0  0
   11.7897  -16.6053  -13.1436 H   0  0  0  0  0
   10.2732  -14.9196  -12.1482 H   0  0  0  0  0
    8.0059  -14.4805  -13.0921 H   0  0  0  0  0
    6.6017  -14.7943  -15.5249 H   0  0  0  0  0
    6.1374  -16.2904  -14.9564 H   0  0  0  0  0
    6.5913  -16.9566  -17.2784 H   0  0  0  0  0
    8.1609  -15.7604  -18.4677 H   0  0  0  0  0
   11.0297  -17.6459  -19.3518 H   0  0  0  0  0
   11.3871  -18.6321  -21.7384 H   0  0  0  0  0
    9.7924  -19.0290  -22.4243 H   0  0  0  0  0
   10.0262  -17.5009  -21.5404 H   0  0  0  0  0
    7.9174  -19.5936  -20.9880 H   0  0  0  0  0
    8.1002  -19.5892  -19.2166 H   0  0  0  0  0
    8.1389  -18.0548  -20.1195 H   0  0  0  0  0
   12.7182  -20.7393  -20.6137 H   0  0  0  0  0
   12.3102  -21.5410  -19.1213 H   0  0  0  0  0
   14.3719  -20.3092  -19.3674 H   0  0  0  0  0
   16.3114  -19.2974  -18.6080 H   0  0  0  0  0
   13.5481  -20.9971  -16.9706 H   0  0  0  0  0
   14.3476  -19.0718  -15.7181 H   0  0  0  0  0
   15.9856  -19.2985  -16.3239 H   0  0  0  0  0
   17.4729  -20.5329  -15.0933 H   0  0  0  0  0
   17.9614  -22.1992  -13.3087 H   0  0  0  0  0
   16.0883  -23.3594  -12.1640 H   0  0  0  0  0
   13.7400  -22.9083  -12.8187 H   0  0  0  0  0
   13.2372  -21.2749  -14.6349 H   0  0  0  0  0
   16.4918  -21.3653  -17.5737 H   0  0  0  0  0
   16.9691  -23.1055  -19.0826 H   0  0  0  0  0
   15.1854  -24.6746  -19.9594 H   0  0  0  0  0
   15.6249  -25.7169  -18.5040 H   0  0  0  0  0
   18.9226  -27.0929  -19.6794 H   0  0  0  0  0
   18.6070  -25.9476  -18.3529 H   0  0  0  0  0
   17.5293  -27.3436  -18.5992 H   0  0  0  0  0
   16.4458  -24.6851  -16.5333 H   0  0  0  0  0
   19.4520  -23.5349  -15.2698 H   0  0  0  0  0
   19.5027  -25.2260  -15.9420 H   0  0  0  0  0
   15.8075  -25.8379  -13.9899 H   0  0  0  0  0
   17.3370  -27.2134   -9.5211 H   0  0  0  0  0
   14.3001  -27.0596  -12.4411 H   0  0  0  0  0
   19.5222  -26.2373   -9.9360 H   0  0  0  0  0
   21.0777  -24.9912  -11.4257 H   0  0  0  0  0
   20.3198  -24.3213  -13.7044 H   0  0  0  0  0
  1  2  2  0  0  0
  2  3  1  0  0  0
  2 14  1  0  0  0
  3  4  1  0  0  0
  4  5  1  0  0  0
  4 12  1  0  0  0
  5  6  4  0  0  0
  5 10  4  0  0  0
  6  7  4  0  0  0
  7  8  4  0  0  0
  8  9  4  0  0  0
  9 10  4  0  0  0
 10 11  1  0  0  0
 11 12  1  0  0  0
 12 13  1  0  0  0
 14 15  1  0  0  0
 14 20  1  0  0  0
 15 16  1  0  0  0
 15 17  1  0  0  0
 15 18  1  0  0  0
 18 19  1  0  0  0
 19 20  1  0  0  0
 20 21  1  0  0  0
 21 22  2  0  0  0
 21 23  1  0  0  0
 23 24  1  0  0  0
 23 25  1  0  0  0
 25 26  1  0  0  0
 25 33  1  0  0  0
 26 27  1  0  0  0
 27 28  4  0  0  0
 27 32  4  0  0  0
 28 29  4  0  0  0
 29 30  4  0  0  0
 30 31  4  0  0  0
 31 32  4  0  0  0
 33 34  1  0  0  0
 34 35  2  0  0  0
 34 36  1  0  0  0
 36 37  1  0  0  0
 36 42  1  0  0  0
 37 38  1  0  0  0
 38 39  2  0  0  0
 38 40  1  0  0  0
 38 41  2  0  0  0
 42 43  1  0  0  0
 43 44  2  0  0  0
 43 45  1  0  0  0
 45 46  1  0  0  0
 46 47  1  0  0  0
 47 48  4  0  0  0
 47 56  4  0  0  0
 48 49  4  0  0  0
 48 50  4  0  0  0
 49 53  4  0  0  0
 50 51  4  0  0  0
 50 54  4  0  0  0
 51 52  4  0  0  0
 52 53  4  0  0  0
 54 55  4  0  0  0
 55 56  4  0  0  0
  3 57  1  0  0  0
  4 58  1  0  0  0
  6 59  1  0  0  0
  7 60  1  0  0  0
  8 61  1  0  0  0
  9 62  1  0  0  0
 11 63  1  0  0  0
 11 64  1  0  0  0
 12 65  1  0  0  0
 13 66  1  0  0  0
 14 67  1  0  0  0
 16 68  1  0  0  0
 16 69  1  0  0  0
 16 70  1  0  0  0
 17 71  1  0  0  0
 17 72  1  0  0  0
 17 73  1  0  0  0
 19 74  1  0  0  0
 19 75  1  0  0  0
 23 76  1  0  0  0
 24 77  1  0  0  0
 25 78  1  0  0  0
 26 79  1  0  0  0
 26 80  1  0  0  0
 28 81  1  0  0  0
 29 82  1  0  0  0
 30 83  1  0  0  0
 31 84  1  0  0  0
 32 85  1  0  0  0
 33 86  1  0  0  0
 36 87  1  0  0  0
 37 88  1  0  0  0
 37 89  1  0  0  0
 40 90  1  0  0  0
 40 91  1  0  0  0
 40 92  1  0  0  0
 42 93  1  0  0  0
 45 94  1  0  0  0
 45 95  1  0  0  0
 49 96  1  0  0  0
 51 97  1  0  0  0
 53 98  1  0  0  0
 54 99  1  0  0  0
 55100  1  0  0  0
 56101  1  0  0  0
M  END
$$$$
