5wf7_ligand
  -I-interpret- 

 78 82  0  0  0  0  0  0  0  0999 V2000
  -22.2500   -0.0310  -23.6220 C   0  0  0  0  0
  -22.9340   -0.4700  -22.4300 C   0  0  0  0  0
  -22.3540   -0.0600  -21.0940 C   0  0  0  0  0
  -21.6720   -0.4520  -18.7290 C   0  0  0  0  0
  -22.2370   -0.8680  -19.9460 C   0  0  0  0  0
  -22.5240    7.4670  -29.0610 C   0  0  0  0  0
  -21.9930    6.0600  -28.5950 C   0  0  0  0  0
  -20.6830    4.7710  -27.0040 C   0  0  0  0  0
  -22.2950    4.8260  -29.2440 C   0  0  0  0  0
  -22.1580    2.2300  -29.5200 C   0  0  0  0  0
  -21.8160    3.5610  -28.8060 C   0  0  0  0  0
  -21.7590    0.2270  -26.1390 C   0  0  0  0  0
  -22.6570   -0.3250  -24.9210 C   0  0  0  0  0
  -20.9770    3.4900  -27.6560 C   0  0  0  0  0
  -20.4220    2.1920  -27.1160 C   0  0  0  0  0
  -26.3850   -3.3860  -20.6950 C   0  0  0  0  0
  -25.8950   -3.7180  -22.1480 C   0  0  0  0  0
  -26.6860   -3.0790  -23.4550 C   0  0  0  0  0
  -27.2570   -4.2690  -24.2600 C   0  0  0  0  0
  -25.6420   -2.3970  -25.7690 C   0  0  0  0  0
  -24.5800   -1.6800  -26.2810 C   0  0  0  0  0
  -24.2310   -1.4780  -27.7730 C   0  0  0  0  0
  -23.8230   -1.1370  -25.1530 C   0  0  0  0  0
  -21.1510    0.8910  -18.5980 C   0  0  0  0  0
  -20.0560    0.4000  -16.1990 C   0  0  0  0  0
  -20.6580    0.6040  -14.7640 C   0  0  0  0  0
  -20.5600    3.0320  -15.2850 C   0  0  0  0  0
  -20.5640    2.8320  -16.8510 C   0  0  0  0  0
  -21.8120    1.2400  -20.8680 C   0  0  0  0  0
  -24.0440   -1.2410  -22.6470 C   0  0  0  0  0
  -24.5270   -1.5890  -23.9400 C   0  0  0  0  0
  -25.6650   -2.3650  -24.3260 N   0  0  0  0  0
  -21.2620    1.5770  -26.1100 N   0  0  0  0  0
  -21.1750    5.9910  -27.4710 N   0  0  0  0  0
  -20.5240    1.3530  -17.2990 N   0  0  0  0  0
  -21.3430    1.9270  -14.6320 N   0  3  0  0  0
  -21.2560    1.6870  -19.7170 N   0  0  0  0  0
  -21.4360   -0.4850  -27.0170 O   0  0  0  0  0
  -19.8900    4.7310  -25.9080 O   0  0  0  0  0
  -21.3515    0.5733  -23.4971 H   0  0  0  0  0
  -21.6263   -1.1401  -17.8849 H   0  0  0  0  0
  -22.6119   -1.8897  -20.0064 H   0  0  0  0  0
  -22.1814    7.6651  -30.0766 H   0  0  0  0  0
  -23.6137    7.4688  -29.0370 H   0  0  0  0  0
  -22.1432    8.2378  -28.3909 H   0  0  0  0  0
  -22.9311    4.8547  -30.1287 H   0  0  0  0  0
  -21.2379    1.7551  -29.8606 H   0  0  0  0  0
  -22.6741    1.5682  -28.8244 H   0  0  0  0  0
  -22.8019    2.4332  -30.3757 H   0  0  0  0  0
  -19.4629    2.4157  -26.6490 H   0  0  0  0  0
  -20.3484    1.4953  -27.9510 H   0  0  0  0  0
  -26.3352   -2.3092  -20.5333 H   0  0  0  0  0
  -27.4135   -3.7258  -20.5733 H   0  0  0  0  0
  -25.7455   -3.8932  -19.9725 H   0  0  0  0  0
  -26.0361   -4.7946  -22.2438 H   0  0  0  0  0
  -24.8928   -3.2927  -22.2014 H   0  0  0  0  0
  -27.4715   -2.3882  -23.1485 H   0  0  0  0  0
  -26.4395   -4.9149  -24.5805 H   0  0  0  0  0
  -27.9439   -4.8352  -23.6310 H   0  0  0  0  0
  -27.7887   -3.8930  -25.1341 H   0  0  0  0  0
  -26.3748   -2.9238  -26.3802 H   0  0  0  0  0
  -24.0524   -2.4477  -28.2376 H   0  0  0  0  0
  -25.0610   -0.9806  -28.2748 H   0  0  0  0  0
  -23.3343   -0.8637  -27.8551 H   0  0  0  0  0
  -20.3756   -0.5933  -16.5141 H   0  0  0  0  0
  -18.9846    0.5722  -16.0962 H   0  0  0  0  0
  -19.8424    0.5669  -14.0418 H   0  0  0  0  0
  -21.3925   -0.1814  -14.5857 H   0  0  0  0  0
  -21.0166    3.9914  -15.0418 H   0  0  0  0  0
  -19.5330    3.0118  -14.9204 H   0  0  0  0  0
  -19.6651    3.3108  -17.2394 H   0  0  0  0  0
  -21.4938    3.2579  -17.2279 H   0  0  0  0  0
  -21.8489    1.9409  -21.7019 H   0  0  0  0  0
  -24.5900   -1.6101  -21.7788 H   0  0  0  0  0
  -21.5249    2.1518  -25.3095 H   0  0  0  0  0
  -20.9299    6.8498  -26.9783 H   0  0  0  0  0
  -21.4331    2.1427  -13.6391 H   0  0  0  0  0
  -22.2513    1.8640  -15.0918 H   0  0  0  0  0
  2  1  4  0  0  0
  1 13  4  0  0  0
  3  2  1  0  0  0
  2 30  4  0  0  0
  5  3  4  0  0  0
  3 29  4  0  0  0
  4  5  4  0  0  0
 24  4  4  0  0  0
  7  6  1  0  0  0
  9  7  2  0  0  0
 34  7  1  0  0  0
 14  8  1  0  0  0
  8 34  1  0  0  0
  8 39  2  0  0  0
 11  9  1  0  0  0
 11 10  1  0  0  0
 14 11  2  0  0  0
 13 12  1  0  0  0
 12 33  1  0  0  0
 12 38  2  0  0  0
 13 23  4  0  0  0
 15 14  1  0  0  0
 33 15  1  0  0  0
 17 16  1  0  0  0
 18 17  1  0  0  0
 18 19  1  0  0  0
 32 18  1  0  0  0
 21 20  4  0  0  0
 20 32  4  0  0  0
 21 22  1  0  0  0
 23 21  4  0  0  0
 23 31  4  0  0  0
 35 24  1  0  0  0
 24 37  4  0  0  0
 26 25  1  0  0  0
 25 35  1  0  0  0
 36 26  1  0  0  0
 27 28  1  0  0  0
 27 36  1  0  0  0
 28 35  1  0  0  0
 29 37  4  0  0  0
 30 31  4  0  0  0
 31 32  4  0  0  0
  1 40  1  0  0  0
  4 41  1  0  0  0
  5 42  1  0  0  0
  6 43  1  0  0  0
  6 44  1  0  0  0
  6 45  1  0  0  0
  9 46  1  0  0  0
 10 47  1  0  0  0
 10 48  1  0  0  0
 10 49  1  0  0  0
 15 50  1  0  0  0
 15 51  1  0  0  0
 16 52  1  0  0  0
 16 53  1  0  0  0
 16 54  1  0  0  0
 17 55  1  0  0  0
 17 56  1  0  0  0
 18 57  1  0  0  0
 19 58  1  0  0  0
 19 59  1  0  0  0
 19 60  1  0  0  0
 20 61  1  0  0  0
 22 62  1  0  0  0
 22 63  1  0  0  0
 22 64  1  0  0  0
 25 65  1  0  0  0
 25 66  1  0  0  0
 26 67  1  0  0  0
 26 68  1  0  0  0
 27 69  1  0  0  0
 27 70  1  0  0  0
 28 71  1  0  0  0
 28 72  1  0  0  0
 29 73  1  0  0  0
 30 74  1  0  0  0
 33 75  1  0  0  0
 34 76  1  0  0  0
 36 77  1  0  0  0
 36 78  1  0  0  0
M  END
$$$$
