3hy5_ligand
  -I-interpret- 

 57 57  0  0  0  0  0  0  0  0999 V2000
   -5.3210   14.8860   12.8330 C   0  0  0  0  0
   -6.4820   14.9370   13.8120 C   0  0  0  0  0
   -7.4520   15.9090   13.4660 C   0  0  0  0  0
   -8.2320   15.4570   12.3120 C   0  0  0  0  0
   -7.3920   15.0400   11.0940 C   0  0  0  0  0
   -5.7830   15.0690   11.2950 C   0  0  0  0  0
   -4.8220   14.8580   10.0910 C   0  0  0  0  0
   -3.9720   15.8480    9.6900 C   0  0  0  0  0
   -3.1220   15.8190    8.3820 C   0  0  0  0  0
   -1.6310   15.7370    8.6980 C   0  0  0  0  0
   -0.6450   16.0950    7.5900 C   0  0  0  0  0
    0.3840   16.9220    7.7660 C   0  0  0  0  0
    0.8540   17.2610    9.1950 C   0  0  0  0  0
    0.2960   18.5850    9.7530 C   0  0  0  0  0
    0.7030   19.0380   11.1500 C   0  0  0  0  0
    0.0510   20.1420   11.7130 O   0  0  0  0  0
   -4.2710   15.9460   13.1500 C   0  0  0  0  0
   -4.6020   13.5700   13.0510 C   0  0  0  0  0
   -7.9840   15.1900    9.6700 C   0  0  0  0  0
   -3.5220   14.6900    7.4380 C   0  0  0  0  0
    2.3260   16.9720    9.5040 C   0  0  0  0  0
   -6.0810   15.2004   14.7907 H   0  0  0  0  0
   -6.9692   13.9620   13.8019 H   0  0  0  0  0
   -6.9478   16.8416   13.2126 H   0  0  0  0  0
   -8.1222   16.0610   14.3121 H   0  0  0  0  0
   -8.8512   16.2974   11.9982 H   0  0  0  0  0
   -8.7890   14.5759   12.6305 H   0  0  0  0  0
   -7.5692   13.9645   11.1017 H   0  0  0  0  0
   -5.4468   16.0858   11.0919 H   0  0  0  0  0
   -4.8271   13.9062    9.5597 H   0  0  0  0  0
   -3.8802   16.7244   10.3316 H   0  0  0  0  0
   -3.3274   16.7570    7.8662 H   0  0  0  0  0
   -1.4407   14.6886    8.9276 H   0  0  0  0  0
   -1.4609   16.4711    9.4856 H   0  0  0  0  0
   -0.7901   15.6516    6.6049 H   0  0  0  0  0
    0.8911   17.3568    6.9047 H   0  0  0  0  0
    0.3598   16.5045    9.8045 H   0  0  0  0  0
   -0.7809   18.4284    9.8146 H   0  0  0  0  0
    0.6872   19.3539    9.0868 H   0  0  0  0  0
    1.7461   19.3405   11.0580 H   0  0  0  0  0
    0.4585   18.2002   11.8029 H   0  0  0  0  0
    0.4077   20.3109   12.5881 H   0  0  0  0  0
   -3.9376   15.8284   14.1811 H   0  0  0  0  0
   -3.4222   15.8276   12.4765 H   0  0  0  0  0
   -4.7056   16.9369   13.0181 H   0  0  0  0  0
   -3.7452   13.5101   12.3799 H   0  0  0  0  0
   -4.2606   13.5108   14.0844 H   0  0  0  0  0
   -5.2849   12.7458   12.8449 H   0  0  0  0  0
   -7.6766   16.1473    9.2491 H   0  0  0  0  0
   -7.6185   14.3800    9.0388 H   0  0  0  0  0
   -9.0719   15.1478    9.7239 H   0  0  0  0  0
   -3.3892   13.7326    7.9418 H   0  0  0  0  0
   -4.5671   14.8099    7.1525 H   0  0  0  0  0
   -2.8946   14.7234    6.5473 H   0  0  0  0  0
    2.5235   15.9092    9.3639 H   0  0  0  0  0
    2.9578   17.5520    8.8313 H   0  0  0  0  0
    2.5406   17.2498   10.5359 H   0  0  0  0  0
  1  2  1  0  0  0
  1  6  1  0  0  0
  1 17  1  0  0  0
  1 18  1  0  0  0
  2  3  1  0  0  0
  3  4  1  0  0  0
  4  5  1  0  0  0
  5  6  1  0  0  0
  5 19  1  0  0  0
  6  7  1  0  0  0
  7  8  2  0  0  0
  8  9  1  0  0  0
  9 10  1  0  0  0
  9 20  1  0  0  0
 10 11  1  0  0  0
 11 12  2  0  0  0
 12 13  1  0  0  0
 13 14  1  0  0  0
 13 21  1  0  0  0
 14 15  1  0  0  0
 15 16  1  0  0  0
  2 22  1  0  0  0
  2 23  1  0  0  0
  3 24  1  0  0  0
  3 25  1  0  0  0
  4 26  1  0  0  0
  4 27  1  0  0  0
  5 28  1  0  0  0
  6 29  1  0  0  0
  7 30  1  0  0  0
  8 31  1  0  0  0
  9 32  1  0  0  0
 10 33  1  0  0  0
 10 34  1  0  0  0
 11 35  1  0  0  0
 12 36  1  0  0  0
 13 37  1  0  0  0
 14 38  1  0  0  0
 14 39  1  0  0  0
 15 40  1  0  0  0
 15 41  1  0  0  0
 16 42  1  0  0  0
 17 43  1  0  0  0
 17 44  1  0  0  0
 17 45  1  0  0  0
 18 46  1  0  0  0
 18 47  1  0  0  0
 18 48  1  0  0  0
 19 49  1  0  0  0
 19 50  1  0  0  0
 19 51  1  0  0  0
 20 52  1  0  0  0
 20 53  1  0  0  0
 20 54  1  0  0  0
 21 55  1  0  0  0
 21 56  1  0  0  0
 21 57  1  0  0  0
M  END
$$$$
