### 
### Created by X-TOOL on Mon Sep 10 21:13:17 2018
### 

@<TRIPOS>MOLECULE
4jog_ligand
  131   131     1     0     0
SMALL
GAST_HUCK


@<TRIPOS>ATOM
      1 N          13.8530   25.1560   82.2610 N.4       1 SER         0.2396
      2 CA         13.5200   25.6870   80.9420 C.3       1 SER         0.0885
      3 C          14.1440   27.0630   80.7030 C.2       1 SER         0.2290
      4 O          14.6010   27.3640   79.5960 O.2       1 SER        -0.3906
      5 CB         12.0000   25.7470   80.7550 C.3       1 SER         0.1041
      6 OG         11.6500   26.5190   79.6160 O.3       1 SER        -0.3870
      7 N          14.1570   27.8950   81.7420 N.am      1 ARG        -0.2609
      8 CA         14.7940   29.2040   81.6660 C.3       1 ARG         0.1312
      9 C          16.2970   29.0370   81.4790 C.2       1 ARG         0.2039
     10 O          16.9570   29.8760   80.8640 O.2       1 ARG        -0.3944
     11 CB         14.5330   30.0080   82.9460 C.3       1 ARG        -0.0092
     12 CG         13.1230   30.5740   83.0590 C.3       1 ARG        -0.0156
     13 CD         12.8030   31.0160   84.4820 C.3       1 ARG         0.0627
     14 NE         13.5060   32.2330   84.8830 N.pl3     1 ARG        -0.2723
     15 CZ         13.0170   33.4660   84.7490 C.cat     1 ARG         0.2882
     16 NH1        11.8170   33.6660   84.2120 N.pl3     1 ARG        -0.2849
     17 NH2        13.7300   34.5060   85.1570 N.pl3     1 ARG        -0.2849
     18 N          16.8260   27.9470   82.0290 N.am      1 VAL        -0.2635
     19 CA         18.2630   27.7260   82.0570 C.3       1 VAL         0.1334
     20 C          18.6700   26.7330   80.9700 C.2       1 VAL         0.2066
     21 O          18.1000   25.6480   80.8690 O.2       1 VAL        -0.3942
     22 CB         18.7100   27.2140   83.4330 C.3       1 VAL        -0.0062
     23 CG1        20.2200   27.0890   83.4850 C.3       1 VAL        -0.0584
     24 CG2        18.2150   28.1510   84.5400 C.3       1 VAL        -0.0584
     25 N          19.6550   27.1100   80.1470 N.am      1 PRO        -0.2498
     26 CA         20.0570   26.2910   78.9980 C.3       1 PRO         0.1338
     27 C          20.8700   25.0500   79.3800 C.2       1 PRO         0.2042
     28 O          21.5100   25.0140   80.4350 O.2       1 PRO        -0.3944
     29 CB         20.9300   27.2510   78.1820 C.3       1 PRO        -0.0104
     30 CG         21.5230   28.1570   79.2050 C.3       1 PRO        -0.0281
     31 CD         20.4280   28.3610   80.2300 C.3       1 PRO         0.0369
     32 N          20.8290   24.0560   78.4990 N.am      1 THR        -0.2613
     33 CA         21.6310   22.8450   78.6220 C.3       1 THR         0.1565
     34 C          22.4200   22.6740   77.3430 C.2       1 THR         0.2065
     35 O          21.8840   22.8770   76.2480 O.2       1 THR        -0.3943
     36 CB         20.7390   21.6200   78.8020 C.3       1 THR         0.0924
     37 OG1        19.9910   21.7680   80.0120 O.3       1 THR        -0.3874
     38 CG2        21.5760   20.3330   78.8780 C.3       1 THR        -0.0346
     39 N          23.6870   22.2850   77.4670 N.am      1 SER        -0.2615
     40 CA         24.5020   21.9690   76.2980 C.3       1 SER         0.1539
     41 C          25.1080   20.5880   76.4680 C.2       1 SER         0.2062
     42 O          25.5500   20.2280   77.5620 O.2       1 SER        -0.3943
     43 CB         25.6260   22.9910   76.1100 C.3       1 SER         0.0843
     44 OG         25.1130   24.2680   75.7520 O.3       1 SER        -0.3903
     45 N          25.1160   19.8210   75.3830 N.am      1 ILE        -0.2634
     46 CA         25.7680   18.5170   75.3270 C.3       1 ILE         0.1335
     47 C          27.2080   18.7630   74.8960 C.2       1 ILE         0.2036
     48 O          27.4360   19.4140   73.8710 O.2       1 ILE        -0.3944
     49 CB         25.0860   17.6050   74.2780 C.3       1 ILE        -0.0037
     50 CG1        23.6040   17.4160   74.6020 C.3       1 ILE        -0.0491
     51 CG2        25.7870   16.2650   74.2030 C.3       1 ILE        -0.0582
     52 CD1        22.7920   16.8310   73.4370 C.3       1 ILE        -0.0648
     53 N          28.1770   18.2620   75.6680 N.am      1 ILE        -0.2692
     54 CA         29.5980   18.5230   75.4070 C.3       1 ILE         0.0969
     55 C          30.5010   17.3040   75.6280 C.2       1 ILE         0.0604
     56 O          30.0770   16.2430   76.1040 O.co2     1 ILE        -0.5666
     57 CB         30.1470   19.6970   76.2680 C.3       1 ILE        -0.0092
     58 CG1        30.0670   19.3830   77.7630 C.3       1 ILE        -0.0497
     59 CG2        29.4150   21.0050   75.9540 C.3       1 ILE        -0.0588
     60 CD1        30.7570   20.4430   78.6320 C.3       1 ILE        -0.0649
     61 OXT        31.6990   17.3680   75.3310 O.co2     1 ILE        -0.5666
     62 H          13.4237   24.2514   82.3772 H         1 SER         0.2016
     63 H          13.5116   25.7837   82.9719 H         1 SER         0.2016
     64 H          14.8535   25.0662   82.3443 H         1 SER         0.2016
     65 H          13.9294   24.9973   80.1892 H         1 SER         0.1122
     66 H          11.5468   26.2011   81.6485 H         1 SER         0.0640
     67 H          11.6141   24.7249   80.6273 H         1 SER         0.0640
     68 H          10.7045   26.5380   79.5261 H         1 SER         0.2099
     69 H          13.7188   27.6150   82.5962 H         1 ARG         0.1884
     70 H          14.3807   29.7525   80.8068 H         1 ARG         0.0800
     71 H          15.2436   30.8471   82.9758 H         1 ARG         0.0313
     72 H          14.7086   29.3480   83.8083 H         1 ARG         0.0313
     73 H          12.4030   29.7994   82.7564 H         1 ARG         0.0301
     74 H          13.0325   31.4410   82.3881 H         1 ARG         0.0301
     75 H          13.0864   30.2065   85.1708 H         1 ARG         0.0689
     76 H          11.7207   31.1981   84.5557 H         1 ARG         0.0689
     77 H          14.4434   32.1311   85.2975 H         1 ARG         0.2642
     78 H          11.4498   34.6233   84.1137 H         1 ARG         0.2615
     79 H          11.2547   32.8636   83.8944 H         1 ARG         0.2615
     80 H          14.6605   34.3607   85.5741 H         1 ARG         0.2615
     81 H          13.3537   35.4596   85.0569 H         1 ARG         0.2615
     82 H          16.2198   27.2622   82.4335 H         1 VAL         0.1883
     83 H          18.7659   28.6846   81.8617 H         1 VAL         0.0803
     84 H          18.2707   26.2187   83.5951 H         1 VAL         0.0343
     85 H          20.5235   26.7214   84.4763 H         1 VAL         0.0234
     86 H          20.6759   28.0735   83.3036 H         1 VAL         0.0234
     87 H          20.5562   26.3813   82.7129 H         1 VAL         0.0234
     88 H          17.1191   28.2315   84.4894 H         1 VAL         0.0234
     89 H          18.6624   29.1468   84.4048 H         1 VAL         0.0234
     90 H          18.5081   27.7473   85.5204 H         1 VAL         0.0234
     91 H          19.1720   25.9763   78.4256 H         1 PRO         0.0802
     92 H          20.3206   27.8186   77.4633 H         1 PRO         0.0313
     93 H          21.7163   26.7021   77.6431 H         1 PRO         0.0313
     94 H          21.8111   29.1166   78.7510 H         1 PRO         0.0287
     95 H          22.4049   27.6914   79.6691 H         1 PRO         0.0287
     96 H          20.8500   28.4983   81.2365 H         1 PRO         0.0524
     97 H          19.8032   29.2290   79.9728 H         1 PRO         0.0524
     98 H          20.2175   24.1431   77.7125 H         1 THR         0.1884
     99 H          22.3126   22.9364   79.4805 H         1 THR         0.0826
    100 H          20.0478   21.5488   77.9493 H         1 THR         0.0639
    101 H          19.4560   22.5512   79.9585 H         1 THR         0.2101
    102 H          20.9083   19.4685   79.0075 H         1 THR         0.0257
    103 H          22.2662   20.3943   79.7323 H         1 THR         0.0257
    104 H          22.1525   20.2151   77.9486 H         1 THR         0.0257
    105 H          24.0886   22.2077   78.3795 H         1 SER         0.1884
    106 H          23.8604   21.9770   75.4045 H         1 SER         0.0823
    107 H          26.2991   22.6400   75.3140 H         1 SER         0.0606
    108 H          26.1876   23.0823   77.0514 H         1 SER         0.0606
    109 H          24.5340   24.5791   76.4380 H         1 SER         0.2097
    110 H          24.6513   20.1546   74.5628 H         1 ILE         0.1883
    111 H          25.7370   18.0352   76.3154 H         1 ILE         0.0803
    112 H          25.1646   18.0920   73.2948 H         1 ILE         0.0345
    113 H          23.1778   18.3950   74.8664 H         1 ILE         0.0267
    114 H          23.5196   16.7350   75.4617 H         1 ILE         0.0267
    115 H          26.8506   16.4202   73.9694 H         1 ILE         0.0235
    116 H          25.3242   15.6526   73.4151 H         1 ILE         0.0235
    117 H          25.6956   15.7487   75.1700 H         1 ILE         0.0235
    118 H          21.7403   16.7234   73.7408 H         1 ILE         0.0230
    119 H          23.1979   15.8453   73.1656 H         1 ILE         0.0230
    120 H          22.8561   17.5053   72.5703 H         1 ILE         0.0230
    121 H          27.9259   17.6905   76.4492 H         1 ILE         0.1875
    122 H          29.6804   18.8112   74.3487 H         1 ILE         0.0729
    123 H          31.2074   19.8333   76.0092 H         1 ILE         0.0338
    124 H          30.5500   18.4115   77.9443 H         1 ILE         0.0267
    125 H          29.0077   19.3257   78.0537 H         1 ILE         0.0267
    126 H          29.4833   21.2137   74.8762 H         1 ILE         0.0234
    127 H          29.8781   21.8287   76.5170 H         1 ILE         0.0234
    128 H          28.3578   20.9121   76.2432 H         1 ILE         0.0234
    129 H          30.6666   20.1636   79.6921 H         1 ILE         0.0230
    130 H          30.2783   21.4197   78.4682 H         1 ILE         0.0230
    131 H          31.8207   20.5055   78.3587 H         1 ILE         0.0230
@<TRIPOS>BOND
     1    1    2 1  
     2    2    3 1  
     3    2    5 1  
     4    3    4 2  
     5    3    7 am 
     6    5    6 1  
     7    7    8 1  
     8    8    9 1  
     9    8   11 1  
    10    9   10 2  
    11    9   18 am 
    12   11   12 1  
    13   12   13 1  
    14   13   14 1  
    15   14   15 ar 
    16   15   16 ar 
    17   15   17 ar 
    18   18   19 1  
    19   19   20 1  
    20   19   22 1  
    21   20   21 2  
    22   20   25 am 
    23   22   23 1  
    24   22   24 1  
    25   25   26 1  
    26   25   31 1  
    27   26   27 1  
    28   26   29 1  
    29   27   28 2  
    30   27   32 am 
    31   29   30 1  
    32   30   31 1  
    33   32   33 1  
    34   33   34 1  
    35   33   36 1  
    36   34   35 2  
    37   34   39 am 
    38   36   37 1  
    39   36   38 1  
    40   39   40 1  
    41   40   41 1  
    42   40   43 1  
    43   41   42 2  
    44   41   45 am 
    45   43   44 1  
    46   45   46 1  
    47   46   47 1  
    48   46   49 1  
    49   47   48 2  
    50   47   53 am 
    51   49   50 1  
    52   49   51 1  
    53   50   52 1  
    54   53   54 1  
    55   54   55 1  
    56   54   57 1  
    57   55   56 ar 
    58   55   61 ar 
    59   57   58 1  
    60   57   59 1  
    61   58   60 1  
    62    1   62 1  
    63    1   63 1  
    64    1   64 1  
    65    2   65 1  
    66    5   66 1  
    67    5   67 1  
    68    6   68 1  
    69    7   69 1  
    70    8   70 1  
    71   11   71 1  
    72   11   72 1  
    73   12   73 1  
    74   12   74 1  
    75   13   75 1  
    76   13   76 1  
    77   14   77 1  
    78   16   78 1  
    79   16   79 1  
    80   17   80 1  
    81   17   81 1  
    82   18   82 1  
    83   19   83 1  
    84   22   84 1  
    85   23   85 1  
    86   23   86 1  
    87   23   87 1  
    88   24   88 1  
    89   24   89 1  
    90   24   90 1  
    91   26   91 1  
    92   29   92 1  
    93   29   93 1  
    94   30   94 1  
    95   30   95 1  
    96   31   96 1  
    97   31   97 1  
    98   32   98 1  
    99   33   99 1  
   100   36  100 1  
   101   37  101 1  
   102   38  102 1  
   103   38  103 1  
   104   38  104 1  
   105   39  105 1  
   106   40  106 1  
   107   43  107 1  
   108   43  108 1  
   109   44  109 1  
   110   45  110 1  
   111   46  111 1  
   112   49  112 1  
   113   50  113 1  
   114   50  114 1  
   115   51  115 1  
   116   51  116 1  
   117   51  117 1  
   118   52  118 1  
   119   52  119 1  
   120   52  120 1  
   121   53  121 1  
   122   54  122 1  
   123   57  123 1  
   124   58  124 1  
   125   58  125 1  
   126   59  126 1  
   127   59  127 1  
   128   59  128 1  
   129   60  129 1  
   130   60  130 1  
   131   60  131 1  
@<TRIPOS>SUBSTRUCTURE
     1 SER         1

