4jog_ligand
  -I-interpret- 

131131  0  0  0  0  0  0  0  0999 V2000
   13.8530   25.1560   82.2610 N   0  3  0  0  0
   13.5200   25.6870   80.9420 C   0  0  0  0  0
   14.1440   27.0630   80.7030 C   0  0  0  0  0
   14.6010   27.3640   79.5960 O   0  0  0  0  0
   12.0000   25.7470   80.7550 C   0  0  0  0  0
   11.6500   26.5190   79.6160 O   0  0  0  0  0
   14.1570   27.8950   81.7420 N   0  0  0  0  0
   14.7940   29.2040   81.6660 C   0  0  0  0  0
   16.2970   29.0370   81.4790 C   0  0  0  0  0
   16.9570   29.8760   80.8640 O   0  0  0  0  0
   14.5330   30.0080   82.9460 C   0  0  0  0  0
   13.1230   30.5740   83.0590 C   0  0  0  0  0
   12.8030   31.0160   84.4820 C   0  0  0  0  0
   13.5060   32.2330   84.8830 N   0  0  0  0  0
   13.0170   33.4660   84.7490 C   0  0  0  0  0
   11.8170   33.6660   84.2120 N   0  0  0  0  0
   13.7300   34.5060   85.1570 N   0  0  0  0  0
   16.8260   27.9470   82.0290 N   0  0  0  0  0
   18.2630   27.7260   82.0570 C   0  0  0  0  0
   18.6700   26.7330   80.9700 C   0  0  0  0  0
   18.1000   25.6480   80.8690 O   0  0  0  0  0
   18.7100   27.2140   83.4330 C   0  0  0  0  0
   20.2200   27.0890   83.4850 C   0  0  0  0  0
   18.2150   28.1510   84.5400 C   0  0  0  0  0
   19.6550   27.1100   80.1470 N   0  0  0  0  0
   20.0570   26.2910   78.9980 C   0  0  0  0  0
   20.8700   25.0500   79.3800 C   0  0  0  0  0
   21.5100   25.0140   80.4350 O   0  0  0  0  0
   20.9300   27.2510   78.1820 C   0  0  0  0  0
   21.5230   28.1570   79.2050 C   0  0  0  0  0
   20.4280   28.3610   80.2300 C   0  0  0  0  0
   20.8290   24.0560   78.4990 N   0  0  0  0  0
   21.6310   22.8450   78.6220 C   0  0  0  0  0
   22.4200   22.6740   77.3430 C   0  0  0  0  0
   21.8840   22.8770   76.2480 O   0  0  0  0  0
   20.7390   21.6200   78.8020 C   0  0  0  0  0
   19.9910   21.7680   80.0120 O   0  0  0  0  0
   21.5760   20.3330   78.8780 C   0  0  0  0  0
   23.6870   22.2850   77.4670 N   0  0  0  0  0
   24.5020   21.9690   76.2980 C   0  0  0  0  0
   25.1080   20.5880   76.4680 C   0  0  0  0  0
   25.5500   20.2280   77.5620 O   0  0  0  0  0
   25.6260   22.9910   76.1100 C   0  0  0  0  0
   25.1130   24.2680   75.7520 O   0  0  0  0  0
   25.1160   19.8210   75.3830 N   0  0  0  0  0
   25.7680   18.5170   75.3270 C   0  0  0  0  0
   27.2080   18.7630   74.8960 C   0  0  0  0  0
   27.4360   19.4140   73.8710 O   0  0  0  0  0
   25.0860   17.6050   74.2780 C   0  0  0  0  0
   23.6040   17.4160   74.6020 C   0  0  0  0  0
   25.7870   16.2650   74.2030 C   0  0  0  0  0
   22.7920   16.8310   73.4370 C   0  0  0  0  0
   28.1770   18.2620   75.6680 N   0  0  0  0  0
   29.5980   18.5230   75.4070 C   0  0  0  0  0
   30.5010   17.3040   75.6280 C   0  0  0  0  0
   30.0770   16.2430   76.1040 O   0  0  0  0  0
   30.1470   19.6970   76.2680 C   0  0  0  0  0
   30.0670   19.3830   77.7630 C   0  0  0  0  0
   29.4150   21.0050   75.9540 C   0  0  0  0  0
   30.7570   20.4430   78.6320 C   0  0  0  0  0
   31.6990   17.3680   75.3310 O   0  0  0  0  0
   14.8670   25.1235   82.3671 H   0  0  0  0  0
   13.4539   25.7596   82.9799 H   0  0  0  0  0
   13.4699   24.2153   82.3541 H   0  0  0  0  0
   13.9412   25.0062   80.2022 H   0  0  0  0  0
   11.5601   26.2117   81.6374 H   0  0  0  0  0
   11.6276   24.7323   80.6140 H   0  0  0  0  0
   10.6945   26.5382   79.5252 H   0  0  0  0  0
   13.7100   27.6094   82.6132 H   0  0  0  0  0
   14.3723   29.7415   80.8167 H   0  0  0  0  0
   15.2176   30.8561   82.9356 H   0  0  0  0  0
   14.6716   29.3263   83.7851 H   0  0  0  0  0
   12.4168   29.7936   82.7756 H   0  0  0  0  0
   13.0493   31.4432   82.4055 H   0  0  0  0  0
   13.1189   30.2174   85.1532 H   0  0  0  0  0
   11.7339   31.2231   84.5294 H   0  0  0  0  0
   14.4343   32.1321   85.2935 H   0  0  0  0  0
   11.4524   34.6138   84.1169 H   0  0  0  0  0
   11.2612   32.8716   83.8952 H   0  0  0  0  0
   14.6504   34.3620   85.5723 H   0  0  0  0  0
   16.2077   27.2485   82.4416 H   0  0  0  0  0
   18.7564   28.6792   81.8671 H   0  0  0  0  0
   18.2737   26.2280   83.5929 H   0  0  0  0  0
   20.5518   26.3876   82.7195 H   0  0  0  0  0
   20.6705   28.0651   83.3051 H   0  0  0  0  0
   20.5195   26.7247   84.4677 H   0  0  0  0  0
   18.6263   29.1479   84.3813 H   0  0  0  0  0
   17.1263   28.1975   84.5150 H   0  0  0  0  0
   18.5416   27.7717   85.5083 H   0  0  0  0  0
   19.1876   25.8970   78.4717 H   0  0  0  0  0
   20.3560   27.7947   77.4317 H   0  0  0  0  0
   21.6908   26.7270   77.6035 H   0  0  0  0  0
   21.8483   29.1012   78.7682 H   0  0  0  0  0
   22.4201   27.7288   79.6522 H   0  0  0  0  0
   20.8173   28.5501   81.2304 H   0  0  0  0  0
   19.8222   29.2446   80.0291 H   0  0  0  0  0
   20.2053   24.1448   77.6968 H   0  0  0  0  0
   22.2855   22.9358   79.4889 H   0  0  0  0  0
   20.0705   21.5440   77.9444 H   0  0  0  0  0
   19.4264   21.0012   80.1337 H   0  0  0  0  0
   22.1467   20.2173   77.9566 H   0  0  0  0  0
   22.2594   20.3951   79.7248 H   0  0  0  0  0
   20.9133   19.4772   79.0063 H   0  0  0  0  0
   24.0966   22.2061   78.3978 H   0  0  0  0  0
   23.8606   21.9978   75.4171 H   0  0  0  0  0
   26.2787   22.6437   75.3091 H   0  0  0  0  0
   26.1669   23.0872   77.0514 H   0  0  0  0  0
   25.8406   24.8845   75.6418 H   0  0  0  0  0
   24.6420   20.1613   74.5464 H   0  0  0  0  0
   25.7068   18.0259   76.2982 H   0  0  0  0  0
   25.1624   18.0909   73.3053 H   0  0  0  0  0
   23.1903   18.3986   74.8288 H   0  0  0  0  0
   23.5373   16.7138   75.4330 H   0  0  0  0  0
   26.8280   16.4164   73.9175 H   0  0  0  0  0
   25.7432   15.7785   75.1774 H   0  0  0  0  0
   25.2926   15.6388   73.4603 H   0  0  0  0  0
   22.8564   17.5000   72.5789 H   0  0  0  0  0
   23.1952   15.8544   73.1690 H   0  0  0  0  0
   21.7501   16.7248   73.7392 H   0  0  0  0  0
   27.9209   17.6790   76.4649 H   0  0  0  0  0
   29.6294   18.7868   74.3499 H   0  0  0  0  0
   29.1387   16.3286   76.2881 H   0  0  0  0  0
   31.1979   19.8228   76.0075 H   0  0  0  0  0
   30.5732   18.4325   77.9317 H   0  0  0  0  0
   29.0137   19.3568   78.0424 H   0  0  0  0  0
   29.5511   21.2523   74.9012 H   0  0  0  0  0
   28.3525   20.8852   76.1660 H   0  0  0  0  0
   29.8222   21.8052   76.5721 H   0  0  0  0  0
   31.8108   20.5040   78.3602 H   0  0  0  0  0
   30.2818   21.4103   78.4688 H   0  0  0  0  0
   30.6668   20.1650   79.6821 H   0  0  0  0  0
  1  2  1  0  0  0
  2  3  1  0  0  0
  2  5  1  0  0  0
  3  4  2  0  0  0
  3  7  1  0  0  0
  5  6  1  0  0  0
  7  8  1  0  0  0
  8  9  1  0  0  0
  8 11  1  0  0  0
  9 10  2  0  0  0
  9 18  1  0  0  0
 11 12  1  0  0  0
 12 13  1  0  0  0
 13 14  1  0  0  0
 14 15  1  0  0  0
 15 16  1  0  0  0
 15 17  2  0  0  0
 18 19  1  0  0  0
 19 20  1  0  0  0
 19 22  1  0  0  0
 20 21  2  0  0  0
 20 25  1  0  0  0
 22 23  1  0  0  0
 22 24  1  0  0  0
 25 26  1  0  0  0
 25 31  1  0  0  0
 26 27  1  0  0  0
 26 29  1  0  0  0
 27 28  2  0  0  0
 27 32  1  0  0  0
 29 30  1  0  0  0
 30 31  1  0  0  0
 32 33  1  0  0  0
 33 34  1  0  0  0
 33 36  1  0  0  0
 34 35  2  0  0  0
 34 39  1  0  0  0
 36 37  1  0  0  0
 36 38  1  0  0  0
 39 40  1  0  0  0
 40 41  1  0  0  0
 40 43  1  0  0  0
 41 42  2  0  0  0
 41 45  1  0  0  0
 43 44  1  0  0  0
 45 46  1  0  0  0
 46 47  1  0  0  0
 46 49  1  0  0  0
 47 48  2  0  0  0
 47 53  1  0  0  0
 49 50  1  0  0  0
 49 51  1  0  0  0
 50 52  1  0  0  0
 53 54  1  0  0  0
 54 55  1  0  0  0
 54 57  1  0  0  0
 55 56  1  0  0  0
 55 61  2  0  0  0
 57 58  1  0  0  0
 57 59  1  0  0  0
 58 60  1  0  0  0
  1 62  1  0  0  0
  1 63  1  0  0  0
  1 64  1  0  0  0
  2 65  1  0  0  0
  5 66  1  0  0  0
  5 67  1  0  0  0
  6 68  1  0  0  0
  7 69  1  0  0  0
  8 70  1  0  0  0
 11 71  1  0  0  0
 11 72  1  0  0  0
 12 73  1  0  0  0
 12 74  1  0  0  0
 13 75  1  0  0  0
 13 76  1  0  0  0
 14 77  1  0  0  0
 16 78  1  0  0  0
 16 79  1  0  0  0
 17 80  1  0  0  0
 18 81  1  0  0  0
 19 82  1  0  0  0
 22 83  1  0  0  0
 23 84  1  0  0  0
 23 85  1  0  0  0
 23 86  1  0  0  0
 24 87  1  0  0  0
 24 88  1  0  0  0
 24 89  1  0  0  0
 26 90  1  0  0  0
 29 91  1  0  0  0
 29 92  1  0  0  0
 30 93  1  0  0  0
 30 94  1  0  0  0
 31 95  1  0  0  0
 31 96  1  0  0  0
 32 97  1  0  0  0
 33 98  1  0  0  0
 36 99  1  0  0  0
 37100  1  0  0  0
 38101  1  0  0  0
 38102  1  0  0  0
 38103  1  0  0  0
 39104  1  0  0  0
 40105  1  0  0  0
 43106  1  0  0  0
 43107  1  0  0  0
 44108  1  0  0  0
 45109  1  0  0  0
 46110  1  0  0  0
 49111  1  0  0  0
 50112  1  0  0  0
 50113  1  0  0  0
 51114  1  0  0  0
 51115  1  0  0  0
 51116  1  0  0  0
 52117  1  0  0  0
 52118  1  0  0  0
 52119  1  0  0  0
 53120  1  0  0  0
 54121  1  0  0  0
 56122  1  0  0  0
 57123  1  0  0  0
 58124  1  0  0  0
 58125  1  0  0  0
 59126  1  0  0  0
 59127  1  0  0  0
 59128  1  0  0  0
 60129  1  0  0  0
 60130  1  0  0  0
 60131  1  0  0  0
M  END
$$$$
