4g5y_ligand
  -I-interpret- 

 20 20  0  0  0  0  0  0  0  0999 V2000
   13.8780   10.2280    6.7540 C   0  0  0  0  0
   13.9580    9.2120    7.7850 N   0  0  0  0  0
   13.7960    7.7860    7.4870 C   0  0  0  0  0
   13.2480    9.7080    9.2370 S   0  0  0  0  0
   12.4750   10.9840    9.1880 O   0  0  0  0  0
   12.5210    8.5750    9.8230 O   0  0  0  0  0
   14.7200    9.9480   10.0240 C   0  0  0  0  0
   15.4300    8.9000   10.4560 C   0  0  0  0  0
   16.5730    9.2870   11.0480 C   0  0  0  0  0
   16.6650   11.0170   10.9340 S   0  0  0  0  0
   15.1830   11.1930   10.1730 C   0  0  0  0  0
   12.8318   10.4604    6.5552 H   0  0  0  0  0
   14.3936   11.1272    7.0911 H   0  0  0  0  0
   14.3487    9.8575    5.8433 H   0  0  0  0  0
   14.2518    7.1959    8.2821 H   0  0  0  0  0
   12.7343    7.5485    7.4196 H   0  0  0  0  0
   14.2818    7.5569    6.5385 H   0  0  0  0  0
   15.1202    7.8612   10.3421 H   0  0  0  0  0
   17.3092    8.6329   11.5152 H   0  0  0  0  0
   14.7010   12.1212    9.8660 H   0  0  0  0  0
  1  2  1  0  0  0
  2  3  1  0  0  0
  2  4  1  0  0  0
  4  5  2  0  0  0
  4  6  2  0  0  0
  4  7  1  0  0  0
  7  8  4  0  0  0
  7 11  4  0  0  0
  8  9  4  0  0  0
  9 10  4  0  0  0
 10 11  4  0  0  0
  1 12  1  0  0  0
  1 13  1  0  0  0
  1 14  1  0  0  0
  3 15  1  0  0  0
  3 16  1  0  0  0
  3 17  1  0  0  0
  8 18  1  0  0  0
  9 19  1  0  0  0
 11 20  1  0  0  0
M  END
$$$$
