2ony_ligand
  -I-interpret- 

 37 39  0  0  0  0  0  0  0  0999 V2000
   28.9560   46.0530   19.3380 C   0  0  0  0  0
   26.8880   44.9480   12.0170 C   0  0  0  0  0
   25.1990   46.4240   10.3670 C   0  0  0  0  0
   24.9650   46.3800   11.7390 C   0  0  0  0  0
   26.2700   45.7260    9.8210 C   0  0  0  0  0
   25.8090   45.6430   12.5630 C   0  0  0  0  0
   27.1150   44.9840   10.6470 C   0  0  0  0  0
   28.1800   46.1170   16.9370 C   0  0  0  0  0
   28.5290   43.9580   17.9440 C   0  0  0  0  0
   29.0420   45.0830   20.5150 C   0  0  0  0  0
   28.9000   43.0900   19.1510 C   0  0  0  0  0
   24.1780   47.3640    9.3320 Cl  0  0  0  0  0
   27.8280   44.2200   12.8850 N   0  0  0  0  0
   27.3180   43.3370   14.1570 S   0  0  0  0  0
   25.8960   43.2050   14.1190 O   0  0  0  0  0
   27.9440   41.9760   14.0780 O   0  0  0  0  0
   27.7920   44.1160   15.6510 C   0  0  0  0  0
   28.1550   43.3450   16.7510 C   0  0  0  0  0
   27.8030   45.5050   15.7450 C   0  0  0  0  0
   28.5450   45.3460   18.0390 C   0  0  0  0  0
   29.7350   43.8580   20.0840 N   0  3  0  0  0
   29.9409   46.4954   19.1883 H   0  0  0  0  0
   28.2016   46.8047   19.5703 H   0  0  0  0  0
   24.1217   46.9223   12.1665 H   0  0  0  0  0
   26.4499   45.7584    8.7464 H   0  0  0  0  0
   25.6269   45.6085   13.6371 H   0  0  0  0  0
   27.9521   44.4333   10.2179 H   0  0  0  0  0
   28.1898   47.2046   17.0088 H   0  0  0  0  0
   28.0376   44.8336   20.8572 H   0  0  0  0  0
   29.5946   45.5474   21.3318 H   0  0  0  0  0
   29.4552   42.2170   18.8079 H   0  0  0  0  0
   27.9890   42.7756   19.6603 H   0  0  0  0  0
   28.8270   44.2694   12.6849 H   0  0  0  0  0
   28.1466   42.2574   16.6785 H   0  0  0  0  0
   27.5168   46.1124   14.8864 H   0  0  0  0  0
   29.9282   43.2827   20.9038 H   0  0  0  0  0
   30.6019   44.1178   19.6134 H   0  0  0  0  0
  1 10  1  0  0  0
 20  1  1  0  0  0
  2  6  4  0  0  0
  2  7  4  0  0  0
 13  2  1  0  0  0
  4  3  4  0  0  0
  5  3  4  0  0  0
  3 12  1  0  0  0
  6  4  4  0  0  0
  7  5  4  0  0  0
  8 19  4  0  0  0
 20  8  4  0  0  0
  9 11  1  0  0  0
 18  9  4  0  0  0
  9 20  4  0  0  0
 21 10  1  0  0  0
 11 21  1  0  0  0
 14 13  1  0  0  0
 14 15  2  0  0  0
 14 16  2  0  0  0
 17 14  1  0  0  0
 17 18  4  0  0  0
 17 19  4  0  0  0
  1 22  1  0  0  0
  1 23  1  0  0  0
  4 24  1  0  0  0
  5 25  1  0  0  0
  6 26  1  0  0  0
  7 27  1  0  0  0
  8 28  1  0  0  0
 10 29  1  0  0  0
 10 30  1  0  0  0
 11 31  1  0  0  0
 11 32  1  0  0  0
 13 33  1  0  0  0
 18 34  1  0  0  0
 19 35  1  0  0  0
 21 36  1  0  0  0
 21 37  1  0  0  0
M  END
$$$$
