2w6q_ligand
  -I-interpret- 

 31 32  0  0  0  0  0  0  0  0999 V2000
    1.6830  -27.8110   24.7460 N   0  0  0  0  0
    2.0550  -26.5100   24.7940 C   0  0  0  0  0
    1.3460  -25.5970   25.4960 N   0  0  0  0  0
    1.7490  -24.3030   25.5290 C   0  0  0  0  0
    1.0370  -23.4010   26.2330 N   0  0  0  0  0
    2.8650  -23.9140   24.8670 N   0  0  0  0  0
    3.1630  -26.1230   24.1370 N   0  0  0  0  0
    3.5710  -24.8350   24.1710 C   0  0  0  0  0
    4.7050  -24.5170   23.4830 O   0  0  0  0  0
    5.3370  -23.2440   23.5890 C   0  0  0  0  0
    4.7880  -22.3670   22.4740 C   0  0  0  0  0
    4.4730  -21.0930   23.0240 O   0  0  0  0  0
    3.2080  -20.5650   23.0010 C   0  0  0  0  0
    2.2510  -21.0210   22.0920 C   0  0  0  0  0
    0.9780  -20.4510   22.0850 C   0  0  0  0  0
    0.6640  -19.4310   22.9850 C   0  0  0  0  0
    1.6240  -18.9750   23.8910 C   0  0  0  0  0
    2.8980  -19.5380   23.8980 C   0  0  0  0  0
    0.8506  -28.1222   25.2467 H   0  0  0  0  0
    2.2351  -28.4798   24.2092 H   0  0  0  0  0
    0.1999  -23.6933   26.7372 H   0  0  0  0  0
    1.3352  -22.4260   26.2616 H   0  0  0  0  0
    6.4182  -23.3462   23.4964 H   0  0  0  0  0
    5.1325  -22.7966   24.5617 H   0  0  0  0  0
    3.8946  -22.8213   22.0456 H   0  0  0  0  0
    5.5293  -22.2602   21.6821 H   0  0  0  0  0
    2.4977  -21.8186   21.3912 H   0  0  0  0  0
    0.2279  -20.8022   21.3764 H   0  0  0  0  0
   -0.3326  -18.9896   22.9806 H   0  0  0  0  0
    1.3763  -18.1785   24.5927 H   0  0  0  0  0
    3.6506  -19.1793   24.6001 H   0  0  0  0  0
  1  2  1  0  0  0
  2  3  4  0  0  0
  2  7  4  0  0  0
  3  4  4  0  0  0
  4  5  1  0  0  0
  4  6  4  0  0  0
  6  8  4  0  0  0
  7  8  4  0  0  0
  8  9  1  0  0  0
  9 10  1  0  0  0
 10 11  1  0  0  0
 11 12  1  0  0  0
 12 13  1  0  0  0
 13 14  4  0  0  0
 13 18  4  0  0  0
 14 15  4  0  0  0
 15 16  4  0  0  0
 16 17  4  0  0  0
 17 18  4  0  0  0
  1 19  1  0  0  0
  1 20  1  0  0  0
  5 21  1  0  0  0
  5 22  1  0  0  0
 10 23  1  0  0  0
 10 24  1  0  0  0
 11 25  1  0  0  0
 11 26  1  0  0  0
 14 27  1  0  0  0
 15 28  1  0  0  0
 16 29  1  0  0  0
 17 30  1  0  0  0
 18 31  1  0  0  0
M  END
$$$$
