### 
### Created by X-TOOL on Mon Sep 10 21:13:00 2018
### 

@<TRIPOS>MOLECULE
2w6q_ligand
   31    32     1     0     0
SMALL
GAST_HUCK


@<TRIPOS>ATOM
      1 N10         1.6830  -27.8110   24.7460 N.pl3     1 OA5        -0.3023
      2 C6          2.0550  -26.5100   24.7940 C.ar      1 OA5         0.1723
      3 N8          1.3460  -25.5970   25.4960 N.ar      1 OA5        -0.2340
      4 C5          1.7490  -24.3030   25.5290 C.ar      1 OA5         0.1723
      5 N9          1.0370  -23.4010   26.2330 N.pl3     1 OA5        -0.3023
      6 N2          2.8650  -23.9140   24.8670 N.ar      1 OA5        -0.2240
      7 N3          3.1630  -26.1230   24.1370 N.ar      1 OA5        -0.2240
      8 C1          3.5710  -24.8350   24.1710 C.ar      1 OA5         0.2286
      9 O4          4.7050  -24.5170   23.4830 O.3       1 OA5        -0.2727
     10 C7          5.3370  -23.2440   23.5890 C.3       1 OA5         0.1088
     11 C11         4.7880  -22.3670   22.4740 C.3       1 OA5         0.0995
     12 O12         4.4730  -21.0930   23.0240 O.3       1 OA5        -0.3152
     13 C13         3.2080  -20.5650   23.0010 C.ar      1 OA5         0.0912
     14 C15         2.2510  -21.0210   22.0920 C.ar      1 OA5        -0.0331
     15 C17         0.9780  -20.4510   22.0850 C.ar      1 OA5        -0.0706
     16 C18         0.6640  -19.4310   22.9850 C.ar      1 OA5        -0.0729
     17 C16         1.6240  -18.9750   23.8910 C.ar      1 OA5        -0.0706
     18 C14         2.8980  -19.5380   23.8980 C.ar      1 OA5        -0.0331
     19 H1          0.8371  -28.1235   25.2437 H         1 OA5         0.1859
     20 H2          2.2459  -28.4882   24.2118 H         1 OA5         0.1859
     21 H3          0.1882  -23.6949   26.7370 H         1 OA5         0.1859
     22 H4          1.3416  -22.4177   26.2671 H         1 OA5         0.1859
     23 H5          6.4258  -23.3548   23.4781 H         1 OA5         0.0659
     24 H6          5.1119  -22.7931   24.5668 H         1 OA5         0.0659
     25 H7          3.8811  -22.8250   22.0524 H         1 OA5         0.0642
     26 H8          5.5437  -22.2543   21.6827 H         1 OA5         0.0642
     27 H9          2.4963  -21.8142   21.3951 H         1 OA5         0.0542
     28 H10         0.2320  -20.8002   21.3803 H         1 OA5         0.0589
     29 H11        -0.3271  -18.9920   22.9806 H         1 OA5         0.0523
     30 H12         1.3777  -18.1829   24.5888 H         1 OA5         0.0589
     31 H13         3.6465  -19.1813   24.5963 H         1 OA5         0.0542
@<TRIPOS>BOND
     1    1    2 1  
     2    2    3 ar 
     3    2    7 ar 
     4    3    4 ar 
     5    4    5 1  
     6    4    6 ar 
     7    6    8 ar 
     8    7    8 ar 
     9    8    9 1  
    10    9   10 1  
    11   10   11 1  
    12   11   12 1  
    13   12   13 1  
    14   13   14 ar 
    15   13   18 ar 
    16   14   15 ar 
    17   15   16 ar 
    18   16   17 ar 
    19   17   18 ar 
    20    1   19 1  
    21    1   20 1  
    22    5   21 1  
    23    5   22 1  
    24   10   23 1  
    25   10   24 1  
    26   11   25 1  
    27   11   26 1  
    28   14   27 1  
    29   15   28 1  
    30   16   29 1  
    31   17   30 1  
    32   18   31 1  
@<TRIPOS>SUBSTRUCTURE
     1 OA5         1

