5w9g_ligand
  -I-interpret- 

 61 64  0  0  0  0  0  0  0  0999 V2000
  -56.3460  173.5120  285.3820 C   0  0  0  0  0
  -57.9550  178.3730  283.8320 C   0  0  0  0  0
  -61.7280  170.7650  286.9100 C   0  0  0  0  0
  -59.8160  171.8250  285.1940 C   0  0  0  0  0
  -59.7970  170.4850  285.5240 C   0  0  0  0  0
  -60.7500  169.9580  286.3770 C   0  0  0  0  0
  -57.4460  175.1390  279.9900 C   0  0  0  0  0
  -58.6740  175.7280  280.1680 C   0  0  0  0  0
  -58.9810  176.3640  281.3590 C   0  0  0  0  0
  -56.8150  175.8110  282.1990 C   0  0  0  0  0
  -56.5180  175.1800  281.0020 C   0  0  0  0  0
  -58.2360  174.2950  288.0780 C   0  0  0  0  0
  -57.1850  172.2580  285.2410 C   0  0  0  0  0
  -58.5880  178.8330  285.1200 C   0  0  0  0  0
  -61.7630  172.1060  286.6050 C   0  0  0  0  0
  -60.8150  172.6360  285.7540 C   0  0  0  0  0
  -59.5130  176.2120  287.6670 C   0  0  0  0  0
  -58.0470  176.4050  282.3730 C   0  0  0  0  0
  -60.5040  175.7840  288.4980 C   0  0  0  0  0
  -60.3410  174.5270  289.1660 C   0  0  0  0  0
  -59.5980  177.4980  286.9220 C   0  0  0  0  0
  -55.4410  175.2290  288.4820 C   0  0  0  0  0
  -55.8620  173.8130  288.8530 C   0  0  0  0  0
  -56.9520  173.5420  287.8070 C   0  0  0  0  0
  -55.3200  175.1460  286.9700 C   0  0  0  0  0
  -58.4120  175.4730  287.4710 N   0  0  0  0  0
  -59.1870  173.8070  288.9260 N   0  0  0  0  0
  -58.5640  177.7830  286.1280 N   0  0  0  0  0
  -56.2330  174.0370  286.6160 N   0  0  0  0  0
  -61.6070  176.5200  288.6920 O   0  0  0  0  0
  -61.2060  174.0940  289.9310 O   0  0  0  0  0
  -60.5750  178.2420  287.0200 O   0  0  0  0  0
  -55.7680  174.0160  284.4120 O   0  0  0  0  0
  -58.3530  177.0270  283.5570 O   0  0  0  0  0
  -58.5970  172.4980  284.1220 S   0  0  0  0  0
  -60.8870  174.3260  285.3860 Cl  0  0  0  0  0
  -56.8699  178.4185  283.9248 H   0  0  0  0  0
  -58.2790  179.0206  283.0172 H   0  0  0  0  0
  -62.4784  170.3403  287.5768 H   0  0  0  0  0
  -59.0250  169.8369  285.1092 H   0  0  0  0  0
  -60.7258  168.8976  286.6281 H   0  0  0  0  0
  -57.2089  174.6412  279.0498 H   0  0  0  0  0
  -59.4118  175.6945  279.3663 H   0  0  0  0  0
  -59.9568  176.8304  281.4946 H   0  0  0  0  0
  -56.0770  175.8378  283.0007 H   0  0  0  0  0
  -55.5428  174.7136  280.8625 H   0  0  0  0  0
  -57.5733  171.9975  286.2256 H   0  0  0  0  0
  -56.5534  171.4725  284.8260 H   0  0  0  0  0
  -59.6264  179.0976  284.9203 H   0  0  0  0  0
  -58.0254  179.6873  285.4965 H   0  0  0  0  0
  -62.5348  172.7458  287.0329 H   0  0  0  0  0
  -54.5179  175.5432  288.9692 H   0  0  0  0  0
  -56.1496  175.9877  288.8142 H   0  0  0  0  0
  -56.2066  173.7129  289.8822 H   0  0  0  0  0
  -55.0446  173.0923  288.8321 H   0  0  0  0  0
  -57.3072  172.5130  287.7519 H   0  0  0  0  0
  -54.2964  174.9685  286.6400 H   0  0  0  0  0
  -55.5841  176.0810  286.4759 H   0  0  0  0  0
  -59.0452  172.9070  289.3845 H   0  0  0  0  0
  -57.7101  177.2351  286.2332 H   0  0  0  0  0
  -62.1905  176.0650  289.3037 H   0  0  0  0  0
  1 13  1  0  0  0
 29  1  1  0  0  0
  1 33  2  0  0  0
 14  2  1  0  0  0
  2 34  1  0  0  0
  6  3  4  0  0  0
 15  3  4  0  0  0
  4  5  4  0  0  0
  4 16  4  0  0  0
 35  4  1  0  0  0
  5  6  4  0  0  0
  8  7  4  0  0  0
 11  7  4  0  0  0
  9  8  4  0  0  0
 18  9  4  0  0  0
 10 11  4  0  0  0
 18 10  4  0  0  0
 24 12  1  0  0  0
 12 26  2  0  0  0
 12 27  1  0  0  0
 13 35  1  0  0  0
 28 14  1  0  0  0
 16 15  4  0  0  0
 16 36  1  0  0  0
 17 19  2  0  0  0
 17 21  1  0  0  0
 26 17  1  0  0  0
 34 18  1  0  0  0
 20 19  1  0  0  0
 19 30  1  0  0  0
 27 20  1  0  0  0
 20 31  2  0  0  0
 21 28  1  0  0  0
 21 32  2  0  0  0
 23 22  1  0  0  0
 22 25  1  0  0  0
 24 23  1  0  0  0
 24 29  1  0  0  0
 25 29  1  0  0  0
  2 37  1  0  0  0
  2 38  1  0  0  0
  3 39  1  0  0  0
  5 40  1  0  0  0
  6 41  1  0  0  0
  7 42  1  0  0  0
  8 43  1  0  0  0
  9 44  1  0  0  0
 10 45  1  0  0  0
 11 46  1  0  0  0
 13 47  1  0  0  0
 13 48  1  0  0  0
 14 49  1  0  0  0
 14 50  1  0  0  0
 15 51  1  0  0  0
 22 52  1  0  0  0
 22 53  1  0  0  0
 23 54  1  0  0  0
 23 55  1  0  0  0
 24 56  1  0  0  0
 25 57  1  0  0  0
 25 58  1  0  0  0
 27 59  1  0  0  0
 28 60  1  0  0  0
 30 61  1  0  0  0
M  END
$$$$
