4g8n_ligand
  -I-interpret- 

 24 24  0  0  0  0  0  0  0  0999 V2000
    1.9860   27.3620   13.9090 C   0  0  0  0  0
    2.8600   26.5350   13.6120 O   0  0  0  0  0
    0.8650   27.3010   13.3840 O   0  0  0  0  0
    2.2700   28.5120   14.9120 C   0  0  0  0  0
    1.6040   30.9970   12.5490 C   0  0  0  0  0
    1.7900   32.0730   11.9510 O   0  0  0  0  0
    0.4920   30.6910   12.9940 O   0  0  0  0  0
    2.7960   30.0470   12.7640 C   0  0  0  0  0
    3.9840   30.6510   12.1250 N   0  3  0  0  0
    3.0240   29.7040   14.2630 C   0  0  0  0  0
    4.3340   29.0240   14.7290 C   0  0  0  0  0
    3.5160   28.2650   15.7860 C   0  0  0  0  0
    3.6607   26.7259   14.1060 H   0  0  0  0  0
    1.2811   28.6307   15.3548 H   0  0  0  0  0
    2.7094   32.1333   11.6815 H   0  0  0  0  0
    2.5857   29.0855   12.2956 H   0  0  0  0  0
    3.7764   30.8538   11.1471 H   0  0  0  0  0
    4.2261   31.5157   12.6088 H   0  0  0  0  0
    4.7664   29.9989   12.1796 H   0  0  0  0  0
    2.7994   30.7391   14.5203 H   0  0  0  0  0
    5.2021   29.6184   15.0141 H   0  0  0  0  0
    4.9686   28.4890   14.0225 H   0  0  0  0  0
    3.7947   27.2602   16.1035 H   0  0  0  0  0
    3.5380   28.5569   16.8359 H   0  0  0  0  0
  1  2  1  0  0  0
  1  3  2  0  0  0
  4  1  1  0  0  0
 10  4  1  0  0  0
  4 12  1  0  0  0
  5  6  1  0  0  0
  5  7  2  0  0  0
  8  5  1  0  0  0
  8  9  1  0  0  0
  8 10  1  0  0  0
 10 11  1  0  0  0
 11 12  1  0  0  0
  2 13  1  0  0  0
  4 14  1  0  0  0
  6 15  1  0  0  0
  8 16  1  0  0  0
  9 17  1  0  0  0
  9 18  1  0  0  0
  9 19  1  0  0  0
 10 20  1  0  0  0
 11 21  1  0  0  0
 11 22  1  0  0  0
 12 23  1  0  0  0
 12 24  1  0  0  0
M  END
$$$$
