### 
### Created by X-TOOL on Mon Sep 10 21:13:25 2018
### 

@<TRIPOS>MOLECULE
4pgc_ligand
  132   135     1     0     0
SMALL
GAST_HUCK


@<TRIPOS>ATOM
      1 N         -29.7190   17.8570   -6.8420 N.4       1 PHE         0.2394
      2 CA        -30.8880   18.7810   -6.7260 C.3       1 PHE         0.0744
      3 C         -30.5600   20.0720   -7.4800 C.2       1 PHE         0.2288
      4 O         -29.7570   20.8810   -7.0020 O.2       1 PHE        -0.3905
      5 CB        -31.1800   19.0700   -5.2450 C.3       1 PHE         0.0416
      6 CG        -32.6410   18.9800   -4.8670 C.ar      1 PHE        -0.0353
      7 CD1       -33.3030   17.7530   -4.8600 C.ar      1 PHE        -0.0600
      8 CD2       -33.3520   20.1180   -4.4830 C.ar      1 PHE        -0.0600
      9 CE1       -34.6430   17.6650   -4.4980 C.ar      1 PHE        -0.0686
     10 CE2       -34.6910   20.0350   -4.1200 C.ar      1 PHE        -0.0686
     11 CZ        -35.3380   18.8070   -4.1270 C.ar      1 PHE        -0.0687
     12 N         -31.1730   20.2480   -8.6560 N.am      1 ALA        -0.2611
     13 CA        -30.8480   21.3520   -9.5880 C.3       1 ALA         0.1285
     14 C         -30.7480   22.7570   -8.9580 C.2       1 ALA         0.2061
     15 O         -29.7010   23.4040   -9.0830 O.2       1 ALA        -0.3942
     16 CB        -31.8120   21.3570  -10.7740 C.3       1 ALA        -0.0244
     17 N         -31.8290   23.2570   -8.3160 N.am      1 PRO        -0.2498
     18 CA        -33.2030   22.8140   -8.2070 C.3       1 PRO         0.1338
     19 C         -34.0930   23.7240   -9.0560 C.2       1 PRO         0.2039
     20 O         -33.5840   24.4940   -9.8750 O.2       1 PRO        -0.3944
     21 CB        -33.4870   23.0460   -6.7280 C.3       1 PRO        -0.0104
     22 CG        -32.7830   24.3350   -6.4550 C.3       1 PRO        -0.0281
     23 CD        -31.6360   24.4280   -7.4440 C.3       1 PRO         0.0369
     24 N         -35.4030   23.6600   -8.8420 N.am      1 GLY        -0.2664
     25 CA        -36.3360   24.4740   -9.5940 C.3       1 GLY         0.1201
     26 C         -36.5500   25.8210   -8.9380 C.2       1 GLY         0.2009
     27 O         -35.8510   26.1830   -7.9800 O.2       1 GLY        -0.3947
     28 N         -37.5000   26.5700   -9.4970 N.am      1 ASN        -0.2618
     29 CA        -38.1530   27.6740   -8.8030 C.3       1 ASN         0.1476
     30 C         -37.1960   28.7650   -8.2930 C.2       1 ASN         0.2064
     31 O         -37.1880   29.0950   -7.1020 O.2       1 ASN        -0.3942
     32 CB        -38.9870   27.0940   -7.6500 C.3       1 ASN         0.0773
     33 CG        -40.2310   27.9050   -7.3610 C.2       1 ASN         0.1780
     34 OD1       -41.1400   27.9850   -8.1890 O.2       1 ASN        -0.3970
     35 ND2       -40.2870   28.4980   -6.1750 N.am      1 ASN        -0.3007
     36 N         -36.3840   29.3080   -9.1990 N.am      1 TYI        -0.2620
     37 CA        -35.5900   30.5050   -8.9170 C.3       1 TYI         0.1393
     38 CB        -34.3610   30.5870   -9.8070 C.3       1 TYI         0.0175
     39 CG        -33.2970   29.5370   -9.5710 C.ar      1 TYI        -0.0434
     40 CD1       -32.8490   29.1410   -8.2910 C.ar      1 TYI        -0.0549
     41 CE1       -31.8390   28.1660   -8.1690 C.ar      1 TYI         0.0337
     42 CD2       -32.7220   28.9750  -10.7110 C.ar      1 TYI        -0.0549
     43 CE2       -31.7200   28.0240  -10.5710 C.ar      1 TYI         0.0337
     44 CZ        -31.2650   27.6070   -9.3220 C.ar      1 TYI         0.1031
     45 OH        -30.2700   26.6570   -9.2560 O.3       1 TYI        -0.3332
     46 C         -36.4490   31.7190   -9.1840 C.2       1 TYI         0.2082
     47 O         -37.3300   31.6830  -10.0350 O.2       1 TYI        -0.3940
     48 I1        -31.0870   27.4830   -6.3330 I         1 TYI        -0.0578
     49 I2        -30.8220   27.1300  -12.2140 I         1 TYI        -0.0578
     50 N         -36.1970   32.8190   -8.4810 N.am      1 PRO        -0.2497
     51 CA        -37.0250   34.0180   -8.6630 C.3       1 PRO         0.1338
     52 C         -36.7570   34.7290   -9.9820 C.2       1 PRO         0.2041
     53 O         -35.6480   34.6720  -10.4920 O.2       1 PRO        -0.3944
     54 CB        -36.6210   34.9040   -7.4800 C.3       1 PRO        -0.0104
     55 CG        -35.2180   34.5020   -7.1720 C.3       1 PRO        -0.0281
     56 CD        -35.1240   33.0370   -7.4870 C.3       1 PRO         0.0369
     57 N         -37.7670   35.4050  -10.5150 N.am      1 ALA        -0.2640
     58 CA        -37.6580   36.0870  -11.8080 C.3       1 ALA         0.1282
     59 C         -36.6430   37.2080  -11.7380 C.2       1 ALA         0.2031
     60 O         -36.5300   37.8770  -10.7110 O.2       1 ALA        -0.3944
     61 CB        -39.0110   36.6490  -12.2340 C.3       1 ALA        -0.0244
     62 N         -35.9050   37.4020  -12.8290 N.am      1 LEU        -0.2695
     63 CA        -34.9980   38.5320  -12.9510 C.3       1 LEU         0.0946
     64 C         -35.8080   39.8200  -13.0390 C.2       1 LEU         0.0601
     65 O         -36.9990   39.7700  -13.3280 O.co2     1 LEU        -0.5666
     66 CB        -34.1100   38.3900  -14.1900 C.3       1 LEU        -0.0156
     67 CG        -33.0980   37.2410  -14.2130 C.3       1 LEU        -0.0431
     68 CD1       -32.3390   37.2160  -15.5310 C.3       1 LEU        -0.0625
     69 CD2       -32.1170   37.3510  -13.0640 C.3       1 LEU        -0.0625
     70 OXT       -35.3090   40.9320  -12.8200 O.co2     1 LEU        -0.5666
     71 H1        -29.9181   17.0000   -6.3502 H         1 PHE         0.2017
     72 H2        -28.9043   18.2937   -6.4399 H         1 PHE         0.2017
     73 H3        -29.5462   17.6541   -7.8141 H         1 PHE         0.2017
     74 H4        -31.7731   18.3110   -7.1796 H         1 PHE         0.1122
     75 H5        -30.8278   20.0868   -5.0170 H         1 PHE         0.0507
     76 H6        -30.6219   18.3435   -4.6362 H         1 PHE         0.0507
     77 H7        -32.7655   16.8545   -5.1408 H         1 PHE         0.0557
     78 H8        -32.8528   21.0801   -4.4677 H         1 PHE         0.0557
     79 H9        -35.1444   16.7040   -4.5057 H         1 PHE         0.0599
     80 H10       -35.2304   20.9298   -3.8312 H         1 PHE         0.0599
     81 H11       -36.3822   18.7405   -3.8437 H         1 PHE         0.0559
     82 H12       -31.8879   19.6003   -8.9194 H         1 ALA         0.1884
     83 H13       -29.8479   21.1274   -9.9872 H         1 ALA         0.0797
     84 H14       -31.5537   22.1831  -11.4529 H         1 ALA         0.0277
     85 H15       -32.8412   21.4902  -10.4094 H         1 ALA         0.0277
     86 H16       -31.7348   20.4014  -11.3133 H         1 ALA         0.0277
     87 H17       -33.3298   21.7605   -8.4970 H         1 PRO         0.0802
     88 H18       -33.0759   22.2319   -6.1130 H         1 PRO         0.0313
     89 H19       -34.5672   23.1371   -6.5413 H         1 PRO         0.0313
     90 H20       -32.3964   24.3443   -5.4252 H         1 PRO         0.0287
     91 H21       -33.4730   25.1801   -6.5953 H         1 PRO         0.0287
     92 H22       -31.6925   25.3615   -8.0231 H         1 PRO         0.0524
     93 H23       -30.6669   24.3757   -6.9263 H         1 PRO         0.0524
     94 H24       -35.7533   23.0346   -8.1448 H         1 GLY         0.1881
     95 H25       -37.3005   23.9487   -9.6547 H         1 GLY         0.0763
     96 H26       -35.9385   24.6293  -10.6079 H         1 GLY         0.0763
     97 H27       -37.7779   26.3656  -10.4356 H         1 ASN         0.1885
     98 H28       -38.8385   28.1546   -9.5165 H         1 ASN         0.0826
     99 H29       -38.3646   27.0700   -6.7434 H         1 ASN         0.0551
    100 H30       -39.2887   26.0699   -7.9149 H         1 ASN         0.0551
    101 H31       -41.0851   29.0475   -5.9279 H         1 ASN         0.1814
    102 H32       -39.5311   28.3953   -5.5284 H         1 ASN         0.1814
    103 H33       -36.3146   28.8837  -10.1018 H         1 TYI         0.1885
    104 H34       -35.2753   30.4919   -7.8631 H         1 TYI         0.0821
    105 H35       -33.8996   31.5736   -9.6529 H         1 TYI         0.0453
    106 H36       -34.6955   30.4977  -10.8511 H         1 TYI         0.0453
    107 H37       -33.2821   29.5871   -7.4030 H         1 TYI         0.0580
    108 H38       -33.0545   29.2780  -11.6973 H         1 TYI         0.0580
    109 H39       -29.4935   26.9821   -9.6964 H         1 TYI         0.2481
    110 H40       -38.0923   33.7573   -8.6095 H         1 PRO         0.0802
    111 H41       -37.2762   34.7206   -6.6157 H         1 PRO         0.0313
    112 H42       -36.6684   35.9675   -7.7571 H         1 PRO         0.0313
    113 H43       -34.9951   34.6787   -6.1094 H         1 PRO         0.0287
    114 H44       -34.5125   35.0720   -7.7944 H         1 PRO         0.0287
    115 H45       -34.1400   32.7903   -7.9124 H         1 PRO         0.0524
    116 H46       -35.2962   32.4308   -6.5854 H         1 PRO         0.0524
    117 H47       -38.6330   35.4508  -10.0170 H         1 ALA         0.1883
    118 H48       -37.3260   35.3570  -12.5608 H         1 ALA         0.0797
    119 H49       -38.9082   37.1560  -13.2048 H         1 ALA         0.0277
    120 H50       -39.3630   37.3685  -11.4801 H         1 ALA         0.0277
    121 H51       -39.7372   35.8278  -12.3243 H         1 ALA         0.0277
    122 H52       -35.9764   36.7523  -13.5859 H         1 LEU         0.1875
    123 H53       -34.3561   38.5710  -12.0586 H         1 LEU         0.0726
    124 H54       -33.5449   39.3275  -14.2983 H         1 LEU         0.0308
    125 H55       -34.7743   38.2599  -15.0571 H         1 LEU         0.0308
    126 H56       -33.6499   36.2951  -14.1097 H         1 LEU         0.0297
    127 H57       -31.6195   36.3840  -15.5240 H         1 LEU         0.0232
    128 H58       -31.7999   38.1659  -15.6618 H         1 LEU         0.0232
    129 H59       -33.0487   37.0799  -16.3603 H         1 LEU         0.0232
    130 H60       -32.6679   37.3689  -12.1120 H         1 LEU         0.0232
    131 H61       -31.5335   38.2777  -13.1674 H         1 LEU         0.0232
    132 H62       -31.4373   36.4862  -13.0781 H         1 LEU         0.0232
@<TRIPOS>BOND
     1    1    2 1  
     2    2    3 1  
     3    2    5 1  
     4    3    4 2  
     5    3   12 am 
     6    5    6 1  
     7    6    7 ar 
     8    6    8 ar 
     9    7    9 ar 
    10    8   10 ar 
    11    9   11 ar 
    12   10   11 ar 
    13   12   13 1  
    14   13   14 1  
    15   13   16 1  
    16   14   15 2  
    17   14   17 am 
    18   17   18 1  
    19   17   23 1  
    20   18   19 1  
    21   18   21 1  
    22   19   20 2  
    23   19   24 am 
    24   21   22 1  
    25   22   23 1  
    26   24   25 1  
    27   25   26 1  
    28   26   27 2  
    29   26   28 am 
    30   28   29 1  
    31   29   30 1  
    32   29   32 1  
    33   30   31 2  
    34   30   36 am 
    35   32   33 1  
    36   33   34 2  
    37   33   35 am 
    38   36   37 1  
    39   37   38 1  
    40   37   46 1  
    41   38   39 1  
    42   39   40 ar 
    43   39   42 ar 
    44   40   41 ar 
    45   41   44 ar 
    46   41   48 1  
    47   42   43 ar 
    48   43   44 ar 
    49   43   49 1  
    50   44   45 1  
    51   46   47 2  
    52   46   50 am 
    53   50   51 1  
    54   50   56 1  
    55   51   52 1  
    56   51   54 1  
    57   52   53 2  
    58   52   57 am 
    59   54   55 1  
    60   55   56 1  
    61   57   58 1  
    62   58   59 1  
    63   58   61 1  
    64   59   60 2  
    65   59   62 am 
    66   62   63 1  
    67   63   64 1  
    68   63   66 1  
    69   64   65 ar 
    70   64   70 ar 
    71   66   67 1  
    72   67   68 1  
    73   67   69 1  
    74    1   71 1  
    75    1   72 1  
    76    1   73 1  
    77    2   74 1  
    78    5   75 1  
    79    5   76 1  
    80    7   77 1  
    81    8   78 1  
    82    9   79 1  
    83   10   80 1  
    84   11   81 1  
    85   12   82 1  
    86   13   83 1  
    87   16   84 1  
    88   16   85 1  
    89   16   86 1  
    90   18   87 1  
    91   21   88 1  
    92   21   89 1  
    93   22   90 1  
    94   22   91 1  
    95   23   92 1  
    96   23   93 1  
    97   24   94 1  
    98   25   95 1  
    99   25   96 1  
   100   28   97 1  
   101   29   98 1  
   102   32   99 1  
   103   32  100 1  
   104   35  101 1  
   105   35  102 1  
   106   36  103 1  
   107   37  104 1  
   108   38  105 1  
   109   38  106 1  
   110   40  107 1  
   111   42  108 1  
   112   45  109 1  
   113   51  110 1  
   114   54  111 1  
   115   54  112 1  
   116   55  113 1  
   117   55  114 1  
   118   56  115 1  
   119   56  116 1  
   120   57  117 1  
   121   58  118 1  
   122   61  119 1  
   123   61  120 1  
   124   61  121 1  
   125   62  122 1  
   126   63  123 1  
   127   66  124 1  
   128   66  125 1  
   129   67  126 1  
   130   68  127 1  
   131   68  128 1  
   132   68  129 1  
   133   69  130 1  
   134   69  131 1  
   135   69  132 1  
@<TRIPOS>SUBSTRUCTURE
     1 PHE         1

