4pgc_ligand
  -I-interpret- 

133136  0  0  0  0  0  0  0  0999 V2000
  -29.7190   17.8570   -6.8420 N   0  3  0  0  0
  -30.8880   18.7810   -6.7260 C   0  0  0  0  0
  -30.5600   20.0720   -7.4800 C   0  0  0  0  0
  -29.7570   20.8810   -7.0020 O   0  0  0  0  0
  -31.1800   19.0700   -5.2450 C   0  0  0  0  0
  -32.6410   18.9800   -4.8670 C   0  0  0  0  0
  -33.3030   17.7530   -4.8600 C   0  0  0  0  0
  -33.3520   20.1180   -4.4830 C   0  0  0  0  0
  -34.6430   17.6650   -4.4980 C   0  0  0  0  0
  -34.6910   20.0350   -4.1200 C   0  0  0  0  0
  -35.3380   18.8070   -4.1270 C   0  0  0  0  0
  -31.1730   20.2480   -8.6560 N   0  0  0  0  0
  -30.8480   21.3520   -9.5880 C   0  0  0  0  0
  -30.7480   22.7570   -8.9580 C   0  0  0  0  0
  -29.7010   23.4040   -9.0830 O   0  0  0  0  0
  -31.8120   21.3570  -10.7740 C   0  0  0  0  0
  -31.8290   23.2570   -8.3160 N   0  0  0  0  0
  -33.2030   22.8140   -8.2070 C   0  0  0  0  0
  -34.0930   23.7240   -9.0560 C   0  0  0  0  0
  -33.5840   24.4940   -9.8750 O   0  0  0  0  0
  -33.4870   23.0460   -6.7280 C   0  0  0  0  0
  -32.7830   24.3350   -6.4550 C   0  0  0  0  0
  -31.6360   24.4280   -7.4440 C   0  0  0  0  0
  -35.4030   23.6600   -8.8420 N   0  0  0  0  0
  -36.3360   24.4740   -9.5940 C   0  0  0  0  0
  -36.5500   25.8210   -8.9380 C   0  0  0  0  0
  -35.8510   26.1830   -7.9800 O   0  0  0  0  0
  -37.5000   26.5700   -9.4970 N   0  0  0  0  0
  -38.1530   27.6740   -8.8030 C   0  0  0  0  0
  -37.1960   28.7650   -8.2930 C   0  0  0  0  0
  -37.1880   29.0950   -7.1020 O   0  0  0  0  0
  -38.9870   27.0940   -7.6500 C   0  0  0  0  0
  -40.2310   27.9050   -7.3610 C   0  0  0  0  0
  -41.1400   27.9850   -8.1890 O   0  0  0  0  0
  -40.2870   28.4980   -6.1750 N   0  0  0  0  0
  -36.3840   29.3080   -9.1990 N   0  0  0  0  0
  -35.5900   30.5050   -8.9170 C   0  0  0  0  0
  -34.3610   30.5870   -9.8070 C   0  0  0  0  0
  -33.2970   29.5370   -9.5710 C   0  0  0  0  0
  -32.8490   29.1410   -8.2910 C   0  0  0  0  0
  -31.8390   28.1660   -8.1690 C   0  0  0  0  0
  -32.7220   28.9750  -10.7110 C   0  0  0  0  0
  -31.7200   28.0240  -10.5710 C   0  0  0  0  0
  -31.2650   27.6070   -9.3220 C   0  0  0  0  0
  -30.2700   26.6570   -9.2560 O   0  0  0  0  0
  -36.4490   31.7190   -9.1840 C   0  0  0  0  0
  -37.3300   31.6830  -10.0350 O   0  0  0  0  0
  -31.0870   27.4830   -6.3330 I   0  0  0  0  0
  -30.8220   27.1300  -12.2140 I   0  0  0  0  0
  -36.1970   32.8190   -8.4810 N   0  0  0  0  0
  -37.0250   34.0180   -8.6630 C   0  0  0  0  0
  -36.7570   34.7290   -9.9820 C   0  0  0  0  0
  -35.6480   34.6720  -10.4920 O   0  0  0  0  0
  -36.6210   34.9040   -7.4800 C   0  0  0  0  0
  -35.2180   34.5020   -7.1720 C   0  0  0  0  0
  -35.1240   33.0370   -7.4870 C   0  0  0  0  0
  -37.7670   35.4050  -10.5150 N   0  0  0  0  0
  -37.6580   36.0870  -11.8080 C   0  0  0  0  0
  -36.6430   37.2080  -11.7380 C   0  0  0  0  0
  -36.5300   37.8770  -10.7110 O   0  0  0  0  0
  -39.0110   36.6490  -12.2340 C   0  0  0  0  0
  -35.9050   37.4020  -12.8290 N   0  0  0  0  0
  -34.9980   38.5320  -12.9510 C   0  0  0  0  0
  -35.8080   39.8200  -13.0390 C   0  0  0  0  0
  -36.9990   39.7700  -13.3280 O   0  0  0  0  0
  -34.1100   38.3900  -14.1900 C   0  0  0  0  0
  -33.0980   37.2410  -14.2130 C   0  0  0  0  0
  -32.3390   37.2160  -15.5310 C   0  0  0  0  0
  -32.1170   37.3510  -13.0640 C   0  0  0  0  0
  -35.3090   40.9320  -12.8200 O   0  0  0  0  0
  -29.5314   17.6700   -7.8270 H   0  0  0  0  0
  -28.9005   18.2909   -6.4152 H   0  0  0  0  0
  -29.9301   16.9817   -6.3627 H   0  0  0  0  0
  -31.7778   18.3250   -7.1600 H   0  0  0  0  0
  -30.8619   20.0942   -5.0503 H   0  0  0  0  0
  -30.6518   18.3156   -4.6619 H   0  0  0  0  0
  -32.7625   16.8495   -5.1423 H   0  0  0  0  0
  -32.8501   21.0854   -4.4676 H   0  0  0  0  0
  -35.1472   16.6987   -4.5058 H   0  0  0  0  0
  -35.2334   20.9348   -3.8296 H   0  0  0  0  0
  -36.3880   18.7401   -3.8421 H   0  0  0  0  0
  -31.9022   19.5874   -8.9247 H   0  0  0  0  0
  -29.8346   21.1348   -9.9256 H   0  0  0  0  0
  -31.7346   20.4096  -11.3075 H   0  0  0  0  0
  -32.8314   21.4890  -10.4114 H   0  0  0  0  0
  -31.5551   22.1759  -11.4459 H   0  0  0  0  0
  -33.3789   21.7905   -8.5379 H   0  0  0  0  0
  -33.1384   22.2296   -6.0955 H   0  0  0  0  0
  -34.5524   23.0879   -6.5017 H   0  0  0  0  0
  -32.4135   24.3645   -5.4300 H   0  0  0  0  0
  -33.4628   25.1792   -6.5704 H   0  0  0  0  0
  -31.6423   25.3654   -8.0002 H   0  0  0  0  0
  -30.6629   24.4241   -6.9529 H   0  0  0  0  0
  -35.7603   23.0221   -8.1308 H   0  0  0  0  0
  -37.2930   23.9539   -9.6351 H   0  0  0  0  0
  -35.9269   24.6365  -10.5912 H   0  0  0  0  0
  -37.7835   26.3615  -10.4544 H   0  0  0  0  0
  -38.7853   28.1840   -9.5298 H   0  0  0  0  0
  -38.3676   27.1016   -6.7531 H   0  0  0  0  0
  -39.3017   26.0907   -7.9372 H   0  0  0  0  0
  -41.1069   29.0475   -5.9178 H   0  0  0  0  0
  -39.5101   28.4042   -5.5207 H   0  0  0  0  0
  -36.3132   28.8752  -10.1199 H   0  0  0  0  0
  -35.2614   30.4618   -7.8786 H   0  0  0  0  0
  -33.8936   31.5485   -9.5943 H   0  0  0  0  0
  -34.7132   30.4406  -10.8281 H   0  0  0  0  0
  -33.2845   29.5895   -7.3981 H   0  0  0  0  0
  -33.0563   29.2797  -11.7027 H   0  0  0  0  0
  -30.0124   26.4027  -10.1452 H   0  0  0  0  0
  -38.0873   33.7758   -8.6942 H   0  0  0  0  0
  -37.2817   34.7675   -6.6239 H   0  0  0  0  0
  -36.6982   35.9645   -7.7196 H   0  0  0  0  0
  -34.9736   34.6961   -6.1276 H   0  0  0  0  0
  -34.5054   35.0777   -7.7626 H   0  0  0  0  0
  -34.1421   32.7573   -7.8689 H   0  0  0  0  0
  -35.2467   32.4138   -6.6012 H   0  0  0  0  0
  -38.6503   35.4517  -10.0070 H   0  0  0  0  0
  -37.3277   35.3556  -12.5456 H   0  0  0  0  0
  -39.7296   35.8343  -12.3231 H   0  0  0  0  0
  -39.3587   37.3617  -11.4862 H   0  0  0  0  0
  -38.9079   37.1510  -13.1960 H   0  0  0  0  0
  -35.9779   36.7393  -13.6010 H   0  0  0  0  0
  -34.3530   38.5598  -12.0728 H   0  0  0  0  0
  -33.5156   39.3028  -14.2288 H   0  0  0  0  0
  -34.7925   38.1939  -15.0169 H   0  0  0  0  0
  -33.6576   36.3118  -14.1059 H   0  0  0  0  0
  -33.0433   37.0812  -16.3519 H   0  0  0  0  0
  -31.8053   38.1577  -15.6594 H   0  0  0  0  0
  -31.6264   36.3912  -15.5228 H   0  0  0  0  0
  -31.5751   38.2937  -13.1396 H   0  0  0  0  0
  -32.6603   37.3175  -12.1196 H   0  0  0  0  0
  -31.4123   36.5207  -13.1089 H   0  0  0  0  0
  -34.3787   40.8277  -12.6071 H   0  0  0  0  0
  1  2  1  0  0  0
  2  3  1  0  0  0
  2  5  1  0  0  0
  3  4  2  0  0  0
  3 12  1  0  0  0
  5  6  1  0  0  0
  6  7  4  0  0  0
  6  8  4  0  0  0
  7  9  4  0  0  0
  8 10  4  0  0  0
  9 11  4  0  0  0
 10 11  4  0  0  0
 12 13  1  0  0  0
 13 14  1  0  0  0
 13 16  1  0  0  0
 14 15  2  0  0  0
 14 17  1  0  0  0
 17 18  1  0  0  0
 17 23  1  0  0  0
 18 19  1  0  0  0
 18 21  1  0  0  0
 19 20  2  0  0  0
 19 24  1  0  0  0
 21 22  1  0  0  0
 22 23  1  0  0  0
 24 25  1  0  0  0
 25 26  1  0  0  0
 26 27  2  0  0  0
 26 28  1  0  0  0
 28 29  1  0  0  0
 29 30  1  0  0  0
 29 32  1  0  0  0
 30 31  2  0  0  0
 30 36  1  0  0  0
 32 33  1  0  0  0
 33 34  2  0  0  0
 33 35  1  0  0  0
 36 37  1  0  0  0
 37 38  1  0  0  0
 37 46  1  0  0  0
 38 39  1  0  0  0
 39 40  4  0  0  0
 39 42  4  0  0  0
 40 41  4  0  0  0
 41 44  4  0  0  0
 41 48  1  0  0  0
 42 43  4  0  0  0
 43 44  4  0  0  0
 43 49  1  0  0  0
 44 45  1  0  0  0
 46 47  2  0  0  0
 46 50  1  0  0  0
 50 51  1  0  0  0
 50 56  1  0  0  0
 51 52  1  0  0  0
 51 54  1  0  0  0
 52 53  2  0  0  0
 52 57  1  0  0  0
 54 55  1  0  0  0
 55 56  1  0  0  0
 57 58  1  0  0  0
 58 59  1  0  0  0
 58 61  1  0  0  0
 59 60  2  0  0  0
 59 62  1  0  0  0
 62 63  1  0  0  0
 63 64  1  0  0  0
 63 66  1  0  0  0
 64 65  2  0  0  0
 64 70  1  0  0  0
 66 67  1  0  0  0
 67 68  1  0  0  0
 67 69  1  0  0  0
  1 71  1  0  0  0
  1 72  1  0  0  0
  1 73  1  0  0  0
  2 74  1  0  0  0
  5 75  1  0  0  0
  5 76  1  0  0  0
  7 77  1  0  0  0
  8 78  1  0  0  0
  9 79  1  0  0  0
 10 80  1  0  0  0
 11 81  1  0  0  0
 12 82  1  0  0  0
 13 83  1  0  0  0
 16 84  1  0  0  0
 16 85  1  0  0  0
 16 86  1  0  0  0
 18 87  1  0  0  0
 21 88  1  0  0  0
 21 89  1  0  0  0
 22 90  1  0  0  0
 22 91  1  0  0  0
 23 92  1  0  0  0
 23 93  1  0  0  0
 24 94  1  0  0  0
 25 95  1  0  0  0
 25 96  1  0  0  0
 28 97  1  0  0  0
 29 98  1  0  0  0
 32 99  1  0  0  0
 32100  1  0  0  0
 35101  1  0  0  0
 35102  1  0  0  0
 36103  1  0  0  0
 37104  1  0  0  0
 38105  1  0  0  0
 38106  1  0  0  0
 40107  1  0  0  0
 42108  1  0  0  0
 45109  1  0  0  0
 51110  1  0  0  0
 54111  1  0  0  0
 54112  1  0  0  0
 55113  1  0  0  0
 55114  1  0  0  0
 56115  1  0  0  0
 56116  1  0  0  0
 57117  1  0  0  0
 58118  1  0  0  0
 61119  1  0  0  0
 61120  1  0  0  0
 61121  1  0  0  0
 62122  1  0  0  0
 63123  1  0  0  0
 66124  1  0  0  0
 66125  1  0  0  0
 67126  1  0  0  0
 68127  1  0  0  0
 68128  1  0  0  0
 68129  1  0  0  0
 69130  1  0  0  0
 69131  1  0  0  0
 69132  1  0  0  0
 70133  1  0  0  0
M  END
$$$$
