4z8a_ligand
  -I-interpret- 

247250  0  0  0  0  0  0  0  0999 V2000
   22.1990   26.4110   28.8380 C   0  0  0  0  0
   21.3480   27.2660   28.6200 O   0  0  0  0  0
   23.2580   26.5890   29.8810 C   0  0  0  0  0
   22.3830   25.3620   28.0470 N   0  0  0  0  0
   21.4800   24.9800   26.9640 C   0  0  0  0  0
   20.7680   23.6740   27.3030 C   0  0  0  0  0
   21.4240   22.6630   27.5170 O   0  0  0  0  0
   22.2380   24.7880   25.6460 C   0  0  0  0  0
   23.0380   26.0470   25.2850 C   0  0  0  0  0
   21.2760   24.4020   24.5410 C   0  0  0  0  0
   23.8160   25.9030   23.9770 C   0  0  0  0  0
   19.4400   23.7000   27.3530 N   0  0  0  0  0
   18.6780   22.4880   27.6380 C   0  0  0  0  0
   18.1560   21.8440   26.3740 C   0  0  0  0  0
   18.2150   22.4440   25.2950 O   0  0  0  0  0
   17.6780   20.6030   26.5030 N   0  0  0  0  0
   17.0580   19.8920   25.3990 C   0  0  0  0  0
   15.5490   20.0480   25.4780 C   0  0  0  0  0
   14.9850   20.2000   26.5610 O   0  0  0  0  0
   17.4320   18.4090   25.4220 C   0  0  0  0  0
   18.9370   18.1810   25.1420 C   0  0  0  0  0
   19.3740   16.6920   25.3100 C   0  0  0  0  0
   18.3830   15.7570   24.7650 N   0  0  0  0  0
   18.2720   15.4440   23.4780 C   0  0  0  0  0
   19.1100   15.9760   22.5890 N   0  0  0  0  0
   17.3020   14.6290   23.0700 N   0  0  0  0  0
   14.9120   20.0090   24.3280 N   0  0  0  0  0
   13.4580   20.0350   24.2820 C   0  0  0  0  0
   12.9200   19.1860   23.1500 C   0  0  0  0  0
   13.6380   18.7820   22.2560 O   0  0  0  0  0
   12.9770   21.4850   24.1330 C   0  0  0  0  0
   13.2570   22.1020   22.7710 C   0  0  0  0  0
   12.7550   23.5410   22.7470 C   0  0  0  0  0
   13.0850   24.2870   21.5320 N   0  0  0  0  0
   12.2810   24.3950   20.4740 C   0  0  0  0  0
   11.1110   23.7610   20.4370 N   0  0  0  0  0
   12.6450   25.1350   19.4400 N   0  0  0  0  0
   11.6200   18.9130   23.1760 N   0  0  0  0  0
   11.0160   18.1720   22.0860 C   0  0  0  0  0
   10.9250   18.9850   20.8050 C   0  0  0  0  0
   10.7270   20.2010   20.8520 O   0  0  0  0  0
    9.6060   17.7210   22.4950 C   0  0  0  0  0
    9.5530   16.5420   23.4710 C   0  0  0  0  0
    8.1160   16.3270   23.9390 C   0  0  0  0  0
   10.1080   15.2700   22.8390 C   0  0  0  0  0
   11.0030   18.3180   19.6510 N   0  0  0  0  0
   10.6050   19.0230   18.4240 C   0  0  0  0  0
    9.1240   19.3460   18.4320 C   0  0  0  0  0
    8.3970   18.7660   19.2270 O   0  0  0  0  0
   10.9520   18.0300   17.3190 C   0  0  0  0  0
   10.9110   16.6960   17.9890 C   0  0  0  0  0
   11.2940   16.8900   19.4190 C   0  0  0  0  0
    8.6840   20.3050   17.6020 N   0  0  0  0  0
    7.2370   20.5230   17.4700 C   0  0  0  0  0
    6.5120   19.2480   17.0450 C   0  0  0  0  0
    7.0070   18.4670   16.2410 O   0  0  0  0  0
    7.1100   21.6100   16.3890 C   0  0  0  0  0
    8.4500   21.8370   15.8500 C   0  0  0  0  0
    9.4790   21.2030   16.7620 C   0  0  0  0  0
    5.3380   19.0490   17.6260 N   0  0  0  0  0
    4.5250   17.8680   17.3590 C   0  0  0  0  0
    3.9310   17.9590   15.9660 C   0  0  0  0  0
    3.3830   18.9990   15.5920 O   0  0  0  0  0
    3.4050   17.7490   18.3840 C   0  0  0  0  0
    3.9600   17.7530   19.7020 O   0  0  0  0  0
    2.5820   16.4780   18.1550 C   0  0  0  0  0
    4.0280   16.8770   15.1840 N   0  0  0  0  0
    3.3940   16.9100   13.8680 C   0  0  0  0  0
    1.8960   17.1520   14.0070 C   0  0  0  0  0
    1.2810   16.7270   14.9850 O   0  0  0  0  0
    3.6970   15.5210   13.2940 C   0  0  0  0  0
    4.9940   15.1530   13.9740 C   0  0  0  0  0
    4.7880   15.6280   15.3870 C   0  0  0  0  0
    1.3310   17.8730   13.0560 N   0  0  0  0  0
   -0.0960   18.2120   13.1380 C   0  0  0  0  0
   -0.9450   17.4750   12.0910 C   0  0  0  0  0
   -2.1840   17.4000   12.2240 O   0  0  0  0  0
   -0.2710   19.7240   12.9890 C   0  0  0  0  0
    0.0630   20.1200   11.6830 O   0  0  0  0  0
   -0.3020   16.9470   11.0510 N   0  0  0  0  0
   -1.0120   16.1770   10.0270 C   0  0  0  0  0
   -1.2740   14.7640   10.5210 C   0  0  0  0  0
   -0.4480   14.2220   11.2550 O   0  0  0  0  0
   -0.2000   16.0970    8.7270 C   0  0  0  0  0
    0.0820   17.4180    8.0380 C   0  0  0  0  0
    0.6710   17.1850    6.6510 C   0  0  0  0  0
    1.1840   18.4760    6.0230 C   0  0  0  0  0
    1.7160   18.2540    4.6420 N   0  3  0  0  0
   -2.3880   14.1470   10.0860 N   0  0  0  0  0
   -2.6240   12.7330   10.4210 C   0  0  0  0  0
   -1.4470   11.8480    9.9780 C   0  0  0  0  0
   -0.8180   12.0950    8.9450 O   0  0  0  0  0
   -3.8940   12.3920    9.6340 C   0  0  0  0  0
   -4.6080   13.7190    9.4780 C   0  0  0  0  0
   -3.5060   14.7210    9.3090 C   0  0  0  0  0
   -1.1580   10.8230   10.7640 N   0  0  0  0  0
   -0.0730    9.9060   10.4090 C   0  0  0  0  0
   -0.3380    9.1730    9.0960 C   0  0  0  0  0
   -1.4450    8.7020    8.8700 O   0  0  0  0  0
    0.1160    8.8820   11.5220 C   0  0  0  0  0
    1.0460    7.9030   11.1180 O   0  0  0  0  0
    0.6850    9.0130    8.2570 N   0  0  0  0  0
    0.4930    8.2780    7.0190 C   0  0  0  0  0
    0.4180    6.7630    7.2590 C   0  0  0  0  0
    0.1150    6.0040    6.3400 O   0  0  0  0  0
    1.6100    8.5720    6.0060 C   0  0  0  0  0
    2.8480    8.1060    6.5420 O   0  0  0  0  0
    1.7090   10.0650    5.7130 C   0  0  0  0  0
    0.6690    6.3250    8.4940 N   0  0  0  0  0
    0.5220    4.9080    8.8300 C   0  0  0  0  0
   -0.9280    4.4560    8.7340 C   0  0  0  0  0
   -1.2120    3.3260    8.3200 O   0  0  0  0  0
    1.0260    4.6300   10.2350 C   0  0  0  0  0
    1.0740    3.1370   10.6070 C   0  0  0  0  0
    2.0650    2.4020    9.7150 C   0  0  0  0  0
    1.4510    3.0220   12.0540 C   0  0  0  0  0
   -1.8370    5.3360    9.1440 N   0  0  0  0  0
   23.8544   27.4702   29.6447 H   0  0  0  0  0
   22.7879   26.7176   30.8560 H   0  0  0  0  0
   23.9000   25.7083   29.8991 H   0  0  0  0  0
   23.2088   24.7845   28.2053 H   0  0  0  0  0
   20.7561   25.7866   26.8480 H   0  0  0  0  0
   22.9537   23.9752   25.7690 H   0  0  0  0  0
   23.7588   26.2236   26.0833 H   0  0  0  0  0
   22.3306   26.8672   25.1629 H   0  0  0  0  0
   20.5746   25.2186   24.3700 H   0  0  0  0  0
   21.8354   24.2043   23.6266 H   0  0  0  0  0
   20.7283   23.5063   24.8342 H   0  0  0  0  0
   24.5198   25.0752   24.0636 H   0  0  0  0  0
   23.1200   25.7060   23.1616 H   0  0  0  0  0
   24.3609   26.8254   23.7764 H   0  0  0  0  0
   18.9471   24.5780   27.1901 H   0  0  0  0  0
   17.8263   22.7573   28.2626 H   0  0  0  0  0
   19.3371   21.7781   28.1376 H   0  0  0  0  0
   17.7511   20.1389   27.4084 H   0  0  0  0  0
   17.4218   20.3183   24.4641 H   0  0  0  0  0
   16.8617   17.9034   24.6427 H   0  0  0  0  0
   17.2089   18.0184   26.4148 H   0  0  0  0  0
   19.5008   18.7743   25.8618 H   0  0  0  0  0
   19.1279   18.4669   24.1076 H   0  0  0  0  0
   19.4811   16.4888   26.3755 H   0  0  0  0  0
   20.3082   16.5500   24.7666 H   0  0  0  0  0
   17.7350   15.3172   25.4185 H   0  0  0  0  0
   19.0075   15.7584   21.5978 H   0  0  0  0  0
   19.8540   16.6008   22.8997 H   0  0  0  0  0
   16.6421   14.2434   23.7454 H   0  0  0  0  0
   15.4433   19.9600   23.4587 H   0  0  0  0  0
   13.0791   19.6156   25.2140 H   0  0  0  0  0
   13.5167   22.0789   24.8707 H   0  0  0  0  0
   11.8951   21.4787   24.2654 H   0  0  0  0  0
   12.7431   21.5268   22.0008 H   0  0  0  0  0
   14.3305   22.0903   22.5824 H   0  0  0  0  0
   13.2378   24.0580   23.5763 H   0  0  0  0  0
   11.6674   23.4974   22.8055 H   0  0  0  0  0
   13.9902   24.7554   21.4919 H   0  0  0  0  0
   10.5086   23.8495   19.6186 H   0  0  0  0  0
   10.8169   23.1867   21.2270 H   0  0  0  0  0
   13.5407   25.6229   19.4521 H   0  0  0  0  0
   11.0481   19.2241   23.9612 H   0  0  0  0  0
   11.6568   17.3132   21.8859 H   0  0  0  0  0
    9.1063   17.3939   21.5832 H   0  0  0  0  0
    9.1427   18.5672   23.0024 H   0  0  0  0  0
   10.1795   16.7787   24.3310 H   0  0  0  0  0
    7.7595   17.2276   24.4390 H   0  0  0  0  0
    7.4829   16.1132   23.0778 H   0  0  0  0  0
    8.0831   15.4873   24.6332 H   0  0  0  0  0
    9.5187   15.0167   21.9577 H   0  0  0  0  0
   11.1460   15.4329   22.5490 H   0  0  0  0  0
   10.0546   14.4544   23.5601 H   0  0  0  0  0
   11.1062   19.9833   18.3029 H   0  0  0  0  0
   11.9268   18.2352   16.8765 H   0  0  0  0  0
   10.2551   18.0890   16.4830 H   0  0  0  0  0
   11.6021   16.0075   17.5027 H   0  0  0  0  0
    9.9104   16.2692   17.9203 H   0  0  0  0  0
   10.7474   16.2327   20.0952 H   0  0  0  0  0
   12.3352   16.6342   19.6154 H   0  0  0  0  0
    6.7830   20.8168   18.4164 H   0  0  0  0  0
    6.7043   22.5288   16.8124 H   0  0  0  0  0
    6.4267   21.2922   15.6015 H   0  0  0  0  0
    8.6367   22.9088   15.7835 H   0  0  0  0  0
    8.5216   21.3908   14.8581 H   0  0  0  0  0
   10.2590   20.6780   16.2106 H   0  0  0  0  0
   10.0316   21.9401   17.3446 H   0  0  0  0  0
    4.9903   19.7468   18.2837 H   0  0  0  0  0
    5.1603   16.9850   17.4282 H   0  0  0  0  0
    2.7369   18.6028   18.2711 H   0  0  0  0  0
    3.2523   17.6779   20.3462 H   0  0  0  0  0
    2.1420   16.5063   17.1582 H   0  0  0  0  0
    3.2303   15.6062   18.2428 H   0  0  0  0  0
    1.7900   16.4201   18.9016 H   0  0  0  0  0
    3.7598   17.7109   13.2255 H   0  0  0  0  0
    3.7728   15.5188   12.2066 H   0  0  0  0  0
    2.9004   14.8013   13.4824 H   0  0  0  0  0
    5.8622   15.6099   13.4991 H   0  0  0  0  0
    5.2112   14.0864   13.9163 H   0  0  0  0  0
    4.2681   14.9038   16.0141 H   0  0  0  0  0
    5.7199   15.7740   15.9332 H   0  0  0  0  0
    1.8862   18.1951   12.2633 H   0  0  0  0  0
   -0.4523   17.8864   14.1153 H   0  0  0  0  0
    0.3842   20.2323   13.6965 H   0  0  0  0  0
   -1.3100   19.9861   13.1885 H   0  0  0  0  0
   -0.0498   21.0696   11.5991 H   0  0  0  0  0
    0.7055   17.0816   10.9658 H   0  0  0  0  0
   -1.9542   16.6880    9.8286 H   0  0  0  0  0
   -0.7959   15.5086    8.0293 H   0  0  0  0  0
    0.7698   15.6790    8.9968 H   0  0  0  0  0
    0.7981   17.9822    8.6355 H   0  0  0  0  0
   -0.8524   17.9700    7.9367 H   0  0  0  0  0
   -0.1144   16.7835    6.0106 H   0  0  0  0  0
    1.5107   16.4969    6.7489 H   0  0  0  0  0
    1.9945   18.8585    6.6434 H   0  0  0  0  0
    0.3528   19.1782    5.9595 H   0  0  0  0  0
    2.0475   19.1398    4.2602 H   0  0  0  0  0
    2.4879   17.5883    4.6792 H   0  0  0  0  0
    0.9739   17.8831    4.0486 H   0  0  0  0  0
   -2.7250   12.5638   11.4930 H   0  0  0  0  0
   -4.5091   11.6540   10.1489 H   0  0  0  0  0
   -3.6685   11.9327    8.6716 H   0  0  0  0  0
   -5.2389   13.9468   10.3372 H   0  0  0  0  0
   -5.2922   13.7174    8.6295 H   0  0  0  0  0
   -3.2461   14.8805    8.2625 H   0  0  0  0  0
   -3.7893   15.7135    9.6594 H   0  0  0  0  0
   -1.6926   10.6715   11.6194 H   0  0  0  0  0
    0.8283   10.5053   10.2804 H   0  0  0  0  0
   -0.8395    8.4039   11.7376 H   0  0  0  0  0
    0.4875    9.3849   12.4148 H   0  0  0  0  0
    1.1603    7.2616   11.8231 H   0  0  0  0  0
    1.5990    9.4051    8.4833 H   0  0  0  0  0
   -0.4583    8.6174    6.6091 H   0  0  0  0  0
    1.3823    8.0601    5.0710 H   0  0  0  0  0
    3.5538    8.2849    5.9164 H   0  0  0  0  0
    0.7632   10.4165    5.3007 H   0  0  0  0  0
    1.9260   10.6016    6.6366 H   0  0  0  0  0
    2.5083   10.2404    4.9930 H   0  0  0  0  0
    0.9667    6.9852    9.2123 H   0  0  0  0  0
    1.1169    4.3502    8.1068 H   0  0  0  0  0
    0.3326    5.1104   10.9253 H   0  0  0  0  0
    2.0472    5.0072   10.2899 H   0  0  0  0  0
    0.0978    2.6771   10.4531 H   0  0  0  0  0
    1.7572    2.5003    8.6740 H   0  0  0  0  0
    3.0575    2.8337    9.8440 H   0  0  0  0  0
    2.0873    1.3477    9.9906 H   0  0  0  0  0
    2.4287    3.4777   12.2107 H   0  0  0  0  0
    0.7075    3.5353   12.6638 H   0  0  0  0  0
    1.4899    1.9697   12.3355 H   0  0  0  0  0
   -2.8272    5.0920    9.1266 H   0  0  0  0  0
   -1.5439    6.2549    9.4758 H   0  0  0  0  0
  1  2  2  0  0  0
  1  3  1  0  0  0
  1  4  1  0  0  0
  4  5  1  0  0  0
  5  6  1  0  0  0
  5  8  1  0  0  0
  6  7  2  0  0  0
  6 12  1  0  0  0
  8  9  1  0  0  0
  8 10  1  0  0  0
  9 11  1  0  0  0
 12 13  1  0  0  0
 13 14  1  0  0  0
 14 15  2  0  0  0
 14 16  1  0  0  0
 16 17  1  0  0  0
 17 18  1  0  0  0
 17 20  1  0  0  0
 18 19  2  0  0  0
 18 27  1  0  0  0
 20 21  1  0  0  0
 21 22  1  0  0  0
 22 23  1  0  0  0
 23 24  1  0  0  0
 24 25  1  0  0  0
 24 26  2  0  0  0
 27 28  1  0  0  0
 28 29  1  0  0  0
 28 31  1  0  0  0
 29 30  2  0  0  0
 29 38  1  0  0  0
 31 32  1  0  0  0
 32 33  1  0  0  0
 33 34  1  0  0  0
 34 35  1  0  0  0
 35 36  1  0  0  0
 35 37  2  0  0  0
 38 39  1  0  0  0
 39 40  1  0  0  0
 39 42  1  0  0  0
 40 41  2  0  0  0
 40 46  1  0  0  0
 42 43  1  0  0  0
 43 44  1  0  0  0
 43 45  1  0  0  0
 46 47  1  0  0  0
 46 52  1  0  0  0
 47 48  1  0  0  0
 47 50  1  0  0  0
 48 49  2  0  0  0
 48 53  1  0  0  0
 50 51  1  0  0  0
 51 52  1  0  0  0
 53 54  1  0  0  0
 53 59  1  0  0  0
 54 55  1  0  0  0
 54 57  1  0  0  0
 55 56  2  0  0  0
 55 60  1  0  0  0
 57 58  1  0  0  0
 58 59  1  0  0  0
 60 61  1  0  0  0
 61 62  1  0  0  0
 61 64  1  0  0  0
 62 63  2  0  0  0
 62 67  1  0  0  0
 64 65  1  0  0  0
 64 66  1  0  0  0
 67 68  1  0  0  0
 67 73  1  0  0  0
 68 69  1  0  0  0
 68 71  1  0  0  0
 69 70  2  0  0  0
 69 74  1  0  0  0
 71 72  1  0  0  0
 72 73  1  0  0  0
 74 75  1  0  0  0
 75 76  1  0  0  0
 75 78  1  0  0  0
 76 77  2  0  0  0
 76 80  1  0  0  0
 78 79  1  0  0  0
 80 81  1  0  0  0
 81 82  1  0  0  0
 81 84  1  0  0  0
 82 83  2  0  0  0
 82 89  1  0  0  0
 84 85  1  0  0  0
 85 86  1  0  0  0
 86 87  1  0  0  0
 87 88  1  0  0  0
 89 90  1  0  0  0
 89 95  1  0  0  0
 90 91  1  0  0  0
 90 93  1  0  0  0
 91 92  2  0  0  0
 91 96  1  0  0  0
 93 94  1  0  0  0
 94 95  1  0  0  0
 96 97  1  0  0  0
 97 98  1  0  0  0
 97100  1  0  0  0
 98 99  2  0  0  0
 98102  1  0  0  0
100101  1  0  0  0
102103  1  0  0  0
103104  1  0  0  0
103106  1  0  0  0
104105  2  0  0  0
104109  1  0  0  0
106107  1  0  0  0
106108  1  0  0  0
109110  1  0  0  0
110111  1  0  0  0
110113  1  0  0  0
111112  2  0  0  0
111117  1  0  0  0
113114  1  0  0  0
114115  1  0  0  0
114116  1  0  0  0
  3118  1  0  0  0
  3119  1  0  0  0
  3120  1  0  0  0
  4121  1  0  0  0
  5122  1  0  0  0
  8123  1  0  0  0
  9124  1  0  0  0
  9125  1  0  0  0
 10126  1  0  0  0
 10127  1  0  0  0
 10128  1  0  0  0
 11129  1  0  0  0
 11130  1  0  0  0
 11131  1  0  0  0
 12132  1  0  0  0
 13133  1  0  0  0
 13134  1  0  0  0
 16135  1  0  0  0
 17136  1  0  0  0
 20137  1  0  0  0
 20138  1  0  0  0
 21139  1  0  0  0
 21140  1  0  0  0
 22141  1  0  0  0
 22142  1  0  0  0
 23143  1  0  0  0
 25144  1  0  0  0
 25145  1  0  0  0
 26146  1  0  0  0
 27147  1  0  0  0
 28148  1  0  0  0
 31149  1  0  0  0
 31150  1  0  0  0
 32151  1  0  0  0
 32152  1  0  0  0
 33153  1  0  0  0
 33154  1  0  0  0
 34155  1  0  0  0
 36156  1  0  0  0
 36157  1  0  0  0
 37158  1  0  0  0
 38159  1  0  0  0
 39160  1  0  0  0
 42161  1  0  0  0
 42162  1  0  0  0
 43163  1  0  0  0
 44164  1  0  0  0
 44165  1  0  0  0
 44166  1  0  0  0
 45167  1  0  0  0
 45168  1  0  0  0
 45169  1  0  0  0
 47170  1  0  0  0
 50171  1  0  0  0
 50172  1  0  0  0
 51173  1  0  0  0
 51174  1  0  0  0
 52175  1  0  0  0
 52176  1  0  0  0
 54177  1  0  0  0
 57178  1  0  0  0
 57179  1  0  0  0
 58180  1  0  0  0
 58181  1  0  0  0
 59182  1  0  0  0
 59183  1  0  0  0
 60184  1  0  0  0
 61185  1  0  0  0
 64186  1  0  0  0
 65187  1  0  0  0
 66188  1  0  0  0
 66189  1  0  0  0
 66190  1  0  0  0
 68191  1  0  0  0
 71192  1  0  0  0
 71193  1  0  0  0
 72194  1  0  0  0
 72195  1  0  0  0
 73196  1  0  0  0
 73197  1  0  0  0
 74198  1  0  0  0
 75199  1  0  0  0
 78200  1  0  0  0
 78201  1  0  0  0
 79202  1  0  0  0
 80203  1  0  0  0
 81204  1  0  0  0
 84205  1  0  0  0
 84206  1  0  0  0
 85207  1  0  0  0
 85208  1  0  0  0
 86209  1  0  0  0
 86210  1  0  0  0
 87211  1  0  0  0
 87212  1  0  0  0
 88213  1  0  0  0
 88214  1  0  0  0
 88215  1  0  0  0
 90216  1  0  0  0
 93217  1  0  0  0
 93218  1  0  0  0
 94219  1  0  0  0
 94220  1  0  0  0
 95221  1  0  0  0
 95222  1  0  0  0
 96223  1  0  0  0
 97224  1  0  0  0
100225  1  0  0  0
100226  1  0  0  0
101227  1  0  0  0
102228  1  0  0  0
103229  1  0  0  0
106230  1  0  0  0
107231  1  0  0  0
108232  1  0  0  0
108233  1  0  0  0
108234  1  0  0  0
109235  1  0  0  0
110236  1  0  0  0
113237  1  0  0  0
113238  1  0  0  0
114239  1  0  0  0
115240  1  0  0  0
115241  1  0  0  0
115242  1  0  0  0
116243  1  0  0  0
116244  1  0  0  0
116245  1  0  0  0
117246  1  0  0  0
117247  1  0  0  0
M  END
$$$$
