### 
### Created by X-TOOL on Mon Sep 10 21:13:21 2018
### 

@<TRIPOS>MOLECULE
4z8a_ligand
  249   252     1     0     0
SMALL
GAST_HUCK


@<TRIPOS>ATOM
      1 C          22.1990   26.4110   28.8380 C.2       1 ACE         0.1751
      2 O          21.3480   27.2660   28.6200 O.2       1 ACE        -0.3972
      3 CH3        23.2580   26.5890   29.8810 C.3       1 ACE         0.0258
      4 N          22.3830   25.3620   28.0470 N.am      1 ILE        -0.2656
      5 CA         21.4800   24.9800   26.9640 C.3       1 ILE         0.1334
      6 C          20.7680   23.6740   27.3030 C.2       1 ILE         0.2040
      7 O          21.4240   22.6630   27.5170 O.2       1 ILE        -0.3944
      8 CB         22.2380   24.7880   25.6460 C.3       1 ILE        -0.0037
      9 CG1        23.0380   26.0470   25.2850 C.3       1 ILE        -0.0491
     10 CG2        21.2760   24.4020   24.5410 C.3       1 ILE        -0.0582
     11 CD1        23.8160   25.9030   23.9770 C.3       1 ILE        -0.0648
     12 N          19.4400   23.7000   27.3530 N.am      1 GLY        -0.2664
     13 CA         18.6780   22.4880   27.6380 C.3       1 GLY         0.1201
     14 C          18.1560   21.8440   26.3740 C.2       1 GLY         0.2007
     15 O          18.2150   22.4440   25.2950 O.2       1 GLY        -0.3947
     16 N          17.6780   20.6030   26.5030 N.am      1 ARG        -0.2640
     17 CA         17.0580   19.8920   25.3990 C.3       1 ARG         0.1311
     18 C          15.5490   20.0480   25.4780 C.2       1 ARG         0.2039
     19 O          14.9850   20.2000   26.5610 O.2       1 ARG        -0.3944
     20 CB         17.4320   18.4090   25.4220 C.3       1 ARG        -0.0092
     21 CG         18.9370   18.1810   25.1420 C.3       1 ARG        -0.0156
     22 CD         19.3740   16.6920   25.3100 C.3       1 ARG         0.0627
     23 NE         18.3830   15.7570   24.7650 N.pl3     1 ARG        -0.2723
     24 CZ         18.2720   15.4440   23.4780 C.cat     1 ARG         0.2882
     25 NH1        19.1100   15.9760   22.5890 N.pl3     1 ARG        -0.2849
     26 NH2        17.3020   14.6290   23.0700 N.pl3     1 ARG        -0.2849
     27 N          14.9120   20.0090   24.3280 N.am      1 ARG        -0.2637
     28 CA         13.4580   20.0350   24.2820 C.3       1 ARG         0.1311
     29 C          12.9200   19.1860   23.1500 C.2       1 ARG         0.2039
     30 O          13.6380   18.7820   22.2560 O.2       1 ARG        -0.3944
     31 CB         12.9770   21.4850   24.1330 C.3       1 ARG        -0.0092
     32 CG         13.2570   22.1020   22.7710 C.3       1 ARG        -0.0156
     33 CD         12.7550   23.5410   22.7470 C.3       1 ARG         0.0627
     34 NE         13.0850   24.2870   21.5320 N.pl3     1 ARG        -0.2723
     35 CZ         12.2810   24.3950   20.4740 C.cat     1 ARG         0.2882
     36 NH1        11.1110   23.7610   20.4370 N.pl3     1 ARG        -0.2849
     37 NH2        12.6450   25.1350   19.4400 N.pl3     1 ARG        -0.2849
     38 N          11.6200   18.9130   23.1760 N.am      1 LEU        -0.2637
     39 CA         11.0160   18.1720   22.0860 C.3       1 LEU         0.1314
     40 C          10.9250   18.9850   20.8050 C.2       1 LEU         0.2064
     41 O          10.7270   20.2010   20.8520 O.2       1 LEU        -0.3942
     42 CB          9.6060   17.7210   22.4950 C.3       1 LEU        -0.0101
     43 CG          9.5530   16.5420   23.4710 C.3       1 LEU        -0.0425
     44 CD1         8.1160   16.3270   23.9390 C.3       1 LEU        -0.0625
     45 CD2        10.1080   15.2700   22.8390 C.3       1 LEU        -0.0625
     46 N          11.0030   18.3180   19.6510 N.am      1 PRO        -0.2498
     47 CA         10.6050   19.0230   18.4240 C.3       1 PRO         0.1340
     48 C           9.1240   19.3460   18.4320 C.2       1 PRO         0.2066
     49 O           8.3970   18.7660   19.2270 O.2       1 PRO        -0.3942
     50 CB         10.9520   18.0300   17.3190 C.3       1 PRO        -0.0104
     51 CG         10.9110   16.6960   17.9890 C.3       1 PRO        -0.0281
     52 CD         11.2940   16.8900   19.4190 C.3       1 PRO         0.0369
     53 N           8.6840   20.3050   17.6020 N.am      1 PRO        -0.2498
     54 CA          7.2370   20.5230   17.4700 C.3       1 PRO         0.1338
     55 C           6.5120   19.2480   17.0450 C.2       1 PRO         0.2042
     56 O           7.0070   18.4670   16.2410 O.2       1 PRO        -0.3944
     57 CB          7.1100   21.6100   16.3890 C.3       1 PRO        -0.0104
     58 CG          8.4500   21.8370   15.8500 C.3       1 PRO        -0.0281
     59 CD          9.4790   21.2030   16.7620 C.3       1 PRO         0.0369
     60 N           5.3380   19.0490   17.6260 N.am      1 THR        -0.2613
     61 CA          4.5250   17.8680   17.3590 C.3       1 THR         0.1567
     62 C           3.9310   17.9590   15.9660 C.2       1 THR         0.2090
     63 O           3.3830   18.9990   15.5920 O.2       1 THR        -0.3941
     64 CB          3.4050   17.7490   18.3840 C.3       1 THR         0.0924
     65 OG1         3.9600   17.7530   19.7020 O.3       1 THR        -0.3874
     66 CG2         2.5820   16.4780   18.1550 C.3       1 THR        -0.0346
     67 N           4.0280   16.8770   15.1840 N.am      1 PRO        -0.2498
     68 CA          3.3940   16.9100   13.8680 C.3       1 PRO         0.1338
     69 C           1.8960   17.1520   14.0070 C.2       1 PRO         0.2042
     70 O           1.2810   16.7270   14.9850 O.2       1 PRO        -0.3944
     71 CB          3.6970   15.5210   13.2940 C.3       1 PRO        -0.0104
     72 CG          4.9940   15.1530   13.9740 C.3       1 PRO        -0.0281
     73 CD          4.7880   15.6280   15.3870 C.3       1 PRO         0.0369
     74 N           1.3310   17.8730   13.0560 N.am      1 SER        -0.2616
     75 CA         -0.0960   18.2120   13.1380 C.3       1 SER         0.1539
     76 C          -0.9450   17.4750   12.0910 C.2       1 SER         0.2062
     77 O          -2.1840   17.4000   12.2240 O.2       1 SER        -0.3943
     78 CB         -0.2710   19.7240   12.9890 C.3       1 SER         0.0843
     79 OG          0.0630   20.1200   11.6830 O.3       1 SER        -0.3903
     80 N          -0.3020   16.9470   11.0510 N.am      1 LYS        -0.2637
     81 CA         -1.0120   16.1770   10.0270 C.3       1 LYS         0.1312
     82 C          -1.2740   14.7640   10.5210 C.2       1 LYS         0.2064
     83 O          -0.4480   14.2220   11.2550 O.2       1 LYS        -0.3942
     84 CB         -0.2000   16.0970    8.7270 C.3       1 LYS        -0.0122
     85 CG          0.0820   17.4180    8.0380 C.3       1 LYS        -0.0440
     86 CD          0.6710   17.1850    6.6510 C.3       1 LYS        -0.0124
     87 CE          1.1840   18.4760    6.0230 C.3       1 LYS        -0.0354
     88 NZ          1.7160   18.2540    4.6420 N.4       1 LYS         0.2185
     89 N          -2.3880   14.1470   10.0860 N.am      1 PRO        -0.2498
     90 CA         -2.6240   12.7330   10.4210 C.3       1 PRO         0.1338
     91 C          -1.4470   11.8480    9.9780 C.2       1 PRO         0.2042
     92 O          -0.8180   12.0950    8.9450 O.2       1 PRO        -0.3944
     93 CB         -3.8940   12.3920    9.6340 C.3       1 PRO        -0.0104
     94 CG         -4.6080   13.7190    9.4780 C.3       1 PRO        -0.0281
     95 CD         -3.5060   14.7210    9.3090 C.3       1 PRO         0.0369
     96 N          -1.1580   10.8230   10.7640 N.am      1 SER        -0.2616
     97 CA         -0.0730    9.9060   10.4090 C.3       1 SER         0.1539
     98 C          -0.3380    9.1730    9.0960 C.2       1 SER         0.2063
     99 O          -1.4450    8.7020    8.8700 O.2       1 SER        -0.3943
    100 CB          0.1160    8.8820   11.5220 C.3       1 SER         0.0843
    101 OG          1.0460    7.9030   11.1180 O.3       1 SER        -0.3903
    102 N           0.6850    9.0130    8.2570 N.am      1 THR        -0.2613
    103 CA          0.4930    8.2780    7.0190 C.3       1 THR         0.1565
    104 C           0.4180    6.7630    7.2590 C.2       1 THR         0.2065
    105 O           0.1150    6.0040    6.3400 O.2       1 THR        -0.3943
    106 CB          1.6100    8.5720    6.0060 C.3       1 THR         0.0924
    107 OG1         2.8480    8.1060    6.5420 O.3       1 THR        -0.3874
    108 CG2         1.7090   10.0650    5.7130 C.3       1 THR        -0.0346
    109 N           0.6690    6.3250    8.4940 N.am      1 LEU        -0.2637
    110 CA          0.5220    4.9080    8.8300 C.3       1 LEU         0.1309
    111 C          -0.9280    4.4560    8.7340 C.2       1 LEU         0.1992
    112 O          -1.2120    3.3260    8.3200 O.2       1 LEU        -0.3947
    113 CB          1.0260    4.6300   10.2350 C.3       1 LEU        -0.0101
    114 CG          1.0740    3.1370   10.6070 C.3       1 LEU        -0.0425
    115 CD1         2.0650    2.4020    9.7150 C.3       1 LEU        -0.0625
    116 CD2         1.4510    3.0220   12.0540 C.3       1 LEU        -0.0625
    117 N          -1.8370    5.3360    9.1440 N.am      1 NH2        -0.2990
    118 H1         23.9066   25.7008   29.9002 H         1 ACE         0.0467
    119 H2         22.7849   26.7188   30.8655 H         1 ACE         0.0467
    120 H3         23.8607   27.4781   29.6437 H         1 ACE         0.0467
    121 H4         23.1926   24.7959   28.2022 H         1 ILE         0.1883
    122 H5         20.7322   25.7762   26.8338 H         1 ILE         0.0803
    123 H6         22.9518   23.9617   25.7790 H         1 ILE         0.0345
    124 H7         23.7511   26.2544   26.0964 H         1 ILE         0.0267
    125 H8         22.3391   26.8907   25.1865 H         1 ILE         0.0267
    126 H9         20.7227   23.4982   24.8358 H         1 ILE         0.0235
    127 H10        21.8393   24.2022   23.6176 H         1 ILE         0.0235
    128 H11        20.5675   25.2253   24.3674 H         1 ILE         0.0235
    129 H12        24.3664   26.8334   23.7735 H         1 ILE         0.0230
    130 H13        23.1147   25.7042   23.1532 H         1 ILE         0.0230
    131 H14        24.5267   25.0679   24.0631 H         1 ILE         0.0230
    132 H15        18.9568   24.5608   27.1933 H         1 GLY         0.1881
    133 H16        17.8261   22.7465   28.2841 H         1 GLY         0.0763
    134 H17        19.3298   21.7718   28.1597 H         1 GLY         0.0763
    135 H18        17.7497   20.1480   27.3906 H         1 ARG         0.1883
    136 H19        17.4128   20.3291   24.4540 H         1 ARG         0.0800
    137 H20        16.8453   17.8838   24.6539 H         1 ARG         0.0313
    138 H21        17.1899   17.9980   26.4132 H         1 ARG         0.0313
    139 H22        19.5203   18.7977   25.8415 H         1 ARG         0.0301
    140 H23        19.1522   18.4943   24.1098 H         1 ARG         0.0301
    141 H24        19.5079   16.4811   26.3812 H         1 ARG         0.0689
    142 H25        20.3287   16.5418   24.7846 H         1 ARG         0.0689
    143 H26        17.7287   15.3129   25.4249 H         1 ARG         0.2642
    144 H27        19.0245   15.7338   21.5915 H         1 ARG         0.2615
    145 H28        19.8433   16.6294   22.8993 H         1 ARG         0.2615
    146 H29        16.6533   14.2168   23.7557 H         1 ARG         0.2615
    147 H30        17.2001   14.4105   22.0686 H         1 ARG         0.2615
    148 H31        15.4328   19.9609   23.4757 H         1 ARG         0.1883
    149 H32        13.0726   19.6309   25.2297 H         1 ARG         0.0800
    150 H33        13.4806   22.0950   24.8973 H         1 ARG         0.0313
    151 H34        11.8906   21.5066   24.3039 H         1 ARG         0.0313
    152 H35        12.7399   21.5212   21.9930 H         1 ARG         0.0301
    153 H36        14.3401   22.0892   22.5792 H         1 ARG         0.0301
    154 H37        13.1956   24.0713   23.6041 H         1 ARG         0.0689
    155 H38        11.6600   23.5230   22.8504 H         1 ARG         0.0689
    156 H39        13.9991   24.7600   21.4916 H         1 ARG         0.2642
    157 H40        10.5006   23.8542   19.6126 H         1 ARG         0.2615
    158 H41        10.8161   23.1773   21.2328 H         1 ARG         0.2615
    159 H42        13.5474   25.6314   19.4542 H         1 ARG         0.2615
    160 H43        12.0261   25.2149   18.6206 H         1 ARG         0.2615
    161 H44        11.0593   19.2180   23.9458 H         1 LEU         0.1883
    162 H45        11.6333   17.2831   21.8891 H         1 LEU         0.0800
    163 H46         9.0639   17.4315   21.5827 H         1 LEU         0.0315
    164 H47         9.0994   18.5757   22.9669 H         1 LEU         0.0315
    165 H48        10.1723   16.7885   24.3461 H         1 LEU         0.0298
    166 H49         8.0815   15.4797   24.6397 H         1 LEU         0.0232
    167 H50         7.4760   16.1111   23.0708 H         1 LEU         0.0232
    168 H51         7.7550   17.2352   24.4438 H         1 LEU         0.0232
    169 H52        11.1425   15.4458   22.5091 H         1 LEU         0.0232
    170 H53         9.4895   14.9907   21.9733 H         1 LEU         0.0232
    171 H54        10.0924   14.4560   23.5787 H         1 LEU         0.0232
    172 H55        11.1780   19.9544   18.3053 H         1 PRO         0.0802
    173 H56        11.9553   18.2319   16.9158 H         1 PRO         0.0313
    174 H57        10.2131   18.0794   16.5056 H         1 PRO         0.0313
    175 H58        11.6202   16.0108   17.5016 H         1 PRO         0.0287
    176 H59         9.8956   16.2776   17.9273 H         1 PRO         0.0287
    177 H60        10.6899   16.2511   20.0800 H         1 PRO         0.0524
    178 H61        12.3612   16.6737   19.5750 H         1 PRO         0.0524
    179 H62         6.8152   20.8759   18.4226 H         1 PRO         0.0802
    180 H63         6.7186   22.5382   16.8310 H         1 PRO         0.0313
    181 H64         6.4342   21.2709   15.5901 H         1 PRO         0.0313
    182 H65         8.6386   22.9185   15.7815 H         1 PRO         0.0287
    183 H66         8.5226   21.3880   14.8485 H         1 PRO         0.0287
    184 H67        10.2253   20.6406   16.1817 H         1 PRO         0.0524
    185 H68         9.9867   21.9650   17.3716 H         1 PRO         0.0524
    186 H69         4.9971   19.7332   18.2708 H         1 THR         0.1884
    187 H70         5.1629   16.9740   17.4210 H         1 THR         0.0826
    188 H71         2.7391   18.6181   18.2785 H         1 THR         0.0639
    189 H72         3.2596   17.6787   20.3395 H         1 THR         0.2101
    190 H73         1.7823   16.4184   18.9079 H         1 THR         0.0257
    191 H74         3.2351   15.5973   18.2434 H         1 THR         0.0257
    192 H75         2.1373   16.5053   17.1493 H         1 THR         0.0257
    193 H76         3.8336   17.6966   13.2371 H         1 PRO         0.0802
    194 H77         3.8202   15.5620   12.2017 H         1 PRO         0.0313
    195 H78         2.9005   14.8056   13.5466 H         1 PRO         0.0313
    196 H79         5.8453   15.6680   13.5049 H         1 PRO         0.0287
    197 H80         5.1609   14.0662   13.9436 H         1 PRO         0.0287
    198 H81         4.2093   14.8990   15.9732 H         1 PRO         0.0524
    199 H82         5.7483   15.8214   15.8874 H         1 PRO         0.0524
    200 H83         1.8753   18.1887   12.2788 H         1 SER         0.1884
    201 H84        -0.4579   17.9158   14.1336 H         1 SER         0.0823
    202 H85         0.3862   20.2391   13.7051 H         1 SER         0.0606
    203 H86        -1.3181   19.9915   13.1942 H         1 SER         0.0606
    204 H87        -0.0486   21.0598   11.5999 H         1 SER         0.2097
    205 H88         0.6857   17.0789   10.9675 H         1 LYS         0.1883
    206 H89        -1.9725   16.6710    9.8186 H         1 LYS         0.0800
    207 H90        -0.7553   15.4613    8.0217 H         1 LYS         0.0312
    208 H91         0.7663   15.6268    8.9619 H         1 LYS         0.0312
    209 H92         0.7973   17.9954    8.6421 H         1 LYS         0.0269
    210 H93        -0.8568   17.9832    7.9417 H         1 LYS         0.0269
    211 H94        -0.1081   16.7595    6.0014 H         1 LYS         0.0317
    212 H95         1.5067   16.4747    6.7350 H         1 LYS         0.0317
    213 H96         1.9892   18.8820    6.6529 H         1 LYS         0.0813
    214 H97         0.3572   19.1998    5.9731 H         1 LYS         0.0813
    215 H98         2.0440   19.1288    4.2636 H         1 LYS         0.1994
    216 H99         0.9834   17.8875    4.0546 H         1 LYS         0.1994
    217 H100        2.4790   17.5962    4.6775 H         1 LYS         0.1994
    218 H101       -2.7864   12.6086   11.5018 H         1 PRO         0.0802
    219 H102       -4.5175   11.6777   10.1916 H         1 PRO         0.0313
    220 H103       -3.6408   11.9683    8.6510 H         1 PRO         0.0313
    221 H104       -5.2061   13.9462   10.3728 H         1 PRO         0.0287
    222 H105       -5.2616   13.7071    8.5933 H         1 PRO         0.0287
    223 H106       -3.2326   14.8281    8.2489 H         1 PRO         0.0524
    224 H107       -3.8016   15.7008    9.7123 H         1 PRO         0.0524
    225 H108       -1.6821   10.6744   11.6026 H         1 SER         0.1884
    226 H109        0.8523   10.4908   10.3001 H         1 SER         0.0823
    227 H110       -0.8481    8.4006   11.7427 H         1 SER         0.0606
    228 H111        0.4882    9.3885   12.4247 H         1 SER         0.0606
    229 H112        1.8790    8.3184   10.9281 H         1 SER         0.2097
    230 H113        1.5811    9.3974    8.4789 H         1 THR         0.1884
    231 H114       -0.4623    8.6039    6.5818 H         1 THR         0.0826
    232 H115        1.3943    8.0387    5.0684 H         1 THR         0.0639
    233 H116        2.7918    7.1707    6.6989 H         1 THR         0.2101
    234 H117        2.5154   10.2434    4.9864 H         1 THR         0.0257
    235 H118        1.9281   10.6077    6.6444 H         1 THR         0.0257
    236 H119        0.7551   10.4211    5.2968 H         1 THR         0.0257
    237 H120        0.9609    6.9722    9.1982 H         1 LEU         0.1883
    238 H121        1.1205    4.3221    8.1169 H         1 LEU         0.0800
    239 H122        0.3612    5.1411   10.9469 H         1 LEU         0.0315
    240 H123        2.0429    5.0399   10.3236 H         1 LEU         0.0315
    241 H124        0.0769    2.6959   10.4612 H         1 LEU         0.0298
    242 H125        2.0884    1.3378    9.9922 H         1 LEU         0.0232
    243 H126        3.0672    2.8367    9.8443 H         1 LEU         0.0232
    244 H127        1.7554    2.5004    8.6641 H         1 LEU         0.0232
    245 H128        0.7161    3.5627   12.6684 H         1 LEU         0.0232
    246 H129        2.4493    3.4573   12.2086 H         1 LEU         0.0232
    247 H130        1.4640    1.9617   12.3464 H         1 LEU         0.0232
    248 H131       -2.8091    5.1041    9.1084 H         1 NH2         0.1815
    249 H132       -1.5484    6.2296    9.4879 H         1 NH2         0.1815
@<TRIPOS>BOND
     1    1    2 2  
     2    1    3 1  
     3    1    4 am 
     4    4    5 1  
     5    5    6 1  
     6    5    8 1  
     7    6    7 2  
     8    6   12 am 
     9    8    9 1  
    10    8   10 1  
    11    9   11 1  
    12   12   13 1  
    13   13   14 1  
    14   14   15 2  
    15   14   16 am 
    16   16   17 1  
    17   17   18 1  
    18   17   20 1  
    19   18   19 2  
    20   18   27 am 
    21   20   21 1  
    22   21   22 1  
    23   22   23 1  
    24   23   24 ar 
    25   24   25 ar 
    26   24   26 ar 
    27   27   28 1  
    28   28   29 1  
    29   28   31 1  
    30   29   30 2  
    31   29   38 am 
    32   31   32 1  
    33   32   33 1  
    34   33   34 1  
    35   34   35 ar 
    36   35   36 ar 
    37   35   37 ar 
    38   38   39 1  
    39   39   40 1  
    40   39   42 1  
    41   40   41 2  
    42   40   46 am 
    43   42   43 1  
    44   43   44 1  
    45   43   45 1  
    46   46   47 1  
    47   46   52 1  
    48   47   48 1  
    49   47   50 1  
    50   48   49 2  
    51   48   53 am 
    52   50   51 1  
    53   51   52 1  
    54   53   54 1  
    55   53   59 1  
    56   54   55 1  
    57   54   57 1  
    58   55   56 2  
    59   55   60 am 
    60   57   58 1  
    61   58   59 1  
    62   60   61 1  
    63   61   62 1  
    64   61   64 1  
    65   62   63 2  
    66   62   67 am 
    67   64   65 1  
    68   64   66 1  
    69   67   68 1  
    70   67   73 1  
    71   68   69 1  
    72   68   71 1  
    73   69   70 2  
    74   69   74 am 
    75   71   72 1  
    76   72   73 1  
    77   74   75 1  
    78   75   76 1  
    79   75   78 1  
    80   76   77 2  
    81   76   80 am 
    82   78   79 1  
    83   80   81 1  
    84   81   82 1  
    85   81   84 1  
    86   82   83 2  
    87   82   89 am 
    88   84   85 1  
    89   85   86 1  
    90   86   87 1  
    91   87   88 1  
    92   89   90 1  
    93   89   95 1  
    94   90   91 1  
    95   90   93 1  
    96   91   92 2  
    97   91   96 am 
    98   93   94 1  
    99   94   95 1  
   100   96   97 1  
   101   97   98 1  
   102   97  100 1  
   103   98   99 2  
   104   98  102 am 
   105  100  101 1  
   106  102  103 1  
   107  103  104 1  
   108  103  106 1  
   109  104  105 2  
   110  104  109 am 
   111  106  107 1  
   112  106  108 1  
   113  109  110 1  
   114  110  111 1  
   115  110  113 1  
   116  111  112 2  
   117  111  117 am 
   118  113  114 1  
   119  114  115 1  
   120  114  116 1  
   121    3  118 1  
   122    3  119 1  
   123    3  120 1  
   124    4  121 1  
   125    5  122 1  
   126    8  123 1  
   127    9  124 1  
   128    9  125 1  
   129   10  126 1  
   130   10  127 1  
   131   10  128 1  
   132   11  129 1  
   133   11  130 1  
   134   11  131 1  
   135   12  132 1  
   136   13  133 1  
   137   13  134 1  
   138   16  135 1  
   139   17  136 1  
   140   20  137 1  
   141   20  138 1  
   142   21  139 1  
   143   21  140 1  
   144   22  141 1  
   145   22  142 1  
   146   23  143 1  
   147   25  144 1  
   148   25  145 1  
   149   26  146 1  
   150   26  147 1  
   151   27  148 1  
   152   28  149 1  
   153   31  150 1  
   154   31  151 1  
   155   32  152 1  
   156   32  153 1  
   157   33  154 1  
   158   33  155 1  
   159   34  156 1  
   160   36  157 1  
   161   36  158 1  
   162   37  159 1  
   163   37  160 1  
   164   38  161 1  
   165   39  162 1  
   166   42  163 1  
   167   42  164 1  
   168   43  165 1  
   169   44  166 1  
   170   44  167 1  
   171   44  168 1  
   172   45  169 1  
   173   45  170 1  
   174   45  171 1  
   175   47  172 1  
   176   50  173 1  
   177   50  174 1  
   178   51  175 1  
   179   51  176 1  
   180   52  177 1  
   181   52  178 1  
   182   54  179 1  
   183   57  180 1  
   184   57  181 1  
   185   58  182 1  
   186   58  183 1  
   187   59  184 1  
   188   59  185 1  
   189   60  186 1  
   190   61  187 1  
   191   64  188 1  
   192   65  189 1  
   193   66  190 1  
   194   66  191 1  
   195   66  192 1  
   196   68  193 1  
   197   71  194 1  
   198   71  195 1  
   199   72  196 1  
   200   72  197 1  
   201   73  198 1  
   202   73  199 1  
   203   74  200 1  
   204   75  201 1  
   205   78  202 1  
   206   78  203 1  
   207   79  204 1  
   208   80  205 1  
   209   81  206 1  
   210   84  207 1  
   211   84  208 1  
   212   85  209 1  
   213   85  210 1  
   214   86  211 1  
   215   86  212 1  
   216   87  213 1  
   217   87  214 1  
   218   88  215 1  
   219   88  216 1  
   220   88  217 1  
   221   90  218 1  
   222   93  219 1  
   223   93  220 1  
   224   94  221 1  
   225   94  222 1  
   226   95  223 1  
   227   95  224 1  
   228   96  225 1  
   229   97  226 1  
   230  100  227 1  
   231  100  228 1  
   232  101  229 1  
   233  102  230 1  
   234  103  231 1  
   235  106  232 1  
   236  107  233 1  
   237  108  234 1  
   238  108  235 1  
   239  108  236 1  
   240  109  237 1  
   241  110  238 1  
   242  113  239 1  
   243  113  240 1  
   244  114  241 1  
   245  115  242 1  
   246  115  243 1  
   247  115  244 1  
   248  116  245 1  
   249  116  246 1  
   250  116  247 1  
   251  117  248 1  
   252  117  249 1  
@<TRIPOS>SUBSTRUCTURE
     1 ACE         1

