4f49_ligand
  -I-interpret- 

 60 61  0  0  0  0  0  0  0  0999 V2000
   10.6750   -9.3240   16.4340 C   0  0  0  0  0
   11.4370   -9.1760   17.6340 O   0  0  0  0  0
   12.0540   -7.8750   17.9060 C   0  0  0  0  0
   11.9400   -6.9830   17.0730 O   0  0  0  0  0
   11.4980  -10.0130   15.3680 C   0  0  0  0  0
   12.7700  -10.4810   15.6590 C   0  0  0  0  0
   13.5200  -11.1140   14.6800 C   0  0  0  0  0
   13.0040  -11.2610   13.4020 C   0  0  0  0  0
   11.7320  -10.7860   13.1010 C   0  0  0  0  0
   10.9830  -10.1650   14.0920 C   0  0  0  0  0
   12.7660   -7.6280   19.0620 N   0  0  0  0  0
   13.5880   -6.3940   19.1540 C   0  0  0  0  0
   14.6940   -6.4620   18.1380 C   0  0  0  0  0
   15.2810   -7.5140   17.9250 O   0  0  0  0  0
   14.1330   -6.2280   20.5700 C   0  0  0  0  0
   13.1330   -5.4940   21.4750 C   0  0  0  0  0
   11.7110   -5.9970   21.2530 C   0  0  0  0  0
   13.5090   -5.6130   22.9530 C   0  0  0  0  0
   15.0130   -5.3500   17.3880 N   0  0  0  0  0
   16.1240   -5.4470   16.4100 C   0  0  0  0  0
   17.2540   -4.5050   16.8460 C   0  0  0  0  0
   18.2570   -4.3620   15.8120 O   0  0  0  0  0
   15.6220   -5.1480   14.9860 C   0  0  0  0  0
   14.5660   -6.1660   14.5560 C   0  0  0  0  0
   15.2610   -7.4740   14.2110 C   0  0  0  0  0
   14.7310   -7.9070   12.8440 C   0  0  0  0  0
   13.8810   -6.8130   12.3170 N   0  0  0  0  0
   13.8520   -5.8260   13.2770 C   0  0  0  0  0
   13.2400   -4.7700   13.0920 O   0  0  0  0  0
   10.3835   -8.3371   16.0747 H   0  0  0  0  0
    9.7924   -9.9273   16.6462 H   0  0  0  0  0
   13.1814  -10.3509   16.6600 H   0  0  0  0  0
   14.5137  -11.4954   14.9148 H   0  0  0  0  0
   13.5974  -11.7508   12.6299 H   0  0  0  0  0
   11.3263  -10.9002   12.0958 H   0  0  0  0  0
    9.9835   -9.7950   13.8637 H   0  0  0  0  0
   12.7284   -8.2836   19.8425 H   0  0  0  0  0
   12.9735   -5.5201   18.9376 H   0  0  0  0  0
   15.0498   -5.6406   20.5206 H   0  0  0  0  0
   14.3152   -7.2179   20.9882 H   0  0  0  0  0
   13.1754   -4.4401   21.1999 H   0  0  0  0  0
   11.4261   -5.8304   20.2142 H   0  0  0  0  0
   11.6648   -7.0627   21.4773 H   0  0  0  0  0
   11.0291   -5.4563   21.9093 H   0  0  0  0  0
   13.5223   -6.6645   23.2397 H   0  0  0  0  0
   14.4964   -5.1794   23.1114 H   0  0  0  0  0
   12.7753   -5.0796   23.5573 H   0  0  0  0  0
   14.4957   -4.4785   17.5033 H   0  0  0  0  0
   16.5179   -6.4631   16.3887 H   0  0  0  0  0
   17.7301   -4.9251   17.7320 H   0  0  0  0  0
   16.8254   -3.5234   17.0483 H   0  0  0  0  0
   18.9468   -3.7681   16.1169 H   0  0  0  0  0
   16.4651   -5.2050   14.2975 H   0  0  0  0  0
   15.1764   -4.1533   14.9727 H   0  0  0  0  0
   13.8626   -6.1995   15.3880 H   0  0  0  0  0
   15.0552   -8.2335   14.9653 H   0  0  0  0  0
   16.3428   -7.3433   14.1841 H   0  0  0  0  0
   14.1500   -8.8244   12.9379 H   0  0  0  0  0
   15.5592   -8.1028   12.1630 H   0  0  0  0  0
   13.4071   -6.7947   11.4140 H   0  0  0  0  0
  1  2  1  0  0  0
  1  5  1  0  0  0
  2  3  1  0  0  0
  3  4  2  0  0  0
  3 11  1  0  0  0
  5  6  4  0  0  0
  5 10  4  0  0  0
  6  7  4  0  0  0
  7  8  4  0  0  0
  8  9  4  0  0  0
  9 10  4  0  0  0
 11 12  1  0  0  0
 12 13  1  0  0  0
 12 15  1  0  0  0
 13 14  2  0  0  0
 13 19  1  0  0  0
 15 16  1  0  0  0
 16 17  1  0  0  0
 16 18  1  0  0  0
 19 20  1  0  0  0
 20 21  1  0  0  0
 20 23  1  0  0  0
 21 22  1  0  0  0
 23 24  1  0  0  0
 24 25  1  0  0  0
 24 28  1  0  0  0
 25 26  1  0  0  0
 26 27  1  0  0  0
 27 28  1  0  0  0
 28 29  2  0  0  0
  1 30  1  0  0  0
  1 31  1  0  0  0
  6 32  1  0  0  0
  7 33  1  0  0  0
  8 34  1  0  0  0
  9 35  1  0  0  0
 10 36  1  0  0  0
 11 37  1  0  0  0
 12 38  1  0  0  0
 15 39  1  0  0  0
 15 40  1  0  0  0
 16 41  1  0  0  0
 17 42  1  0  0  0
 17 43  1  0  0  0
 17 44  1  0  0  0
 18 45  1  0  0  0
 18 46  1  0  0  0
 18 47  1  0  0  0
 19 48  1  0  0  0
 20 49  1  0  0  0
 21 50  1  0  0  0
 21 51  1  0  0  0
 22 52  1  0  0  0
 23 53  1  0  0  0
 23 54  1  0  0  0
 24 55  1  0  0  0
 25 56  1  0  0  0
 25 57  1  0  0  0
 26 58  1  0  0  0
 26 59  1  0  0  0
 27 60  1  0  0  0
M  END
$$$$
