2xl3_ligand
  -I-interpret- 

148147  0  0  0  0  0  0  0  0999 V2000
   11.8940  -14.1090  -22.2690 N   0  3  0  0  0
   11.3150  -15.1230  -23.1490 C   0  0  0  0  0
    9.8980  -15.4880  -22.7010 C   0  0  0  0  0
    9.7210  -16.2960  -21.7860 O   0  0  0  0  0
   12.2020  -16.3770  -23.1770 C   0  0  0  0  0
   11.7660  -17.3820  -24.2340 C   0  0  0  0  0
   11.0440  -16.9770  -25.1700 O   0  0  0  0  0
   12.1490  -18.5710  -24.1310 O   0  0  0  0  0
    8.8960  -14.8930  -23.3460 N   0  0  0  0  0
    7.4960  -15.1030  -22.9670 C   0  0  0  0  0
    7.1230  -14.4050  -21.6500 C   0  0  0  0  0
    7.9410  -14.2910  -20.7350 O   0  0  0  0  0
    7.1640  -16.5990  -22.8980 C   0  0  0  0  0
    6.0360  -16.9450  -21.9280 C   0  0  0  0  0
    5.6960  -18.4280  -21.9160 C   0  0  0  0  0
    4.9180  -18.8540  -21.0310 O   0  0  0  0  0
    6.2050  -19.1630  -22.7910 O   0  0  0  0  0
    5.8770  -13.9470  -21.5670 N   0  0  0  0  0
    5.4040  -13.1880  -20.4140 C   0  0  0  0  0
    5.4940  -13.9640  -19.1000 C   0  0  0  0  0
    5.6350  -15.1870  -19.1000 O   0  0  0  0  0
    3.9720  -12.6890  -20.6460 C   0  0  0  0  0
    3.7940  -11.8480  -21.9190 C   0  0  0  0  0
    4.0370  -10.3520  -21.7090 C   0  0  0  0  0
    4.8580   -9.7620  -22.4500 O   0  0  0  0  0
    3.3980   -9.7600  -20.8110 O   0  0  0  0  0
    5.4120  -13.2290  -17.9900 N   0  0  0  0  0
    5.5190  -13.7760  -16.6380 C   0  0  0  0  0
    4.7530  -12.9020  -15.6460 C   0  0  0  0  0
    5.1090  -11.7530  -15.4100 O   0  0  0  0  0
    6.9900  -13.8650  -16.1820 C   0  0  0  0  0
    7.0930  -13.7460  -14.6760 C   0  0  0  0  0
    7.6250  -15.1550  -16.6640 C   0  0  0  0  0
    3.7000  -13.4580  -15.0700 N   0  0  0  0  0
    2.8710  -12.7690  -14.1000 C   0  0  0  0  0
    3.4110  -12.9420  -12.6690 C   0  0  0  0  0
    3.4710  -14.0550  -12.1320 O   0  0  0  0  0
    1.4410  -13.3090  -14.2000 C   0  0  0  0  0
    0.4800  -12.6350  -13.2340 C   0  0  0  0  0
    0.8940  -12.2970  -12.1010 O   0  0  0  0  0
   -0.7020  -12.4590  -13.6090 O   0  0  0  0  0
    3.8040  -11.8270  -12.0640 N   0  0  0  0  0
    4.3220  -11.8410  -10.7050 C   0  0  0  0  0
    3.3350  -11.1850   -9.7490 C   0  0  0  0  0
    3.6840  -10.8570   -8.6150 O   0  0  0  0  0
    5.6760  -11.1140  -10.6100 C   0  0  0  0  0
    5.6290  -10.0420   -9.5320 C   0  0  0  0  0
    6.7930  -12.1090  -10.3340 C   0  0  0  0  0
    2.1010  -10.9950  -10.2070 N   0  0  0  0  0
    1.0880  -10.3660   -9.3720 C   0  0  0  0  0
   -0.0890  -11.2600   -9.0050 C   0  0  0  0  0
   -0.6480  -11.1300   -7.9170 O   0  0  0  0  0
    0.5270   -9.1000  -10.0450 C   0  0  0  0  0
    0.0470   -9.4170  -11.3630 O   0  0  0  0  0
    1.6030   -8.0380  -10.1390 C   0  0  0  0  0
   -0.4690  -12.1560   -9.9080 N   0  0  0  0  0
   -1.7140  -12.9040   -9.7500 C   0  0  0  0  0
   -1.5020  -14.2340   -9.0510 C   0  0  0  0  0
   -0.5360  -14.9400   -9.3300 O   0  0  0  0  0
   -2.4020  -13.1050  -11.1070 C   0  0  0  0  0
   -2.8460  -11.8610  -11.6360 O   0  0  0  0  0
   -2.4200  -14.5660   -8.1480 N   0  0  0  0  0
   -2.2610  -15.7100   -7.2540 C   0  0  0  0  0
   -3.1640  -16.8730   -7.6510 C   0  0  0  0  0
   -3.9760  -17.3650   -6.8630 O   0  0  0  0  0
   -2.5000  -15.3210   -5.7810 C   0  0  0  0  0
   -1.4510  -14.3220   -5.3330 C   0  0  0  0  0
   -3.8900  -14.7320   -5.6010 C   0  0  0  0  0
   -3.0020  -17.3080   -8.8920 N   0  0  0  0  0
   -3.7420  -18.4410   -9.4120 C   0  0  0  0  0
   -2.7380  -19.4010  -10.0350 C   0  0  0  0  0
   -1.5340  -19.2530   -9.7980 O   0  0  0  0  0
   -4.7800  -17.9710  -10.4360 C   0  0  0  0  0
   -5.7570  -16.9560   -9.8520 C   0  0  0  0  0
   -6.5620  -17.3390   -8.9750 O   0  0  0  0  0
   -5.7180  -15.7760  -10.2640 O   0  0  0  0  0
   -3.0900  -20.3300  -10.7680 O   0  0  0  0  0
   11.2939  -13.2842  -22.2616 H   0  0  0  0  0
   11.9698  -14.4843  -21.3236 H   0  0  0  0  0
   12.8207  -13.8536  -22.6101 H   0  0  0  0  0
   11.2605  -14.7081  -24.1555 H   0  0  0  0  0
   12.1270  -16.8616  -22.2035 H   0  0  0  0  0
   13.2185  -16.0625  -23.4135 H   0  0  0  0  0
   12.6906  -18.6645  -23.3439 H   0  0  0  0  0
    9.1094  -14.2727  -24.1270 H   0  0  0  0  0
    6.8925  -14.6436  -23.7498 H   0  0  0  0  0
    8.0594  -17.1116  -22.5465 H   0  0  0  0  0
    6.8376  -16.9025  -23.8927 H   0  0  0  0  0
    5.1458  -16.4029  -22.2470 H   0  0  0  0  0
    6.3648  -16.6716  -20.9254 H   0  0  0  0  0
    4.6472  -18.1258  -20.4671 H   0  0  0  0  0
    5.2311  -14.1324  -22.3343 H   0  0  0  0  0
    6.0734  -12.3336  -20.3145 H   0  0  0  0  0
    3.7141  -12.0504  -19.8011 H   0  0  0  0  0
    3.3388  -13.5698  -20.7524 H   0  0  0  0  0
    2.7609  -11.9670  -22.2457 H   0  0  0  0  0
    4.5276  -12.1979  -22.6452 H   0  0  0  0  0
    5.2381  -10.3902  -23.0685 H   0  0  0  0  0
    5.2658  -12.2245  -18.0902 H   0  0  0  0  0
    5.0913  -14.7783  -16.6609 H   0  0  0  0  0
    7.5344  -13.0319  -16.6265 H   0  0  0  0  0
    6.6834  -12.7866  -14.3598 H   0  0  0  0  0
    6.5299  -14.5544  -14.2096 H   0  0  0  0  0
    8.1395  -13.8116  -14.3784 H   0  0  0  0  0
    7.0771  -16.0035  -16.2541 H   0  0  0  0  0
    7.5909  -15.1906  -17.7529 H   0  0  0  0  0
    8.6619  -15.1949  -16.3302 H   0  0  0  0  0
    3.4596  -14.4172  -15.3201 H   0  0  0  0  0
    2.8835  -11.7019  -14.3219 H   0  0  0  0  0
    1.4696  -14.3701  -13.9523 H   0  0  0  0  0
    1.0839  -13.1154  -15.2115 H   0  0  0  0  0
    1.8240  -12.5214  -12.0213 H   0  0  0  0  0
    3.7411  -10.9402  -12.5640 H   0  0  0  0  0
    4.4650  -12.8847  -10.4250 H   0  0  0  0  0
    5.8787  -10.6284  -11.5646 H   0  0  0  0  0
    4.8528   -9.3168   -9.7762 H   0  0  0  0  0
    5.4061  -10.5048   -8.5706 H   0  0  0  0  0
    6.5945   -9.5389   -9.4794 H   0  0  0  0  0
    6.5971  -12.6211   -9.3919 H   0  0  0  0  0
    6.8365  -12.8381  -11.1431 H   0  0  0  0  0
    7.7429  -11.5783  -10.2699 H   0  0  0  0  0
    1.8620  -11.2930  -11.1528 H   0  0  0  0  0
    1.6173  -10.1299   -8.4489 H   0  0  0  0  0
   -0.2978   -8.7197   -9.4423 H   0  0  0  0  0
   -0.3008   -8.6228  -11.7753 H   0  0  0  0  0
    1.9516   -7.7861   -9.1374 H   0  0  0  0  0
    2.4362   -8.4181  -10.7302 H   0  0  0  0  0
    1.1928   -7.1483  -10.6168 H   0  0  0  0  0
    0.1176  -12.3249  -10.7251 H   0  0  0  0  0
   -2.3668  -12.3089   -9.1114 H   0  0  0  0  0
   -3.2644  -13.7576  -10.9712 H   0  0  0  0  0
   -1.6881  -13.5481  -11.8014 H   0  0  0  0  0
   -3.2726  -12.0088  -12.4832 H   0  0  0  0  0
   -3.2662  -14.0010   -8.0771 H   0  0  0  0  0
   -1.2269  -16.0397   -7.3540 H   0  0  0  0  0
   -2.4237  -16.2194   -5.1685 H   0  0  0  0  0
   -0.4612  -14.7678   -5.4312 H   0  0  0  0  0
   -1.5122  -13.4292   -5.9553 H   0  0  0  0  0
   -1.6282  -14.0534   -4.2916 H   0  0  0  0  0
   -3.9893  -13.8419   -6.2222 H   0  0  0  0  0
   -4.6366  -15.4687   -5.8976 H   0  0  0  0  0
   -4.0372  -14.4646   -4.5546 H   0  0  0  0  0
   -2.3363  -16.8311   -9.5001 H   0  0  0  0  0
   -4.2872  -18.9479   -8.6158 H   0  0  0  0  0
   -1.4136  -18.4969   -9.2188 H   0  0  0  0  0
   -5.3516  -18.8409  -10.7595 H   0  0  0  0  0
   -4.2487  -17.4921  -11.2585 H   0  0  0  0  0
   -6.4267  -18.2740   -8.8044 H   0  0  0  0  0
  1  2  1  0  0  0
  2  3  1  0  0  0
  2  5  1  0  0  0
  3  4  2  0  0  0
  3  9  1  0  0  0
  5  6  1  0  0  0
  6  7  2  0  0  0
  6  8  1  0  0  0
  9 10  1  0  0  0
 10 11  1  0  0  0
 10 13  1  0  0  0
 11 12  2  0  0  0
 11 18  1  0  0  0
 13 14  1  0  0  0
 14 15  1  0  0  0
 15 16  1  0  0  0
 15 17  2  0  0  0
 18 19  1  0  0  0
 19 20  1  0  0  0
 19 22  1  0  0  0
 20 21  2  0  0  0
 20 27  1  0  0  0
 22 23  1  0  0  0
 23 24  1  0  0  0
 24 25  1  0  0  0
 24 26  2  0  0  0
 27 28  1  0  0  0
 28 29  1  0  0  0
 28 31  1  0  0  0
 29 30  2  0  0  0
 29 34  1  0  0  0
 31 32  1  0  0  0
 31 33  1  0  0  0
 34 35  1  0  0  0
 35 36  1  0  0  0
 35 38  1  0  0  0
 36 37  2  0  0  0
 36 42  1  0  0  0
 38 39  1  0  0  0
 39 40  1  0  0  0
 39 41  2  0  0  0
 42 43  1  0  0  0
 43 44  1  0  0  0
 43 46  1  0  0  0
 44 45  2  0  0  0
 44 49  1  0  0  0
 46 47  1  0  0  0
 46 48  1  0  0  0
 49 50  1  0  0  0
 50 51  1  0  0  0
 50 53  1  0  0  0
 51 52  2  0  0  0
 51 56  1  0  0  0
 53 54  1  0  0  0
 53 55  1  0  0  0
 56 57  1  0  0  0
 57 58  1  0  0  0
 57 60  1  0  0  0
 58 59  2  0  0  0
 58 62  1  0  0  0
 60 61  1  0  0  0
 62 63  1  0  0  0
 63 64  1  0  0  0
 63 66  1  0  0  0
 64 65  2  0  0  0
 64 69  1  0  0  0
 66 67  1  0  0  0
 66 68  1  0  0  0
 69 70  1  0  0  0
 70 71  1  0  0  0
 70 73  1  0  0  0
 71 72  1  0  0  0
 71 77  2  0  0  0
 73 74  1  0  0  0
 74 75  1  0  0  0
 74 76  2  0  0  0
  1 78  1  0  0  0
  1 79  1  0  0  0
  1 80  1  0  0  0
  2 81  1  0  0  0
  5 82  1  0  0  0
  5 83  1  0  0  0
  8 84  1  0  0  0
  9 85  1  0  0  0
 10 86  1  0  0  0
 13 87  1  0  0  0
 13 88  1  0  0  0
 14 89  1  0  0  0
 14 90  1  0  0  0
 16 91  1  0  0  0
 18 92  1  0  0  0
 19 93  1  0  0  0
 22 94  1  0  0  0
 22 95  1  0  0  0
 23 96  1  0  0  0
 23 97  1  0  0  0
 25 98  1  0  0  0
 27 99  1  0  0  0
 28100  1  0  0  0
 31101  1  0  0  0
 32102  1  0  0  0
 32103  1  0  0  0
 32104  1  0  0  0
 33105  1  0  0  0
 33106  1  0  0  0
 33107  1  0  0  0
 34108  1  0  0  0
 35109  1  0  0  0
 38110  1  0  0  0
 38111  1  0  0  0
 40112  1  0  0  0
 42113  1  0  0  0
 43114  1  0  0  0
 46115  1  0  0  0
 47116  1  0  0  0
 47117  1  0  0  0
 47118  1  0  0  0
 48119  1  0  0  0
 48120  1  0  0  0
 48121  1  0  0  0
 49122  1  0  0  0
 50123  1  0  0  0
 53124  1  0  0  0
 54125  1  0  0  0
 55126  1  0  0  0
 55127  1  0  0  0
 55128  1  0  0  0
 56129  1  0  0  0
 57130  1  0  0  0
 60131  1  0  0  0
 60132  1  0  0  0
 61133  1  0  0  0
 62134  1  0  0  0
 63135  1  0  0  0
 66136  1  0  0  0
 67137  1  0  0  0
 67138  1  0  0  0
 67139  1  0  0  0
 68140  1  0  0  0
 68141  1  0  0  0
 68142  1  0  0  0
 69143  1  0  0  0
 70144  1  0  0  0
 72145  1  0  0  0
 73146  1  0  0  0
 73147  1  0  0  0
 75148  1  0  0  0
M  END
$$$$
