### 
### Created by X-TOOL on Mon Sep 10 21:13:02 2018
### 

@<TRIPOS>MOLECULE
2xl3_ligand
  142   141     1     0     0
SMALL
GAST_HUCK


@<TRIPOS>ATOM
      1 N          11.8940  -14.1090  -22.2690 N.4       1 ASP         0.2391
      2 CA         11.3150  -15.1230  -23.1490 C.3       1 ASP         0.0764
      3 C           9.8980  -15.4880  -22.7010 C.2       1 ASP         0.2284
      4 O           9.7210  -16.2960  -21.7860 O.2       1 ASP        -0.3906
      5 CB         12.2020  -16.3770  -23.1770 C.3       1 ASP         0.0607
      6 CG         11.7660  -17.3820  -24.2340 C.2       1 ASP         0.0425
      7 OD1        11.0440  -16.9770  -25.1700 O.co2     1 ASP        -0.5686
      8 OD2        12.1490  -18.5710  -24.1310 O.co2     1 ASP        -0.5686
      9 N           8.8960  -14.8930  -23.3460 N.am      1 GLU        -0.2608
     10 CA          7.4960  -15.1030  -22.9670 C.3       1 GLU         0.1326
     11 C           7.1230  -14.4050  -21.6500 C.2       1 GLU         0.2040
     12 O           7.9410  -14.2910  -20.7350 O.2       1 GLU        -0.3944
     13 CB          7.1640  -16.5990  -22.8980 C.3       1 GLU        -0.0008
     14 CG          6.0360  -16.9450  -21.9280 C.3       1 GLU         0.0044
     15 CD          5.6960  -18.4280  -21.9160 C.2       1 GLU         0.0350
     16 OE1         4.9180  -18.8540  -21.0310 O.co2     1 GLU        -0.5690
     17 OE2         6.2050  -19.1630  -22.7910 O.co2     1 GLU        -0.5690
     18 N           5.8770  -13.9470  -21.5670 N.am      1 GLU        -0.2636
     19 CA          5.4040  -13.1880  -20.4140 C.3       1 GLU         0.1325
     20 C           5.4940  -13.9640  -19.1000 C.2       1 GLU         0.2040
     21 O           5.6350  -15.1870  -19.1000 O.2       1 GLU        -0.3944
     22 CB          3.9720  -12.6890  -20.6460 C.3       1 GLU        -0.0008
     23 CG          3.7940  -11.8480  -21.9190 C.3       1 GLU         0.0044
     24 CD          4.0370  -10.3520  -21.7090 C.2       1 GLU         0.0350
     25 OE1         4.8580   -9.7620  -22.4500 O.co2     1 GLU        -0.5690
     26 OE2         3.3980   -9.7600  -20.8110 O.co2     1 GLU        -0.5690
     27 N           5.4120  -13.2290  -17.9900 N.am      1 VAL        -0.2635
     28 CA          5.5190  -13.7760  -16.6380 C.3       1 VAL         0.1333
     29 C           4.7530  -12.9020  -15.6460 C.2       1 VAL         0.2042
     30 O           5.1090  -11.7530  -15.4100 O.2       1 VAL        -0.3944
     31 CB          6.9900  -13.8650  -16.1820 C.3       1 VAL        -0.0063
     32 CG1         7.0930  -13.7460  -14.6760 C.3       1 VAL        -0.0584
     33 CG2         7.6250  -15.1550  -16.6640 C.3       1 VAL        -0.0584
     34 N           3.7000  -13.4580  -15.0700 N.am      1 ASP        -0.2622
     35 CA          2.8710  -12.7690  -14.1000 C.3       1 ASP         0.1423
     36 C           3.4110  -12.9420  -12.6690 C.2       1 ASP         0.2056
     37 O           3.4710  -14.0550  -12.1320 O.2       1 ASP        -0.3943
     38 CB          1.4410  -13.3090  -14.2000 C.3       1 ASP         0.0406
     39 CG          0.4800  -12.6350  -13.2340 C.2       1 ASP         0.0393
     40 OD1         0.8940  -12.2970  -12.1010 O.co2     1 ASP        -0.5688
     41 OD2        -0.7020  -12.4590  -13.6090 O.co2     1 ASP        -0.5688
     42 N           3.8040  -11.8270  -12.0640 N.am      1 VAL        -0.2634
     43 CA          4.3220  -11.8410  -10.7050 C.3       1 VAL         0.1333
     44 C           3.3350  -11.1850   -9.7490 C.2       1 VAL         0.2042
     45 O           3.6840  -10.8570   -8.6150 O.2       1 VAL        -0.3944
     46 CB          5.6760  -11.1140  -10.6100 C.3       1 VAL        -0.0063
     47 CG1         5.6290  -10.0420   -9.5320 C.3       1 VAL        -0.0584
     48 CG2         6.7930  -12.1090  -10.3340 C.3       1 VAL        -0.0584
     49 N           2.1010  -10.9950  -10.2070 N.am      1 THR        -0.2613
     50 CA          1.0880  -10.3660   -9.3720 C.3       1 THR         0.1565
     51 C          -0.0890  -11.2600   -9.0050 C.2       1 THR         0.2065
     52 O          -0.6480  -11.1300   -7.9170 O.2       1 THR        -0.3943
     53 CB          0.5270   -9.1000  -10.0450 C.3       1 THR         0.0924
     54 OG1         0.0470   -9.4170  -11.3630 O.3       1 THR        -0.3874
     55 CG2         1.6030   -8.0380  -10.1390 C.3       1 THR        -0.0346
     56 N          -0.4690  -12.1560   -9.9080 N.am      1 SER        -0.2615
     57 CA         -1.7140  -12.9040   -9.7500 C.3       1 SER         0.1539
     58 C          -1.5020  -14.2340   -9.0510 C.2       1 SER         0.2062
     59 O          -0.5360  -14.9400   -9.3300 O.2       1 SER        -0.3943
     60 CB         -2.4020  -13.1050  -11.1070 C.3       1 SER         0.0843
     61 OG         -2.8460  -11.8610  -11.6360 O.3       1 SER        -0.3903
     62 N          -2.4200  -14.5660   -8.1480 N.am      1 VAL        -0.2634
     63 CA         -2.2610  -15.7100   -7.2540 C.3       1 VAL         0.1332
     64 C          -3.1640  -16.8730   -7.6510 C.2       1 VAL         0.2037
     65 O          -3.9760  -17.3650   -6.8630 O.2       1 VAL        -0.3944
     66 CB         -2.5000  -15.3210   -5.7810 C.3       1 VAL        -0.0063
     67 CG1        -1.4510  -14.3220   -5.3330 C.3       1 VAL        -0.0584
     68 CG2        -3.8900  -14.7320   -5.6010 C.3       1 VAL        -0.0584
     69 N          -3.0020  -17.3080   -8.8920 N.am      1 ASP        -0.2679
     70 CA         -3.7420  -18.4410   -9.4120 C.3       1 ASP         0.1057
     71 C          -2.7380  -19.4010  -10.0350 C.2       1 ASP         0.0618
     72 O          -1.5340  -19.2530   -9.7980 O.co2     1 ASP        -0.5665
     73 CB         -4.7800  -17.9710  -10.4360 C.3       1 ASP         0.0351
     74 CG         -5.7570  -16.9560   -9.8520 C.2       1 ASP         0.0387
     75 OD1        -6.5620  -17.3390   -8.9750 O.co2     1 ASP        -0.5688
     76 OD2        -5.7180  -15.7760  -10.2640 O.co2     1 ASP        -0.5688
     77 OXT        -3.0900  -20.3300  -10.7680 O.co2     1 ASP        -0.5665
     78 H          11.2939  -13.2842  -22.2616 H         1 ASP         0.2016
     79 H          11.9698  -14.4843  -21.3236 H         1 ASP         0.2016
     80 H          12.8207  -13.8536  -22.6101 H         1 ASP         0.2016
     81 H          11.2605  -14.7081  -24.1555 H         1 ASP         0.1117
     82 H          12.1270  -16.8616  -22.2035 H         1 ASP         0.0512
     83 H          13.2185  -16.0625  -23.4135 H         1 ASP         0.0512
     84 H           9.1094  -14.2727  -24.1270 H         1 GLU         0.1885
     85 H           6.8925  -14.6436  -23.7498 H         1 GLU         0.0801
     86 H           8.0594  -17.1116  -22.5465 H         1 GLU         0.0330
     87 H           6.8376  -16.9025  -23.8927 H         1 GLU         0.0330
     88 H           5.1458  -16.4029  -22.2470 H         1 GLU         0.0433
     89 H           6.3648  -16.6716  -20.9254 H         1 GLU         0.0433
     90 H           5.2311  -14.1324  -22.3343 H         1 GLU         0.1883
     91 H           6.0734  -12.3336  -20.3145 H         1 GLU         0.0801
     92 H           3.7141  -12.0504  -19.8011 H         1 GLU         0.0330
     93 H           3.3388  -13.5698  -20.7524 H         1 GLU         0.0330
     94 H           2.7609  -11.9670  -22.2457 H         1 GLU         0.0433
     95 H           4.5276  -12.1979  -22.6452 H         1 GLU         0.0433
     96 H           5.2658  -12.2245  -18.0902 H         1 VAL         0.1883
     97 H           5.0913  -14.7783  -16.6609 H         1 VAL         0.0802
     98 H           7.5344  -13.0319  -16.6265 H         1 VAL         0.0343
     99 H           6.6834  -12.7866  -14.3598 H         1 VAL         0.0234
    100 H           6.5299  -14.5544  -14.2096 H         1 VAL         0.0234
    101 H           8.1395  -13.8116  -14.3784 H         1 VAL         0.0234
    102 H           7.0771  -16.0035  -16.2541 H         1 VAL         0.0234
    103 H           7.5909  -15.1906  -17.7529 H         1 VAL         0.0234
    104 H           8.6619  -15.1949  -16.3302 H         1 VAL         0.0234
    105 H           3.4596  -14.4172  -15.3201 H         1 ASP         0.1884
    106 H           2.8835  -11.7019  -14.3219 H         1 ASP         0.0819
    107 H           1.4696  -14.3701  -13.9523 H         1 ASP         0.0478
    108 H           1.0839  -13.1154  -15.2115 H         1 ASP         0.0478
    109 H           3.7411  -10.9402  -12.5640 H         1 VAL         0.1883
    110 H           4.4650  -12.8847  -10.4250 H         1 VAL         0.0802
    111 H           5.8787  -10.6284  -11.5646 H         1 VAL         0.0343
    112 H           4.8528   -9.3168   -9.7762 H         1 VAL         0.0234
    113 H           5.4061  -10.5048   -8.5706 H         1 VAL         0.0234
    114 H           6.5945   -9.5389   -9.4794 H         1 VAL         0.0234
    115 H           6.5971  -12.6211   -9.3919 H         1 VAL         0.0234
    116 H           6.8365  -12.8381  -11.1431 H         1 VAL         0.0234
    117 H           7.7429  -11.5783  -10.2699 H         1 VAL         0.0234
    118 H           1.8620  -11.2930  -11.1528 H         1 THR         0.1884
    119 H           1.6173  -10.1299   -8.4489 H         1 THR         0.0826
    120 H          -0.2978   -8.7197   -9.4423 H         1 THR         0.0639
    121 H           0.7703   -9.7627  -11.8912 H         1 THR         0.2101
    122 H           1.9516   -7.7861   -9.1374 H         1 THR         0.0257
    123 H           2.4362   -8.4181  -10.7302 H         1 THR         0.0257
    124 H           1.1928   -7.1483  -10.6168 H         1 THR         0.0257
    125 H           0.1176  -12.3249  -10.7251 H         1 SER         0.1884
    126 H          -2.3668  -12.3089   -9.1114 H         1 SER         0.0823
    127 H          -3.2644  -13.7576  -10.9712 H         1 SER         0.0606
    128 H          -1.6881  -13.5481  -11.8014 H         1 SER         0.0606
    129 H          -3.2726  -12.0088  -12.4832 H         1 SER         0.2097
    130 H          -3.2662  -14.0010   -8.0771 H         1 VAL         0.1883
    131 H          -1.2269  -16.0397   -7.3540 H         1 VAL         0.0802
    132 H          -2.4237  -16.2194   -5.1685 H         1 VAL         0.0343
    133 H          -0.4612  -14.7678   -5.4312 H         1 VAL         0.0234
    134 H          -1.5122  -13.4292   -5.9553 H         1 VAL         0.0234
    135 H          -1.6282  -14.0534   -4.2916 H         1 VAL         0.0234
    136 H          -3.9893  -13.8419   -6.2222 H         1 VAL         0.0234
    137 H          -4.6366  -15.4687   -5.8976 H         1 VAL         0.0234
    138 H          -4.0372  -14.4646   -4.5546 H         1 VAL         0.0234
    139 H          -2.3363  -16.8311   -9.5001 H         1 ASP         0.1876
    140 H          -4.2872  -18.9479   -8.6158 H         1 ASP         0.0745
    141 H          -5.3516  -18.8409  -10.7595 H         1 ASP         0.0471
    142 H          -4.2487  -17.4921  -11.2585 H         1 ASP         0.0471
@<TRIPOS>BOND
     1    1    2 1  
     2    2    3 1  
     3    2    5 1  
     4    3    4 2  
     5    3    9 am 
     6    5    6 1  
     7    6    7 ar 
     8    6    8 ar 
     9    9   10 1  
    10   10   11 1  
    11   10   13 1  
    12   11   12 2  
    13   11   18 am 
    14   13   14 1  
    15   14   15 1  
    16   15   16 ar 
    17   15   17 ar 
    18   18   19 1  
    19   19   20 1  
    20   19   22 1  
    21   20   21 2  
    22   20   27 am 
    23   22   23 1  
    24   23   24 1  
    25   24   25 ar 
    26   24   26 ar 
    27   27   28 1  
    28   28   29 1  
    29   28   31 1  
    30   29   30 2  
    31   29   34 am 
    32   31   32 1  
    33   31   33 1  
    34   34   35 1  
    35   35   36 1  
    36   35   38 1  
    37   36   37 2  
    38   36   42 am 
    39   38   39 1  
    40   39   40 ar 
    41   39   41 ar 
    42   42   43 1  
    43   43   44 1  
    44   43   46 1  
    45   44   45 2  
    46   44   49 am 
    47   46   47 1  
    48   46   48 1  
    49   49   50 1  
    50   50   51 1  
    51   50   53 1  
    52   51   52 2  
    53   51   56 am 
    54   53   54 1  
    55   53   55 1  
    56   56   57 1  
    57   57   58 1  
    58   57   60 1  
    59   58   59 2  
    60   58   62 am 
    61   60   61 1  
    62   62   63 1  
    63   63   64 1  
    64   63   66 1  
    65   64   65 2  
    66   64   69 am 
    67   66   67 1  
    68   66   68 1  
    69   69   70 1  
    70   70   71 1  
    71   70   73 1  
    72   71   72 ar 
    73   71   77 ar 
    74   73   74 1  
    75   74   75 ar 
    76   74   76 ar 
    77    1   78 1  
    78    1   79 1  
    79    1   80 1  
    80    2   81 1  
    81    5   82 1  
    82    5   83 1  
    83    9   84 1  
    84   10   85 1  
    85   13   86 1  
    86   13   87 1  
    87   14   88 1  
    88   14   89 1  
    89   18   90 1  
    90   19   91 1  
    91   22   92 1  
    92   22   93 1  
    93   23   94 1  
    94   23   95 1  
    95   27   96 1  
    96   28   97 1  
    97   31   98 1  
    98   32   99 1  
    99   32  100 1  
   100   32  101 1  
   101   33  102 1  
   102   33  103 1  
   103   33  104 1  
   104   34  105 1  
   105   35  106 1  
   106   38  107 1  
   107   38  108 1  
   108   42  109 1  
   109   43  110 1  
   110   46  111 1  
   111   47  112 1  
   112   47  113 1  
   113   47  114 1  
   114   48  115 1  
   115   48  116 1  
   116   48  117 1  
   117   49  118 1  
   118   50  119 1  
   119   53  120 1  
   120   54  121 1  
   121   55  122 1  
   122   55  123 1  
   123   55  124 1  
   124   56  125 1  
   125   57  126 1  
   126   60  127 1  
   127   60  128 1  
   128   61  129 1  
   129   62  130 1  
   130   63  131 1  
   131   66  132 1  
   132   67  133 1  
   133   67  134 1  
   134   67  135 1  
   135   68  136 1  
   136   68  137 1  
   137   68  138 1  
   138   69  139 1  
   139   70  140 1  
   140   73  141 1  
   141   73  142 1  
@<TRIPOS>SUBSTRUCTURE
     1 ASP         1

