5bsk_ligand
  -I-interpret- 

 38 39  0  0  0  0  0  0  0  0999 V2000
    4.3060  -27.0920   -5.6090 C   0  0  0  0  0
    5.6590  -27.3940   -5.8170 C   0  0  0  0  0
    6.3010  -26.8820   -6.9280 C   0  0  0  0  0
    4.9740  -28.3980   -3.9300 C   0  0  0  0  0
    5.5830  -26.1000   -7.7800 N   0  0  0  0  0
    3.5520  -24.9870   -8.4870 N   0  0  0  0  0
    3.6320  -26.2730   -6.5410 N   0  0  0  0  0
    4.1770  -31.7990   -0.6990 O   0  0  0  0  0
    3.1180  -32.6280   -1.3110 P   0  0  0  0  0
    1.8950  -32.6470   -0.3740 O   0  0  0  0  0
    3.6200  -34.0190   -1.5040 O   0  0  0  0  0
    2.6400  -31.9370   -2.9450 C   0  0  0  0  0
    2.5150  -30.4380   -2.8750 C   0  0  0  0  0
    2.0960  -29.9660   -4.1560 O   0  0  0  0  0
    1.5960  -28.7010   -4.3010 C   0  0  0  0  0
    1.2100  -28.5110   -5.7460 C   0  0  0  0  0
    0.4050  -29.4850   -6.3220 O   0  0  0  0  0
    2.6110  -27.6920   -3.8370 C   0  0  0  0  0
    3.9200  -27.7350   -4.4260 N   0  0  0  0  0
    4.2420  -25.8090   -7.5630 C   0  0  0  0  0
    7.6190  -27.1500   -7.1710 O   0  0  0  0  0
    6.0490  -28.2000   -4.7690 N   0  0  0  0  0
    4.9798  -28.9934   -3.0170 H   0  0  0  0  0
    6.0444  -25.7153   -8.6043 H   0  0  0  0  0
    2.5678  -24.7654   -8.3365 H   0  0  0  0  0
    4.0392  -24.6166   -9.3030 H   0  0  0  0  0
    1.2020  -33.1841   -0.7650 H   0  0  0  0  0
    2.9298  -34.5548   -1.9017 H   0  0  0  0  0
    1.6773  -32.3570   -3.2365 H   0  0  0  0  0
    3.4096  -32.1921   -3.6735 H   0  0  0  0  0
    3.4735  -29.9938   -2.6066 H   0  0  0  0  0
    1.7858  -30.1575   -2.1149 H   0  0  0  0  0
    0.7084  -28.5560   -3.6852 H   0  0  0  0  0
    2.1446  -28.5303   -6.3066 H   0  0  0  0  0
    0.6282  -27.5898   -5.7779 H   0  0  0  0  0
    0.2295  -29.2535   -7.2370 H   0  0  0  0  0
    2.7629  -27.8998   -2.7778 H   0  0  0  0  0
    2.2009  -26.7205   -4.1129 H   0  0  0  0  0
  1  2  4  0  0  0
  1  7  1  0  0  0
 19  1  4  0  0  0
  2  3  1  0  0  0
 22  2  4  0  0  0
  3  5  1  0  0  0
  3 21  2  0  0  0
 19  4  4  0  0  0
  4 22  4  0  0  0
 20  5  1  0  0  0
 20  6  1  0  0  0
  7 20  2  0  0  0
  9  8  2  0  0  0
  9 10  1  0  0  0
  9 11  1  0  0  0
 12  9  1  0  0  0
 13 12  1  0  0  0
 14 13  1  0  0  0
 15 14  1  0  0  0
 15 16  1  0  0  0
 18 15  1  0  0  0
 16 17  1  0  0  0
 18 19  1  0  0  0
  4 23  1  0  0  0
  5 24  1  0  0  0
  6 25  1  0  0  0
  6 26  1  0  0  0
 10 27  1  0  0  0
 11 28  1  0  0  0
 12 29  1  0  0  0
 12 30  1  0  0  0
 13 31  1  0  0  0
 13 32  1  0  0  0
 15 33  1  0  0  0
 16 34  1  0  0  0
 16 35  1  0  0  0
 17 36  1  0  0  0
 18 37  1  0  0  0
 18 38  1  0  0  0
M  END
$$$$
