### 
### Created by X-TOOL on Mon Sep 10 21:13:24 2018
### 

@<TRIPOS>MOLECULE
5bsk_ligand
   36    37     1     0     0
SMALL
GAST_HUCK


@<TRIPOS>ATOM
      1 C4          4.3060  -27.0920   -5.6090 C.2       1 4X7         0.1135
      2 C5          5.6590  -27.3940   -5.8170 C.2       1 4X7         0.0925
      3 C6          6.3010  -26.8820   -6.9280 C.2       1 4X7         0.2135
      4 C8          4.9740  -28.3980   -3.9300 C.2       1 4X7         0.0933
      5 N1          5.5830  -26.1000   -7.7800 N.am      1 4X7        -0.1839
      6 N2          3.5520  -24.9870   -8.4870 N.pl3     1 4X7        -0.2807
      7 N3          3.6320  -26.2730   -6.5410 N.2       1 4X7        -0.2765
      8 OAE         4.1770  -31.7990   -0.6990 O.co2     1 4X7        -0.5622
      9 PAV         3.1180  -32.6280   -1.3110 P.3       1 4X7         0.0600
     10 OAF         1.8950  -32.6470   -0.3740 O.co2     1 4X7        -0.5622
     11 OAC         3.6200  -34.0190   -1.5040 O.co2     1 4X7        -0.5622
     12 CAJ         2.6400  -31.9370   -2.9450 C.3       1 4X7         0.0430
     13 CAI         2.5150  -30.4380   -2.8750 C.3       1 4X7         0.0631
     14 OAO         2.0960  -29.9660   -4.1560 O.3       1 4X7        -0.3701
     15 CAT         1.5960  -28.7010   -4.3010 C.3       1 4X7         0.1091
     16 CAH         1.2100  -28.5110   -5.7460 C.3       1 4X7         0.0730
     17 OAD         0.4050  -29.4850   -6.3220 O.3       1 4X7        -0.3924
     18 CAK         2.6110  -27.6920   -3.8370 C.3       1 4X7         0.0867
     19 N9          3.9200  -27.7350   -4.4260 N.pl3     1 4X7        -0.2365
     20 C2          4.2420  -25.8090   -7.5630 C.2       1 4X7         0.2340
     21 O6          7.6190  -27.1500   -7.1710 O.2       1 4X7        -0.4091
     22 N7          6.0490  -28.2000   -4.7690 N.2       1 4X7        -0.3236
     23 H1          4.9798  -28.9928   -3.0178 H         1 4X7         0.1178
     24 H2          6.0354  -25.7228   -8.5881 H         1 4X7         0.2515
     25 H3          2.5577  -24.7648   -8.3361 H         1 4X7         0.1897
     26 H4          4.0445  -24.6114   -9.3100 H         1 4X7         0.1897
     27 H5          1.6738  -32.3657   -3.2493 H         1 4X7         0.0474
     28 H6          3.4081  -32.2007   -3.6869 H         1 4X7         0.0474
     29 H7          3.4875  -29.9948   -2.6145 H         1 4X7         0.0574
     30 H8          1.7703  -30.1613   -2.1142 H         1 4X7         0.0574
     31 H9          0.6947  -28.5952   -3.6793 H         1 4X7         0.0647
     32 H10         2.1391  -28.4605   -6.3327 H         1 4X7         0.0584
     33 H11         0.6755  -27.5526   -5.8223 H         1 4X7         0.0584
     34 H12         0.8497  -30.3237   -6.2861 H         1 4X7         0.2095
     35 H13         2.7354  -27.8276   -2.7525 H         1 4X7         0.0642
     36 H14         2.1949  -26.6935   -4.0364 H         1 4X7         0.0642
@<TRIPOS>BOND
     1    1    2 2  
     2    1    7 1  
     3   19    1 1  
     4    2    3 1  
     5   22    2 1  
     6    3    5 am 
     7    3   21 2  
     8   19    4 1  
     9    4   22 2  
    10   20    5 am 
    11   20    6 1  
    12    7   20 2  
    13    9    8 ar 
    14    9   10 ar 
    15    9   11 ar 
    16   12    9 1  
    17   13   12 1  
    18   14   13 1  
    19   15   14 1  
    20   15   16 1  
    21   18   15 1  
    22   16   17 1  
    23   18   19 1  
    24    4   23 1  
    25    5   24 1  
    26    6   25 1  
    27    6   26 1  
    28   12   27 1  
    29   12   28 1  
    30   13   29 1  
    31   13   30 1  
    32   15   31 1  
    33   16   32 1  
    34   16   33 1  
    35   17   34 1  
    36   18   35 1  
    37   18   36 1  
@<TRIPOS>SUBSTRUCTURE
     1 4X7         1

