1q6s_ligand
  -I-interpret- 

 84 90  0  0  0  0  0  0  0  0999 V2000
   37.4960   50.1540   55.1850 C   0  0  0  0  0
   38.8430   49.9120   54.8350 C   0  0  0  0  0
   39.1990   48.7860   54.0700 C   0  0  0  0  0
   38.1990   47.8570   53.6340 C   0  0  0  0  0
   36.8250   48.1320   54.0150 C   0  0  0  0  0
   36.4770   49.2680   54.7850 C   0  0  0  0  0
   36.9200   47.2810   49.6020 C   0  0  0  0  0
   37.7920   47.9030   50.5060 C   0  0  0  0  0
   37.6500   49.3180   50.7100 C   0  0  0  0  0
   36.6570   50.0710   50.0420 C   0  0  0  0  0
   35.7900   49.3990   49.1420 C   0  0  0  0  0
   35.9390   47.9980   48.9350 C   0  0  0  0  0
   38.3160   43.2940   52.1410 C   0  0  0  0  0
   37.3620   44.3190   51.9020 C   0  0  0  0  0
   36.4180   44.1010   50.8580 C   0  0  0  0  0
   36.4310   42.9150   50.1000 C   0  0  0  0  0
   37.3790   41.8930   50.3430 C   0  0  0  0  0
   38.3210   42.1000   51.3730 C   0  0  0  0  0
   38.5530   46.6010   52.7380 C   0  0  0  0  0
   39.7430   45.8830   53.3160 N   0  0  0  0  0
   37.3170   45.6190   52.7100 C   0  0  0  0  0
   38.8610   47.1530   51.2860 C   0  0  0  0  0
   41.1210   44.5440   57.0550 C   0  0  0  0  0
   41.8050   44.4020   55.8190 C   0  0  0  0  0
   41.2280   44.8830   54.6630 C   0  0  0  0  0
   39.9470   45.5560   54.6830 C   0  0  0  0  0
   39.2630   45.6850   55.9180 C   0  0  0  0  0
   39.8530   45.1910   57.1070 C   0  0  0  0  0
   41.5840   44.9300   53.3390 N   0  0  0  0  0
   40.7490   45.5070   52.4800 N   0  0  0  0  0
   34.6930   50.0860   48.4190 C   0  0  0  0  0
   34.2760   51.1810   49.0980 F   0  0  0  0  0
   33.6550   49.2170   48.3140 F   0  0  0  0  0
   35.2360   50.6020   46.7170 P   0  0  0  0  0
   35.7220   49.3790   45.9240 O   0  0  0  0  0
   36.3200   51.5660   46.8170 O   0  0  0  0  0
   33.9980   51.2100   46.0620 O   0  0  0  0  0
   38.7510   40.0340   49.2760 C   0  0  0  0  0
   40.0030   36.9200   47.4640 C   0  0  0  0  0
   38.7790   35.0630   46.3870 C   0  0  0  0  0
   40.0190   38.1380   48.1740 C   0  0  0  0  0
   38.7880   38.7910   48.5710 C   0  0  0  0  0
   37.5320   38.1310   48.2440 C   0  0  0  0  0
   37.5880   36.9430   47.5480 N   0  0  0  0  0
   38.7500   36.3490   47.1630 C   0  0  0  0  0
   37.4910   40.6050   49.6290 C   0  0  0  0  0
   36.2580   39.9340   49.3030 C   0  0  0  0  0
   36.2820   38.6940   48.6060 C   0  0  0  0  0
   34.7410   37.8130   48.2180 P   0  0  0  0  0
   34.4720   36.9860   49.4580 O   0  0  0  0  0
   34.8820   36.9220   47.0610 O   0  0  0  0  0
   33.5580   38.7690   48.0350 O   0  0  0  0  0
   37.2423   51.0370   55.7716 H   0  0  0  0  0
   39.6168   50.6067   55.1618 H   0  0  0  0  0
   40.2436   48.6191   53.8070 H   0  0  0  0  0
   36.0399   47.4449   53.6995 H   0  0  0  0  0
   35.4395   49.4534   55.0631 H   0  0  0  0  0
   37.0153   46.2106   49.4196 H   0  0  0  0  0
   38.3262   49.8249   51.3985 H   0  0  0  0  0
   36.5598   51.1429   50.2144 H   0  0  0  0  0
   35.2729   47.4827   48.2430 H   0  0  0  0  0
   39.0578   43.4267   52.9285 H   0  0  0  0  0
   35.6723   44.8661   50.6422 H   0  0  0  0  0
   35.6942   42.7808   49.3080 H   0  0  0  0  0
   39.0644   41.3308   51.5823 H   0  0  0  0  0
   37.2207   45.2853   53.7432 H   0  0  0  0  0
   36.5280   46.2001   52.2326 H   0  0  0  0  0
   39.6496   47.8897   51.4393 H   0  0  0  0  0
   39.0505   46.2588   50.6922 H   0  0  0  0  0
   41.5689   44.1556   57.9697 H   0  0  0  0  0
   42.7800   43.9159   55.7843 H   0  0  0  0  0
   38.2844   46.1637   55.9524 H   0  0  0  0  0
   39.3375   45.3057   58.0605 H   0  0  0  0  0
   35.0092   48.7396   45.8554 H   0  0  0  0  0
   33.3052   50.5472   46.0129 H   0  0  0  0  0
   39.6779   40.5421   49.5421 H   0  0  0  0  0
   40.9300   36.4354   47.1576 H   0  0  0  0  0
   39.2735   35.2288   45.4299 H   0  0  0  0  0
   39.3260   34.3100   46.9544 H   0  0  0  0  0
   37.7585   34.7204   46.2157 H   0  0  0  0  0
   40.9745   38.5966   48.4288 H   0  0  0  0  0
   35.3049   40.3775   49.5911 H   0  0  0  0  0
   34.3796   37.5682   50.2157 H   0  0  0  0  0
   33.4875   39.3398   48.8036 H   0  0  0  0  0
  2  1  4  0  0  0
  6  1  4  0  0  0
  3  2  4  0  0  0
  4  3  4  0  0  0
  4  5  4  0  0  0
 19  4  1  0  0  0
  5  6  4  0  0  0
  8  7  4  0  0  0
  7 12  4  0  0  0
  8  9  4  0  0  0
 22  8  1  0  0  0
  9 10  4  0  0  0
 10 11  4  0  0  0
 12 11  4  0  0  0
 11 31  1  0  0  0
 13 14  4  0  0  0
 18 13  4  0  0  0
 15 14  4  0  0  0
 14 21  1  0  0  0
 16 15  4  0  0  0
 17 16  4  0  0  0
 17 18  4  0  0  0
 46 17  1  0  0  0
 19 20  1  0  0  0
 21 19  1  0  0  0
 19 22  1  0  0  0
 20 26  4  0  0  0
 20 30  4  0  0  0
 24 23  4  0  0  0
 28 23  4  0  0  0
 25 24  4  0  0  0
 26 25  4  0  0  0
 29 25  4  0  0  0
 26 27  4  0  0  0
 27 28  4  0  0  0
 30 29  4  0  0  0
 31 32  1  0  0  0
 31 33  1  0  0  0
 31 34  1  0  0  0
 34 35  1  0  0  0
 34 36  2  0  0  0
 34 37  1  0  0  0
 42 38  4  0  0  0
 38 46  4  0  0  0
 41 39  4  0  0  0
 39 45  4  0  0  0
 45 40  1  0  0  0
 41 42  4  0  0  0
 42 43  4  0  0  0
 43 44  4  0  0  0
 43 48  4  0  0  0
 44 45  4  0  0  0
 46 47  4  0  0  0
 47 48  4  0  0  0
 48 49  1  0  0  0
 49 50  1  0  0  0
 49 51  2  0  0  0
 49 52  1  0  0  0
  1 53  1  0  0  0
  2 54  1  0  0  0
  3 55  1  0  0  0
  5 56  1  0  0  0
  6 57  1  0  0  0
  7 58  1  0  0  0
  9 59  1  0  0  0
 10 60  1  0  0  0
 12 61  1  0  0  0
 13 62  1  0  0  0
 15 63  1  0  0  0
 16 64  1  0  0  0
 18 65  1  0  0  0
 21 66  1  0  0  0
 21 67  1  0  0  0
 22 68  1  0  0  0
 22 69  1  0  0  0
 23 70  1  0  0  0
 24 71  1  0  0  0
 27 72  1  0  0  0
 28 73  1  0  0  0
 35 74  1  0  0  0
 37 75  1  0  0  0
 38 76  1  0  0  0
 39 77  1  0  0  0
 40 78  1  0  0  0
 40 79  1  0  0  0
 40 80  1  0  0  0
 41 81  1  0  0  0
 47 82  1  0  0  0
 50 83  1  0  0  0
 52 84  1  0  0  0
M  END
$$$$
