### 
### Created by X-TOOL on Mon Sep 10 21:12:50 2018
### 

@<TRIPOS>MOLECULE
1q6s_ligand
   80    86     1     0     0
SMALL
GAST_HUCK


@<TRIPOS>ATOM
      1 C1         37.4960   50.1540   55.1850 C.ar      1 214        -0.0340
      2 C2         38.8430   49.9120   54.8350 C.ar      1 214        -0.0323
      3 C3         39.1990   48.7860   54.0700 C.ar      1 214        -0.0362
      4 C4         38.1990   47.8570   53.6340 C.ar      1 214        -0.0104
      5 C5         36.8250   48.1320   54.0150 C.ar      1 214        -0.0362
      6 C6         36.4770   49.2680   54.7850 C.ar      1 214        -0.0323
      7 C10        36.9200   47.2810   49.6020 C.ar      1 214        -0.0289
      8 C11        37.7920   47.9030   50.5060 C.ar      1 214        -0.0160
      9 C12        37.6500   49.3180   50.7100 C.ar      1 214        -0.0289
     10 C13        36.6570   50.0710   50.0420 C.ar      1 214        -0.0385
     11 C14        35.7900   49.3990   49.1420 C.ar      1 214         0.0219
     12 C15        35.9390   47.9980   48.9350 C.ar      1 214        -0.0385
     13 C20        38.3160   43.2940   52.1410 C.ar      1 214        -0.0435
     14 C21        37.3620   44.3190   51.9020 C.ar      1 214        -0.0296
     15 C22        36.4180   44.1010   50.8580 C.ar      1 214        -0.0435
     16 C23        36.4310   42.9150   50.1000 C.ar      1 214        -0.0419
     17 C24        37.3790   41.8930   50.3430 C.ar      1 214         0.0066
     18 C25        38.3210   42.1000   51.3730 C.ar      1 214        -0.0419
     19 C30        38.5530   46.6010   52.7380 C.3       1 214         0.1140
     20 N31        39.7430   45.8830   53.3160 N.pl3     1 214        -0.1787
     21 C32        37.3170   45.6190   52.7100 C.3       1 214         0.0038
     22 C35        38.8610   47.1530   51.2860 C.3       1 214         0.0102
     23 C40        41.1210   44.5440   57.0550 C.ar      1 214        -0.0707
     24 C41        41.8050   44.4020   55.8190 C.ar      1 214        -0.0506
     25 C42        41.2280   44.8830   54.6630 C.ar      1 214         0.0753
     26 C43        39.9470   45.5560   54.6830 C.ar      1 214         0.1061
     27 C44        39.2630   45.6850   55.9180 C.ar      1 214        -0.0323
     28 C45        39.8530   45.1910   57.1070 C.ar      1 214        -0.0695
     29 N46        41.5840   44.9300   53.3390 N.2       1 214        -0.2001
     30 N47        40.7490   45.5070   52.4800 N.2       1 214        -0.0826
     31 C52        34.6930   50.0860   48.4190 C.3       1 214         0.2931
     32 F53        34.2760   51.1810   49.0980 F         1 214        -0.2419
     33 F54        33.6550   49.2170   48.3140 F         1 214        -0.2419
     34 P55        35.2360   50.6020   46.7170 P.3       1 214         0.0966
     35 O56        35.7220   49.3790   45.9240 O.co2     1 214        -0.5668
     36 O57        36.3200   51.5660   46.8170 O.co2     1 214        -0.5668
     37 O58        33.9980   51.2100   46.0620 O.co2     1 214        -0.5668
     38 C61        38.7510   40.0340   49.2760 C.ar      1 214        -0.0051
     39 C62        40.0030   36.9200   47.4640 C.ar      1 214        -0.0126
     40 C71        38.7790   35.0630   46.3870 C.3       1 214        -0.0067
     41 C63        40.0190   38.1380   48.1740 C.ar      1 214        -0.0202
     42 C64        38.7880   38.7910   48.5710 C.ar      1 214         0.0368
     43 C65        37.5320   38.1310   48.2440 C.ar      1 214         0.0816
     44 N66        37.5880   36.9430   47.5480 N.ar      1 214        -0.2723
     45 C67        38.7500   36.3490   47.1630 C.ar      1 214         0.0440
     46 C68        37.4910   40.6050   49.6290 C.ar      1 214         0.0239
     47 C69        36.2580   39.9340   49.3030 C.ar      1 214        -0.0102
     48 C70        36.2820   38.6940   48.6060 C.ar      1 214         0.0530
     49 P79        34.7410   37.8130   48.2180 P.3       1 214        -0.0233
     50 O80        34.4720   36.9860   49.4580 O.co2     1 214        -0.6789
     51 O81        34.8820   36.9220   47.0610 O.co2     1 214        -0.6789
     52 O82        33.5580   38.7690   48.0350 O.co2     1 214        -0.6789
     53 H1         37.2437   51.0321   55.7684 H         1 214         0.0856
     54 H2         39.6125   50.6028   55.1600 H         1 214         0.0698
     55 H3         40.2378   48.6201   53.8085 H         1 214         0.0851
     56 H4         36.0442   47.4487   53.7012 H         1 214         0.0851
     57 H5         35.4452   49.4524   55.0616 H         1 214         0.0698
     58 H6         37.0148   46.2165   49.4206 H         1 214         0.0652
     59 H7         38.3224   49.8221   51.3947 H         1 214         0.0652
     60 H8         36.5603   51.1370   50.2135 H         1 214         0.0835
     61 H9         35.2766   47.4855   48.2468 H         1 214         0.0835
     62 H10        39.0537   43.4259   52.9242 H         1 214         0.0618
     63 H11        35.6764   44.8619   50.6434 H         1 214         0.0618
     64 H12        35.6983   42.7816   49.3124 H         1 214         0.0695
     65 H13        39.0603   41.3351   51.5812 H         1 214         0.0695
     66 H14        37.1216   45.3321   53.7538 H         1 214         0.0413
     67 H15        36.4657   46.1985   52.3234 H         1 214         0.0413
     68 H16        39.7184   47.8352   51.3828 H         1 214         0.0439
     69 H17        39.1494   46.2862   50.6732 H         1 214         0.0439
     70 H18        41.5664   44.1577   57.9647 H         1 214         0.0540
     71 H19        42.7746   43.9185   55.7845 H         1 214         0.0596
     72 H20        38.2897   46.1611   55.9523 H         1 214         0.0566
     73 H21        39.3404   45.3051   58.0553 H         1 214         0.0580
     74 H22        39.6728   40.5393   49.5406 H         1 214         0.0939
     75 H23        40.9249   36.4381   47.1593 H         1 214         0.0708
     76 H24        37.7496   34.7162   46.2134 H         1 214         0.0463
     77 H25        39.3307   34.3022   46.9586 H         1 214         0.0463
     78 H26        39.2778   35.2289   45.4207 H         1 214         0.0463
     79 H27        40.9692   38.5940   48.4274 H         1 214         0.0883
     80 H28        35.3101   40.3751   49.5895 H         1 214         0.0754
@<TRIPOS>BOND
     1    2    1 ar 
     2    6    1 ar 
     3    3    2 ar 
     4    4    3 ar 
     5    4    5 ar 
     6   19    4 1  
     7    5    6 ar 
     8    8    7 ar 
     9    7   12 ar 
    10    8    9 ar 
    11   22    8 1  
    12    9   10 ar 
    13   10   11 ar 
    14   12   11 ar 
    15   11   31 1  
    16   13   14 ar 
    17   18   13 ar 
    18   15   14 ar 
    19   14   21 1  
    20   16   15 ar 
    21   17   16 ar 
    22   17   18 ar 
    23   46   17 1  
    24   19   20 1  
    25   21   19 1  
    26   19   22 1  
    27   20   26 1  
    28   20   30 1  
    29   24   23 ar 
    30   28   23 ar 
    31   25   24 ar 
    32   26   25 ar 
    33   29   25 1  
    34   26   27 ar 
    35   27   28 ar 
    36   30   29 2  
    37   31   32 1  
    38   31   33 1  
    39   31   34 1  
    40   34   35 ar 
    41   34   36 ar 
    42   34   37 ar 
    43   42   38 ar 
    44   38   46 ar 
    45   41   39 ar 
    46   39   45 ar 
    47   45   40 1  
    48   41   42 ar 
    49   42   43 ar 
    50   43   44 ar 
    51   43   48 ar 
    52   44   45 ar 
    53   46   47 ar 
    54   47   48 ar 
    55   48   49 1  
    56   49   50 ar 
    57   49   51 ar 
    58   49   52 ar 
    59    1   53 1  
    60    2   54 1  
    61    3   55 1  
    62    5   56 1  
    63    6   57 1  
    64    7   58 1  
    65    9   59 1  
    66   10   60 1  
    67   12   61 1  
    68   13   62 1  
    69   15   63 1  
    70   16   64 1  
    71   18   65 1  
    72   21   66 1  
    73   21   67 1  
    74   22   68 1  
    75   22   69 1  
    76   23   70 1  
    77   24   71 1  
    78   27   72 1  
    79   28   73 1  
    80   38   74 1  
    81   39   75 1  
    82   40   76 1  
    83   40   77 1  
    84   40   78 1  
    85   41   79 1  
    86   47   80 1  
@<TRIPOS>SUBSTRUCTURE
     1 214         1

