6bil_ligand
  -I-interpret- 

187188  0  0  0  0  0  0  0  0999 V2000
   49.6770    7.8070    3.7870 N   0  3  0  0  0
   49.1280    8.6290    2.7290 C   0  0  0  0  0
   49.1280   10.1080    3.0600 C   0  0  0  0  0
   48.3050   10.5900    3.8430 O   0  0  0  0  0
   50.0670   10.8250    2.4540 N   0  0  0  0  0
   50.2110   12.2490    2.6520 C   0  0  0  0  0
   50.0070   12.9890    1.3350 C   0  0  0  0  0
   50.6570   12.6820    0.3330 O   0  0  0  0  0
   49.0860   13.9460    1.3630 N   0  0  0  0  0
   48.8340   14.7840    0.2020 C   0  0  0  0  0
   50.0450   15.6590   -0.0970 C   0  0  0  0  0
   50.7720   16.0870    0.8050 O   0  0  0  0  0
   47.6010   15.6560    0.4340 C   0  0  0  0  0
   46.2840   14.9660    0.1500 C   0  0  0  0  0
   45.8890   14.7000   -1.1530 C   0  0  0  0  0
   45.4270   14.5990    1.1820 C   0  0  0  0  0
   44.6860   14.0770   -1.4240 C   0  0  0  0  0
   44.2180   13.9760    0.9200 C   0  0  0  0  0
   43.8530   13.7170   -0.3840 C   0  0  0  0  0
   42.6520   13.0980   -0.6450 O   0  0  0  0  0
   50.2590   15.9170   -1.3810 N   0  0  0  0  0
   51.3610   16.7380   -1.8530 C   0  0  0  0  0
   50.8170   18.0080   -2.4900 C   0  0  0  0  0
   49.8430   17.9660   -3.2480 O   0  0  0  0  0
   52.2230   15.9770   -2.8630 C   0  0  0  0  0
   52.9990   14.8190   -2.2660 C   0  0  0  0  0
   53.7900   14.0800   -3.3320 C   0  0  0  0  0
   54.5980   13.0070   -2.7610 N   0  0  0  0  0
   55.2390   12.0910   -3.4800 C   0  0  0  0  0
   55.1650   12.1130   -4.8040 N   0  0  0  0  0
   55.9520   11.1510   -2.8750 N   0  0  0  0  0
   51.4470   19.1330   -2.1700 N   0  0  0  0  0
   51.0650   20.4210   -2.7340 C   0  0  0  0  0
   52.0200   20.8060   -3.8570 C   0  0  0  0  0
   53.1090   20.2450   -3.9750 O   0  0  0  0  0
   51.0480   21.4930   -1.6550 C   0  0  0  0  0
   52.4510   22.9670   -5.9820 C   0  0  0  0  0
   51.9210   23.6720   -5.0890 O   0  0  0  0  0
   52.0500   21.5460   -6.1240 C   0  0  0  0  0
   51.3310   21.1370   -4.9450 N   0  0  0  0  0
   51.1610   21.4060   -7.3190 C   0  0  0  0  0
   51.8820   21.8990   -8.5550 C   0  0  0  0  0
   52.3270   20.7100   -9.3730 C   0  0  0  0  0
   53.3220   19.9510   -8.6330 N   0  0  0  0  0
   54.7210   20.1580   -8.8980 C   0  0  0  0  0
   55.0660   20.9680   -9.7420 O   0  0  0  0  0
   55.7130   19.4090   -8.1670 N   0  0  0  0  0
   53.7400   23.3110   -5.9420 N   0  3  0  0  0
   54.2230   24.6150   -5.4740 C   0  0  0  0  0
   53.8910   25.7430   -6.4430 C   0  0  0  0  0
   53.9130   25.5350   -7.6560 O   0  0  0  0  0
   55.7410   24.4190   -5.3810 C   0  0  0  0  0
   55.9340   22.9460   -5.2740 C   0  0  0  0  0
   54.8350   22.3380   -6.0870 C   0  0  0  0  0
   53.5810   26.9210   -5.9110 N   0  0  0  0  0
   53.4220   28.0920   -6.7550 C   0  0  0  0  0
   54.7880   28.5920   -7.2130 C   0  0  0  0  0
   55.8180   28.3350   -6.5820 O   0  0  0  0  0
   52.6750   29.1990   -6.0110 C   0  0  0  0  0
   54.7940   29.3120   -8.3300 N   0  0  0  0  0
   56.0230   29.8360   -8.9040 C   0  0  0  0  0
   55.9790   31.3570   -8.9270 C   0  0  0  0  0
   54.9660   31.9540   -9.3050 O   0  0  0  0  0
   56.2550   29.2930  -10.3180 C   0  0  0  0  0
   57.6600   29.5480  -10.8360 C   0  0  0  0  0
   58.6990   29.1560   -9.7930 C   0  0  0  0  0
   60.0990   29.5560  -10.2220 C   0  0  0  0  0
   60.2030   31.0210  -10.4800 N   0  3  0  0  0
   57.0850   31.9760   -8.5190 N   0  0  0  0  0
   57.1640   33.4290   -8.4620 C   0  0  0  0  0
   57.1470   34.0180   -9.8670 C   0  0  0  0  0
   57.8940   33.5790  -10.7470 O   0  0  0  0  0
   58.4260   33.8630   -7.7190 C   0  0  0  0  0
   56.2950   35.0200  -10.0730 N   0  0  0  0  0
   56.1270   35.6200  -11.3850 C   0  0  0  0  0
   57.3510   36.4540  -11.7590 C   0  0  0  0  0
   58.2210   36.7460  -10.9340 O   0  0  0  0  0
   54.8680   36.4860  -11.4200 C   0  0  0  0  0
   57.4110   36.8390  -13.0310 N   0  0  0  0  0
   58.4760   37.7170  -13.4920 C   0  0  0  0  0
   58.2200   39.1450  -13.0260 C   0  0  0  0  0
   57.0810   39.6200  -13.0240 O   0  0  0  0  0
   58.5860   37.6680  -15.0160 C   0  0  0  0  0
   59.2880   39.8280  -12.6280 N   0  0  0  0  0
   59.1800   41.1890  -12.1130 C   0  0  0  0  0
   59.6420   42.2170  -13.1430 C   0  0  0  0  0
   60.2960   41.8760  -14.1290 O   0  0  0  0  0
   60.0030   41.3680  -10.8220 C   0  0  0  0  0
   61.4010   41.3000  -11.1280 O   0  0  0  0  0
   59.6620   40.2760   -9.8230 C   0  0  0  0  0
   59.3710   43.4110  -13.0120 O   0  0  0  0  0
   49.6489    6.8274    3.5042 H   0  0  0  0  0
   50.6427    8.0834    3.9643 H   0  0  0  0  0
   49.1248    7.9332    4.6353 H   0  0  0  0  0
   48.0923    8.3245    2.5782 H   0  0  0  0  0
   49.7504    8.4886    1.8453 H   0  0  0  0  0
   50.7131   10.3511    1.8229 H   0  0  0  0  0
   51.2136   12.4569    3.0256 H   0  0  0  0  0
   49.4629   12.5862    3.3694 H   0  0  0  0  0
   48.5455   14.0956    2.2150 H   0  0  0  0  0
   48.6507   14.1372   -0.6560 H   0  0  0  0  0
   47.6735   16.5008   -0.2509 H   0  0  0  0  0
   47.5973   15.9301    1.4890 H   0  0  0  0  0
   46.5400   14.9879   -1.9785 H   0  0  0  0  0
   45.7114   14.8050    2.2139 H   0  0  0  0  0
   44.3961   13.8707   -2.4543 H   0  0  0  0  0
   43.5588   13.6921    1.7403 H   0  0  0  0  0
   42.1998   12.9175    0.1824 H   0  0  0  0  0
   49.6194   15.5201   -2.0693 H   0  0  0  0  0
   51.9873   16.9958   -0.9989 H   0  0  0  0  0
   52.9521   16.6827   -3.2613 H   0  0  0  0  0
   51.5501   15.5617   -3.6132 H   0  0  0  0  0
   52.2925   14.1238   -1.8125 H   0  0  0  0  0
   53.6958   15.2120   -1.5256 H   0  0  0  0  0
   54.4585   14.7912   -3.8173 H   0  0  0  0  0
   53.0856   13.6400   -4.0379 H   0  0  0  0  0
   54.6758   12.9568   -1.7452 H   0  0  0  0  0
   55.6558   11.4080   -5.3540 H   0  0  0  0  0
   54.6173   12.8349   -5.2723 H   0  0  0  0  0
   56.0091   11.1302   -1.8568 H   0  0  0  0  0
   52.2226   19.0939   -1.5086 H   0  0  0  0  0
   50.0593   20.3368   -3.1458 H   0  0  0  0  0
   50.3300   21.2178   -0.8825 H   0  0  0  0  0
   52.0415   21.5797   -1.2151 H   0  0  0  0  0
   50.7604   22.4470   -2.0969 H   0  0  0  0  0
   52.0344   23.1783   -6.9668 H   0  0  0  0  0
   52.2837   24.5601   -5.1267 H   0  0  0  0  0
   52.9350   20.9220   -6.2482 H   0  0  0  0  0
   50.3116   21.1019   -4.9446 H   0  0  0  0  0
   50.2584   21.9982   -7.1680 H   0  0  0  0  0
   50.8966   20.3568   -7.4505 H   0  0  0  0  0
   52.7504   22.4893   -8.2626 H   0  0  0  0  0
   51.2117   22.5219   -9.1472 H   0  0  0  0  0
   52.7616   21.0583  -10.3100 H   0  0  0  0  0
   51.4676   20.0726   -9.5812 H   0  0  0  0  0
   53.0293   19.2741   -7.9284 H   0  0  0  0  0
   56.7045   19.5563   -8.3555 H   0  0  0  0  0
   55.4231   18.7319   -7.4614 H   0  0  0  0  0
   53.2440   23.4496   -6.8224 H   0  0  0  0  0
   53.7568   24.9058   -4.5326 H   0  0  0  0  0
   56.1644   24.9450   -4.5253 H   0  0  0  0  0
   56.2554   24.8317   -6.2489 H   0  0  0  0  0
   55.8946   22.6126   -4.2370 H   0  0  0  0  0
   56.9153   22.6444   -5.6404 H   0  0  0  0  0
   55.1194   22.1733   -7.1263 H   0  0  0  0  0
   54.5608   21.3392   -5.7474 H   0  0  0  0  0
   53.4538   27.0031   -4.9023 H   0  0  0  0  0
   52.8338   27.8123   -7.6290 H   0  0  0  0  0
   51.6886   28.8378   -5.7201 H   0  0  0  0  0
   53.2375   29.4802   -5.1207 H   0  0  0  0  0
   52.5682   30.0655   -6.6636 H   0  0  0  0  0
   53.9088   29.5030   -8.7994 H   0  0  0  0  0
   56.8541   29.5085   -8.2794 H   0  0  0  0  0
   55.5601   29.8031  -10.9851 H   0  0  0  0  0
   56.1067   28.2136  -10.2850 H   0  0  0  0  0
   57.7663   30.6101  -11.0569 H   0  0  0  0  0
   57.8185   28.9494  -11.7330 H   0  0  0  0  0
   58.6724   28.0733   -9.6701 H   0  0  0  0  0
   58.4636   29.6710   -8.8616 H   0  0  0  0  0
   60.3379   29.0281  -11.1452 H   0  0  0  0  0
   60.7894   29.3002   -9.4182 H   0  0  0  0  0
   61.1557   31.2481  -10.7648 H   0  0  0  0  0
   59.5538   31.2812  -11.2224 H   0  0  0  0  0
   59.9704   31.5323   -9.6286 H   0  0  0  0  0
   57.8940   31.4207   -8.2405 H   0  0  0  0  0
   56.2953   33.8024   -7.9198 H   0  0  0  0  0
   58.4025   33.4674   -6.7036 H   0  0  0  0  0
   59.3030   33.4787   -8.2398 H   0  0  0  0  0
   58.4700   34.9516   -7.6852 H   0  0  0  0  0
   55.7465   35.3752   -9.2898 H   0  0  0  0  0
   56.0200   34.8172  -12.1145 H   0  0  0  0  0
   53.9976   35.8686  -11.1981 H   0  0  0  0  0
   54.9525   37.2780  -10.6758 H   0  0  0  0  0
   54.7592   36.9269  -12.4109 H   0  0  0  0  0
   56.7030   36.5153  -13.6901 H   0  0  0  0  0
   59.4186   37.3735  -13.0659 H   0  0  0  0  0
   58.8055   36.6477  -15.3305 H   0  0  0  0  0
   57.6432   37.9908  -15.4576 H   0  0  0  0  0
   59.3874   38.3306  -15.3426 H   0  0  0  0  0
   60.2073   39.3895  -12.6839 H   0  0  0  0  0
   58.1254   41.3550  -11.8929 H   0  0  0  0  0
   59.7638   42.3393  -10.3891 H   0  0  0  0  0
   61.9097   41.4119  -10.3216 H   0  0  0  0  0
   58.6009   40.3271   -9.5789 H   0  0  0  0  0
   59.8896   39.3030  -10.2585 H   0  0  0  0  0
   60.2517   40.4170   -8.9172 H   0  0  0  0  0
   58.8620   43.5361  -12.2077 H   0  0  0  0  0
  2  1  1  0  0  0
  3  2  1  0  0  0
  3  4  2  0  0  0
  5  3  1  0  0  0
  6  5  1  0  0  0
  7  6  1  0  0  0
  7  8  2  0  0  0
  9  7  1  0  0  0
 10  9  1  0  0  0
 11 10  1  0  0  0
 10 13  1  0  0  0
 11 12  2  0  0  0
 21 11  1  0  0  0
 13 14  1  0  0  0
 14 15  4  0  0  0
 14 16  4  0  0  0
 15 17  4  0  0  0
 16 18  4  0  0  0
 17 19  4  0  0  0
 18 19  4  0  0  0
 19 20  1  0  0  0
 22 21  1  0  0  0
 23 22  1  0  0  0
 22 25  1  0  0  0
 23 24  2  0  0  0
 32 23  1  0  0  0
 25 26  1  0  0  0
 26 27  1  0  0  0
 27 28  1  0  0  0
 28 29  1  0  0  0
 29 30  1  0  0  0
 29 31  2  0  0  0
 33 32  1  0  0  0
 34 33  1  0  0  0
 33 36  1  0  0  0
 34 35  2  0  0  0
 40 34  1  0  0  0
 37 38  1  0  0  0
 39 37  1  0  0  0
 37 48  1  0  0  0
 39 40  1  0  0  0
 39 41  1  0  0  0
 41 42  1  0  0  0
 42 43  1  0  0  0
 43 44  1  0  0  0
 44 45  1  0  0  0
 45 46  2  0  0  0
 45 47  1  0  0  0
 48 49  1  0  0  0
 48 54  1  0  0  0
 49 50  1  0  0  0
 49 52  1  0  0  0
 50 51  2  0  0  0
 50 55  1  0  0  0
 52 53  1  0  0  0
 53 54  1  0  0  0
 55 56  1  0  0  0
 56 57  1  0  0  0
 56 59  1  0  0  0
 57 58  2  0  0  0
 57 60  1  0  0  0
 60 61  1  0  0  0
 61 62  1  0  0  0
 61 64  1  0  0  0
 62 63  2  0  0  0
 62 69  1  0  0  0
 64 65  1  0  0  0
 65 66  1  0  0  0
 66 67  1  0  0  0
 67 68  1  0  0  0
 69 70  1  0  0  0
 70 71  1  0  0  0
 70 73  1  0  0  0
 71 72  2  0  0  0
 71 74  1  0  0  0
 74 75  1  0  0  0
 75 76  1  0  0  0
 75 78  1  0  0  0
 76 77  2  0  0  0
 76 79  1  0  0  0
 79 80  1  0  0  0
 80 81  1  0  0  0
 80 83  1  0  0  0
 81 82  2  0  0  0
 81 84  1  0  0  0
 84 85  1  0  0  0
 85 86  1  0  0  0
 85 88  1  0  0  0
 86 87  2  0  0  0
 86 91  1  0  0  0
 88 89  1  0  0  0
 88 90  1  0  0  0
  1 92  1  0  0  0
  1 93  1  0  0  0
  1 94  1  0  0  0
  2 95  1  0  0  0
  2 96  1  0  0  0
  5 97  1  0  0  0
  6 98  1  0  0  0
  6 99  1  0  0  0
  9100  1  0  0  0
 10101  1  0  0  0
 13102  1  0  0  0
 13103  1  0  0  0
 15104  1  0  0  0
 16105  1  0  0  0
 17106  1  0  0  0
 18107  1  0  0  0
 20108  1  0  0  0
 21109  1  0  0  0
 22110  1  0  0  0
 25111  1  0  0  0
 25112  1  0  0  0
 26113  1  0  0  0
 26114  1  0  0  0
 27115  1  0  0  0
 27116  1  0  0  0
 28117  1  0  0  0
 30118  1  0  0  0
 30119  1  0  0  0
 31120  1  0  0  0
 32121  1  0  0  0
 33122  1  0  0  0
 36123  1  0  0  0
 36124  1  0  0  0
 36125  1  0  0  0
 37126  1  0  0  0
 38127  1  0  0  0
 39128  1  0  0  0
 40129  1  0  0  0
 41130  1  0  0  0
 41131  1  0  0  0
 42132  1  0  0  0
 42133  1  0  0  0
 43134  1  0  0  0
 43135  1  0  0  0
 44136  1  0  0  0
 47137  1  0  0  0
 47138  1  0  0  0
 48139  1  0  0  0
 49140  1  0  0  0
 52141  1  0  0  0
 52142  1  0  0  0
 53143  1  0  0  0
 53144  1  0  0  0
 54145  1  0  0  0
 54146  1  0  0  0
 55147  1  0  0  0
 56148  1  0  0  0
 59149  1  0  0  0
 59150  1  0  0  0
 59151  1  0  0  0
 60152  1  0  0  0
 61153  1  0  0  0
 64154  1  0  0  0
 64155  1  0  0  0
 65156  1  0  0  0
 65157  1  0  0  0
 66158  1  0  0  0
 66159  1  0  0  0
 67160  1  0  0  0
 67161  1  0  0  0
 68162  1  0  0  0
 68163  1  0  0  0
 68164  1  0  0  0
 69165  1  0  0  0
 70166  1  0  0  0
 73167  1  0  0  0
 73168  1  0  0  0
 73169  1  0  0  0
 74170  1  0  0  0
 75171  1  0  0  0
 78172  1  0  0  0
 78173  1  0  0  0
 78174  1  0  0  0
 79175  1  0  0  0
 80176  1  0  0  0
 83177  1  0  0  0
 83178  1  0  0  0
 83179  1  0  0  0
 84180  1  0  0  0
 85181  1  0  0  0
 88182  1  0  0  0
 89183  1  0  0  0
 90184  1  0  0  0
 90185  1  0  0  0
 90186  1  0  0  0
 91187  1  0  0  0
M  END
$$$$
