### 
### Created by X-TOOL on Wed Jan  1 15:39:36 2020
### 

@<TRIPOS>MOLECULE
6bil_ligand
  187   188     1     0     0
SMALL
GAST_HUCK


@<TRIPOS>ATOM
      1 N          49.6770    7.8070    3.7870 N.4       1 GLY         0.2357
      2 CA         49.1280    8.6290    2.7290 C.3       1 GLY         0.0545
      3 C          49.1280   10.1080    3.0600 C.2       1 GLY         0.2234
      4 O          48.3050   10.5900    3.8430 O.2       1 GLY        -0.3911
      5 N          50.0670   10.8250    2.4540 N.am      1 GLY        -0.2639
      6 CA         50.2110   12.2490    2.6520 C.3       1 GLY         0.1202
      7 C          50.0070   12.9890    1.3350 C.2       1 GLY         0.2009
      8 O          50.6570   12.6820    0.3330 O.2       1 GLY        -0.3947
      9 N          49.0860   13.9460    1.3630 N.am      1 TYR        -0.2624
     10 CA         48.8340   14.7840    0.2020 C.3       1 TYR         0.1390
     11 C          50.0450   15.6590   -0.0970 C.2       1 TYR         0.2057
     12 O          50.7720   16.0870    0.8050 O.2       1 TYR        -0.3942
     13 CB         47.6010   15.6560    0.4340 C.3       1 TYR         0.0163
     14 CG         46.2840   14.9660    0.1500 C.ar      1 TYR        -0.0493
     15 CD1        45.8890   14.7000   -1.1530 C.ar      1 TYR        -0.0685
     16 CD2        45.4270   14.5990    1.1820 C.ar      1 TYR        -0.0685
     17 CE1        44.6860   14.0770   -1.4240 C.ar      1 TYR        -0.0398
     18 CE2        44.2180   13.9760    0.9200 C.ar      1 TYR        -0.0398
     19 CZ         43.8530   13.7170   -0.3840 C.ar      1 TYR         0.0805
     20 OH         42.6520   13.0980   -0.6450 O.3       1 TYR        -0.3376
     21 N          50.2590   15.9170   -1.3810 N.am      1 ARG        -0.2636
     22 CA         51.3610   16.7380   -1.8530 C.3       1 ARG         0.1311
     23 C          50.8170   18.0080   -2.4900 C.2       1 ARG         0.2039
     24 O          49.8430   17.9660   -3.2480 O.2       1 ARG        -0.3944
     25 CB         52.2230   15.9770   -2.8630 C.3       1 ARG        -0.0092
     26 CG         52.9990   14.8190   -2.2660 C.3       1 ARG        -0.0156
     27 CD         53.7900   14.0800   -3.3320 C.3       1 ARG         0.0627
     28 NE         54.5980   13.0070   -2.7610 N.pl3     1 ARG        -0.2723
     29 CZ         55.2390   12.0910   -3.4800 C.cat     1 ARG         0.2882
     30 NH1        55.1650   12.1130   -4.8040 N.pl3     1 ARG        -0.2849
     31 NH2        55.9520   11.1510   -2.8750 N.pl3     1 ARG        -0.2849
     32 N          51.4470   19.1330   -2.1700 N.am      1 ALA        -0.2640
     33 CA         51.0650   20.4210   -2.7340 C.3       1 ALA         0.1281
     34 C          52.0200   20.8060   -3.8570 C.2       1 ALA         0.2019
     35 O          53.1090   20.2450   -3.9750 O.2       1 ALA        -0.3945
     36 CB         51.0480   21.4930   -1.6550 C.3       1 ALA        -0.0244
     37 C1         52.4510   22.9670   -5.9820 C.3       1 CIR         0.1075
     38 O1         51.9210   23.6720   -5.0890 O.3       1 CIR        -0.3506
     39 C2         52.0500   21.5460   -6.1240 C.3       1 CIR         0.1106
     40 N2         51.3310   21.1370   -4.9450 N.am      1 CIR        -0.2740
     41 C3         51.1610   21.4060   -7.3190 C.3       1 CIR        -0.0203
     42 C4         51.8820   21.8990   -8.5550 C.3       1 CIR        -0.0306
     43 C5         52.3270   20.7100   -9.3730 C.3       1 CIR         0.0313
     44 N6         53.3220   19.9510   -8.6330 N.am      1 CIR        -0.2733
     45 C7         54.7210   20.1580   -8.8980 C.2       1 CIR         0.2548
     46 O7         55.0660   20.9680   -9.7420 O.2       1 CIR        -0.4010
     47 N8         55.7130   19.4090   -8.1670 N.am      1 CIR        -0.2870
     48 N          53.7400   23.3110   -5.9420 N.4       1 PRO         0.2773
     49 CA         54.2230   24.6150   -5.4740 C.3       1 PRO         0.0714
     50 C          53.8910   25.7430   -6.4430 C.2       1 PRO         0.2269
     51 O          53.9130   25.5350   -7.6560 O.2       1 PRO        -0.3907
     52 CB         55.7410   24.4190   -5.3810 C.3       1 PRO         0.0129
     53 CG         55.9340   22.9460   -5.2740 C.3       1 PRO        -0.0051
     54 CD         54.8350   22.3380   -6.0870 C.3       1 PRO        -0.0268
     55 N          53.5810   26.9210   -5.9110 N.am      1 ALA        -0.2613
     56 CA         53.4220   28.0920   -6.7550 C.3       1 ALA         0.1283
     57 C          54.7880   28.5920   -7.2130 C.2       1 ALA         0.2036
     58 O          55.8180   28.3350   -6.5820 O.2       1 ALA        -0.3944
     59 CB         52.6750   29.1990   -6.0110 C.3       1 ALA        -0.0244
     60 N          54.7940   29.3120   -8.3300 N.am      1 LYS        -0.2637
     61 CA         56.0230   29.8360   -8.9040 C.3       1 LYS         0.1310
     62 C          55.9790   31.3570   -8.9270 C.2       1 LYS         0.2039
     63 O          54.9660   31.9540   -9.3050 O.2       1 LYS        -0.3944
     64 CB         56.2550   29.2930  -10.3180 C.3       1 LYS        -0.0122
     65 CG         57.6600   29.5480  -10.8360 C.3       1 LYS        -0.0440
     66 CD         58.6990   29.1560   -9.7930 C.3       1 LYS        -0.0124
     67 CE         60.0990   29.5560  -10.2220 C.3       1 LYS        -0.0354
     68 NZ         60.2030   31.0210  -10.4800 N.4       1 LYS         0.2185
     69 N          57.0850   31.9760   -8.5190 N.am      1 ALA        -0.2640
     70 CA         57.1640   33.4290   -8.4620 C.3       1 ALA         0.1282
     71 C          57.1470   34.0180   -9.8670 C.2       1 ALA         0.2036
     72 O          57.8940   33.5790  -10.7470 O.2       1 ALA        -0.3944
     73 CB         58.4260   33.8630   -7.7190 C.3       1 ALA        -0.0244
     74 N          56.2950   35.0200  -10.0730 N.am      1 ALA        -0.2640
     75 CA         56.1270   35.6200  -11.3850 C.3       1 ALA         0.1282
     76 C          57.3510   36.4540  -11.7590 C.2       1 ALA         0.2036
     77 O          58.2210   36.7460  -10.9340 O.2       1 ALA        -0.3944
     78 CB         54.8680   36.4860  -11.4200 C.3       1 ALA        -0.0244
     79 N          57.4110   36.8390  -13.0310 N.am      1 ALA        -0.2640
     80 CA         58.4760   37.7170  -13.4920 C.3       1 ALA         0.1282
     81 C          58.2200   39.1450  -13.0260 C.2       1 ALA         0.2031
     82 O          57.0810   39.6200  -13.0240 O.2       1 ALA        -0.3944
     83 CB         58.5860   37.6680  -15.0160 C.3       1 ALA        -0.0244
     84 N          59.2880   39.8280  -12.6280 N.am      1 THR        -0.2670
     85 CA         59.1800   41.1890  -12.1130 C.3       1 THR         0.1198
     86 C          59.6420   42.2170  -13.1430 C.2       1 THR         0.0626
     87 O          60.2960   41.8760  -14.1290 O.co2     1 THR        -0.5665
     88 CB         60.0030   41.3680  -10.8220 C.3       1 THR         0.0869
     89 OG1        61.4010   41.3000  -11.1280 O.3       1 THR        -0.3880
     90 CG2        59.6620   40.2760   -9.8230 C.3       1 THR        -0.0352
     91 OXT        59.3710   43.4110  -13.0120 O.co2     1 THR        -0.5665
     92 H1         49.6497    6.8386    3.5086 H         1 GLY         0.2012
     93 H2         49.1320    7.9309    4.6259 H         1 GLY         0.2012
     94 H3         50.6314    8.0792    3.9631 H         1 GLY         0.2012
     95 H4         48.0911    8.3126    2.5429 H         1 GLY         0.1061
     96 H5         49.7273    8.4745    1.8197 H         1 GLY         0.1061
     97 H6         50.7005   10.3604    1.8352 H         1 GLY         0.1882
     98 H7         51.2197   12.4620    3.0355 H         1 GLY         0.0763
     99 H8         49.4617   12.5918    3.3807 H         1 GLY         0.0763
    100 H9         48.5561   14.0927    2.1983 H         1 TYR         0.1885
    101 H10        48.6472   14.1341   -0.6656 H         1 TYR         0.0821
    102 H11        47.6753   16.5376   -0.2196 H         1 TYR         0.0453
    103 H12        47.6006   15.9783    1.4857 H         1 TYR         0.0453
    104 H13        46.5364   14.9863   -1.9739 H         1 TYR         0.0530
    105 H14        45.7098   14.8039    2.2082 H         1 TYR         0.0530
    106 H15        44.3977   13.8719   -2.4486 H         1 TYR         0.0525
    107 H16        43.5624   13.6936    1.7358 H         1 TYR         0.0525
    108 H17        42.5490   12.9919   -1.5835 H         1 TYR         0.2458
    109 H18        49.6320   15.5279   -2.0559 H         1 ARG         0.1883
    110 H19        51.9889   17.0121   -0.9924 H         1 ARG         0.0800
    111 H20        52.9415   16.6829   -3.3052 H         1 ARG         0.0313
    112 H21        51.5647   15.5821   -3.6508 H         1 ARG         0.0313
    113 H22        52.2934   14.1198   -1.7936 H         1 ARG         0.0301
    114 H23        53.6947   15.2065   -1.5072 H         1 ARG         0.0301
    115 H24        54.4544   14.7936   -3.8412 H         1 ARG         0.0689
    116 H25        53.0883   13.6481   -4.0607 H         1 ARG         0.0689
    117 H26        54.6765   12.9563   -1.7352 H         1 ARG         0.2642
    118 H27        55.6624   11.4024   -5.3595 H         1 ARG         0.2615
    119 H28        54.6102   12.8407   -5.2768 H         1 ARG         0.2615
    120 H29        56.0114   11.1313   -1.8469 H         1 ARG         0.2615
    121 H30        56.4465   10.4405   -3.4331 H         1 ARG         0.2615
    122 H31        52.2073   19.0946   -1.5216 H         1 ALA         0.1883
    123 H32        50.0515   20.3326   -3.1523 H         1 ALA         0.0797
    124 H33        50.7578   22.4563   -2.0998 H         1 ALA         0.0277
    125 H34        52.0502   21.5816   -1.2103 H         1 ALA         0.0277
    126 H35        50.3237   21.2165   -0.8747 H         1 ALA         0.0277
    127 H36        52.0839   23.3936   -6.9271 H         1 CIR         0.1208
    128 H37        50.9902   23.4859   -5.0510 H         1 CIR         0.2155
    129 H38        52.9441   20.9178   -6.2503 H         1 CIR         0.0639
    130 H39        50.3316   21.1026   -4.9446 H         1 CIR         0.1858
    131 H40        50.2484   22.0010   -7.1670 H         1 CIR         0.0291
    132 H41        50.8911   20.3479   -7.4514 H         1 CIR         0.0291
    133 H42        52.7600   22.4914   -8.2580 H         1 CIR         0.0285
    134 H43        51.2029   22.5244   -9.1531 H         1 CIR         0.0285
    135 H44        52.7641   21.0604  -10.3197 H         1 CIR         0.0517
    136 H45        51.4601   20.0670   -9.5852 H         1 CIR         0.0517
    137 H46        53.0351   19.2873   -7.9422 H         1 CIR         0.1845
    138 H47        56.6851   19.5535   -8.3518 H         1 CIR         0.1808
    139 H48        55.4288   18.7451   -7.4753 H         1 CIR         0.1808
    140 H49        53.7397   23.5748   -6.9149 H         1 PRO         0.2085
    141 H50        53.7969   24.8512   -4.4878 H         1 PRO         0.1100
    142 H51        56.1426   24.9270   -4.4919 H         1 PRO         0.0347
    143 H52        56.2371   24.8094   -6.2818 H         1 PRO         0.0347
    144 H53        55.8593   22.6238   -4.2249 H         1 PRO         0.0320
    145 H54        56.9156   22.6567   -5.6774 H         1 PRO         0.0320
    146 H55        55.1339   22.2330   -7.1404 H         1 PRO         0.0816
    147 H56        54.5457   21.3545   -5.6882 H         1 PRO         0.0816
    148 H57        53.4563   27.0015   -4.9221 H         1 ALA         0.1884
    149 H58        52.8350   27.8087   -7.6411 H         1 ALA         0.0797
    150 H59        52.5666   30.0741   -6.6686 H         1 ALA         0.0277
    151 H60        53.2417   29.4837   -5.1122 H         1 ALA         0.0277
    152 H61        51.6792   28.8358   -5.7169 H         1 ALA         0.0277
    153 H62        53.9262   29.4993   -8.7902 H         1 LYS         0.1883
    154 H63        56.8640   29.5191   -8.2698 H         1 LYS         0.0800
    155 H64        55.5387   29.7755  -10.9993 H         1 LYS         0.0312
    156 H65        56.0780   28.2074  -10.3086 H         1 LYS         0.0312
    157 H66        57.7697   30.6171  -11.0706 H         1 LYS         0.0269
    158 H67        57.8219   28.9541  -11.7476 H         1 LYS         0.0269
    159 H68        58.6673   28.0659   -9.6495 H         1 LYS         0.0317
    160 H69        58.4593   29.6579   -8.8440 H         1 LYS         0.0317
    161 H70        60.3576   29.0133  -11.1432 H         1 LYS         0.0813
    162 H71        60.8068   29.2840   -9.4251 H         1 LYS         0.0813
    163 H72        61.1442   31.2466  -10.7616 H         1 LYS         0.1994
    164 H73        59.9734   31.5274   -9.6392 H         1 LYS         0.1994
    165 H74        59.5618   31.2794  -11.2136 H         1 LYS         0.1994
    166 H75        57.8782   31.4316   -8.2459 H         1 ALA         0.1883
    167 H76        56.2879   33.8060   -7.9140 H         1 ALA         0.0797
    168 H77        58.4715   34.9615   -7.6842 H         1 ALA         0.0277
    169 H78        59.3119   33.4758   -8.2437 H         1 ALA         0.0277
    170 H79        58.4035   33.4644   -6.6940 H         1 ALA         0.0277
    171 H80        55.7572   35.3683   -9.3052 H         1 ALA         0.1883
    172 H81        56.0163   34.8130  -12.1243 H         1 ALA         0.0797
    173 H82        54.7571   36.9315  -12.4196 H         1 ALA         0.0277
    174 H83        54.9520   37.2857  -10.6694 H         1 ALA         0.0277
    175 H84        53.9888   35.8640  -11.1963 H         1 ALA         0.0277
    176 H85        56.7169   36.5217  -13.6772 H         1 ALA         0.1883
    177 H86        59.4271   37.3717  -13.0605 H         1 ALA         0.0797
    178 H87        59.3946   38.3364  -15.3469 H         1 ALA         0.0277
    179 H88        57.6351   37.9936  -15.4629 H         1 ALA         0.0277
    180 H89        58.8076   36.6388  -15.3348 H         1 ALA         0.0277
    181 H90        60.1892   39.3981  -12.6828 H         1 THR         0.1876
    182 H91        58.1220   41.3807  -11.8809 H         1 THR         0.0752
    183 H92        59.7727   42.3488  -10.3805 H         1 THR         0.0632
    184 H93        61.9044   41.4107  -10.3300 H         1 THR         0.2100
    185 H94        60.2565   40.4172   -8.9083 H         1 THR         0.0256
    186 H95        59.8912   39.2935  -10.2612 H         1 THR         0.0256
    187 H96        58.5913   40.3265   -9.5758 H         1 THR         0.0256
@<TRIPOS>BOND
     1    2    1 1  
     2    3    2 1  
     3    3    4 2  
     4    5    3 am 
     5    6    5 1  
     6    7    6 1  
     7    7    8 2  
     8    9    7 am 
     9   10    9 1  
    10   11   10 1  
    11   10   13 1  
    12   11   12 2  
    13   21   11 am 
    14   13   14 1  
    15   14   15 ar 
    16   14   16 ar 
    17   15   17 ar 
    18   16   18 ar 
    19   17   19 ar 
    20   18   19 ar 
    21   19   20 1  
    22   22   21 1  
    23   23   22 1  
    24   22   25 1  
    25   23   24 2  
    26   32   23 am 
    27   25   26 1  
    28   26   27 1  
    29   27   28 1  
    30   28   29 ar 
    31   29   30 ar 
    32   29   31 ar 
    33   33   32 1  
    34   34   33 1  
    35   33   36 1  
    36   34   35 2  
    37   40   34 am 
    38   37   38 1  
    39   39   37 1  
    40   37   48 1  
    41   39   40 1  
    42   39   41 1  
    43   41   42 1  
    44   42   43 1  
    45   43   44 1  
    46   44   45 am 
    47   45   46 2  
    48   45   47 am 
    49   48   49 1  
    50   48   54 1  
    51   49   50 1  
    52   49   52 1  
    53   50   51 2  
    54   50   55 am 
    55   52   53 1  
    56   53   54 1  
    57   55   56 1  
    58   56   57 1  
    59   56   59 1  
    60   57   58 2  
    61   57   60 am 
    62   60   61 1  
    63   61   62 1  
    64   61   64 1  
    65   62   63 2  
    66   62   69 am 
    67   64   65 1  
    68   65   66 1  
    69   66   67 1  
    70   67   68 1  
    71   69   70 1  
    72   70   71 1  
    73   70   73 1  
    74   71   72 2  
    75   71   74 am 
    76   74   75 1  
    77   75   76 1  
    78   75   78 1  
    79   76   77 2  
    80   76   79 am 
    81   79   80 1  
    82   80   81 1  
    83   80   83 1  
    84   81   82 2  
    85   81   84 am 
    86   84   85 1  
    87   85   86 1  
    88   85   88 1  
    89   86   87 ar 
    90   86   91 ar 
    91   88   89 1  
    92   88   90 1  
    93    1   92 1  
    94    1   93 1  
    95    1   94 1  
    96    2   95 1  
    97    2   96 1  
    98    5   97 1  
    99    6   98 1  
   100    6   99 1  
   101    9  100 1  
   102   10  101 1  
   103   13  102 1  
   104   13  103 1  
   105   15  104 1  
   106   16  105 1  
   107   17  106 1  
   108   18  107 1  
   109   20  108 1  
   110   21  109 1  
   111   22  110 1  
   112   25  111 1  
   113   25  112 1  
   114   26  113 1  
   115   26  114 1  
   116   27  115 1  
   117   27  116 1  
   118   28  117 1  
   119   30  118 1  
   120   30  119 1  
   121   31  120 1  
   122   31  121 1  
   123   32  122 1  
   124   33  123 1  
   125   36  124 1  
   126   36  125 1  
   127   36  126 1  
   128   37  127 1  
   129   38  128 1  
   130   39  129 1  
   131   40  130 1  
   132   41  131 1  
   133   41  132 1  
   134   42  133 1  
   135   42  134 1  
   136   43  135 1  
   137   43  136 1  
   138   44  137 1  
   139   47  138 1  
   140   47  139 1  
   141   48  140 1  
   142   49  141 1  
   143   52  142 1  
   144   52  143 1  
   145   53  144 1  
   146   53  145 1  
   147   54  146 1  
   148   54  147 1  
   149   55  148 1  
   150   56  149 1  
   151   59  150 1  
   152   59  151 1  
   153   59  152 1  
   154   60  153 1  
   155   61  154 1  
   156   64  155 1  
   157   64  156 1  
   158   65  157 1  
   159   65  158 1  
   160   66  159 1  
   161   66  160 1  
   162   67  161 1  
   163   67  162 1  
   164   68  163 1  
   165   68  164 1  
   166   68  165 1  
   167   69  166 1  
   168   70  167 1  
   169   73  168 1  
   170   73  169 1  
   171   73  170 1  
   172   74  171 1  
   173   75  172 1  
   174   78  173 1  
   175   78  174 1  
   176   78  175 1  
   177   79  176 1  
   178   80  177 1  
   179   83  178 1  
   180   83  179 1  
   181   83  180 1  
   182   84  181 1  
   183   85  182 1  
   184   88  183 1  
   185   89  184 1  
   186   90  185 1  
   187   90  186 1  
   188   90  187 1  
@<TRIPOS>SUBSTRUCTURE
     1 GLY         1

