6gl3_ligand
  -I-interpret- 

 56 59  0  0  0  0  0  0  0  0999 V2000
  -47.1740   -7.1430    8.4050 C   0  0  0  0  0
  -45.6440   -8.6930    7.4240 C   0  0  0  0  0
  -44.7630   -9.5310    8.0910 C   0  0  0  0  0
  -43.5110   -9.7940    7.5730 C   0  0  0  0  0
  -43.0930   -9.2480    6.3370 C   0  0  0  0  0
  -41.0840  -10.7000    5.8680 C   0  0  0  0  0
  -41.5550  -11.6770    6.4320 O   0  0  0  0  0
  -39.8220  -10.8410    5.3230 N   0  0  0  0  0
  -39.1390   -9.7510    4.5790 C   0  0  0  0  0
  -38.8150  -10.2440    3.1710 C   0  0  0  0  0
  -38.4250  -12.5290    4.0810 C   0  0  0  0  0
  -38.9940  -12.0950    5.4350 C   0  0  0  0  0
  -36.4720  -11.2180    3.0730 C   0  0  0  0  0
  -33.7120  -11.2470    2.7770 N   0  0  0  0  0
  -34.4210  -10.4080    2.0000 C   0  0  0  0  0
  -35.8430  -10.3460    2.1060 C   0  0  0  0  0
  -43.6670   -7.7210    4.3190 C   0  0  0  0  0
  -45.2550   -8.1240    6.2050 C   0  0  0  0  0
  -46.8660   -8.4710    7.9850 O   0  0  0  0  0
  -41.8080   -9.5230    5.7950 N   0  0  0  0  0
  -40.0590  -10.5900    2.3390 C   0  0  0  0  0
  -37.8450  -11.3380    3.3840 N   0  0  0  0  0
  -35.6490  -12.0010    3.7760 N   0  0  0  0  0
  -34.3340  -12.0360    3.6420 C   0  0  0  0  0
  -33.6310  -12.9230    4.4350 N   0  0  0  0  0
  -36.2250   -9.3610    1.1500 C   0  0  0  0  0
  -35.1800   -8.8770    0.5520 N   0  0  0  0  0
  -34.0540   -9.5150    1.0470 N   0  0  0  0  0
  -32.6950   -9.2340    0.6350 C   0  0  0  0  0
  -43.9920   -8.3840    5.6500 C   0  0  0  0  0
  -46.4521   -6.8245    9.1570 H   0  0  0  0  0
  -47.1271   -6.4720    7.5473 H   0  0  0  0  0
  -48.1773   -7.1213    8.8304 H   0  0  0  0  0
  -45.0626   -9.9869    9.0346 H   0  0  0  0  0
  -42.8289  -10.4371    8.1291 H   0  0  0  0  0
  -38.2193   -9.4727    5.0936 H   0  0  0  0  0
  -39.7891   -8.8778    4.5240 H   0  0  0  0  0
  -38.3755   -9.4714    2.5401 H   0  0  0  0  0
  -39.2204  -12.9574    3.4711 H   0  0  0  0  0
  -37.6470  -13.2768    4.2347 H   0  0  0  0  0
  -39.6344  -12.8944    5.8078 H   0  0  0  0  0
  -38.1596  -11.8938    6.1069 H   0  0  0  0  0
  -42.7859   -7.0899    4.4345 H   0  0  0  0  0
  -43.4701   -8.4887    3.5707 H   0  0  0  0  0
  -44.5132   -7.1114    4.0020 H   0  0  0  0  0
  -45.9460   -7.4668    5.6771 H   0  0  0  0  0
  -41.3640   -8.7568    5.2889 H   0  0  0  0  0
  -40.6213  -11.3785    2.8392 H   0  0  0  0  0
  -40.6851   -9.7035    2.2381 H   0  0  0  0  0
  -39.7502  -10.9327    1.3514 H   0  0  0  0  0
  -32.6152  -12.9790    4.3607 H   0  0  0  0  0
  -34.1279  -13.5217    5.0946 H   0  0  0  0  0
  -37.2521   -9.0564    0.9489 H   0  0  0  0  0
  -32.1252   -8.8708    1.4902 H   0  0  0  0  0
  -32.2368  -10.1460    0.2523 H   0  0  0  0  0
  -32.7034   -8.4744   -0.1467 H   0  0  0  0  0
 19  1  1  0  0  0
  3  2  4  0  0  0
  2 18  4  0  0  0
  2 19  1  0  0  0
  4  3  4  0  0  0
  5  4  4  0  0  0
 20  5  1  0  0  0
  5 30  4  0  0  0
  6  7  2  0  0  0
  8  6  1  0  0  0
  6 20  1  0  0  0
  9  8  1  0  0  0
 12  8  1  0  0  0
 10  9  1  0  0  0
 10 21  1  0  0  0
 22 10  1  0  0  0
 11 12  1  0  0  0
 22 11  1  0  0  0
 16 13  4  0  0  0
 13 22  1  0  0  0
 13 23  4  0  0  0
 15 14  4  0  0  0
 14 24  4  0  0  0
 15 16  4  0  0  0
 15 28  4  0  0  0
 16 26  4  0  0  0
 30 17  1  0  0  0
 18 30  4  0  0  0
 23 24  4  0  0  0
 24 25  1  0  0  0
 26 27  4  0  0  0
 27 28  4  0  0  0
 28 29  1  0  0  0
  1 31  1  0  0  0
  1 32  1  0  0  0
  1 33  1  0  0  0
  3 34  1  0  0  0
  4 35  1  0  0  0
  9 36  1  0  0  0
  9 37  1  0  0  0
 10 38  1  0  0  0
 11 39  1  0  0  0
 11 40  1  0  0  0
 12 41  1  0  0  0
 12 42  1  0  0  0
 17 43  1  0  0  0
 17 44  1  0  0  0
 17 45  1  0  0  0
 18 46  1  0  0  0
 20 47  1  0  0  0
 21 48  1  0  0  0
 21 49  1  0  0  0
 21 50  1  0  0  0
 25 51  1  0  0  0
 25 52  1  0  0  0
 26 53  1  0  0  0
 29 54  1  0  0  0
 29 55  1  0  0  0
 29 56  1  0  0  0
M  END
$$$$
