3fup_ligand
  -I-interpret- 

 42 44  0  0  0  0  0  0  0  0999 V2000
  -57.4340    9.4780    0.5310 C   0  0  0  0  0
  -56.3220    8.4320    0.4380 C   0  0  0  0  0
  -55.8400    8.7950    2.9180 C   0  0  0  0  0
  -56.8560    9.9570    3.0180 C   0  0  0  0  0
  -57.1750   10.5680    1.6340 C   0  0  0  0  0
  -56.1520    7.9000    1.7880 N   0  0  0  0  0
  -56.5060    5.8990    0.9780 O   0  0  0  0  0
  -56.2650    6.6170    1.9400 C   0  0  0  0  0
  -56.0830    6.1110    3.3000 C   0  0  0  0  0
  -56.5170    4.9590    3.5980 C   0  0  0  0  0
  -56.6770    3.8260    3.8130 N   0  0  0  0  0
  -56.1490   11.6450    1.2840 C   0  0  0  0  0
  -57.5700   10.1590   -0.7640 N   0  0  0  0  0
  -56.4410   10.2590   -1.7270 C   0  0  0  0  0
  -58.8020   10.6870   -1.0900 C   0  0  0  0  0
  -59.8920   10.6100   -0.2150 C   0  0  0  0  0
  -60.1110   10.0400    1.0990 C   0  0  0  0  0
  -61.4560   10.3500    1.3320 C   0  0  0  0  0
  -62.0250   11.0510    0.2990 N   0  0  0  0  0
  -61.1230   11.2650   -0.6710 C   0  0  0  0  0
  -61.1610   11.8620   -1.8740 N   0  0  0  0  0
  -60.0950   11.9030   -2.6540 C   0  0  0  0  0
  -58.9600   11.3430   -2.2770 N   0  0  0  0  0
  -58.3421    8.9407    0.8043 H   0  0  0  0  0
  -55.3961    8.8733    0.0692 H   0  0  0  0  0
  -56.5823    7.6422   -0.2666 H   0  0  0  0  0
  -55.8861    8.2157    3.8402 H   0  0  0  0  0
  -54.8474    9.2169    2.7605 H   0  0  0  0  0
  -56.4213   10.7371    3.6430 H   0  0  0  0  0
  -57.7818    9.5650    3.4392 H   0  0  0  0  0
  -58.1339   11.0840    1.6817 H   0  0  0  0  0
  -56.6541    6.7939    3.9289 H   0  0  0  0  0
  -55.0028    6.0423    3.4283 H   0  0  0  0  0
  -56.1786   12.4319    2.0377 H   0  0  0  0  0
  -55.1534   11.2020    1.2584 H   0  0  0  0  0
  -56.3856   12.0667    0.3071 H   0  0  0  0  0
  -56.7095    9.7518   -2.6537 H   0  0  0  0  0
  -56.2329   11.3089   -1.9331 H   0  0  0  0  0
  -55.5561    9.7894   -1.2975 H   0  0  0  0  0
  -59.4093    9.5071    1.7407 H   0  0  0  0  0
  -61.9933   10.0652    2.2366 H   0  0  0  0  0
  -60.1533   12.4049   -3.6198 H   0  0  0  0  0
  2  1  1  0  0  0
  1  5  1  0  0  0
  1 13  1  0  0  0
  6  2  1  0  0  0
  3  4  1  0  0  0
  3  6  1  0  0  0
  4  5  1  0  0  0
  5 12  1  0  0  0
  6  8  1  0  0  0
  8  7  2  0  0  0
  8  9  1  0  0  0
  9 10  1  0  0  0
 10 11  3  0  0  0
 13 14  1  0  0  0
 13 15  1  0  0  0
 15 16  4  0  0  0
 15 23  4  0  0  0
 16 17  4  0  0  0
 16 20  4  0  0  0
 17 18  4  0  0  0
 18 19  4  0  0  0
 19 20  4  0  0  0
 20 21  4  0  0  0
 21 22  4  0  0  0
 22 23  4  0  0  0
  1 24  1  0  0  0
  2 25  1  0  0  0
  2 26  1  0  0  0
  3 27  1  0  0  0
  3 28  1  0  0  0
  4 29  1  0  0  0
  4 30  1  0  0  0
  5 31  1  0  0  0
  9 32  1  0  0  0
  9 33  1  0  0  0
 12 34  1  0  0  0
 12 35  1  0  0  0
 12 36  1  0  0  0
 14 37  1  0  0  0
 14 38  1  0  0  0
 14 39  1  0  0  0
 17 40  1  0  0  0
 18 41  1  0  0  0
 22 42  1  0  0  0
M  END
$$$$
