5i2r_ligand
  -I-interpret- 

 42 45  0  0  0  0  0  0  0  0999 V2000
   93.4220   -7.9090   14.1220 N   0  0  0  0  0
   91.9240   -9.7780   14.0000 C   0  0  0  0  0
   92.6620  -10.2720   12.8960 C   0  0  0  0  0
   99.7200   -7.9980   12.0630 C   0  0  0  0  0
   96.2880   -8.3120   12.2710 C   0  0  0  0  0
   92.2730   -5.4340   15.3680 C   0  0  0  0  0
   97.3920   -7.5750   11.8690 C   0  0  0  0  0
   95.1590   -6.2290   12.7340 C   0  0  0  0  0
   97.3800   -6.1610   11.8870 C   0  0  0  0  0
   91.6250   -5.0100   14.1990 C   0  0  0  0  0
   93.8830   -3.6860   15.0940 C   0  0  0  0  0
   92.3750   -8.5050   14.6110 C   0  0  0  0  0
   91.7400   -7.8580   15.7720 C   0  0  0  0  0
   91.7420   -6.5170   16.0900 N   0  0  0  0  0
   94.0640   -8.3860   13.1240 N   0  0  0  0  0
   91.0590   -6.3630   17.2850 N   0  0  0  0  0
   93.7300   -9.5430   12.4920 C   0  0  0  0  0
   91.0870   -8.5160   16.7700 C   0  0  0  0  0
   95.1740   -7.6370   12.7070 C   0  0  0  0  0
   90.6700   -7.5500   17.6860 C   0  0  0  0  0
   98.4660   -8.2990   11.4520 O   0  0  0  0  0
   90.9520  -10.3890   14.4150 O   0  0  0  0  0
  100.1820   -6.7980   11.5060 F   0  0  0  0  0
   99.6230   -7.8250   13.4510 F   0  0  0  0  0
  100.5850   -9.0580   11.7720 F   0  0  0  0  0
   96.2530   -5.4830   12.3310 C   0  0  0  0  0
   93.4020   -4.7630   15.8230 C   0  0  0  0  0
   92.1170   -3.9270   13.4790 C   0  0  0  0  0
   93.2470   -3.2670   13.9290 C   0  0  0  0  0
   92.3826  -11.1981   12.3937 H   0  0  0  0  0
   96.3040   -9.4015   12.2416 H   0  0  0  0  0
   94.2633   -5.7138   13.0810 H   0  0  0  0  0
   98.2551   -5.6039   11.5525 H   0  0  0  0  0
   90.7323   -5.5313   13.8534 H   0  0  0  0  0
   94.7729   -3.1594   15.4386 H   0  0  0  0  0
   94.3293   -9.8882   11.6496 H   0  0  0  0  0
   90.9219   -9.5912   16.8396 H   0  0  0  0  0
   90.1063   -7.7510   18.5970 H   0  0  0  0  0
   96.2302   -4.3937   12.3614 H   0  0  0  0  0
   93.9016   -5.0786   16.7389 H   0  0  0  0  0
   91.6166   -3.6005   12.5674 H   0  0  0  0  0
   93.6397   -2.4175   13.3701 H   0  0  0  0  0
  1 12  2  0  0  0
 15  1  1  0  0  0
  3  2  1  0  0  0
 12  2  1  0  0  0
  2 22  2  0  0  0
 17  3  2  0  0  0
 21  4  1  0  0  0
  4 23  1  0  0  0
  4 24  1  0  0  0
  4 25  1  0  0  0
  5  7  4  0  0  0
 19  5  4  0  0  0
  6 10  4  0  0  0
 14  6  1  0  0  0
  6 27  4  0  0  0
  7  9  4  0  0  0
  7 21  1  0  0  0
 19  8  4  0  0  0
  8 26  4  0  0  0
 26  9  4  0  0  0
 10 28  4  0  0  0
 27 11  4  0  0  0
 11 29  4  0  0  0
 12 13  1  0  0  0
 13 14  4  0  0  0
 13 18  4  0  0  0
 14 16  4  0  0  0
 15 17  1  0  0  0
 15 19  1  0  0  0
 16 20  4  0  0  0
 18 20  4  0  0  0
 28 29  4  0  0  0
  3 30  1  0  0  0
  5 31  1  0  0  0
  8 32  1  0  0  0
  9 33  1  0  0  0
 10 34  1  0  0  0
 11 35  1  0  0  0
 17 36  1  0  0  0
 18 37  1  0  0  0
 20 38  1  0  0  0
 26 39  1  0  0  0
 27 40  1  0  0  0
 28 41  1  0  0  0
 29 42  1  0  0  0
M  END
$$$$
