6dqb_ligand
  -I-interpret- 

 56 58  0  0  0  0  0  0  0  0999 V2000
  -23.3750   17.9770    7.8540 C   0  0  0  0  0
  -23.5420   17.5940    6.3870 C   0  0  0  0  0
  -24.1150   18.5100    5.5150 C   0  0  0  0  0
  -24.2510   18.1510    4.1740 C   0  0  0  0  0
  -24.8580   19.1840    3.3710 C   0  0  0  0  0
  -25.1890   20.3470    4.0790 C   0  0  0  0  0
  -25.8330   21.5860    3.4640 C   0  0  0  0  0
  -26.5600   22.4050    4.5250 C   0  0  0  0  0
  -25.8390   23.2680    5.3340 C   0  0  0  0  0
  -26.4950   24.0200    6.2950 C   0  0  0  0  0
  -27.8680   23.9160    6.4430 C   0  0  0  0  0
  -28.5960   23.0540    5.6360 C   0  0  0  0  0
  -30.9080   21.9580    5.2530 C   0  0  0  0  0
  -32.4140   22.0300    5.5140 C   0  0  0  0  0
  -32.9380   20.7890    6.2350 C   0  0  0  0  0
  -34.2450   21.0700    6.9800 C   0  0  0  0  0
  -35.2500   22.3280    8.7320 C   0  0  0  0  0
  -33.0350   21.5150    8.9650 C   0  0  0  0  0
  -27.9380   22.3070    4.6670 C   0  0  0  0  0
  -26.2290   21.2380    1.1830 C   0  0  0  0  0
  -23.3140   16.0670    4.5220 C   0  0  0  0  0
  -23.1350   16.3530    5.8820 C   0  0  0  0  0
  -30.0450   22.9880    5.8170 N   0  0  0  0  0
  -34.0100   22.0450    8.0320 N   0  3  0  0  0
  -23.8600   16.9600    3.7160 N   0  0  0  0  0
  -23.9650   18.9950    8.2990 O   0  0  0  0  0
  -22.6400   17.2880    8.6000 O   0  0  0  0  0
  -30.4760   21.0660    4.6040 O   0  0  0  0  0
  -26.7470   21.1900    2.4850 O   0  0  0  0  0
  -24.7360   20.0950    5.6950 S   0  0  0  0  0
  -25.0437   19.0696    2.3030 H   0  0  0  0  0
  -25.0494   22.2031    3.0243 H   0  0  0  0  0
  -24.7590   23.3551    5.2148 H   0  0  0  0  0
  -25.9289   24.6954    6.9364 H   0  0  0  0  0
  -28.3791   24.5144    7.1972 H   0  0  0  0  0
  -32.9208   22.1010    4.5516 H   0  0  0  0  0
  -32.6062   22.8956    6.1480 H   0  0  0  0  0
  -32.1901   20.4761    6.9636 H   0  0  0  0  0
  -33.1288   20.0164    5.4901 H   0  0  0  0  0
  -34.6152   20.1447    7.4214 H   0  0  0  0  0
  -34.9819   21.4643    6.2803 H   0  0  0  0  0
  -35.9800   22.7276    8.0281 H   0  0  0  0  0
  -35.6345   21.4086    9.1734 H   0  0  0  0  0
  -35.0631   23.0595    9.5181 H   0  0  0  0  0
  -33.4155   20.5910    9.4004 H   0  0  0  0  0
  -32.1024   21.3128    8.4382 H   0  0  0  0  0
  -32.8566   22.2441    9.7554 H   0  0  0  0  0
  -28.5052   21.6417    4.0160 H   0  0  0  0  0
  -25.9246   22.2588    0.9519 H   0  0  0  0  0
  -25.3665   20.5753    1.1118 H   0  0  0  0  0
  -26.9946   20.9171    0.4767 H   0  0  0  0  0
  -23.0005   15.1009    4.1263 H   0  0  0  0  0
  -22.6817   15.6140    6.5427 H   0  0  0  0  0
  -30.4845   23.7166    6.3795 H   0  0  0  0  0
  -33.6576   22.9087    7.6195 H   0  0  0  0  0
  -24.4801   19.3977    7.5961 H   0  0  0  0  0
  2  1  1  0  0  0
  1 26  1  0  0  0
  1 27  2  0  0  0
  3  2  4  0  0  0
  2 22  4  0  0  0
  3  4  4  0  0  0
 30  3  4  0  0  0
  5  4  4  0  0  0
  4 25  4  0  0  0
  6  5  4  0  0  0
  7  6  1  0  0  0
  6 30  4  0  0  0
  8  7  1  0  0  0
  7 29  1  0  0  0
  8  9  4  0  0  0
 19  8  4  0  0  0
 10  9  4  0  0  0
 11 10  4  0  0  0
 12 11  4  0  0  0
 12 19  4  0  0  0
 23 12  1  0  0  0
 13 14  1  0  0  0
 23 13  1  0  0  0
 13 28  2  0  0  0
 14 15  1  0  0  0
 15 16  1  0  0  0
 16 24  1  0  0  0
 24 17  1  0  0  0
 24 18  1  0  0  0
 29 20  1  0  0  0
 22 21  4  0  0  0
 21 25  4  0  0  0
  5 31  1  0  0  0
  7 32  1  0  0  0
  9 33  1  0  0  0
 10 34  1  0  0  0
 11 35  1  0  0  0
 14 36  1  0  0  0
 14 37  1  0  0  0
 15 38  1  0  0  0
 15 39  1  0  0  0
 16 40  1  0  0  0
 16 41  1  0  0  0
 17 42  1  0  0  0
 17 43  1  0  0  0
 17 44  1  0  0  0
 18 45  1  0  0  0
 18 46  1  0  0  0
 18 47  1  0  0  0
 19 48  1  0  0  0
 20 49  1  0  0  0
 20 50  1  0  0  0
 20 51  1  0  0  0
 21 52  1  0  0  0
 22 53  1  0  0  0
 23 54  1  0  0  0
 24 55  1  0  0  0
 26 56  1  0  0  0
M  END
$$$$
