5hcl_ligand
  -I-interpret- 

 15 14  0  0  0  0  0  0  0  0999 V2000
   11.8040    5.6330   -1.3040 C   0  0  0  0  0
   12.8650    4.6400   -1.1690 N   0  0  0  0  0
   12.7150    3.3050   -1.7310 C   0  0  0  0  0
   14.0790    4.9580   -0.4860 C   0  0  0  0  0
   14.2440    6.3500    0.1060 C   0  0  0  0  0
   14.9220    4.1230   -0.3910 O   0  0  0  0  0
   11.4688    5.9416   -0.3138 H   0  0  0  0  0
   12.1850    6.4985   -1.8461 H   0  0  0  0  0
   10.9686    5.1979   -1.8526 H   0  0  0  0  0
   13.5024    3.1302   -2.4641 H   0  0  0  0  0
   12.7890    2.5659   -0.9333 H   0  0  0  0  0
   11.7417    3.2231   -2.2148 H   0  0  0  0  0
   14.3847    6.2706    1.1840 H   0  0  0  0  0
   15.1133    6.8327   -0.3406 H   0  0  0  0  0
   13.3518    6.9403   -0.1027 H   0  0  0  0  0
  1  2  1  0  0  0
  2  3  1  0  0  0
  2  4  1  0  0  0
  4  5  1  0  0  0
  4  6  2  0  0  0
  1  7  1  0  0  0
  1  8  1  0  0  0
  1  9  1  0  0  0
  3 10  1  0  0  0
  3 11  1  0  0  0
  3 12  1  0  0  0
  5 13  1  0  0  0
  5 14  1  0  0  0
  5 15  1  0  0  0
M  END
$$$$
