2r5a_ligand
  -I-interpret- 

 29 28  0  0  0  0  0  0  0  0999 V2000
  -26.9940  -20.5260  -15.8370 N   0  3  0  0  0
  -26.4300  -20.5520  -17.2200 C   0  0  0  0  0
  -25.1370  -19.7370  -17.2980 C   0  0  0  0  0
  -25.0700  -19.0160  -18.6360 C   0  0  0  0  0
  -23.8060  -18.1830  -18.8010 C   0  0  0  0  0
  -23.5150  -18.0370  -20.2870 C   0  0  0  0  0
  -22.6920  -16.9010  -20.6420 N   0  3  0  0  0
  -22.7040  -16.4390  -22.0200 C   0  0  0  0  0
  -26.1530  -21.9540  -17.6930 C   0  0  0  0  0
  -25.4350  -22.7060  -17.0260 O   0  0  0  0  0
  -26.6200  -22.3660  -18.7660 O   0  0  0  0  0
  -27.1654  -19.5597  -15.5591 H   0  0  0  0  0
  -27.8708  -21.0468  -15.8188 H   0  0  0  0  0
  -26.3296  -20.9538  -15.1921 H   0  0  0  0  0
  -27.1851  -20.1098  -17.8700 H   0  0  0  0  0
  -24.2809  -20.4049  -17.2026 H   0  0  0  0  0
  -25.1202  -19.0052  -16.4904 H   0  0  0  0  0
  -25.9229  -18.3395  -18.6915 H   0  0  0  0  0
  -25.0739  -19.7722  -19.4210 H   0  0  0  0  0
  -22.9692  -18.6741  -18.3044 H   0  0  0  0  0
  -23.9466  -17.2002  -18.3510 H   0  0  0  0  0
  -24.4755  -17.8961  -20.7827 H   0  0  0  0  0
  -22.9660  -18.9290  -20.5886 H   0  0  0  0  0
  -21.7329  -17.2028  -20.4704 H   0  0  0  0  0
  -23.0626  -16.1227  -20.0967 H   0  0  0  0  0
  -22.3668  -17.2429  -22.6743 H   0  0  0  0  0
  -23.7173  -16.1459  -22.2948 H   0  0  0  0  0
  -22.0369  -15.5829  -22.1207 H   0  0  0  0  0
  -27.1530  -21.6760  -19.1677 H   0  0  0  0  0
  1  2  1  0  0  0
  2  3  1  0  0  0
  2  9  1  0  0  0
  3  4  1  0  0  0
  4  5  1  0  0  0
  5  6  1  0  0  0
  6  7  1  0  0  0
  7  8  1  0  0  0
  9 10  2  0  0  0
  9 11  1  0  0  0
  1 12  1  0  0  0
  1 13  1  0  0  0
  1 14  1  0  0  0
  2 15  1  0  0  0
  3 16  1  0  0  0
  3 17  1  0  0  0
  4 18  1  0  0  0
  4 19  1  0  0  0
  5 20  1  0  0  0
  5 21  1  0  0  0
  6 22  1  0  0  0
  6 23  1  0  0  0
  7 24  1  0  0  0
  7 25  1  0  0  0
  8 26  1  0  0  0
  8 27  1  0  0  0
  8 28  1  0  0  0
 11 29  1  0  0  0
M  END
$$$$
