2zpk_ligand
  -I-interpret- 

110112  0  0  0  0  0  0  0  0999 V2000
    8.0430  -20.4160   56.5600 N   0  3  0  0  0
    7.3040  -19.1660   56.4330 C   0  0  0  0  0
    6.0200  -19.3130   55.6130 C   0  0  0  0  0
    5.8560  -20.3000   54.8860 O   0  0  0  0  0
    8.2900  -18.2650   55.6780 C   0  0  0  0  0
    9.1000  -19.2040   54.8370 C   0  0  0  0  0
    9.1700  -20.5020   55.6100 C   0  0  0  0  0
    5.1270  -18.3300   55.7300 N   0  0  0  0  0
    3.9620  -18.2190   54.8540 C   0  0  0  0  0
    4.4460  -17.9090   53.4380 C   0  0  0  0  0
    5.3050  -17.0390   53.2540 O   0  0  0  0  0
    3.0210  -17.1180   55.3500 C   0  0  0  0  0
    3.8940  -18.6140   52.4510 N   0  0  0  0  0
    4.4100  -18.5940   51.0840 C   0  0  0  0  0
    4.4260  -17.2360   50.4030 C   0  0  0  0  0
    3.6280  -16.3620   50.7230 O   0  0  0  0  0
    5.3490  -17.0630   49.4600 N   0  0  0  0  0
    5.4510  -15.8360   48.6620 C   0  0  0  0  0
    4.6830  -16.0590   47.3760 C   0  0  0  0  0
    4.9710  -17.0310   46.6700 O   0  0  0  0  0
    6.9070  -15.5780   48.2950 C   0  0  0  0  0
    7.1190  -14.3830   47.3870 C   0  0  0  0  0
    6.8310  -13.0870   47.8250 C   0  0  0  0  0
    7.6320  -14.5540   46.0920 C   0  0  0  0  0
    7.0350  -11.9890   46.9970 C   0  0  0  0  0
    7.8640  -13.4610   45.2600 C   0  0  0  0  0
    7.5580  -12.1870   45.7130 C   0  0  0  0  0
    7.7810  -11.1000   44.8860 O   0  0  0  0  0
    3.7020  -15.1880   47.0720 N   0  0  0  0  0
    2.8250  -15.4710   45.9290 C   0  0  0  0  0
    3.3670  -15.0530   44.5550 C   0  0  0  0  0
    2.6560  -15.1950   43.5560 O   0  0  0  0  0
    1.5370  -14.7090   46.2730 C   0  0  0  0  0
    1.9870  -13.5690   47.1300 C   0  0  0  0  0
    3.3070  -13.9530   47.7790 C   0  0  0  0  0
    4.6020  -14.5570   44.5110 N   0  0  0  0  0
    5.2420  -14.1340   43.2690 C   0  0  0  0  0
    5.7950  -15.3120   42.4940 C   0  0  0  0  0
    5.8000  -16.4360   43.0050 O   0  0  0  0  0
    6.2370  -15.0670   41.2580 N   0  0  0  0  0
    6.7170  -16.1430   40.3820 C   0  0  0  0  0
    8.2140  -16.3830   40.5980 C   0  0  0  0  0
    9.0680  -15.6570   40.0640 O   0  0  0  0  0
    6.4270  -15.8390   38.9050 C   0  0  0  0  0
    6.9040  -16.9190   37.9230 C   0  0  0  0  0
    7.0470  -16.3910   36.4980 C   0  0  0  0  0
    6.8890  -15.1920   36.2510 O   0  0  0  0  0
    7.3910  -17.2650   35.5790 N   0  0  0  0  0
    8.5010  -17.4000   41.4140 N   0  0  0  0  0
    9.8660  -17.7830   41.7760 C   0  0  0  0  0
   10.0560  -19.2620   41.4370 C   0  0  0  0  0
    9.0850  -20.0250   41.3520 O   0  0  0  0  0
   10.1430  -17.5180   43.2960 C   0  0  0  0  0
   11.5200  -18.0130   43.7210 C   0  0  0  0  0
   10.0320  -16.0460   43.6100 C   0  0  0  0  0
   11.1760  -19.7310   41.2330 O   0  0  0  0  0
    7.4019  -21.1836   56.3597 H   0  0  0  0  0
    8.4227  -20.4637   57.5055 H   0  0  0  0  0
    6.9833  -18.7880   57.4038 H   0  0  0  0  0
    8.9155  -17.6880   56.3591 H   0  0  0  0  0
    7.7757  -17.5188   55.0723 H   0  0  0  0  0
   10.0959  -18.8040   54.6465 H   0  0  0  0  0
    8.6429  -19.3516   53.8585 H   0  0  0  0  0
    9.0955  -21.3736   54.9597 H   0  0  0  0  0
   10.1270  -20.6294   56.1161 H   0  0  0  0  0
    5.2618  -17.6288   56.4584 H   0  0  0  0  0
    3.4083  -19.1579   54.8577 H   0  0  0  0  0
    2.6846  -17.3566   56.3590 H   0  0  0  0  0
    3.5507  -16.1654   55.3580 H   0  0  0  0  0
    2.1600  -17.0508   54.6849 H   0  0  0  0  0
    3.0786  -19.1907   52.6580 H   0  0  0  0  0
    3.7454  -19.2259   50.4949 H   0  0  0  0  0
    5.4480  -18.9215   51.1420 H   0  0  0  0  0
    6.0143  -17.8160   49.2844 H   0  0  0  0  0
    5.0580  -14.9917   49.2284 H   0  0  0  0  0
    7.2627  -16.4567   47.7570 H   0  0  0  0  0
    7.4405  -15.3741   49.2234 H   0  0  0  0  0
    6.4405  -12.9350   48.8312 H   0  0  0  0  0
    7.8526  -15.5586   45.7312 H   0  0  0  0  0
    6.7905  -10.9848   47.3434 H   0  0  0  0  0
    8.2816  -13.6059   44.2636 H   0  0  0  0  0
    8.1385  -11.4044   44.0487 H   0  0  0  0  0
    2.7000  -16.5471   45.8087 H   0  0  0  0  0
    0.8145  -15.3432   46.7867 H   0  0  0  0  0
    1.0173  -14.3648   45.3788 H   0  0  0  0  0
    1.2404  -13.3592   47.8960 H   0  0  0  0  0
    2.1151  -12.6726   46.5233 H   0  0  0  0  0
    4.0567  -13.1667   47.6907 H   0  0  0  0  0
    3.2122  -14.1031   48.8544 H   0  0  0  0  0
    5.1236  -14.4688   45.3831 H   0  0  0  0  0
    6.0685  -13.4684   43.5180 H   0  0  0  0  0
    4.4954  -13.6360   42.6503 H   0  0  0  0  0
    6.2413  -14.1070   40.9134 H   0  0  0  0  0
    6.1751  -17.0515   40.6450 H   0  0  0  0  0
    6.9655  -14.9243   38.6573 H   0  0  0  0  0
    5.3441  -15.7714   38.8013 H   0  0  0  0  0
    6.1611  -17.7165   37.9132 H   0  0  0  0  0
    7.8834  -17.2651   38.2533 H   0  0  0  0  0
    7.5384  -16.9616   34.6164 H   0  0  0  0  0
    7.5106  -18.2468   35.8283 H   0  0  0  0  0
    7.7281  -17.9382   41.8056 H   0  0  0  0  0
   10.5774  -17.1792   41.2125 H   0  0  0  0  0
    8.2787  -19.5363   41.5327 H   0  0  0  0  0
    9.3887  -18.0737   43.8531 H   0  0  0  0  0
   11.5894  -19.0863   43.5442 H   0  0  0  0  0
   12.2851  -17.4976   43.1404 H   0  0  0  0  0
   11.6671  -17.8079   44.7814 H   0  0  0  0  0
   10.7607  -15.4933   43.0170 H   0  0  0  0  0
    9.0272  -15.6991   43.3688 H   0  0  0  0  0
   10.2282  -15.8862   44.6702 H   0  0  0  0  0
  1  2  1  0  0  0
  1  7  1  0  0  0
  2  3  1  0  0  0
  2  5  1  0  0  0
  3  4  2  0  0  0
  3  8  1  0  0  0
  5  6  1  0  0  0
  6  7  1  0  0  0
  8  9  1  0  0  0
  9 10  1  0  0  0
  9 12  1  0  0  0
 10 11  2  0  0  0
 10 13  1  0  0  0
 13 14  1  0  0  0
 14 15  1  0  0  0
 15 16  2  0  0  0
 15 17  1  0  0  0
 17 18  1  0  0  0
 18 19  1  0  0  0
 18 21  1  0  0  0
 19 20  2  0  0  0
 19 29  1  0  0  0
 21 22  1  0  0  0
 22 23  4  0  0  0
 22 24  4  0  0  0
 23 25  4  0  0  0
 24 26  4  0  0  0
 25 27  4  0  0  0
 26 27  4  0  0  0
 27 28  1  0  0  0
 29 30  1  0  0  0
 29 35  1  0  0  0
 30 31  1  0  0  0
 30 33  1  0  0  0
 31 32  2  0  0  0
 31 36  1  0  0  0
 33 34  1  0  0  0
 34 35  1  0  0  0
 36 37  1  0  0  0
 37 38  1  0  0  0
 38 39  2  0  0  0
 38 40  1  0  0  0
 40 41  1  0  0  0
 41 42  1  0  0  0
 41 44  1  0  0  0
 42 43  2  0  0  0
 42 49  1  0  0  0
 44 45  1  0  0  0
 45 46  1  0  0  0
 46 47  2  0  0  0
 46 48  1  0  0  0
 49 50  1  0  0  0
 50 51  1  0  0  0
 50 53  1  0  0  0
 51 52  1  0  0  0
 51 56  2  0  0  0
 53 54  1  0  0  0
 53 55  1  0  0  0
  1 57  1  0  0  0
  1 58  1  0  0  0
  2 59  1  0  0  0
  5 60  1  0  0  0
  5 61  1  0  0  0
  6 62  1  0  0  0
  6 63  1  0  0  0
  7 64  1  0  0  0
  7 65  1  0  0  0
  8 66  1  0  0  0
  9 67  1  0  0  0
 12 68  1  0  0  0
 12 69  1  0  0  0
 12 70  1  0  0  0
 13 71  1  0  0  0
 14 72  1  0  0  0
 14 73  1  0  0  0
 17 74  1  0  0  0
 18 75  1  0  0  0
 21 76  1  0  0  0
 21 77  1  0  0  0
 23 78  1  0  0  0
 24 79  1  0  0  0
 25 80  1  0  0  0
 26 81  1  0  0  0
 28 82  1  0  0  0
 30 83  1  0  0  0
 33 84  1  0  0  0
 33 85  1  0  0  0
 34 86  1  0  0  0
 34 87  1  0  0  0
 35 88  1  0  0  0
 35 89  1  0  0  0
 36 90  1  0  0  0
 37 91  1  0  0  0
 37 92  1  0  0  0
 40 93  1  0  0  0
 41 94  1  0  0  0
 44 95  1  0  0  0
 44 96  1  0  0  0
 45 97  1  0  0  0
 45 98  1  0  0  0
 48 99  1  0  0  0
 48100  1  0  0  0
 49101  1  0  0  0
 50102  1  0  0  0
 52103  1  0  0  0
 53104  1  0  0  0
 54105  1  0  0  0
 54106  1  0  0  0
 54107  1  0  0  0
 55108  1  0  0  0
 55109  1  0  0  0
 55110  1  0  0  0
M  END
$$$$
