5i56_ligand
  -I-interpret- 

 48 50  0  0  0  0  0  0  0  0999 V2000
  -25.1850   15.2890  -24.5530 C   0  0  0  0  0
  -25.2620   13.8870  -24.7020 C   0  0  0  0  0
  -24.1540   13.1580  -25.1630 C   0  0  0  0  0
  -22.9600   13.8300  -25.4850 C   0  0  0  0  0
  -22.8790   15.2260  -25.3260 C   0  0  0  0  0
  -23.9970   15.9570  -24.8640 C   0  0  0  0  0
  -21.7260   13.0390  -25.9770 C   0  0  0  0  0
  -20.6250   13.5980  -25.9590 O   0  0  0  0  0
  -21.8210   11.6940  -26.4450 N   0  0  0  0  0
  -20.6790   11.0730  -26.8190 N   0  0  0  0  0
  -20.2530   10.7970  -28.1200 C   0  0  0  0  0
  -20.9020   11.1130  -29.0830 O   0  0  0  0  0
  -18.8850   10.0690  -28.2860 C   0  0  0  0  0
  -18.1100   10.2390  -29.4440 C   0  0  0  0  0
  -16.8900    9.5860  -29.5720 C   0  0  0  0  0
  -16.4240    8.7600  -28.5420 C   0  0  0  0  0
  -17.1930    8.5970  -27.3880 C   0  0  0  0  0
  -18.4220    9.2570  -27.2610 C   0  0  0  0  0
  -15.0720    8.0270  -28.6630 C   0  0  0  0  0
  -13.9660    8.9000  -28.9920 N   0  0  0  0  0
  -13.4000   10.0190  -27.9080 S   0  0  0  0  0
  -13.0280    9.4160  -26.6690 O   0  0  0  0  0
  -12.1740   10.6070  -28.3650 O   0  0  0  0  0
  -14.6600   11.2990  -27.7130 C   0  0  0  0  0
  -14.8290   12.2510  -28.6730 C   0  0  0  0  0
  -15.8160   13.2290  -28.5280 C   0  0  0  0  0
  -16.6370   13.2150  -27.3820 C   0  0  0  0  0
  -16.4710   12.2500  -26.4200 C   0  0  0  0  0
  -15.4930   11.2850  -26.5640 C   0  0  0  0  0
  -17.4790   12.2040  -24.9840 Cl  0  0  0  0  0
  -17.5850   14.1550  -27.2460 F   0  0  0  0  0
  -26.0495   15.8489  -24.1964 H   0  0  0  0  0
  -26.1882   13.3669  -24.4574 H   0  0  0  0  0
  -24.2184   12.0753  -25.2711 H   0  0  0  0  0
  -21.9500   15.7458  -25.5602 H   0  0  0  0  0
  -23.9330   17.0392  -24.7505 H   0  0  0  0  0
  -22.7209   11.2165  -26.4958 H   0  0  0  0  0
  -20.0595   10.7726  -26.0664 H   0  0  0  0  0
  -18.4665   10.8856  -30.2458 H   0  0  0  0  0
  -16.2949    9.7171  -30.4757 H   0  0  0  0  0
  -16.8359    7.9542  -26.5834 H   0  0  0  0  0
  -19.0155    9.1323  -26.3553 H   0  0  0  0  0
  -15.1657    7.3005  -29.4701 H   0  0  0  0  0
  -14.8562    7.5780  -27.6935 H   0  0  0  0  0
  -13.5259    8.8254  -29.9091 H   0  0  0  0  0
  -14.1918   12.2495  -29.5573 H   0  0  0  0  0
  -15.9498   13.9944  -29.2924 H   0  0  0  0  0
  -15.3620   10.5182  -25.8005 H   0  0  0  0  0
  1  2  4  0  0  0
  1  6  4  0  0  0
  2  3  4  0  0  0
  3  4  4  0  0  0
  4  5  4  0  0  0
  4  7  1  0  0  0
  5  6  4  0  0  0
  7  8  2  0  0  0
  7  9  1  0  0  0
  9 10  1  0  0  0
 10 11  1  0  0  0
 11 12  2  0  0  0
 11 13  1  0  0  0
 13 14  4  0  0  0
 13 18  4  0  0  0
 14 15  4  0  0  0
 15 16  4  0  0  0
 16 17  4  0  0  0
 16 19  1  0  0  0
 17 18  4  0  0  0
 19 20  1  0  0  0
 20 21  1  0  0  0
 21 22  2  0  0  0
 21 23  2  0  0  0
 21 24  1  0  0  0
 24 25  4  0  0  0
 24 29  4  0  0  0
 25 26  4  0  0  0
 26 27  4  0  0  0
 27 28  4  0  0  0
 27 31  1  0  0  0
 28 29  4  0  0  0
 28 30  1  0  0  0
  1 32  1  0  0  0
  2 33  1  0  0  0
  3 34  1  0  0  0
  5 35  1  0  0  0
  6 36  1  0  0  0
  9 37  1  0  0  0
 10 38  1  0  0  0
 14 39  1  0  0  0
 15 40  1  0  0  0
 17 41  1  0  0  0
 18 42  1  0  0  0
 19 43  1  0  0  0
 19 44  1  0  0  0
 20 45  1  0  0  0
 25 46  1  0  0  0
 26 47  1  0  0  0
 29 48  1  0  0  0
M  END
$$$$
