6md7_ligand
  -I-interpret- 

 48 50  0  0  0  0  0  0  0  0999 V2000
   21.6200   41.7640    4.2290 C   0  0  0  0  0
   21.5950   40.7400    5.2130 C   0  0  0  0  0
   22.6610   39.8350    5.1600 C   0  0  0  0  0
   20.5890   42.6170    4.1540 O   0  0  0  0  0
   28.3100   43.0110    3.6710 C   0  0  0  0  0
   18.7770   40.5580    5.6760 C   0  0  0  0  0
   18.7180   40.1150    4.3290 C   0  0  0  0  0
   17.4870   40.0610    3.6450 C   0  0  0  0  0
   16.3280   40.4060    4.3450 C   0  0  0  0  0
   17.5380   40.8840    6.3090 C   0  0  0  0  0
   17.4230   41.2970    7.7790 C   0  0  0  0  0
   28.0480   42.2270    1.3240 C   0  0  0  0  0
   23.5460   40.9540    3.3440 C   0  0  0  0  0
   25.7820   40.1960    2.5060 C   0  0  0  0  0
   26.9760   40.8890    3.2120 C   0  0  0  0  0
   27.3070   42.3390    2.6920 C   0  0  0  0  0
   25.9920   43.1660    2.5030 C   0  0  0  0  0
   24.8730   42.3940    1.7610 C   0  0  0  0  0
   16.1920   41.0400    8.1840 F   0  0  0  0  0
   18.2450   40.5670    8.5390 F   0  0  0  0  0
   17.6400   42.6070    7.9990 F   0  0  0  0  0
   22.5690   41.8570    3.2950 N   0  0  0  0  0
   23.6400   39.9750    4.2480 N   0  0  0  0  0
   24.6400   41.1250    2.4930 N   0  0  0  0  0
   27.7280   43.4530    4.9290 N   0  3  0  0  0
   16.3520   40.8120    5.6340 N   0  0  0  0  0
   20.3590   40.6980    6.4790 S   0  0  0  0  0
   22.6986   39.0060    5.8667 H   0  0  0  0  0
   28.6954   43.8992    3.1703 H   0  0  0  0  0
   29.0640   42.2629    3.9157 H   0  0  0  0  0
   19.6330   39.8138    3.8189 H   0  0  0  0  0
   17.4403   39.7585    2.5989 H   0  0  0  0  0
   15.3681   40.3454    3.8321 H   0  0  0  0  0
   28.9710   41.6627    1.4573 H   0  0  0  0  0
   27.4076   41.7143    0.6063 H   0  0  0  0  0
   28.2814   43.2260    0.9558 H   0  0  0  0  0
   25.5130   39.2849    3.0405 H   0  0  0  0  0
   26.0572   39.9321    1.4849 H   0  0  0  0  0
   27.8559   40.2762    3.0163 H   0  0  0  0  0
   26.7064   40.9859    4.2637 H   0  0  0  0  0
   26.2400   44.0398    1.9005 H   0  0  0  0  0
   25.6156   43.4115    3.4960 H   0  0  0  0  0
   25.1705   42.1898    0.7325 H   0  0  0  0  0
   23.9592   42.9873    1.7295 H   0  0  0  0  0
   22.5468   42.5836    2.5795 H   0  0  0  0  0
   28.4528   43.8793    5.5063 H   0  0  0  0  0
   26.9950   44.1370    4.7414 H   0  0  0  0  0
   27.3297   42.6515    5.4182 H   0  0  0  0  0
  1  2  1  0  0  0
  1  4  2  0  0  0
 22  1  1  0  0  0
  3  2  2  0  0  0
  2 27  1  0  0  0
 23  3  1  0  0  0
 16  5  1  0  0  0
  5 25  1  0  0  0
  6  7  4  0  0  0
  6 10  4  0  0  0
 27  6  1  0  0  0
  7  8  4  0  0  0
  8  9  4  0  0  0
 26  9  4  0  0  0
 10 11  1  0  0  0
 10 26  4  0  0  0
 11 19  1  0  0  0
 11 20  1  0  0  0
 11 21  1  0  0  0
 16 12  1  0  0  0
 13 22  1  0  0  0
 13 23  2  0  0  0
 24 13  1  0  0  0
 15 14  1  0  0  0
 14 24  1  0  0  0
 15 16  1  0  0  0
 16 17  1  0  0  0
 17 18  1  0  0  0
 18 24  1  0  0  0
  3 28  1  0  0  0
  5 29  1  0  0  0
  5 30  1  0  0  0
  7 31  1  0  0  0
  8 32  1  0  0  0
  9 33  1  0  0  0
 12 34  1  0  0  0
 12 35  1  0  0  0
 12 36  1  0  0  0
 14 37  1  0  0  0
 14 38  1  0  0  0
 15 39  1  0  0  0
 15 40  1  0  0  0
 17 41  1  0  0  0
 17 42  1  0  0  0
 18 43  1  0  0  0
 18 44  1  0  0  0
 22 45  1  0  0  0
 25 46  1  0  0  0
 25 47  1  0  0  0
 25 48  1  0  0  0
M  END
$$$$
