5ovi_ligand
  -I-interpret- 

 61 64  0  0  0  0  0  0  0  0999 V2000
    0.8750  -31.7740   42.9110 N   0  0  0  0  0
    1.7570  -31.3080   43.8150 C   0  0  0  0  0
    1.3790  -30.4340   44.8630 C   0  0  0  0  0
    0.0620  -29.9900   45.0690 C   0  0  0  0  0
   -0.2670  -29.1250   46.1240 C   0  0  0  0  0
    0.7320  -28.6930   47.0010 C   0  0  0  0  0
    2.0510  -29.1270   46.8050 C   0  0  0  0  0
    1.1640  -36.3170   43.8770 C   0  0  0  0  0
   -0.0840  -36.0500   43.4460 C   0  0  0  0  0
   -1.1580  -36.9080   43.6880 C   0  0  0  0  0
   -2.9820  -38.2330   42.7800 C   0  0  0  0  0
   -2.5890  -38.1760   45.1650 C   0  0  0  0  0
    1.4370  -27.4300   48.9130 C   0  0  0  0  0
    0.3810  -27.8510   48.0260 O   0  0  0  0  0
   -1.5490  -28.6860   46.3370 O   0  0  0  0  0
   -2.5510  -29.0830   45.3920 C   0  0  0  0  0
    2.3720  -29.9920   45.7500 C   0  0  0  0  0
    3.6450  -30.3990   45.5810 N   0  0  0  0  0
    3.9870  -31.2270   44.5790 C   0  0  0  0  0
    5.4460  -31.6620   44.4270 C   0  0  0  0  0
    3.0560  -31.6700   43.7090 N   0  0  0  0  0
    1.1550  -32.8540   41.9460 C   0  0  0  0  0
    0.2270  -32.7100   40.7350 C   0  0  0  0  0
    0.9500  -34.2000   42.6440 C   0  0  0  0  0
   -0.1950  -34.8810   42.7670 C   0  0  0  0  0
    2.1700  -35.0500   43.4080 S   0  0  0  0  0
   -1.9010  -37.3710   42.5940 C   0  0  0  0  0
   -3.3260  -38.6370   44.0720 C   0  0  0  0  0
   -1.5020  -37.3050   45.0020 C   0  0  0  0  0
   -0.7570  -36.8720   46.2920 C   0  0  0  0  0
   -1.6470  -36.2520   47.2910 N   0  3  0  0  0
   -0.8990  -35.8610   48.5010 C   0  0  0  0  0
   -0.0526  -31.3503   42.8920 H   0  0  0  0  0
   -0.7239  -30.3258   44.3924 H   0  0  0  0  0
    2.8358  -28.7876   47.4811 H   0  0  0  0  0
    1.4706  -37.2021   44.4343 H   0  0  0  0  0
   -3.5541  -38.5887   41.9231 H   0  0  0  0  0
   -2.8651  -38.5007   46.1682 H   0  0  0  0  0
    1.8809  -28.3047   49.3883 H   0  0  0  0  0
    2.1990  -26.8990   48.3424 H   0  0  0  0  0
    1.0266  -26.7691   49.6765 H   0  0  0  0  0
   -2.2810  -28.7154   44.4020 H   0  0  0  0  0
   -2.6183  -30.1707   45.3711 H   0  0  0  0  0
   -3.5130  -28.6637   45.6867 H   0  0  0  0  0
    6.0721  -30.7827   44.2756 H   0  0  0  0  0
    5.7638  -32.1849   45.3291 H   0  0  0  0  0
    5.5379  -32.3272   43.5684 H   0  0  0  0  0
    2.1840  -32.7946   41.5915 H   0  0  0  0  0
    0.4360  -33.5074   40.0218 H   0  0  0  0  0
   -0.8101  -32.7774   41.0636 H   0  0  0  0  0
    0.3973  -31.7432   40.2613 H   0  0  0  0  0
   -1.1396  -34.5256   42.3553 H   0  0  0  0  0
   -1.6314  -37.0542   41.5865 H   0  0  0  0  0
   -4.1684  -39.3111   44.2270 H   0  0  0  0  0
   -0.0078  -36.1321   46.0102 H   0  0  0  0  0
   -0.3249  -37.7659   46.7417 H   0  0  0  0  0
   -2.3625  -36.9293   47.5549 H   0  0  0  0  0
   -2.0642  -35.4162   46.8815 H   0  0  0  0  0
   -0.4396  -36.7446   48.9440 H   0  0  0  0  0
   -0.1240  -35.1435   48.2315 H   0  0  0  0  0
   -1.5827  -35.4070   49.2184 H   0  0  0  0  0
  1  2  1  0  0  0
 22  1  1  0  0  0
  2  3  4  0  0  0
  2 21  4  0  0  0
  3  4  4  0  0  0
  3 17  4  0  0  0
  4  5  4  0  0  0
  5  6  4  0  0  0
  5 15  1  0  0  0
  7  6  4  0  0  0
  6 14  1  0  0  0
 17  7  4  0  0  0
  9  8  4  0  0  0
  8 26  4  0  0  0
  9 10  1  0  0  0
 25  9  4  0  0  0
 10 27  4  0  0  0
 10 29  4  0  0  0
 27 11  4  0  0  0
 11 28  4  0  0  0
 12 28  4  0  0  0
 29 12  4  0  0  0
 14 13  1  0  0  0
 15 16  1  0  0  0
 17 18  4  0  0  0
 19 18  4  0  0  0
 19 20  1  0  0  0
 21 19  4  0  0  0
 22 23  1  0  0  0
 24 22  1  0  0  0
 24 25  4  0  0  0
 24 26  4  0  0  0
 29 30  1  0  0  0
 30 31  1  0  0  0
 31 32  1  0  0  0
  1 33  1  0  0  0
  4 34  1  0  0  0
  7 35  1  0  0  0
  8 36  1  0  0  0
 11 37  1  0  0  0
 12 38  1  0  0  0
 13 39  1  0  0  0
 13 40  1  0  0  0
 13 41  1  0  0  0
 16 42  1  0  0  0
 16 43  1  0  0  0
 16 44  1  0  0  0
 20 45  1  0  0  0
 20 46  1  0  0  0
 20 47  1  0  0  0
 22 48  1  0  0  0
 23 49  1  0  0  0
 23 50  1  0  0  0
 23 51  1  0  0  0
 25 52  1  0  0  0
 27 53  1  0  0  0
 28 54  1  0  0  0
 30 55  1  0  0  0
 30 56  1  0  0  0
 31 57  1  0  0  0
 31 58  1  0  0  0
 32 59  1  0  0  0
 32 60  1  0  0  0
 32 61  1  0  0  0
M  END
$$$$
