3nu4_ligand
  -I-interpret- 

 70 72  0  0  0  0  0  0  0  0999 V2000
   12.4140   18.1580   19.8240 C   0  0  0  0  0
   14.3460   19.0590   20.8790 C   0  0  0  0  0
   14.5170   20.7300   18.2950 C   0  0  0  0  0
   13.7610   18.8090   19.4840 C   0  0  0  0  0
   15.0150   22.9050   17.1380 C   0  0  0  0  0
   15.4490   23.9970   18.0940 C   0  0  0  0  0
   14.2540   23.3390   15.8940 C   0  0  0  0  0
   13.8220   22.2310   14.9890 C   0  0  0  0  0
   12.5230   21.7390   15.0190 C   0  0  0  0  0
   14.7520   21.6390   14.1380 C   0  0  0  0  0
   12.2260   20.6070   14.2360 C   0  0  0  0  0
   14.4620   20.5580   13.3160 C   0  0  0  0  0
   13.1790   20.0540   13.3860 C   0  0  0  0  0
   16.5710   24.8860   17.5760 C   0  0  0  0  0
   18.7870   24.6260   18.5170 C   0  0  0  0  0
   18.4920   23.9600   19.8900 C   0  0  0  0  0
   19.3390   25.3170   15.3460 C   0  0  0  0  0
   18.6440   26.2570   14.6090 C   0  0  0  0  0
   19.1700   27.4660   14.1590 C   0  0  0  0  0
   20.4910   27.7420   14.4800 C   0  0  0  0  0
   21.2190   26.7810   15.1570 C   0  0  0  0  0
   20.6840   25.6050   15.6650 C   0  0  0  0  0
   18.5910   22.4550   19.7440 C   0  0  0  0  0
   19.5610   24.4480   20.9010 C   0  0  0  0  0
   13.2710   18.5670   21.8440 C   0  0  0  0  0
   14.1800   21.9600   17.8550 N   0  0  0  0  0
   17.8500   24.2330   17.4690 N   0  0  0  0  0
   21.0690   28.8790   14.0010 N   0  0  0  0  0
   13.4800   20.0940   18.9260 O   0  0  0  0  0
   15.6260   20.2270   18.2190 O   0  0  0  0  0
   14.3320   24.8170   18.4480 O   0  0  0  0  0
   17.4450   23.6140   15.0580 O   0  0  0  0  0
   19.5550   22.8550   16.2380 O   0  0  0  0  0
   12.0330   18.6730   21.1260 O   0  0  0  0  0
   18.5320   23.9100   16.0040 S   0  0  0  0  0
   12.4955   17.0712   19.8397 H   0  0  0  0  0
   11.6617   18.3955   19.0719 H   0  0  0  0  0
   14.5841   20.1108   21.0375 H   0  0  0  0  0
   15.2916   18.5363   21.0230 H   0  0  0  0  0
   14.3913   18.2287   18.8102 H   0  0  0  0  0
   15.9517   22.4841   16.7727 H   0  0  0  0  0
   15.8459   23.4728   18.9633 H   0  0  0  0  0
   14.9329   23.9664   15.3164 H   0  0  0  0  0
   13.3450   23.8307   16.2405 H   0  0  0  0  0
   11.7566   22.2152   15.6305 H   0  0  0  0  0
   15.7627   22.0464   14.1160 H   0  0  0  0  0
   11.2350   20.1572   14.2966 H   0  0  0  0  0
   15.2099   20.1291   12.6491 H   0  0  0  0  0
   12.9060   19.2035   12.7613 H   0  0  0  0  0
   16.6878   25.7008   18.2906 H   0  0  0  0  0
   16.2894   25.2020   16.5715 H   0  0  0  0  0
   19.7817   24.3082   18.2045 H   0  0  0  0  0
   18.6989   25.7044   18.6491 H   0  0  0  0  0
   17.4929   24.2243   20.2364 H   0  0  0  0  0
   17.6059   26.0358   14.3611 H   0  0  0  0  0
   18.5686   28.1659   13.5789 H   0  0  0  0  0
   22.2847   26.9587   15.3016 H   0  0  0  0  0
   21.2774   24.9322   16.2842 H   0  0  0  0  0
   17.8637   22.1141   19.0071 H   0  0  0  0  0
   19.5955   22.1884   19.4153 H   0  0  0  0  0
   18.3848   21.9837   20.7049 H   0  0  0  0  0
   20.5513   24.1600   20.5481 H   0  0  0  0  0
   19.5068   25.5330   20.9897 H   0  0  0  0  0
   19.3739   23.9929   21.8736 H   0  0  0  0  0
   13.2541   19.1597   22.7586 H   0  0  0  0  0
   13.4605   17.5424   22.1640 H   0  0  0  0  0
   13.2251   22.2611   18.0495 H   0  0  0  0  0
   20.5311   29.5161   13.4135 H   0  0  0  0  0
   22.0396   29.0932   14.2299 H   0  0  0  0  0
   13.6203   24.2623   18.7757 H   0  0  0  0  0
  4  1  1  0  0  0
  1 34  1  0  0  0
  4  2  1  0  0  0
  2 25  1  0  0  0
 26  3  1  0  0  0
  3 29  1  0  0  0
  3 30  2  0  0  0
 29  4  1  0  0  0
  6  5  1  0  0  0
  5  7  1  0  0  0
  5 26  1  0  0  0
 14  6  1  0  0  0
  6 31  1  0  0  0
  7  8  1  0  0  0
  8  9  4  0  0  0
  8 10  4  0  0  0
  9 11  4  0  0  0
 10 12  4  0  0  0
 11 13  4  0  0  0
 12 13  4  0  0  0
 27 14  1  0  0  0
 15 16  1  0  0  0
 27 15  1  0  0  0
 16 23  1  0  0  0
 16 24  1  0  0  0
 17 18  4  0  0  0
 17 22  4  0  0  0
 35 17  1  0  0  0
 18 19  4  0  0  0
 19 20  4  0  0  0
 21 20  4  0  0  0
 20 28  1  0  0  0
 22 21  4  0  0  0
 25 34  1  0  0  0
 27 35  1  0  0  0
 35 32  2  0  0  0
 35 33  2  0  0  0
  1 36  1  0  0  0
  1 37  1  0  0  0
  2 38  1  0  0  0
  2 39  1  0  0  0
  4 40  1  0  0  0
  5 41  1  0  0  0
  6 42  1  0  0  0
  7 43  1  0  0  0
  7 44  1  0  0  0
  9 45  1  0  0  0
 10 46  1  0  0  0
 11 47  1  0  0  0
 12 48  1  0  0  0
 13 49  1  0  0  0
 14 50  1  0  0  0
 14 51  1  0  0  0
 15 52  1  0  0  0
 15 53  1  0  0  0
 16 54  1  0  0  0
 18 55  1  0  0  0
 19 56  1  0  0  0
 21 57  1  0  0  0
 22 58  1  0  0  0
 23 59  1  0  0  0
 23 60  1  0  0  0
 23 61  1  0  0  0
 24 62  1  0  0  0
 24 63  1  0  0  0
 24 64  1  0  0  0
 25 65  1  0  0  0
 25 66  1  0  0  0
 26 67  1  0  0  0
 28 68  1  0  0  0
 28 69  1  0  0  0
 31 70  1  0  0  0
M  END
$$$$
