3mt7_ligand
  -I-interpret- 

 42 43  0  0  0  0  0  0  0  0999 V2000
   19.4060   15.1210   56.1550 C   0  0  0  0  0
   18.9420   13.8410   55.6620 N   0  0  0  0  0
   18.5840   13.0230   58.1690 S   0  0  0  0  0
   17.2930    9.4990   48.2620 Br  0  0  0  0  0
   20.7350   15.4720   55.4670 C   0  0  0  0  0
   18.1020   11.7540   55.9480 N   0  0  0  0  0
   21.7650   14.5700   55.9010 O   0  0  0  0  0
   21.0660   16.9480   55.7510 C   0  0  0  0  0
   18.0700   11.6460   54.7170 N   0  0  0  0  0
   22.2310   17.3610   55.0310 O   0  0  0  0  0
   19.8820   17.8420   55.3630 C   0  0  0  0  0
   20.1450   19.2230   55.6380 O   0  0  0  0  0
   18.6490   17.3850   56.1350 C   0  0  0  0  0
   18.3920   16.0370   55.7370 O   0  0  0  0  0
   17.3940   18.2320   55.9030 C   0  0  0  0  0
   17.1900   18.4360   54.5000 O   0  0  0  0  0
   18.5370   12.8740   56.4810 C   0  0  0  0  0
   17.6520   10.5710   54.2470 C   0  0  0  0  0
   17.5800   10.3450   52.8000 C   0  0  0  0  0
   16.7510    9.3290   52.3420 C   0  0  0  0  0
   16.6760    9.0840   50.9810 C   0  0  0  0  0
   17.4220    9.8570   50.1050 C   0  0  0  0  0
   18.2520   10.8890   50.5560 C   0  0  0  0  0
   18.3320   11.1300   51.9180 C   0  0  0  0  0
   19.5709   15.1356   57.2323 H   0  0  0  0  0
   18.9251   13.6756   54.6556 H   0  0  0  0  0
   20.6568   15.3533   54.3863 H   0  0  0  0  0
   21.5050   13.6682   55.6990 H   0  0  0  0  0
   21.2620   17.0471   56.8186 H   0  0  0  0  0
   22.9716   16.8008   55.2745 H   0  0  0  0  0
   19.7160   17.7502   54.2896 H   0  0  0  0  0
   19.3839   19.7495   55.3828 H   0  0  0  0  0
   18.8654   17.4881   57.1983 H   0  0  0  0  0
   17.5199   19.1988   56.3904 H   0  0  0  0  0
   16.5303   17.7127   56.3182 H   0  0  0  0  0
   16.4017   18.9674   54.3663 H   0  0  0  0  0
   16.6113   10.5331   54.5687 H   0  0  0  0  0
   18.3804    9.8361   54.5896 H   0  0  0  0  0
   16.1677    8.7329   53.0439 H   0  0  0  0  0
   16.0347    8.2887   50.6012 H   0  0  0  0  0
   18.8241   11.4912   49.8502 H   0  0  0  0  0
   18.9746   11.9236   52.2993 H   0  0  0  0  0
  2  1  1  0  0  0
  1  5  1  0  0  0
  1 14  1  0  0  0
 17  2  1  0  0  0
 17  3  2  0  0  0
 22  4  1  0  0  0
  5  7  1  0  0  0
  5  8  1  0  0  0
  9  6  2  0  0  0
  6 17  1  0  0  0
  8 10  1  0  0  0
  8 11  1  0  0  0
 18  9  1  0  0  0
 11 12  1  0  0  0
 13 11  1  0  0  0
 14 13  1  0  0  0
 13 15  1  0  0  0
 15 16  1  0  0  0
 19 18  1  0  0  0
 20 19  4  0  0  0
 19 24  4  0  0  0
 21 20  4  0  0  0
 21 22  4  0  0  0
 22 23  4  0  0  0
 23 24  4  0  0  0
  1 25  1  0  0  0
  2 26  1  0  0  0
  5 27  1  0  0  0
  7 28  1  0  0  0
  8 29  1  0  0  0
 10 30  1  0  0  0
 11 31  1  0  0  0
 12 32  1  0  0  0
 13 33  1  0  0  0
 15 34  1  0  0  0
 15 35  1  0  0  0
 16 36  1  0  0  0
 18 37  1  0  0  0
 18 38  1  0  0  0
 20 39  1  0  0  0
 21 40  1  0  0  0
 23 41  1  0  0  0
 24 42  1  0  0  0
M  END
$$$$
