### 
### Created by X-TOOL on Mon Sep 10 21:12:46 2018
### 

@<TRIPOS>MOLECULE
1bbz_ligand
  144   150     1     0     0
SMALL
GAST_HUCK


@<TRIPOS>ATOM
      1 C          15.9570   27.9000    9.3420 C.2       1 ACE         0.1751
      2 O          15.4610   27.9470    8.2110 O.2       1 ACE        -0.3972
      3 CH3        17.2670   27.1320    9.5190 C.3       1 ACE         0.0258
      4 N          15.3980   28.4630   10.4080 N.am      1 ALA        -0.2661
      5 CA         14.1490   29.2120   10.3090 C.3       1 ALA         0.1283
      6 C          14.3920   30.5550    9.6200 C.2       1 ALA         0.2061
      7 O          15.4780   31.1040    9.7070 O.2       1 ALA        -0.3942
      8 CB         13.5490   29.4250   11.6930 C.3       1 ALA        -0.0244
      9 N          13.3940   31.0830    8.8930 N.am      1 PRO        -0.2498
     10 CA         13.6190   32.3740    8.2360 C.3       1 PRO         0.1338
     11 C          13.9990   33.4520    9.2630 C.2       1 PRO         0.2042
     12 O          13.5600   33.4130   10.4100 O.2       1 PRO        -0.3944
     13 CB         12.2600   32.6630    7.5960 C.3       1 PRO        -0.0104
     14 CG         11.7510   31.2870    7.2600 C.3       1 PRO        -0.0281
     15 CD         12.0800   30.5250    8.5270 C.3       1 PRO         0.0369
     16 N          14.8420   34.3980    8.8630 N.am      1 SER        -0.2616
     17 CA         15.2470   35.4610    9.7730 C.3       1 SER         0.1539
     18 C          14.2250   36.5950    9.7230 C.2       1 SER         0.2063
     19 O          14.0740   37.3490   10.6870 O.2       1 SER        -0.3943
     20 CB         16.6360   35.9820    9.3970 C.3       1 SER         0.0843
     21 OG         17.5550   34.9070    9.2300 O.3       1 SER        -0.3903
     22 N          13.5530   36.7260    8.5810 N.am      1 TYR        -0.2621
     23 CA         12.5370   37.7530    8.4010 C.3       1 TYR         0.1390
     24 C          11.2630   37.4040    9.1730 C.2       1 TYR         0.2058
     25 O          11.1340   36.3070    9.7470 O.2       1 TYR        -0.3942
     26 CB         12.2480   38.0010    6.9110 C.3       1 TYR         0.0163
     27 CG         11.9590   36.7600    6.0990 C.ar      1 TYR        -0.0493
     28 CD1        10.7140   36.1220    6.1750 C.ar      1 TYR        -0.0685
     29 CD2        12.9280   36.2190    5.2570 C.ar      1 TYR        -0.0685
     30 CE1        10.4440   34.9720    5.4300 C.ar      1 TYR        -0.0398
     31 CE2        12.6710   35.0710    4.5090 C.ar      1 TYR        -0.0398
     32 CZ         11.4230   34.4490    4.6020 C.ar      1 TYR         0.0805
     33 OH         11.1680   33.3000    3.8830 O.3       1 TYR        -0.3376
     34 N          10.3320   38.3430    9.2110 N.am      1 SER        -0.2614
     35 CA          9.1020   38.1320    9.9510 C.3       1 SER         0.1541
     36 C           8.0340   37.3430    9.2030 C.2       1 SER         0.2087
     37 O           7.9760   37.3800    7.9730 O.2       1 SER        -0.3941
     38 CB          8.5080   39.4780   10.3500 C.3       1 SER         0.0843
     39 OG          7.2810   39.2950   11.0200 O.3       1 SER        -0.3903
     40 N           7.2410   36.5350    9.9400 N.am      1 PRO        -0.2498
     41 CA          6.1780   35.7700    9.2820 C.3       1 PRO         0.1340
     42 C           5.0960   36.7940    8.9500 C.2       1 PRO         0.2066
     43 O           4.9470   37.7980    9.6490 O.2       1 PRO        -0.3942
     44 CB          5.7320   34.7900   10.3690 C.3       1 PRO        -0.0104
     45 CG          6.0360   35.5230   11.6380 C.3       1 PRO        -0.0281
     46 CD          7.3810   36.1360   11.3530 C.3       1 PRO         0.0369
     47 N           4.3550   36.5840    7.8670 N.am      1 PRO        -0.2498
     48 CA          3.3310   37.5820    7.5690 C.3       1 PRO         0.1340
     49 C           2.2460   37.5330    8.6260 C.2       1 PRO         0.2066
     50 O           1.9880   36.4780    9.2120 O.2       1 PRO        -0.3942
     51 CB          2.8090   37.1320    6.2070 C.3       1 PRO        -0.0104
     52 CG          2.9080   35.6320    6.3030 C.3       1 PRO        -0.0281
     53 CD          4.2750   35.4390    6.9450 C.3       1 PRO         0.0369
     54 N           1.6430   38.6870    8.9400 N.am      1 PRO        -0.2498
     55 CA          0.5810   38.7330    9.9470 C.3       1 PRO         0.1340
     56 C          -0.6560   38.0500    9.3990 C.2       1 PRO         0.2066
     57 O          -0.7640   37.8280    8.2020 O.2       1 PRO        -0.3942
     58 CB          0.3430   40.2320   10.1190 C.3       1 PRO        -0.0104
     59 CG          0.6820   40.7810    8.7710 C.3       1 PRO        -0.0281
     60 CD          1.9470   40.0330    8.4300 C.3       1 PRO         0.0369
     61 N          -1.5750   37.6460   10.2750 N.am      1 PRO        -0.2498
     62 CA         -2.7910   36.9880    9.7930 C.3       1 PRO         0.1339
     63 C          -3.4880   37.8680    8.7490 C.2       1 PRO         0.2060
     64 O          -3.4570   39.1040    8.8390 O.2       1 PRO        -0.3942
     65 CB         -3.6190   36.8520   11.0650 C.3       1 PRO        -0.0104
     66 CG         -2.5530   36.6530   12.1150 C.3       1 PRO        -0.0281
     67 CD         -1.5520   37.7100   11.7450 C.3       1 PRO         0.0369
     68 N          -4.0850   37.2430    7.7250 N.am      1 PRO        -0.2556
     69 CA         -4.7770   37.9900    6.6730 C.3       1 PRO         0.0972
     70 C          -6.0000   38.7590    7.1750 C.2       1 PRO         0.0603
     71 O          -6.6030   38.3400    8.1920 O.co2     1 PRO        -0.5666
     72 CB         -5.1400   36.8990    5.6630 C.3       1 PRO        -0.0159
     73 CG         -5.3150   35.6990    6.5210 C.3       1 PRO        -0.0288
     74 CD         -4.1650   35.7930    7.4830 C.3       1 PRO         0.0362
     75 OXT        -6.3070   39.7980    6.5530 O.co2     1 PRO        -0.5666
     76 H1         17.5806   27.1798   10.5723 H         1 ACE         0.0467
     77 H2         18.0445   27.5820    8.8842 H         1 ACE         0.0467
     78 H3         17.1185   26.0817    9.2280 H         1 ACE         0.0467
     79 H4         15.8433   28.3714   11.2987 H         1 ALA         0.1882
     80 H5         13.4375   28.6307    9.7041 H         1 ALA         0.0797
     81 H6         12.6096   29.9900   11.6023 H         1 ALA         0.0277
     82 H7         14.2576   29.9895   12.3169 H         1 ALA         0.0277
     83 H8         13.3465   28.4494   12.1590 H         1 ALA         0.0277
     84 H9         14.4080   32.3004    7.4731 H         1 PRO         0.0802
     85 H10        12.3711   33.2766    6.6899 H         1 PRO         0.0313
     86 H11        11.5889   33.1719    8.3035 H         1 PRO         0.0313
     87 H12        12.2761   30.8657    6.3901 H         1 PRO         0.0287
     88 H13        10.6683   31.2954    7.0660 H         1 PRO         0.0287
     89 H14        11.3332   30.7150    9.3120 H         1 PRO         0.0524
     90 H15        12.1449   29.4436    8.3366 H         1 PRO         0.0524
     91 H16        15.2012   34.3801    7.9299 H         1 SER         0.1884
     92 H17        15.2845   35.0594   10.7964 H         1 SER         0.0823
     93 H18        16.9997   36.6457   10.1952 H         1 SER         0.0606
     94 H19        16.5662   36.5455    8.4549 H         1 SER         0.0606
     95 H20        17.2466   34.3327    8.5389 H         1 SER         0.2097
     96 H21        13.7518   36.1014    7.8258 H         1 TYR         0.1885
     97 H22        12.9329   38.6896    8.8206 H         1 TYR         0.0821
     98 H23        13.1252   38.4988    6.4720 H         1 TYR         0.0453
     99 H24        11.3748   38.6661    6.8393 H         1 TYR         0.0453
    100 H25         9.9465   36.5283    6.8237 H         1 TYR         0.0530
    101 H26        13.8974   36.6984    5.1822 H         1 TYR         0.0530
    102 H27         9.4745   34.4920    5.4994 H         1 TYR         0.0525
    103 H28        13.4357   34.6627    3.8582 H         1 TYR         0.0525
    104 H29        11.2663   33.4799    2.9553 H         1 TYR         0.2458
    105 H30        10.4772   39.2052    8.7258 H         1 SER         0.1884
    106 H31         9.3563   37.5720   10.8630 H         1 SER         0.0823
    107 H32         8.3407   40.0825    9.4463 H         1 SER         0.0606
    108 H33         9.2101   40.0008   11.0161 H         1 SER         0.0606
    109 H34         6.6719   38.8455   10.4459 H         1 SER         0.2097
    110 H35         6.5202   35.2447    8.3781 H         1 PRO         0.0802
    111 H36         6.3012   33.8505   10.3104 H         1 PRO         0.0313
    112 H37         4.6567   34.5730   10.2871 H         1 PRO         0.0313
    113 H38         6.0882   34.8320   12.4923 H         1 PRO         0.0287
    114 H39         5.2816   36.2980   11.8388 H         1 PRO         0.0287
    115 H40         7.5682   37.0072   11.9980 H         1 PRO         0.0524
    116 H41         8.1904   35.4026   11.4832 H         1 PRO         0.0524
    117 H42         3.7560   38.5952    7.5172 H         1 PRO         0.0802
    118 H43         3.4367   37.5210    5.3917 H         1 PRO         0.0313
    119 H44         1.7682   37.4532    6.0536 H         1 PRO         0.0313
    120 H45         2.8655   35.1652    5.3079 H         1 PRO         0.0287
    121 H46         2.1086   35.2194    6.9360 H         1 PRO         0.0287
    122 H47         4.3278   34.4848    7.4897 H         1 PRO         0.0524
    123 H48         5.0768   35.4767    6.1929 H         1 PRO         0.0524
    124 H49         0.8903   38.2617   10.8916 H         1 PRO         0.0802
    125 H50         1.0018   40.6509   10.8939 H         1 PRO         0.0313
    126 H51        -0.7058   40.4390   10.3782 H         1 PRO         0.0313
    127 H52         0.8599   41.8656    8.8155 H         1 PRO         0.0287
    128 H53        -0.1147   40.5697    8.0426 H         1 PRO         0.0287
    129 H54         2.1251   40.0200    7.3446 H         1 PRO         0.0524
    130 H55         2.8196   40.4675    8.9396 H         1 PRO         0.0524
    131 H56        -2.5700   36.0026    9.3571 H         1 PRO         0.0802
    132 H57        -4.2938   35.9850   11.0116 H         1 PRO         0.0313
    133 H58        -4.2057   37.7620   11.2589 H         1 PRO         0.0313
    134 H59        -2.1134   35.6466   12.0530 H         1 PRO         0.0287
    135 H60        -2.9524   36.8170   13.1267 H         1 PRO         0.0287
    136 H61        -1.8634   38.7007   12.1076 H         1 PRO         0.0524
    137 H62        -0.5536   37.4719   12.1406 H         1 PRO         0.0524
    138 H63        -4.0873   38.7134    6.2137 H         1 PRO         0.0728
    139 H64        -4.3304   36.7495    4.9336 H         1 PRO         0.0306
    140 H65        -6.0713   37.1451    5.1319 H         1 PRO         0.0306
    141 H66        -5.2561   34.7763    5.9251 H         1 PRO         0.0286
    142 H67        -6.2774   35.7314    7.0527 H         1 PRO         0.0286
    143 H68        -4.3758   35.2438    8.4125 H         1 PRO         0.0524
    144 H69        -3.2363   35.4110    7.0340 H         1 PRO         0.0524
@<TRIPOS>BOND
     1    1    2 2  
     2    1    3 1  
     3    1    4 am 
     4    4    5 1  
     5    5    6 1  
     6    5    8 1  
     7    6    7 2  
     8    6    9 am 
     9    9   10 1  
    10    9   15 1  
    11   10   11 1  
    12   10   13 1  
    13   11   12 2  
    14   11   16 am 
    15   13   14 1  
    16   14   15 1  
    17   16   17 1  
    18   17   18 1  
    19   17   20 1  
    20   18   19 2  
    21   18   22 am 
    22   20   21 1  
    23   22   23 1  
    24   23   24 1  
    25   23   26 1  
    26   24   25 2  
    27   24   34 am 
    28   26   27 1  
    29   27   28 ar 
    30   27   29 ar 
    31   28   30 ar 
    32   29   31 ar 
    33   30   32 ar 
    34   31   32 ar 
    35   32   33 1  
    36   34   35 1  
    37   35   36 1  
    38   35   38 1  
    39   36   37 2  
    40   36   40 am 
    41   38   39 1  
    42   40   41 1  
    43   40   46 1  
    44   41   42 1  
    45   41   44 1  
    46   42   43 2  
    47   42   47 am 
    48   44   45 1  
    49   45   46 1  
    50   47   48 1  
    51   47   53 1  
    52   48   49 1  
    53   48   51 1  
    54   49   50 2  
    55   49   54 am 
    56   51   52 1  
    57   52   53 1  
    58   54   55 1  
    59   54   60 1  
    60   55   56 1  
    61   55   58 1  
    62   56   57 2  
    63   56   61 am 
    64   58   59 1  
    65   59   60 1  
    66   61   62 1  
    67   61   67 1  
    68   62   63 1  
    69   62   65 1  
    70   63   64 2  
    71   63   68 am 
    72   65   66 1  
    73   66   67 1  
    74   68   69 1  
    75   68   74 1  
    76   69   70 1  
    77   69   72 1  
    78   70   71 ar 
    79   70   75 ar 
    80   72   73 1  
    81   73   74 1  
    82    3   76 1  
    83    3   77 1  
    84    3   78 1  
    85    4   79 1  
    86    5   80 1  
    87    8   81 1  
    88    8   82 1  
    89    8   83 1  
    90   10   84 1  
    91   13   85 1  
    92   13   86 1  
    93   14   87 1  
    94   14   88 1  
    95   15   89 1  
    96   15   90 1  
    97   16   91 1  
    98   17   92 1  
    99   20   93 1  
   100   20   94 1  
   101   21   95 1  
   102   22   96 1  
   103   23   97 1  
   104   26   98 1  
   105   26   99 1  
   106   28  100 1  
   107   29  101 1  
   108   30  102 1  
   109   31  103 1  
   110   33  104 1  
   111   34  105 1  
   112   35  106 1  
   113   38  107 1  
   114   38  108 1  
   115   39  109 1  
   116   41  110 1  
   117   44  111 1  
   118   44  112 1  
   119   45  113 1  
   120   45  114 1  
   121   46  115 1  
   122   46  116 1  
   123   48  117 1  
   124   51  118 1  
   125   51  119 1  
   126   52  120 1  
   127   52  121 1  
   128   53  122 1  
   129   53  123 1  
   130   55  124 1  
   131   58  125 1  
   132   58  126 1  
   133   59  127 1  
   134   59  128 1  
   135   60  129 1  
   136   60  130 1  
   137   62  131 1  
   138   65  132 1  
   139   65  133 1  
   140   66  134 1  
   141   66  135 1  
   142   67  136 1  
   143   67  137 1  
   144   69  138 1  
   145   72  139 1  
   146   72  140 1  
   147   73  141 1  
   148   73  142 1  
   149   74  143 1  
   150   74  144 1  
@<TRIPOS>SUBSTRUCTURE
     1 ACE         1

