1bbz_ligand
  -I-interpret- 

145151  0  0  0  0  0  0  0  0999 V2000
   15.9570   27.9000    9.3420 C   0  0  0  0  0
   15.4610   27.9470    8.2110 O   0  0  0  0  0
   17.2670   27.1320    9.5190 C   0  0  0  0  0
   15.3980   28.4630   10.4080 N   0  0  0  0  0
   14.1490   29.2120   10.3090 C   0  0  0  0  0
   14.3920   30.5550    9.6200 C   0  0  0  0  0
   15.4780   31.1040    9.7070 O   0  0  0  0  0
   13.5490   29.4250   11.6930 C   0  0  0  0  0
   13.3940   31.0830    8.8930 N   0  0  0  0  0
   13.6190   32.3740    8.2360 C   0  0  0  0  0
   13.9990   33.4520    9.2630 C   0  0  0  0  0
   13.5600   33.4130   10.4100 O   0  0  0  0  0
   12.2600   32.6630    7.5960 C   0  0  0  0  0
   11.7510   31.2870    7.2600 C   0  0  0  0  0
   12.0800   30.5250    8.5270 C   0  0  0  0  0
   14.8420   34.3980    8.8630 N   0  0  0  0  0
   15.2470   35.4610    9.7730 C   0  0  0  0  0
   14.2250   36.5950    9.7230 C   0  0  0  0  0
   14.0740   37.3490   10.6870 O   0  0  0  0  0
   16.6360   35.9820    9.3970 C   0  0  0  0  0
   17.5550   34.9070    9.2300 O   0  0  0  0  0
   13.5530   36.7260    8.5810 N   0  0  0  0  0
   12.5370   37.7530    8.4010 C   0  0  0  0  0
   11.2630   37.4040    9.1730 C   0  0  0  0  0
   11.1340   36.3070    9.7470 O   0  0  0  0  0
   12.2480   38.0010    6.9110 C   0  0  0  0  0
   11.9590   36.7600    6.0990 C   0  0  0  0  0
   10.7140   36.1220    6.1750 C   0  0  0  0  0
   12.9280   36.2190    5.2570 C   0  0  0  0  0
   10.4440   34.9720    5.4300 C   0  0  0  0  0
   12.6710   35.0710    4.5090 C   0  0  0  0  0
   11.4230   34.4490    4.6020 C   0  0  0  0  0
   11.1680   33.3000    3.8830 O   0  0  0  0  0
   10.3320   38.3430    9.2110 N   0  0  0  0  0
    9.1020   38.1320    9.9510 C   0  0  0  0  0
    8.0340   37.3430    9.2030 C   0  0  0  0  0
    7.9760   37.3800    7.9730 O   0  0  0  0  0
    8.5080   39.4780   10.3500 C   0  0  0  0  0
    7.2810   39.2950   11.0200 O   0  0  0  0  0
    7.2410   36.5350    9.9400 N   0  0  0  0  0
    6.1780   35.7700    9.2820 C   0  0  0  0  0
    5.0960   36.7940    8.9500 C   0  0  0  0  0
    4.9470   37.7980    9.6490 O   0  0  0  0  0
    5.7320   34.7900   10.3690 C   0  0  0  0  0
    6.0360   35.5230   11.6380 C   0  0  0  0  0
    7.3810   36.1360   11.3530 C   0  0  0  0  0
    4.3550   36.5840    7.8670 N   0  0  0  0  0
    3.3310   37.5820    7.5690 C   0  0  0  0  0
    2.2460   37.5330    8.6260 C   0  0  0  0  0
    1.9880   36.4780    9.2120 O   0  0  0  0  0
    2.8090   37.1320    6.2070 C   0  0  0  0  0
    2.9080   35.6320    6.3030 C   0  0  0  0  0
    4.2750   35.4390    6.9450 C   0  0  0  0  0
    1.6430   38.6870    8.9400 N   0  0  0  0  0
    0.5810   38.7330    9.9470 C   0  0  0  0  0
   -0.6560   38.0500    9.3990 C   0  0  0  0  0
   -0.7640   37.8280    8.2020 O   0  0  0  0  0
    0.3430   40.2320   10.1190 C   0  0  0  0  0
    0.6820   40.7810    8.7710 C   0  0  0  0  0
    1.9470   40.0330    8.4300 C   0  0  0  0  0
   -1.5750   37.6460   10.2750 N   0  0  0  0  0
   -2.7910   36.9880    9.7930 C   0  0  0  0  0
   -3.4880   37.8680    8.7490 C   0  0  0  0  0
   -3.4570   39.1040    8.8390 O   0  0  0  0  0
   -3.6190   36.8520   11.0650 C   0  0  0  0  0
   -2.5530   36.6530   12.1150 C   0  0  0  0  0
   -1.5520   37.7100   11.7450 C   0  0  0  0  0
   -4.0850   37.2430    7.7250 N   0  0  0  0  0
   -4.7770   37.9900    6.6730 C   0  0  0  0  0
   -6.0000   38.7590    7.1750 C   0  0  0  0  0
   -6.6030   38.3400    8.1920 O   0  0  0  0  0
   -5.1400   36.8990    5.6630 C   0  0  0  0  0
   -5.3150   35.6990    6.5210 C   0  0  0  0  0
   -4.1650   35.7930    7.4830 C   0  0  0  0  0
   -6.3070   39.7980    6.5530 O   0  0  0  0  0
   17.1185   26.0915    9.2303 H   0  0  0  0  0
   18.0365   27.5788    8.8895 H   0  0  0  0  0
   17.5767   27.1801   10.5630 H   0  0  0  0  0
   15.8522   28.3696   11.3165 H   0  0  0  0  0
   13.4424   28.6369    9.7106 H   0  0  0  0  0
   14.2363   30.0158   12.2986 H   0  0  0  0  0
   12.6000   29.9529   11.5989 H   0  0  0  0  0
   13.3829   28.4583   12.1683 H   0  0  0  0  0
   14.4378   32.3639    7.5166 H   0  0  0  0  0
   12.3310   33.3139    6.7245 H   0  0  0  0  0
   11.5893   33.2146    8.2548 H   0  0  0  0  0
   12.2040   30.8610    6.3648 H   0  0  0  0  0
   10.6927   31.2649    7.0001 H   0  0  0  0  0
   11.3292   30.6448    9.3081 H   0  0  0  0  0
   12.0957   29.4441    8.3870 H   0  0  0  0  0
   15.2084   34.3797    7.9113 H   0  0  0  0  0
   15.2914   35.0644   10.7873 H   0  0  0  0  0
   16.9957   36.6290   10.1970 H   0  0  0  0  0
   16.5622   36.5288    8.4570 H   0  0  0  0  0
   18.4171   35.2580    8.9950 H   0  0  0  0  0
   13.7558   36.0889    7.8107 H   0  0  0  0  0
   12.9263   38.6845    8.8119 H   0  0  0  0  0
   13.1461   38.4509    6.4878 H   0  0  0  0  0
   11.3536   38.6222    6.8640 H   0  0  0  0  0
    9.9422   36.5305    6.8273 H   0  0  0  0  0
   13.9027   36.7010    5.1818 H   0  0  0  0  0
    9.4692   34.4894    5.4998 H   0  0  0  0  0
   13.4399   34.6604    3.8546 H   0  0  0  0  0
   11.9417   33.0711    3.3628 H   0  0  0  0  0
   10.4801   39.2225    8.7161 H   0  0  0  0  0
    9.3862   37.5338   10.8167 H   0  0  0  0  0
    8.3367   40.0707    9.4514 H   0  0  0  0  0
    9.2032   39.9893   11.0159 H   0  0  0  0  0
    6.9204   40.1505   11.2642 H   0  0  0  0  0
    6.4443   35.2353    8.3702 H   0  0  0  0  0
    6.2448   33.8303   10.3052 H   0  0  0  0  0
    4.6801   34.5177   10.2830 H   0  0  0  0  0
    6.0421   34.8731   12.5131 H   0  0  0  0  0
    5.2774   36.2628   11.8935 H   0  0  0  0  0
    7.6264   36.9668   12.0146 H   0  0  0  0  0
    8.2130   35.4542   11.5293 H   0  0  0  0  0
    3.6939   38.6098    7.5596 H   0  0  0  0  0
    3.3757   37.5461    5.3730 H   0  0  0  0  0
    1.7979   37.4820    5.9989 H   0  0  0  0  0
    2.8121   35.1328    5.3388 H   0  0  0  0  0
    2.0969   35.1840    6.8770 H   0  0  0  0  0
    4.3805   34.4771    7.4466 H   0  0  0  0  0
    5.0889   35.4150    6.2204 H   0  0  0  0  0
    0.8278   38.2336   10.8839 H   0  0  0  0  0
    0.9449   40.6672   10.9167 H   0  0  0  0  0
   -0.6760   40.4660   10.4272 H   0  0  0  0  0
    0.8090   41.8636    8.7677 H   0  0  0  0  0
   -0.1117   40.6393    8.0375 H   0  0  0  0  0
    2.1899   40.0509    7.3676 H   0  0  0  0  0
    2.8433   40.4719    8.8682 H   0  0  0  0  0
   -2.6195   36.0318    9.2987 H   0  0  0  0  0
   -4.3416   36.0369   11.0241 H   0  0  0  0  0
   -4.2585   37.7135   11.2575 H   0  0  0  0  0
   -2.1359   35.6460   12.1223 H   0  0  0  0  0
   -2.9268   36.7493   13.1344 H   0  0  0  0  0
   -1.7972   38.6960   12.1396 H   0  0  0  0  0
   -0.5634   37.5384   12.1707 H   0  0  0  0  0
   -4.1579   38.7804    6.2486 H   0  0  0  0  0
   -6.1902   37.5282    8.4956 H   0  0  0  0  0
   -4.3791   36.7630    4.8945 H   0  0  0  0  0
   -6.0310   37.1384    5.0826 H   0  0  0  0  0
   -5.3106   34.7703    5.9504 H   0  0  0  0  0
   -6.2822   35.6790    7.0232 H   0  0  0  0  0
   -4.3149   35.2115    8.3926 H   0  0  0  0  0
   -3.2399   35.3692    7.0922 H   0  0  0  0  0
  1  2  2  0  0  0
  1  3  1  0  0  0
  1  4  1  0  0  0
  4  5  1  0  0  0
  5  6  1  0  0  0
  5  8  1  0  0  0
  6  7  2  0  0  0
  6  9  1  0  0  0
  9 10  1  0  0  0
  9 15  1  0  0  0
 10 11  1  0  0  0
 10 13  1  0  0  0
 11 12  2  0  0  0
 11 16  1  0  0  0
 13 14  1  0  0  0
 14 15  1  0  0  0
 16 17  1  0  0  0
 17 18  1  0  0  0
 17 20  1  0  0  0
 18 19  2  0  0  0
 18 22  1  0  0  0
 20 21  1  0  0  0
 22 23  1  0  0  0
 23 24  1  0  0  0
 23 26  1  0  0  0
 24 25  2  0  0  0
 24 34  1  0  0  0
 26 27  1  0  0  0
 27 28  4  0  0  0
 27 29  4  0  0  0
 28 30  4  0  0  0
 29 31  4  0  0  0
 30 32  4  0  0  0
 31 32  4  0  0  0
 32 33  1  0  0  0
 34 35  1  0  0  0
 35 36  1  0  0  0
 35 38  1  0  0  0
 36 37  2  0  0  0
 36 40  1  0  0  0
 38 39  1  0  0  0
 40 41  1  0  0  0
 40 46  1  0  0  0
 41 42  1  0  0  0
 41 44  1  0  0  0
 42 43  2  0  0  0
 42 47  1  0  0  0
 44 45  1  0  0  0
 45 46  1  0  0  0
 47 48  1  0  0  0
 47 53  1  0  0  0
 48 49  1  0  0  0
 48 51  1  0  0  0
 49 50  2  0  0  0
 49 54  1  0  0  0
 51 52  1  0  0  0
 52 53  1  0  0  0
 54 55  1  0  0  0
 54 60  1  0  0  0
 55 56  1  0  0  0
 55 58  1  0  0  0
 56 57  2  0  0  0
 56 61  1  0  0  0
 58 59  1  0  0  0
 59 60  1  0  0  0
 61 62  1  0  0  0
 61 67  1  0  0  0
 62 63  1  0  0  0
 62 65  1  0  0  0
 63 64  2  0  0  0
 63 68  1  0  0  0
 65 66  1  0  0  0
 66 67  1  0  0  0
 68 69  1  0  0  0
 68 74  1  0  0  0
 69 70  1  0  0  0
 69 72  1  0  0  0
 70 71  1  0  0  0
 70 75  2  0  0  0
 72 73  1  0  0  0
 73 74  1  0  0  0
  3 76  1  0  0  0
  3 77  1  0  0  0
  3 78  1  0  0  0
  4 79  1  0  0  0
  5 80  1  0  0  0
  8 81  1  0  0  0
  8 82  1  0  0  0
  8 83  1  0  0  0
 10 84  1  0  0  0
 13 85  1  0  0  0
 13 86  1  0  0  0
 14 87  1  0  0  0
 14 88  1  0  0  0
 15 89  1  0  0  0
 15 90  1  0  0  0
 16 91  1  0  0  0
 17 92  1  0  0  0
 20 93  1  0  0  0
 20 94  1  0  0  0
 21 95  1  0  0  0
 22 96  1  0  0  0
 23 97  1  0  0  0
 26 98  1  0  0  0
 26 99  1  0  0  0
 28100  1  0  0  0
 29101  1  0  0  0
 30102  1  0  0  0
 31103  1  0  0  0
 33104  1  0  0  0
 34105  1  0  0  0
 35106  1  0  0  0
 38107  1  0  0  0
 38108  1  0  0  0
 39109  1  0  0  0
 41110  1  0  0  0
 44111  1  0  0  0
 44112  1  0  0  0
 45113  1  0  0  0
 45114  1  0  0  0
 46115  1  0  0  0
 46116  1  0  0  0
 48117  1  0  0  0
 51118  1  0  0  0
 51119  1  0  0  0
 52120  1  0  0  0
 52121  1  0  0  0
 53122  1  0  0  0
 53123  1  0  0  0
 55124  1  0  0  0
 58125  1  0  0  0
 58126  1  0  0  0
 59127  1  0  0  0
 59128  1  0  0  0
 60129  1  0  0  0
 60130  1  0  0  0
 62131  1  0  0  0
 65132  1  0  0  0
 65133  1  0  0  0
 66134  1  0  0  0
 66135  1  0  0  0
 67136  1  0  0  0
 67137  1  0  0  0
 69138  1  0  0  0
 71139  1  0  0  0
 72140  1  0  0  0
 72141  1  0  0  0
 73142  1  0  0  0
 73143  1  0  0  0
 74144  1  0  0  0
 74145  1  0  0  0
M  END
$$$$
