### 
### Created by X-TOOL on Mon Sep 10 21:13:19 2018
### 

@<TRIPOS>MOLECULE
4uva_ligand
  110   116     1     0     0
SMALL
GAST_HUCK


@<TRIPOS>ATOM
      1 P          -6.3920   66.1570   90.4580 P.3       1 D73         0.2972
      2 N1         -8.3710   58.5030   85.6480 N.am      1 D73        -0.2442
      3 C2         -9.3280   57.5480   85.7980 C.2       1 D73         0.2897
      4 O2         -9.7690   57.2500   86.9310 O.2       1 D73        -0.3910
      5 N3         -9.8230   56.9180   84.7230 N.am      1 D73        -0.1823
      6 C4         -9.3730   57.2000   83.4920 C.2       1 D73         0.2583
      7 O4         -9.8760   56.5940   82.5200 O.2       1 D73        -0.3310
      8 N5         -7.9580   58.3890   81.9970 N.pl3     1 D73        -0.3176
      9 C6         -7.3460   60.1130   80.4960 C.ar      1 D73        -0.0603
     10 C7         -6.7730   61.3590   80.2600 C.ar      1 D73        -0.0686
     11 C8         -6.2020   62.1380   81.3980 C.ar      1 D73        -0.0686
     12 C9         -6.2450   61.6110   82.6870 C.ar      1 D73        -0.0599
     13 PA         -6.5830   68.1430   88.3970 P.3       1 D73         0.2972
     14 C1'        -6.2540   60.4670   85.3730 C.3       1 D73         0.0535
     15 C10        -7.8730   58.7860   84.4100 C.3       1 D73         0.1552
     16 N10        -6.8870   59.7890   84.2270 N.pl3     1 D73        -0.2924
     17 N1A        -4.0050   78.4220   89.9870 N.ar      1 D73        -0.2698
     18 O1A        -5.6130   68.5860   87.3210 O.co2     1 D73        -0.6127
     19 C1B        -6.0120   73.8630   88.5090 C.3       1 D73         0.2010
     20 O1P        -5.2200   65.5220   91.1630 O.co2     1 D73        -0.6127
     21 C2'        -7.1850   61.4490   86.0960 C.3       1 D73         0.1024
     22 O2'        -7.8540   62.2820   85.1470 O.3       1 D73        -0.3872
     23 C2A        -5.1950   77.8540   90.2810 C.ar      1 D73         0.0533
     24 O2A        -7.9060   67.5030   88.0310 O.co2     1 D73        -0.6127
     25 C2B        -6.3280   73.0740   87.2510 C.3       1 D73         0.1385
     26 O2B        -7.0890   73.8460   86.3180 O.3       1 D73        -0.3836
     27 O2P        -7.4800   66.8340   91.2550 O.co2     1 D73        -0.6127
     28 C3'        -6.4020   62.3340   87.0620 C.3       1 D73         0.1111
     29 O3'        -5.5810   61.5070   87.8880 O.3       1 D73        -0.3865
     30 N3A        -5.5690   76.6520   89.8080 N.ar      1 D73        -0.2714
     31 C3B        -7.1080   71.8940   87.8050 C.3       1 D73         0.1149
     32 O3B        -8.5090   72.1610   87.7900 O.3       1 D73        -0.3864
     33 O3P        -5.7510   67.1950   89.4030 O.3       1 D73        -0.1319
     34 C4'        -7.2630   63.1940   87.9860 C.3       1 D73         0.1118
     35 O4'        -8.4560   63.6650   87.3390 O.3       1 D73        -0.3865
     36 C4A        -4.7480   75.9340   88.9940 C.ar      1 D73         0.1613
     37 C4B        -6.6750   71.7760   89.2570 C.3       1 D73         0.1189
     38 O4B        -5.7900   72.8670   89.5110 O.3       1 D73        -0.3364
     39 C4X        -7.9860   57.7300   83.3460 C.3       1 D73         0.1870
     40 C5'        -6.4400   64.3810   88.4810 C.3       1 D73         0.1124
     41 O5'        -7.1190   65.0370   89.5540 O.3       1 D73        -0.2477
     42 C5A        -3.4350   76.4890   88.6230 C.ar      1 D73         0.1045
     43 C5B        -5.9760   70.4570   89.5410 C.3       1 D73         0.1128
     44 O5B        -6.9190   69.4000   89.3490 O.3       1 D73        -0.2476
     45 C5X        -7.3870   59.5920   81.7850 C.ar      1 D73         0.0434
     46 C6A        -3.0940   77.8220   89.1880 C.ar      1 D73         0.1298
     47 N6A        -1.9120   78.4170   88.9080 N.pl3     1 D73        -0.3152
     48 N7A        -2.8400   75.5800   87.8200 N.2       1 D73        -0.2958
     49 C7M        -6.7390   61.9010   78.8540 C.3       1 D73        -0.0426
     50 C8A        -3.7010   74.5370   87.6900 C.2       1 D73         0.1123
     51 C8M        -5.5770   63.4940   81.1780 C.3       1 D73        -0.0426
     52 C9A        -6.8150   60.3600   82.9290 C.ar      1 D73         0.0478
     53 N9A        -4.8330   74.7540   88.3870 N.pl3     1 D73        -0.1919
     54 NAA        -4.0850   56.1230   83.7330 N.2       1 D73        -0.3862
     55 CAB        -7.0800   53.1690   80.7710 C.ar      1 D73        -0.0687
     56 CAD        -7.9300   53.2050   81.8740 C.ar      1 D73        -0.0686
     57 CAE        -6.2150   54.2350   80.5220 C.ar      1 D73        -0.0686
     58 CAH        -7.9060   54.3090   82.7240 C.ar      1 D73        -0.0599
     59 CAI        -6.1960   55.3420   81.3710 C.ar      1 D73        -0.0599
     60 CAL        -6.3960   56.0590   84.6830 C.3       1 D73         0.0250
     61 CAM        -7.0220   56.5060   83.3410 C.3       1 D73         0.0472
     62 CAN        -4.4870   54.3570   85.4200 C.3       1 D73        -0.0003
     63 CAO        -4.9540   55.5320   84.5560 C.2       1 D73         0.0065
     64 CAP        -7.0440   55.3880   82.4810 C.ar      1 D73        -0.0353
     65 H          -8.0317   58.9989   86.4474 H         1 D73         0.1874
     66 H         -10.5375   56.2284   84.8410 H         1 D73         0.2260
     67 H          -8.3930   57.9019   81.2005 H         1 D73         0.1685
     68 H          -7.7623   59.5458   79.6714 H         1 D73         0.0400
     69 H          -5.8308   62.1793   83.5119 H         1 D73         0.0400
     70 H          -5.3781   61.0231   85.0077 H         1 D73         0.0533
     71 H          -5.9285   59.7020   86.0933 H         1 D73         0.0533
     72 H          -8.7260   59.3965   84.0788 H         1 D73         0.0824
     73 H          -6.8812   74.4810   88.7783 H         1 D73         0.0996
     74 H          -7.9327   60.8747   86.6627 H         1 D73         0.0639
     75 H          -8.4271   62.8853   85.6054 H         1 D73         0.2100
     76 H          -5.8793   78.3915   90.9274 H         1 D73         0.0996
     77 H          -5.4047   72.7335   86.7596 H         1 D73         0.0676
     78 H          -7.9086   74.1086   86.7201 H         1 D73         0.2101
     79 H          -5.7638   63.0030   86.4661 H         1 D73         0.0647
     80 H          -6.1300   60.9053   88.3770 H         1 D73         0.2100
     81 H          -6.8858   70.9762   87.2409 H         1 D73         0.0648
     82 H          -8.6902   72.9261   88.3233 H         1 D73         0.2100
     83 H          -7.5595   62.5823   88.8508 H         1 D73         0.0647
     84 H          -8.9771   62.9219   87.0582 H         1 D73         0.2100
     85 H          -7.5580   71.8540   89.9083 H         1 D73         0.0651
     86 H          -6.2937   65.0920   87.6546 H         1 D73         0.0647
     87 H          -5.4617   64.0232   88.8345 H         1 D73         0.0647
     88 H          -5.6102   70.4454   90.5783 H         1 D73         0.0648
     89 H          -5.1283   70.3291   88.8518 H         1 D73         0.0648
     90 H          -1.2298   77.9452   88.2973 H         1 D73         0.1820
     91 H          -1.6941   79.3419   89.3055 H         1 D73         0.1820
     92 H          -7.2076   61.1774   78.1707 H         1 D73         0.0350
     93 H          -5.6950   62.0686   78.5508 H         1 D73         0.0350
     94 H          -7.2896   62.8524   78.8143 H         1 D73         0.0350
     95 H          -3.5021   73.6435   87.1001 H         1 D73         0.1349
     96 H          -5.6283   63.7524   80.1100 H         1 D73         0.0350
     97 H          -4.5252   63.4695   81.4991 H         1 D73         0.0350
     98 H          -6.1219   64.2484   81.7644 H         1 D73         0.0350
     99 H          -3.1436   55.7709   83.6567 H         1 D73         0.0795
    100 H          -7.0906   52.3129   80.1062 H         1 D73         0.0559
    101 H          -8.6054   52.3800   82.0698 H         1 D73         0.0599
    102 H          -5.5537   54.2030   79.6637 H         1 D73         0.0599
    103 H          -8.5633   54.3340   83.5856 H         1 D73         0.0557
    104 H          -5.5228   56.1673   81.1695 H         1 D73         0.0557
    105 H          -7.0207   55.2590   85.1068 H         1 D73         0.0572
    106 H          -6.3905   56.9209   85.3664 H         1 D73         0.0572
    107 H          -6.1650   57.0305   82.8933 H         1 D73         0.0509
    108 H          -5.3266   53.9954   86.0319 H         1 D73         0.0512
    109 H          -3.6697   54.6876   86.0777 H         1 D73         0.0512
    110 H          -4.1294   53.5440   84.7710 H         1 D73         0.0512
@<TRIPOS>BOND
     1    1   20 ar 
     2    1   27 ar 
     3    1   33 1  
     4   41    1 1  
     5    2    3 am 
     6   15    2 1  
     7    3    4 2  
     8    5    3 am 
     9    6    5 am 
    10    6    7 2  
    11   39    6 1  
    12   39    8 1  
    13    8   45 1  
    14    9   10 ar 
    15   45    9 ar 
    16   10   11 ar 
    17   10   49 1  
    18   12   11 ar 
    19   11   51 1  
    20   52   12 ar 
    21   13   18 ar 
    22   13   24 ar 
    23   33   13 1  
    24   13   44 1  
    25   16   14 1  
    26   14   21 1  
    27   15   16 1  
    28   39   15 1  
    29   16   52 1  
    30   23   17 ar 
    31   46   17 ar 
    32   19   25 1  
    33   38   19 1  
    34   19   53 1  
    35   21   22 1  
    36   21   28 1  
    37   30   23 ar 
    38   25   26 1  
    39   31   25 1  
    40   28   29 1  
    41   28   34 1  
    42   36   30 ar 
    43   31   32 1  
    44   37   31 1  
    45   34   35 1  
    46   34   40 1  
    47   36   42 ar 
    48   53   36 1  
    49   37   38 1  
    50   43   37 1  
    51   61   39 1  
    52   40   41 1  
    53   42   46 ar 
    54   48   42 1  
    55   44   43 1  
    56   45   52 ar 
    57   46   47 1  
    58   50   48 2  
    59   53   50 1  
    60   63   54 2  
    61   56   55 ar 
    62   57   55 ar 
    63   58   56 ar 
    64   59   57 ar 
    65   64   58 ar 
    66   64   59 ar 
    67   61   60 1  
    68   60   63 1  
    69   61   64 1  
    70   63   62 1  
    71    2   65 1  
    72    5   66 1  
    73    8   67 1  
    74    9   68 1  
    75   12   69 1  
    76   14   70 1  
    77   14   71 1  
    78   15   72 1  
    79   19   73 1  
    80   21   74 1  
    81   22   75 1  
    82   23   76 1  
    83   25   77 1  
    84   26   78 1  
    85   28   79 1  
    86   29   80 1  
    87   31   81 1  
    88   32   82 1  
    89   34   83 1  
    90   35   84 1  
    91   37   85 1  
    92   40   86 1  
    93   40   87 1  
    94   43   88 1  
    95   43   89 1  
    96   47   90 1  
    97   47   91 1  
    98   49   92 1  
    99   49   93 1  
   100   49   94 1  
   101   50   95 1  
   102   51   96 1  
   103   51   97 1  
   104   51   98 1  
   105   54   99 1  
   106   55  100 1  
   107   56  101 1  
   108   57  102 1  
   109   58  103 1  
   110   59  104 1  
   111   60  105 1  
   112   60  106 1  
   113   61  107 1  
   114   62  108 1  
   115   62  109 1  
   116   62  110 1  
@<TRIPOS>SUBSTRUCTURE
     1 D73         1

