4uva_ligand
  -I-interpret- 

112118  0  0  0  0  0  0  0  0999 V2000
   -6.3920   66.1570   90.4580 P   0  0  0  0  0
   -8.3710   58.5030   85.6480 N   0  0  0  0  0
   -9.3280   57.5480   85.7980 C   0  0  0  0  0
   -9.7690   57.2500   86.9310 O   0  0  0  0  0
   -9.8230   56.9180   84.7230 N   0  0  0  0  0
   -9.3730   57.2000   83.4920 C   0  0  0  0  0
   -9.8760   56.5940   82.5200 O   0  0  0  0  0
   -7.9580   58.3890   81.9970 N   0  0  0  0  0
   -7.3460   60.1130   80.4960 C   0  0  0  0  0
   -6.7730   61.3590   80.2600 C   0  0  0  0  0
   -6.2020   62.1380   81.3980 C   0  0  0  0  0
   -6.2450   61.6110   82.6870 C   0  0  0  0  0
   -6.5830   68.1430   88.3970 P   0  0  0  0  0
   -6.2540   60.4670   85.3730 C   0  0  0  0  0
   -7.8730   58.7860   84.4100 C   0  0  0  0  0
   -6.8870   59.7890   84.2270 N   0  0  0  0  0
   -4.0050   78.4220   89.9870 N   0  0  0  0  0
   -5.6130   68.5860   87.3210 O   0  0  0  0  0
   -6.0120   73.8630   88.5090 C   0  0  0  0  0
   -5.2200   65.5220   91.1630 O   0  0  0  0  0
   -7.1850   61.4490   86.0960 C   0  0  0  0  0
   -7.8540   62.2820   85.1470 O   0  0  0  0  0
   -5.1950   77.8540   90.2810 C   0  0  0  0  0
   -7.9060   67.5030   88.0310 O   0  0  0  0  0
   -6.3280   73.0740   87.2510 C   0  0  0  0  0
   -7.0890   73.8460   86.3180 O   0  0  0  0  0
   -7.4800   66.8340   91.2550 O   0  0  0  0  0
   -6.4020   62.3340   87.0620 C   0  0  0  0  0
   -5.5810   61.5070   87.8880 O   0  0  0  0  0
   -5.5690   76.6520   89.8080 N   0  0  0  0  0
   -7.1080   71.8940   87.8050 C   0  0  0  0  0
   -8.5090   72.1610   87.7900 O   0  0  0  0  0
   -5.7510   67.1950   89.4030 O   0  0  0  0  0
   -7.2630   63.1940   87.9860 C   0  0  0  0  0
   -8.4560   63.6650   87.3390 O   0  0  0  0  0
   -4.7480   75.9340   88.9940 C   0  0  0  0  0
   -6.6750   71.7760   89.2570 C   0  0  0  0  0
   -5.7900   72.8670   89.5110 O   0  0  0  0  0
   -7.9860   57.7300   83.3460 C   0  0  0  0  0
   -6.4400   64.3810   88.4810 C   0  0  0  0  0
   -7.1190   65.0370   89.5540 O   0  0  0  0  0
   -3.4350   76.4890   88.6230 C   0  0  0  0  0
   -5.9760   70.4570   89.5410 C   0  0  0  0  0
   -6.9190   69.4000   89.3490 O   0  0  0  0  0
   -7.3870   59.5920   81.7850 C   0  0  0  0  0
   -3.0940   77.8220   89.1880 C   0  0  0  0  0
   -1.9120   78.4170   88.9080 N   0  0  0  0  0
   -2.8400   75.5800   87.8200 N   0  0  0  0  0
   -6.7390   61.9010   78.8540 C   0  0  0  0  0
   -3.7010   74.5370   87.6900 C   0  0  0  0  0
   -5.5770   63.4940   81.1780 C   0  0  0  0  0
   -6.8150   60.3600   82.9290 C   0  0  0  0  0
   -4.8330   74.7540   88.3870 N   0  0  0  0  0
   -4.0850   56.1230   83.7330 N   0  0  0  0  0
   -7.0800   53.1690   80.7710 C   0  0  0  0  0
   -7.9300   53.2050   81.8740 C   0  0  0  0  0
   -6.2150   54.2350   80.5220 C   0  0  0  0  0
   -7.9060   54.3090   82.7240 C   0  0  0  0  0
   -6.1960   55.3420   81.3710 C   0  0  0  0  0
   -6.3960   56.0590   84.6830 C   0  0  0  0  0
   -7.0220   56.5060   83.3410 C   0  0  0  0  0
   -4.4870   54.3570   85.4200 C   0  0  0  0  0
   -4.9540   55.5320   84.5560 C   0  0  0  0  0
   -7.0440   55.3880   82.4810 C   0  0  0  0  0
   -8.0249   59.0088   86.4633 H   0  0  0  0  0
  -10.5518   56.2146   84.8434 H   0  0  0  0  0
   -8.3888   57.9066   81.2083 H   0  0  0  0  0
   -7.7647   59.5426   79.6668 H   0  0  0  0  0
   -5.8285   62.1825   83.5165 H   0  0  0  0  0
   -5.4098   61.0395   84.9886 H   0  0  0  0  0
   -5.9687   59.6981   86.0910 H   0  0  0  0  0
   -8.7067   59.4490   84.1785 H   0  0  0  0  0
   -4.8334   68.9669   87.7317 H   0  0  0  0  0
   -6.8319   74.5427   88.7413 H   0  0  0  0  0
   -7.9137   60.8646   86.6578 H   0  0  0  0  0
   -8.4331   62.8917   85.6102 H   0  0  0  0  0
   -5.8831   78.3945   90.9310 H   0  0  0  0  0
   -5.4472   72.7766   86.6820 H   0  0  0  0  0
   -7.2693   73.3163   85.5379 H   0  0  0  0  0
   -8.1445   67.1820   90.6560 H   0  0  0  0  0
   -5.8286   63.0152   86.4333 H   0  0  0  0  0
   -5.0854   62.0579   88.4984 H   0  0  0  0  0
   -6.9216   70.9955   87.2168 H   0  0  0  0  0
   -8.9817   71.4039   88.1435 H   0  0  0  0  0
   -7.5751   62.5716   88.8246 H   0  0  0  0  0
   -8.9634   64.1985   87.9550 H   0  0  0  0  0
   -7.5497   71.8048   89.9068 H   0  0  0  0  0
   -6.3012   65.0862   87.6616 H   0  0  0  0  0
   -5.4735   64.0228   88.8355 H   0  0  0  0  0
   -5.6027   70.4441   90.5650 H   0  0  0  0  0
   -5.1288   70.3297   88.8671 H   0  0  0  0  0
   -1.6962   79.3329   89.3016 H   0  0  0  0  0
   -1.2365   77.9498   88.3032 H   0  0  0  0  0
   -6.1765   61.2189   78.2165 H   0  0  0  0  0
   -7.7576   61.9954   78.4776 H   0  0  0  0  0
   -6.2584   62.8793   78.8546 H   0  0  0  0  0
   -3.5019   73.6426   87.0996 H   0  0  0  0  0
   -4.7372   63.3982   80.4898 H   0  0  0  0  0
   -6.3196   64.1706   80.7551 H   0  0  0  0  0
   -5.2245   63.8891   82.1308 H   0  0  0  0  0
   -4.3736   56.9309   83.1813 H   0  0  0  0  0
   -7.0907   52.3081   80.1025 H   0  0  0  0  0
   -8.6091   52.3755   82.0708 H   0  0  0  0  0
   -5.5500   54.2028   79.6589 H   0  0  0  0  0
   -8.5669   54.3342   83.5904 H   0  0  0  0  0
   -5.5190   56.1719   81.1684 H   0  0  0  0  0
   -7.0063   55.2423   85.0687 H   0  0  0  0  0
   -6.3649   56.9336   85.3328 H   0  0  0  0  0
   -6.4739   57.2124   82.7176 H   0  0  0  0  0
   -4.1329   53.5522   84.7758 H   0  0  0  0  0
   -3.6771   54.6858   86.0712 H   0  0  0  0  0
   -5.3197   53.9996   86.0258 H   0  0  0  0  0
  1 20  2  0  0  0
  1 27  1  0  0  0
  1 33  1  0  0  0
 41  1  1  0  0  0
  2  3  1  0  0  0
 15  2  1  0  0  0
  3  4  2  0  0  0
  5  3  1  0  0  0
  6  5  1  0  0  0
  6  7  2  0  0  0
 39  6  1  0  0  0
 39  8  1  0  0  0
  8 45  1  0  0  0
  9 10  4  0  0  0
 45  9  4  0  0  0
 10 11  4  0  0  0
 10 49  1  0  0  0
 12 11  4  0  0  0
 11 51  1  0  0  0
 52 12  4  0  0  0
 13 18  1  0  0  0
 13 24  2  0  0  0
 33 13  1  0  0  0
 13 44  1  0  0  0
 16 14  1  0  0  0
 14 21  1  0  0  0
 15 16  1  0  0  0
 39 15  1  0  0  0
 16 52  1  0  0  0
 23 17  4  0  0  0
 46 17  4  0  0  0
 19 25  1  0  0  0
 38 19  1  0  0  0
 19 53  1  0  0  0
 21 22  1  0  0  0
 21 28  1  0  0  0
 30 23  4  0  0  0
 25 26  1  0  0  0
 31 25  1  0  0  0
 28 29  1  0  0  0
 28 34  1  0  0  0
 36 30  4  0  0  0
 31 32  1  0  0  0
 37 31  1  0  0  0
 34 35  1  0  0  0
 34 40  1  0  0  0
 36 42  4  0  0  0
 53 36  4  0  0  0
 37 38  1  0  0  0
 43 37  1  0  0  0
 61 39  1  0  0  0
 40 41  1  0  0  0
 42 46  4  0  0  0
 48 42  4  0  0  0
 44 43  1  0  0  0
 45 52  4  0  0  0
 46 47  1  0  0  0
 50 48  4  0  0  0
 53 50  4  0  0  0
 63 54  2  0  0  0
 56 55  4  0  0  0
 57 55  4  0  0  0
 58 56  4  0  0  0
 59 57  4  0  0  0
 64 58  4  0  0  0
 64 59  4  0  0  0
 61 60  1  0  0  0
 60 63  1  0  0  0
 61 64  1  0  0  0
 63 62  1  0  0  0
  2 65  1  0  0  0
  5 66  1  0  0  0
  8 67  1  0  0  0
  9 68  1  0  0  0
 12 69  1  0  0  0
 14 70  1  0  0  0
 14 71  1  0  0  0
 15 72  1  0  0  0
 18 73  1  0  0  0
 19 74  1  0  0  0
 21 75  1  0  0  0
 22 76  1  0  0  0
 23 77  1  0  0  0
 25 78  1  0  0  0
 26 79  1  0  0  0
 27 80  1  0  0  0
 28 81  1  0  0  0
 29 82  1  0  0  0
 31 83  1  0  0  0
 32 84  1  0  0  0
 34 85  1  0  0  0
 35 86  1  0  0  0
 37 87  1  0  0  0
 40 88  1  0  0  0
 40 89  1  0  0  0
 43 90  1  0  0  0
 43 91  1  0  0  0
 47 92  1  0  0  0
 47 93  1  0  0  0
 49 94  1  0  0  0
 49 95  1  0  0  0
 49 96  1  0  0  0
 50 97  1  0  0  0
 51 98  1  0  0  0
 51 99  1  0  0  0
 51100  1  0  0  0
 54101  1  0  0  0
 55102  1  0  0  0
 56103  1  0  0  0
 57104  1  0  0  0
 58105  1  0  0  0
 59106  1  0  0  0
 60107  1  0  0  0
 60108  1  0  0  0
 61109  1  0  0  0
 62110  1  0  0  0
 62111  1  0  0  0
 62112  1  0  0  0
M  END
$$$$
