1ez9_ligand
  -I-interpret- 

 89 91  0  0  0  0  0  0  0  0999 V2000
   -6.6140    0.8650    6.3550 C   0  0  0  0  0
   -5.9370   -0.2770    5.6270 C   0  0  0  0  0
   -6.7510   -1.5720    5.6740 C   0  0  0  0  0
   -5.9180   -2.7660    5.1960 C   0  0  0  0  0
   -6.6950   -4.0770    5.3050 C   0  0  0  0  0
   -7.3740   -4.3140    6.6380 C   0  0  0  0  0
   -6.5280    0.6930    7.7620 O   0  0  0  0  0
   -5.6860    0.0930    4.2800 O   0  0  0  0  0
   -7.9140   -1.4430    4.8690 O   0  0  0  0  0
   -5.5420   -2.5680    3.8210 O   0  0  0  0  0
   -7.6500   -4.1500    4.2590 O   0  0  0  0  0
   -7.9470   -5.6140    6.6860 O   0  0  0  0  0
   -4.3670   -3.1760    3.3690 C   0  0  0  0  0
   -3.7930   -2.3680    2.2060 C   0  0  0  0  0
   -4.5520   -2.6660    0.9010 C   0  0  0  0  0
   -4.6890   -4.1740    0.6580 C   0  0  0  0  0
   -5.2400   -4.8630    1.9030 C   0  0  0  0  0
   -5.2940   -6.3690    1.7780 C   0  0  0  0  0
   -3.8930   -0.9830    2.5090 O   0  0  0  0  0
   -3.8590   -2.0820   -0.1910 O   0  0  0  0  0
   -5.5940   -4.3970   -0.4370 O   0  0  0  0  0
   -4.4120   -4.5580    3.0400 O   0  0  0  0  0
   -6.1250   -6.9230    2.7820 O   0  0  0  0  0
   -5.0010   -4.6820   -1.6710 C   0  0  0  0  0
   -5.8070   -4.0150   -2.7860 C   0  0  0  0  0
   -7.1840   -4.6740   -2.8670 C   0  0  0  0  0
   -7.0360   -6.1840   -3.1020 C   0  0  0  0  0
   -6.1440   -6.8040   -2.0110 C   0  0  0  0  0
   -5.8010   -8.2550   -2.3290 C   0  0  0  0  0
   -5.9510   -2.6290   -2.5020 O   0  0  0  0  0
   -7.9410   -4.0880   -3.9160 O   0  0  0  0  0
   -8.3340   -6.8070   -3.0670 O   0  0  0  0  0
   -4.8880   -6.0870   -1.9150 O   0  0  0  0  0
   -5.6220   -9.0270   -1.1510 O   0  0  0  0  0
   -8.7940   -7.3450   -4.2770 C   0  0  0  0  0
  -10.1890   -6.7940   -4.5960 C   0  0  0  0  0
  -11.1970   -7.3020   -3.5580 C   0  0  0  0  0
  -11.1820   -8.8290   -3.5420 C   0  0  0  0  0
   -9.7550   -9.3300   -3.2750 C   0  0  0  0  0
   -9.6380  -10.8430   -3.3620 C   0  0  0  0  0
  -10.1660   -5.3750   -4.5990 O   0  0  0  0  0
  -12.5000   -6.8370   -3.8770 O   0  0  0  0  0
  -12.0570   -9.3070   -2.5330 O   0  0  0  0  0
   -8.8390   -8.7710   -4.2500 O   0  0  0  0  0
   -8.6070  -11.3330   -2.5120 O   0  0  0  0  0
   -6.1158    1.7962    6.0852 H   0  0  0  0  0
   -7.6655    0.8879    6.0689 H   0  0  0  0  0
   -4.9960   -0.4749    6.1403 H   0  0  0  0  0
   -7.0430   -1.7516    6.7087 H   0  0  0  0  0
   -5.0364   -2.8315    5.8337 H   0  0  0  0  0
   -5.9495   -4.8675    5.2184 H   0  0  0  0  0
   -8.1651   -3.5753    6.7667 H   0  0  0  0  0
   -6.6322   -4.2264    7.4318 H   0  0  0  0  0
   -6.9633    1.4279    8.2003 H   0  0  0  0  0
   -5.1753    0.9057    4.2624 H   0  0  0  0  0
   -8.4311   -0.6937    5.1735 H   0  0  0  0  0
   -7.2134   -3.9990    3.4175 H   0  0  0  0  0
   -8.3715   -5.7441    7.5371 H   0  0  0  0  0
   -3.7176   -3.1647    4.2444 H   0  0  0  0  0
   -2.7490   -2.6481    2.0657 H   0  0  0  0  0
   -5.5522   -2.2421    0.9906 H   0  0  0  0  0
   -3.7064   -4.5848    0.4259 H   0  0  0  0  0
   -6.2561   -4.4879    2.0255 H   0  0  0  0  0
   -4.2867   -6.7693    1.8927 H   0  0  0  0  0
   -5.7006   -6.6279    0.8004 H   0  0  0  0  0
   -3.5335   -0.4706    1.7811 H   0  0  0  0  0
   -4.3324   -2.2678   -1.0052 H   0  0  0  0  0
   -6.1469   -7.8780    2.6867 H   0  0  0  0  0
   -3.9865   -4.2840   -1.6508 H   0  0  0  0  0
   -5.2905   -4.1317   -3.7387 H   0  0  0  0  0
   -7.7062   -4.5167   -1.9233 H   0  0  0  0  0
   -6.5759   -6.3470   -4.0766 H   0  0  0  0  0
   -6.7052   -6.7444   -1.0785 H   0  0  0  0  0
   -4.8681   -8.2701   -2.8926 H   0  0  0  0  0
   -6.6260   -8.6846   -2.8972 H   0  0  0  0  0
   -6.4571   -2.2109   -3.2024 H   0  0  0  0  0
   -8.8034   -4.5074   -3.9596 H   0  0  0  0  0
   -5.4081   -9.9313   -1.3918 H   0  0  0  0  0
   -8.0879   -7.0499   -5.0532 H   0  0  0  0  0
  -10.4898   -7.1404   -5.5847 H   0  0  0  0  0
  -10.9201   -6.9251   -2.5734 H   0  0  0  0  0
  -11.5168   -9.2017   -4.5101 H   0  0  0  0  0
   -9.5079   -9.0121   -2.2621 H   0  0  0  0  0
   -9.3971  -11.1133   -4.3901 H   0  0  0  0  0
  -10.5846  -11.2824   -3.0473 H   0  0  0  0  0
  -11.0439   -5.0423   -4.7997 H   0  0  0  0  0
  -13.1231   -7.1600   -3.2220 H   0  0  0  0  0
  -12.0434  -10.2669   -2.5277 H   0  0  0  0  0
   -8.5577  -12.2887   -2.5887 H   0  0  0  0  0
  1  7  1  0  0  0
  2  1  1  0  0  0
  2  8  1  0  0  0
  3  2  1  0  0  0
  3  9  1  0  0  0
  4  3  1  0  0  0
 10  4  1  0  0  0
  4  5  1  0  0  0
  5 11  1  0  0  0
  5  6  1  0  0  0
  6 12  1  0  0  0
 22 13  1  0  0  0
 14 13  1  0  0  0
 14 19  1  0  0  0
 15 14  1  0  0  0
 15 20  1  0  0  0
 16 15  1  0  0  0
 21 16  1  0  0  0
 16 17  1  0  0  0
 17 22  1  0  0  0
 17 18  1  0  0  0
 18 23  1  0  0  0
 33 24  1  0  0  0
 25 24  1  0  0  0
 25 30  1  0  0  0
 26 25  1  0  0  0
 26 31  1  0  0  0
 27 26  1  0  0  0
 32 27  1  0  0  0
 27 28  1  0  0  0
 28 33  1  0  0  0
 28 29  1  0  0  0
 29 34  1  0  0  0
 35 44  1  0  0  0
 35 36  1  0  0  0
 36 41  1  0  0  0
 36 37  1  0  0  0
 37 42  1  0  0  0
 37 38  1  0  0  0
 38 43  1  0  0  0
 39 38  1  0  0  0
 44 39  1  0  0  0
 39 40  1  0  0  0
 40 45  1  0  0  0
 13 10  1  0  0  0
 24 21  1  0  0  0
 32 35  1  0  0  0
  1 46  1  0  0  0
  1 47  1  0  0  0
  2 48  1  0  0  0
  3 49  1  0  0  0
  4 50  1  0  0  0
  5 51  1  0  0  0
  6 52  1  0  0  0
  6 53  1  0  0  0
  7 54  1  0  0  0
  8 55  1  0  0  0
  9 56  1  0  0  0
 11 57  1  0  0  0
 12 58  1  0  0  0
 13 59  1  0  0  0
 14 60  1  0  0  0
 15 61  1  0  0  0
 16 62  1  0  0  0
 17 63  1  0  0  0
 18 64  1  0  0  0
 18 65  1  0  0  0
 19 66  1  0  0  0
 20 67  1  0  0  0
 23 68  1  0  0  0
 24 69  1  0  0  0
 25 70  1  0  0  0
 26 71  1  0  0  0
 27 72  1  0  0  0
 28 73  1  0  0  0
 29 74  1  0  0  0
 29 75  1  0  0  0
 30 76  1  0  0  0
 31 77  1  0  0  0
 34 78  1  0  0  0
 35 79  1  0  0  0
 36 80  1  0  0  0
 37 81  1  0  0  0
 38 82  1  0  0  0
 39 83  1  0  0  0
 40 84  1  0  0  0
 40 85  1  0  0  0
 41 86  1  0  0  0
 42 87  1  0  0  0
 43 88  1  0  0  0
 45 89  1  0  0  0
M  END
$$$$
