3tsz_ligand
  -I-interpret- 

158159  0  0  0  0  0  0  0  0999 V2000
  -55.8670   -2.0700  -21.6000 N   0  3  0  0  0
  -54.5700   -1.4340  -21.9770 C   0  0  0  0  0
  -53.6810   -2.3840  -22.7910 C   0  0  0  0  0
  -53.8730   -3.6020  -22.7690 O   0  0  0  0  0
  -53.8480   -0.9170  -20.7190 C   0  0  0  0  0
  -52.4590   -0.2810  -20.9370 C   0  0  0  0  0
  -52.4740    1.0070  -21.7640 C   0  0  0  0  0
  -53.5650    1.5620  -22.0310 O   0  0  0  0  0
  -51.3760    1.4710  -22.1460 O   0  0  0  0  0
  -52.7230   -1.7980  -23.5110 N   0  0  0  0  0
  -51.7530   -2.5160  -24.3510 C   0  0  0  0  0
  -52.3760   -3.5040  -25.3470 C   0  0  0  0  0
  -52.2450   -4.7240  -25.1990 O   0  0  0  0  0
  -50.6520   -3.1910  -23.5110 C   0  0  0  0  0
  -49.7270   -2.2220  -22.7950 C   0  0  0  0  0
  -49.3400   -1.0210  -23.3860 C   0  0  0  0  0
  -49.2100   -2.5370  -21.5360 C   0  0  0  0  0
  -48.4790   -0.1370  -22.7220 C   0  0  0  0  0
  -48.3470   -1.6600  -20.8660 C   0  0  0  0  0
  -47.9810   -0.4590  -21.4610 C   0  0  0  0  0
  -53.0670   -2.9610  -26.3470 N   0  0  0  0  0
  -53.5000   -3.7300  -27.5080 C   0  0  0  0  0
  -52.3670   -3.6990  -28.5370 C   0  0  0  0  0
  -51.5260   -2.7970  -28.5010 O   0  0  0  0  0
  -54.7810   -3.1460  -28.0880 C   0  0  0  0  0
  -52.3460   -4.6810  -29.4410 N   0  0  0  0  0
  -51.2470   -4.8280  -30.4050 C   0  0  0  0  0
  -51.2580   -3.7870  -31.5370 C   0  0  0  0  0
  -50.2320   -3.1560  -31.8070 O   0  0  0  0  0
  -51.2100   -6.2470  -30.9850 C   0  0  0  0  0
  -49.8560   -6.6290  -31.5820 C   0  0  0  0  0
  -49.9340   -7.7970  -32.5510 C   0  0  0  0  0
  -49.3610   -8.8590  -32.3050 O   0  0  0  0  0
  -50.6470   -7.6080  -33.6570 N   0  0  0  0  0
  -52.4200   -3.6280  -32.1770 N   0  0  0  0  0
  -52.6460   -2.7270  -33.3290 C   0  0  0  0  0
  -51.8130   -3.0740  -34.5660 C   0  0  0  0  0
  -50.5910   -3.2150  -34.4920 O   0  0  0  0  0
  -52.5090   -1.2080  -32.9870 C   0  0  0  0  0
  -51.1350   -0.8750  -32.7720 O   0  0  0  0  0
  -53.3390   -0.8300  -31.7530 C   0  0  0  0  0
  -52.4970   -3.1880  -35.7030 N   0  0  0  0  0
  -51.8800   -3.5780  -36.9720 C   0  0  0  0  0
  -50.7560   -2.6310  -37.3520 C   0  0  0  0  0
  -50.7340   -1.4760  -36.9190 O   0  0  0  0  0
  -52.9240   -3.5780  -38.0880 C   0  0  0  0  0
  -54.0570   -4.3560  -37.7420 O   0  0  0  0  0
  -49.8240   -3.1190  -38.1640 N   0  0  0  0  0
  -48.7650   -2.2670  -38.6800 C   0  0  0  0  0
  -49.3700   -1.2550  -39.6470 C   0  0  0  0  0
  -50.4990   -1.4280  -40.1050 O   0  0  0  0  0
  -47.7020   -3.1020  -39.3960 C   0  0  0  0  0
  -48.0730   -3.3800  -40.7340 O   0  0  0  0  0
  -48.6240   -0.2040  -39.9600 N   0  0  0  0  0
  -49.0020    0.6590  -41.0620 C   0  0  0  0  0
  -48.9690   -0.1320  -42.3660 C   0  0  0  0  0
  -48.5240   -1.2810  -42.3980 O   0  0  0  0  0
  -48.0980    1.8870  -41.1460 C   0  0  0  0  0
  -46.6250    1.5810  -41.1350 C   0  0  0  0  0
  -45.8920    1.6810  -39.9560 C   0  0  0  0  0
  -45.9580    1.2350  -42.3070 C   0  0  0  0  0
  -44.5230    1.4250  -39.9380 C   0  0  0  0  0
  -44.5830    0.9750  -42.2980 C   0  0  0  0  0
  -43.8670    1.0730  -41.1090 C   0  0  0  0  0
  -49.4500    0.4840  -43.4380 N   0  0  0  0  0
  -49.4700   -0.1560  -44.7430 C   0  0  0  0  0
  -48.0590   -0.3040  -45.3070 C   0  0  0  0  0
  -47.3690    0.6860  -45.5460 O   0  0  0  0  0
  -50.3550    0.6440  -45.6960 C   0  0  0  0  0
  -50.7310    0.0390  -47.0450 C   0  0  0  0  0
  -51.4960   -1.2690  -46.8760 C   0  0  0  0  0
  -51.5510    1.0510  -47.8250 C   0  0  0  0  0
  -47.6330   -1.5470  -45.4990 N   0  0  0  0  0
  -46.3270   -1.8190  -46.1030 C   0  0  0  0  0
  -46.4900   -2.2110  -47.5700 C   0  0  0  0  0
  -45.5240   -2.2210  -48.3370 O   0  0  0  0  0
  -45.5360   -2.9330  -45.3790 C   0  0  0  0  0
  -44.0650   -2.5740  -45.3540 C   0  0  0  0  0
  -46.0390   -3.1460  -43.9680 C   0  0  0  0  0
  -47.5920   -2.5260  -48.0230 O   0  0  0  0  0
  -56.3355   -2.4082  -22.4406 H   0  0  0  0  0
  -55.6902   -2.8523  -20.9698 H   0  0  0  0  0
  -56.4583   -1.3825  -21.1330 H   0  0  0  0  0
  -54.7851   -0.5833  -22.6236 H   0  0  0  0  0
  -53.6856   -1.7879  -20.0840 H   0  0  0  0  0
  -54.4804   -0.1293  -20.3095 H   0  0  0  0  0
  -51.8586   -1.0061  -21.4864 H   0  0  0  0  0
  -52.0676   -0.0238  -19.9527 H   0  0  0  0  0
  -54.2837    1.0523  -21.6499 H   0  0  0  0  0
  -52.6589   -0.7806  -23.4764 H   0  0  0  0  0
  -51.2939   -1.7395  -24.9629 H   0  0  0  0  0
  -50.0369   -3.7726  -24.1976 H   0  0  0  0  0
  -51.1519   -3.7823  -22.7439 H   0  0  0  0  0
  -49.7120   -0.7656  -24.3782 H   0  0  0  0  0
  -49.4829   -3.4821  -21.0665 H   0  0  0  0  0
  -48.1981    0.8049  -23.1931 H   0  0  0  0  0
  -47.9633   -1.9195  -19.8793 H   0  0  0  0  0
  -47.3089    0.2266  -20.9450 H   0  0  0  0  0
  -53.3025   -1.9697  -26.2993 H   0  0  0  0  0
  -53.7165   -4.7598  -27.2238 H   0  0  0  0  0
  -55.5659   -3.1731  -27.3322 H   0  0  0  0  0
  -54.6033   -2.1145  -28.3923 H   0  0  0  0  0
  -55.0876   -3.7338  -28.9532 H   0  0  0  0  0
  -53.1161   -5.3494  -29.4632 H   0  0  0  0  0
  -50.3368   -4.6432  -29.8345 H   0  0  0  0  0
  -51.9454   -6.2909  -31.7883 H   0  0  0  0  0
  -51.4140   -6.9393  -30.1682 H   0  0  0  0  0
  -49.2055   -6.9264  -30.7595 H   0  0  0  0  0
  -49.4848   -5.7663  -32.1353 H   0  0  0  0  0
  -50.7355   -8.3592  -34.3414 H   0  0  0  0  0
  -51.1056   -6.7118  -33.8212 H   0  0  0  0  0
  -53.2162   -4.1720  -31.8445 H   0  0  0  0  0
  -53.6907   -2.9086  -33.5812 H   0  0  0  0  0
  -52.8919   -0.6402  -33.8350 H   0  0  0  0  0
  -51.0622    0.0591  -32.5629 H   0  0  0  0  0
  -54.3901   -1.0471  -31.9432 H   0  0  0  0  0
  -52.9966   -1.4088  -30.8952 H   0  0  0  0  0
  -53.2179    0.2335  -31.5471 H   0  0  0  0  0
  -53.4984   -2.9944  -35.6890 H   0  0  0  0  0
  -51.4701   -4.5799  -36.8440 H   0  0  0  0  0
  -52.4720   -4.0064  -38.9826 H   0  0  0  0  0
  -53.2492   -2.5512  -38.2555 H   0  0  0  0  0
  -54.6908   -4.3344  -38.4627 H   0  0  0  0  0
  -49.8520   -4.1037  -38.4285 H   0  0  0  0  0
  -48.2871   -1.7468  -37.8499 H   0  0  0  0  0
  -47.5912   -4.0476  -38.8653 H   0  0  0  0  0
  -46.7697   -2.5374  -39.4069 H   0  0  0  0  0
  -47.3863   -3.9038  -41.1531 H   0  0  0  0  0
  -47.7806   -0.0020  -39.4231 H   0  0  0  0  0
  -50.0163    1.0182  -40.8883 H   0  0  0  0  0
  -48.3036    2.4947  -40.2648 H   0  0  0  0  0
  -48.3143    2.3774  -42.0951 H   0  0  0  0  0
  -46.3971    1.9640  -39.0325 H   0  0  0  0  0
  -46.5132    1.1658  -43.2424 H   0  0  0  0  0
  -43.9668    1.5012  -39.0037 H   0  0  0  0  0
  -44.0739    0.6963  -43.2206 H   0  0  0  0  0
  -42.7954    0.8741  -41.0974 H   0  0  0  0  0
  -49.8154    1.4317  -43.3440 H   0  0  0  0  0
  -49.8841   -1.1582  -44.6323 H   0  0  0  0  0
  -49.7716    1.5317  -45.9405 H   0  0  0  0  0
  -51.3015    0.7597  -45.1679 H   0  0  0  0  0
  -49.8204   -0.1960  -47.5961 H   0  0  0  0  0
  -50.8751   -1.9845  -46.3369 H   0  0  0  0  0
  -52.4107   -1.0833  -46.3131 H   0  0  0  0  0
  -51.7471   -1.6710  -47.8576 H   0  0  0  0  0
  -52.4537    1.2945  -47.2647 H   0  0  0  0  0
  -50.9612    1.9550  -47.9769 H   0  0  0  0  0
  -51.8247    0.6275  -48.7914 H   0  0  0  0  0
  -48.2272   -2.3278  -45.2203 H   0  0  0  0  0
  -45.7578   -0.8941  -46.0096 H   0  0  0  0  0
  -44.7344   -1.9575  -47.8588 H   0  0  0  0  0
  -45.6812   -3.8639  -45.9271 H   0  0  0  0  0
  -43.6994   -2.4737  -46.3759 H   0  0  0  0  0
  -43.9315   -1.6305  -44.8248 H   0  0  0  0  0
  -43.5091   -3.3603  -44.8433 H   0  0  0  0  0
  -45.9296   -2.2214  -43.4012 H   0  0  0  0  0
  -47.0901   -3.4332  -43.9978 H   0  0  0  0  0
  -45.4584   -3.9363  -43.4921 H   0  0  0  0  0
  1  2  1  0  0  0
  2  3  1  0  0  0
  2  5  1  0  0  0
  3  4  2  0  0  0
  3 10  1  0  0  0
  5  6  1  0  0  0
  6  7  1  0  0  0
  7  8  1  0  0  0
  7  9  2  0  0  0
 10 11  1  0  0  0
 11 12  1  0  0  0
 11 14  1  0  0  0
 12 13  2  0  0  0
 12 21  1  0  0  0
 14 15  1  0  0  0
 15 16  4  0  0  0
 15 17  4  0  0  0
 16 18  4  0  0  0
 17 19  4  0  0  0
 18 20  4  0  0  0
 19 20  4  0  0  0
 21 22  1  0  0  0
 22 23  1  0  0  0
 22 25  1  0  0  0
 23 24  2  0  0  0
 23 26  1  0  0  0
 26 27  1  0  0  0
 27 28  1  0  0  0
 27 30  1  0  0  0
 28 29  2  0  0  0
 28 35  1  0  0  0
 30 31  1  0  0  0
 31 32  1  0  0  0
 32 33  2  0  0  0
 32 34  1  0  0  0
 35 36  1  0  0  0
 36 37  1  0  0  0
 36 39  1  0  0  0
 37 38  2  0  0  0
 37 42  1  0  0  0
 39 40  1  0  0  0
 39 41  1  0  0  0
 42 43  1  0  0  0
 43 44  1  0  0  0
 43 46  1  0  0  0
 44 45  2  0  0  0
 44 48  1  0  0  0
 46 47  1  0  0  0
 48 49  1  0  0  0
 49 50  1  0  0  0
 49 52  1  0  0  0
 50 51  2  0  0  0
 50 54  1  0  0  0
 52 53  1  0  0  0
 54 55  1  0  0  0
 55 56  1  0  0  0
 55 58  1  0  0  0
 56 57  2  0  0  0
 56 65  1  0  0  0
 58 59  1  0  0  0
 59 60  4  0  0  0
 59 61  4  0  0  0
 60 62  4  0  0  0
 61 63  4  0  0  0
 62 64  4  0  0  0
 63 64  4  0  0  0
 65 66  1  0  0  0
 66 67  1  0  0  0
 66 69  1  0  0  0
 67 68  2  0  0  0
 67 73  1  0  0  0
 69 70  1  0  0  0
 70 71  1  0  0  0
 70 72  1  0  0  0
 73 74  1  0  0  0
 74 75  1  0  0  0
 74 77  1  0  0  0
 75 76  1  0  0  0
 75 80  2  0  0  0
 77 78  1  0  0  0
 77 79  1  0  0  0
  1 81  1  0  0  0
  1 82  1  0  0  0
  1 83  1  0  0  0
  2 84  1  0  0  0
  5 85  1  0  0  0
  5 86  1  0  0  0
  6 87  1  0  0  0
  6 88  1  0  0  0
  8 89  1  0  0  0
 10 90  1  0  0  0
 11 91  1  0  0  0
 14 92  1  0  0  0
 14 93  1  0  0  0
 16 94  1  0  0  0
 17 95  1  0  0  0
 18 96  1  0  0  0
 19 97  1  0  0  0
 20 98  1  0  0  0
 21 99  1  0  0  0
 22100  1  0  0  0
 25101  1  0  0  0
 25102  1  0  0  0
 25103  1  0  0  0
 26104  1  0  0  0
 27105  1  0  0  0
 30106  1  0  0  0
 30107  1  0  0  0
 31108  1  0  0  0
 31109  1  0  0  0
 34110  1  0  0  0
 34111  1  0  0  0
 35112  1  0  0  0
 36113  1  0  0  0
 39114  1  0  0  0
 40115  1  0  0  0
 41116  1  0  0  0
 41117  1  0  0  0
 41118  1  0  0  0
 42119  1  0  0  0
 43120  1  0  0  0
 46121  1  0  0  0
 46122  1  0  0  0
 47123  1  0  0  0
 48124  1  0  0  0
 49125  1  0  0  0
 52126  1  0  0  0
 52127  1  0  0  0
 53128  1  0  0  0
 54129  1  0  0  0
 55130  1  0  0  0
 58131  1  0  0  0
 58132  1  0  0  0
 60133  1  0  0  0
 61134  1  0  0  0
 62135  1  0  0  0
 63136  1  0  0  0
 64137  1  0  0  0
 65138  1  0  0  0
 66139  1  0  0  0
 69140  1  0  0  0
 69141  1  0  0  0
 70142  1  0  0  0
 71143  1  0  0  0
 71144  1  0  0  0
 71145  1  0  0  0
 72146  1  0  0  0
 72147  1  0  0  0
 72148  1  0  0  0
 73149  1  0  0  0
 74150  1  0  0  0
 76151  1  0  0  0
 77152  1  0  0  0
 78153  1  0  0  0
 78154  1  0  0  0
 78155  1  0  0  0
 79156  1  0  0  0
 79157  1  0  0  0
 79158  1  0  0  0
M  END
$$$$
