### 
### Created by X-TOOL on Mon Sep 10 21:13:08 2018
### 

@<TRIPOS>MOLECULE
3tsz_ligand
  156   157     1     0     0
SMALL
GAST_HUCK


@<TRIPOS>ATOM
      1 N         -55.8670   -2.0700  -21.6000 N.4       1 GLU         0.2380
      2 CA        -54.5700   -1.4340  -21.9770 C.3       1 GLU         0.0665
      3 C         -53.6810   -2.3840  -22.7910 C.2       1 GLU         0.2269
      4 O         -53.8730   -3.6020  -22.7690 O.2       1 GLU        -0.3907
      5 CB        -53.8480   -0.9170  -20.7190 C.3       1 GLU         0.0194
      6 CG        -52.4590   -0.2810  -20.9370 C.3       1 GLU         0.0075
      7 CD        -52.4740    1.0070  -21.7640 C.2       1 GLU         0.0351
      8 OE1       -53.5650    1.5620  -22.0310 O.co2     1 GLU        -0.5690
      9 OE2       -51.3760    1.4710  -22.1460 O.co2     1 GLU        -0.5690
     10 N         -52.7230   -1.7980  -23.5110 N.am      1 PHE        -0.2592
     11 CA        -51.7530   -2.5160  -24.3510 C.3       1 PHE         0.1406
     12 C         -52.3760   -3.5040  -25.3470 C.2       1 PHE         0.2059
     13 O         -52.2450   -4.7240  -25.1990 O.2       1 PHE        -0.3942
     14 CB        -50.6520   -3.1910  -23.5110 C.3       1 PHE         0.0214
     15 CG        -49.7270   -2.2220  -22.7950 C.ar      1 PHE        -0.0386
     16 CD1       -49.3400   -1.0210  -23.3860 C.ar      1 PHE        -0.0601
     17 CD2       -49.2100   -2.5370  -21.5360 C.ar      1 PHE        -0.0601
     18 CE1       -48.4790   -0.1370  -22.7220 C.ar      1 PHE        -0.0686
     19 CE2       -48.3470   -1.6600  -20.8660 C.ar      1 PHE        -0.0686
     20 CZ        -47.9810   -0.4590  -21.4610 C.ar      1 PHE        -0.0687
     21 N         -53.0670   -2.9610  -26.3470 N.am      1 LYS        -0.2639
     22 CA        -53.5000   -3.7300  -27.5080 C.3       1 LYS         0.1282
     23 C         -52.3670   -3.6990  -28.5370 C.2       1 LYS         0.2036
     24 O         -51.5260   -2.7970  -28.5010 O.2       1 LYS        -0.3944
     25 CB        -54.7810   -3.1460  -28.0880 C.3       1 LYS        -0.0244
     26 N         -52.3460   -4.6810  -29.4410 N.am      1 GLN        -0.2636
     27 CA        -51.2470   -4.8280  -30.4050 C.3       1 GLN         0.1330
     28 C         -51.2580   -3.7870  -31.5370 C.2       1 GLN         0.2041
     29 O         -50.2320   -3.1560  -31.8070 O.2       1 GLN        -0.3944
     30 CB        -51.2100   -6.2470  -30.9850 C.3       1 GLN         0.0045
     31 CG        -49.8560   -6.6290  -31.5820 C.3       1 GLN         0.0412
     32 CD        -49.9340   -7.7970  -32.5510 C.2       1 GLN         0.1737
     33 OE1       -49.3610   -8.8590  -32.3050 O.2       1 GLN        -0.3973
     34 NE2       -50.6470   -7.6080  -33.6570 N.am      1 GLN        -0.3009
     35 N         -52.4200   -3.6280  -32.1770 N.am      1 THR        -0.2613
     36 CA        -52.6460   -2.7270  -33.3290 C.3       1 THR         0.1565
     37 C         -51.8130   -3.0740  -34.5660 C.2       1 THR         0.2065
     38 O         -50.5910   -3.2150  -34.4920 O.2       1 THR        -0.3943
     39 CB        -52.5090   -1.2080  -32.9870 C.3       1 THR         0.0924
     40 OG1       -51.1350   -0.8750  -32.7720 O.3       1 THR        -0.3874
     41 CG2       -53.3390   -0.8300  -31.7530 C.3       1 THR        -0.0346
     42 N         -52.4970   -3.1880  -35.7030 N.am      1 SER        -0.2615
     43 CA        -51.8800   -3.5780  -36.9720 C.3       1 SER         0.1539
     44 C         -50.7560   -2.6310  -37.3520 C.2       1 SER         0.2062
     45 O         -50.7340   -1.4760  -36.9190 O.2       1 SER        -0.3943
     46 CB        -52.9240   -3.5780  -38.0880 C.3       1 SER         0.0843
     47 OG        -54.0570   -4.3560  -37.7420 O.3       1 SER        -0.3903
     48 N         -49.8240   -3.1190  -38.1640 N.am      1 SER        -0.2615
     49 CA        -48.7650   -2.2670  -38.6800 C.3       1 SER         0.1539
     50 C         -49.3700   -1.2550  -39.6470 C.2       1 SER         0.2063
     51 O         -50.4990   -1.4280  -40.1050 O.2       1 SER        -0.3943
     52 CB        -47.7020   -3.1020  -39.3960 C.3       1 SER         0.0843
     53 OG        -48.0730   -3.3800  -40.7340 O.3       1 SER        -0.3903
     54 N         -48.6240   -0.2040  -39.9600 N.am      1 PHE        -0.2619
     55 CA        -49.0020    0.6590  -41.0620 C.3       1 PHE         0.1404
     56 C         -48.9690   -0.1320  -42.3660 C.2       1 PHE         0.2060
     57 O         -48.5240   -1.2810  -42.3980 O.2       1 PHE        -0.3942
     58 CB        -48.0980    1.8870  -41.1460 C.3       1 PHE         0.0214
     59 CG        -46.6250    1.5810  -41.1350 C.ar      1 PHE        -0.0386
     60 CD1       -45.8920    1.6810  -39.9560 C.ar      1 PHE        -0.0601
     61 CD2       -45.9580    1.2350  -42.3070 C.ar      1 PHE        -0.0601
     62 CE1       -44.5230    1.4250  -39.9380 C.ar      1 PHE        -0.0686
     63 CE2       -44.5830    0.9750  -42.2980 C.ar      1 PHE        -0.0686
     64 CZ        -43.8670    1.0730  -41.1090 C.ar      1 PHE        -0.0687
     65 N         -49.4500    0.4840  -43.4380 N.am      1 LEU        -0.2636
     66 CA        -49.4700   -0.1560  -44.7430 C.3       1 LEU         0.1312
     67 C         -48.0590   -0.3040  -45.3070 C.2       1 LEU         0.2034
     68 O         -47.3690    0.6860  -45.5460 O.2       1 LEU        -0.3944
     69 CB        -50.3550    0.6440  -45.6960 C.3       1 LEU        -0.0101
     70 CG        -50.7310    0.0390  -47.0450 C.3       1 LEU        -0.0425
     71 CD1       -51.4960   -1.2690  -46.8760 C.3       1 LEU        -0.0625
     72 CD2       -51.5510    1.0510  -47.8250 C.3       1 LEU        -0.0625
     73 N         -47.6330   -1.5470  -45.4990 N.am      1 VAL        -0.2692
     74 CA        -46.3270   -1.8190  -46.1030 C.3       1 VAL         0.0967
     75 C         -46.4900   -2.2110  -47.5700 C.2       1 VAL         0.0603
     76 O         -45.5240   -2.2210  -48.3370 O.co2     1 VAL        -0.5666
     77 CB        -45.5360   -2.9330  -45.3790 C.3       1 VAL        -0.0118
     78 CG1       -44.0650   -2.5740  -45.3540 C.3       1 VAL        -0.0590
     79 CG2       -46.0390   -3.1460  -43.9680 C.3       1 VAL        -0.0590
     80 OXT       -47.5920   -2.5260  -48.0230 O.co2     1 VAL        -0.5666
     81 H         -56.3355   -2.4082  -22.4406 H         1 GLU         0.2015
     82 H         -55.6902   -2.8523  -20.9698 H         1 GLU         0.2015
     83 H         -56.4583   -1.3825  -21.1330 H         1 GLU         0.2015
     84 H         -54.7851   -0.5833  -22.6236 H         1 GLU         0.1099
     85 H         -53.6856   -1.7879  -20.0840 H         1 GLU         0.0363
     86 H         -54.4804   -0.1293  -20.3095 H         1 GLU         0.0363
     87 H         -51.8586   -1.0061  -21.4864 H         1 GLU         0.0434
     88 H         -52.0676   -0.0238  -19.9527 H         1 GLU         0.0434
     89 H         -52.6589   -0.7806  -23.4764 H         1 PHE         0.1886
     90 H         -51.2939   -1.7395  -24.9629 H         1 PHE         0.0823
     91 H         -50.0369   -3.7726  -24.1976 H         1 PHE         0.0474
     92 H         -51.1519   -3.7823  -22.7439 H         1 PHE         0.0474
     93 H         -49.7120   -0.7656  -24.3782 H         1 PHE         0.0557
     94 H         -49.4829   -3.4821  -21.0665 H         1 PHE         0.0557
     95 H         -48.1981    0.8049  -23.1931 H         1 PHE         0.0599
     96 H         -47.9633   -1.9195  -19.8793 H         1 PHE         0.0599
     97 H         -47.3089    0.2266  -20.9450 H         1 PHE         0.0559
     98 H         -53.3025   -1.9697  -26.2993 H         1 LYS         0.1883
     99 H         -53.7165   -4.7598  -27.2238 H         1 LYS         0.0797
    100 H         -55.5659   -3.1731  -27.3322 H         1 LYS         0.0277
    101 H         -54.6033   -2.1145  -28.3923 H         1 LYS         0.0277
    102 H         -55.0876   -3.7338  -28.9532 H         1 LYS         0.0277
    103 H         -53.1161   -5.3494  -29.4632 H         1 GLN         0.1883
    104 H         -50.3368   -4.6432  -29.8345 H         1 GLN         0.0801
    105 H         -51.9454   -6.2909  -31.7883 H         1 GLN         0.0337
    106 H         -51.4140   -6.9393  -30.1682 H         1 GLN         0.0337
    107 H         -49.2055   -6.9264  -30.7595 H         1 GLN         0.0504
    108 H         -49.4848   -5.7663  -32.1353 H         1 GLN         0.0504
    109 H         -50.7355   -8.3592  -34.3414 H         1 GLN         0.1814
    110 H         -51.1056   -6.7118  -33.8212 H         1 GLN         0.1814
    111 H         -53.2162   -4.1720  -31.8445 H         1 THR         0.1884
    112 H         -53.6907   -2.9086  -33.5812 H         1 THR         0.0826
    113 H         -52.8919   -0.6402  -33.8350 H         1 THR         0.0639
    114 H         -50.7913   -1.3952  -32.0421 H         1 THR         0.2101
    115 H         -54.3901   -1.0471  -31.9432 H         1 THR         0.0257
    116 H         -52.9966   -1.4088  -30.8952 H         1 THR         0.0257
    117 H         -53.2179    0.2335  -31.5471 H         1 THR         0.0257
    118 H         -53.4984   -2.9944  -35.6890 H         1 SER         0.1884
    119 H         -51.4701   -4.5799  -36.8440 H         1 SER         0.0823
    120 H         -52.4720   -4.0064  -38.9826 H         1 SER         0.0606
    121 H         -53.2492   -2.5512  -38.2555 H         1 SER         0.0606
    122 H         -54.6908   -4.3344  -38.4627 H         1 SER         0.2097
    123 H         -49.8520   -4.1037  -38.4285 H         1 SER         0.1884
    124 H         -48.2871   -1.7468  -37.8499 H         1 SER         0.0823
    125 H         -47.5912   -4.0476  -38.8653 H         1 SER         0.0606
    126 H         -46.7697   -2.5374  -39.4069 H         1 SER         0.0606
    127 H         -48.1843   -2.5550  -41.2120 H         1 SER         0.2097
    128 H         -47.7806   -0.0020  -39.4231 H         1 PHE         0.1885
    129 H         -50.0163    1.0182  -40.8883 H         1 PHE         0.0823
    130 H         -48.3036    2.4947  -40.2648 H         1 PHE         0.0474
    131 H         -48.3143    2.3774  -42.0951 H         1 PHE         0.0474
    132 H         -46.3971    1.9640  -39.0325 H         1 PHE         0.0557
    133 H         -46.5132    1.1658  -43.2424 H         1 PHE         0.0557
    134 H         -43.9668    1.5012  -39.0037 H         1 PHE         0.0599
    135 H         -44.0739    0.6963  -43.2206 H         1 PHE         0.0599
    136 H         -42.7954    0.8741  -41.0974 H         1 PHE         0.0559
    137 H         -49.8154    1.4317  -43.3440 H         1 LEU         0.1883
    138 H         -49.8841   -1.1582  -44.6323 H         1 LEU         0.0800
    139 H         -49.7716    1.5317  -45.9405 H         1 LEU         0.0315
    140 H         -51.3015    0.7597  -45.1679 H         1 LEU         0.0315
    141 H         -49.8204   -0.1960  -47.5961 H         1 LEU         0.0298
    142 H         -50.8751   -1.9845  -46.3369 H         1 LEU         0.0232
    143 H         -52.4107   -1.0833  -46.3131 H         1 LEU         0.0232
    144 H         -51.7471   -1.6710  -47.8576 H         1 LEU         0.0232
    145 H         -52.4537    1.2945  -47.2647 H         1 LEU         0.0232
    146 H         -50.9612    1.9550  -47.9769 H         1 LEU         0.0232
    147 H         -51.8247    0.6275  -48.7914 H         1 LEU         0.0232
    148 H         -48.2272   -2.3278  -45.2203 H         1 VAL         0.1875
    149 H         -45.7578   -0.8941  -46.0096 H         1 VAL         0.0729
    150 H         -45.6812   -3.8639  -45.9271 H         1 VAL         0.0336
    151 H         -43.6994   -2.4737  -46.3759 H         1 VAL         0.0234
    152 H         -43.9315   -1.6305  -44.8248 H         1 VAL         0.0234
    153 H         -43.5091   -3.3603  -44.8433 H         1 VAL         0.0234
    154 H         -45.9296   -2.2214  -43.4012 H         1 VAL         0.0234
    155 H         -47.0901   -3.4332  -43.9978 H         1 VAL         0.0234
    156 H         -45.4584   -3.9363  -43.4921 H         1 VAL         0.0234
@<TRIPOS>BOND
     1    1    2 1  
     2    2    3 1  
     3    2    5 1  
     4    3    4 2  
     5    3   10 am 
     6    5    6 1  
     7    6    7 1  
     8    7    8 ar 
     9    7    9 ar 
    10   10   11 1  
    11   11   12 1  
    12   11   14 1  
    13   12   13 2  
    14   12   21 am 
    15   14   15 1  
    16   15   16 ar 
    17   15   17 ar 
    18   16   18 ar 
    19   17   19 ar 
    20   18   20 ar 
    21   19   20 ar 
    22   21   22 1  
    23   22   23 1  
    24   22   25 1  
    25   23   24 2  
    26   23   26 am 
    27   26   27 1  
    28   27   28 1  
    29   27   30 1  
    30   28   29 2  
    31   28   35 am 
    32   30   31 1  
    33   31   32 1  
    34   32   33 2  
    35   32   34 am 
    36   35   36 1  
    37   36   37 1  
    38   36   39 1  
    39   37   38 2  
    40   37   42 am 
    41   39   40 1  
    42   39   41 1  
    43   42   43 1  
    44   43   44 1  
    45   43   46 1  
    46   44   45 2  
    47   44   48 am 
    48   46   47 1  
    49   48   49 1  
    50   49   50 1  
    51   49   52 1  
    52   50   51 2  
    53   50   54 am 
    54   52   53 1  
    55   54   55 1  
    56   55   56 1  
    57   55   58 1  
    58   56   57 2  
    59   56   65 am 
    60   58   59 1  
    61   59   60 ar 
    62   59   61 ar 
    63   60   62 ar 
    64   61   63 ar 
    65   62   64 ar 
    66   63   64 ar 
    67   65   66 1  
    68   66   67 1  
    69   66   69 1  
    70   67   68 2  
    71   67   73 am 
    72   69   70 1  
    73   70   71 1  
    74   70   72 1  
    75   73   74 1  
    76   74   75 1  
    77   74   77 1  
    78   75   76 ar 
    79   75   80 ar 
    80   77   78 1  
    81   77   79 1  
    82    1   81 1  
    83    1   82 1  
    84    1   83 1  
    85    2   84 1  
    86    5   85 1  
    87    5   86 1  
    88    6   87 1  
    89    6   88 1  
    90   10   89 1  
    91   11   90 1  
    92   14   91 1  
    93   14   92 1  
    94   16   93 1  
    95   17   94 1  
    96   18   95 1  
    97   19   96 1  
    98   20   97 1  
    99   21   98 1  
   100   22   99 1  
   101   25  100 1  
   102   25  101 1  
   103   25  102 1  
   104   26  103 1  
   105   27  104 1  
   106   30  105 1  
   107   30  106 1  
   108   31  107 1  
   109   31  108 1  
   110   34  109 1  
   111   34  110 1  
   112   35  111 1  
   113   36  112 1  
   114   39  113 1  
   115   40  114 1  
   116   41  115 1  
   117   41  116 1  
   118   41  117 1  
   119   42  118 1  
   120   43  119 1  
   121   46  120 1  
   122   46  121 1  
   123   47  122 1  
   124   48  123 1  
   125   49  124 1  
   126   52  125 1  
   127   52  126 1  
   128   53  127 1  
   129   54  128 1  
   130   55  129 1  
   131   58  130 1  
   132   58  131 1  
   133   60  132 1  
   134   61  133 1  
   135   62  134 1  
   136   63  135 1  
   137   64  136 1  
   138   65  137 1  
   139   66  138 1  
   140   69  139 1  
   141   69  140 1  
   142   70  141 1  
   143   71  142 1  
   144   71  143 1  
   145   71  144 1  
   146   72  145 1  
   147   72  146 1  
   148   72  147 1  
   149   73  148 1  
   150   74  149 1  
   151   77  150 1  
   152   78  151 1  
   153   78  152 1  
   154   78  153 1  
   155   79  154 1  
   156   79  155 1  
   157   79  156 1  
@<TRIPOS>SUBSTRUCTURE
     1 GLU         1

