1kll_ligand
  -I-interpret- 

 41 43  0  0  0  0  0  0  0  0999 V2000
    9.3750   32.3500   20.8730 C   0  0  0  0  0
   10.3590   31.9110   19.9160 C   0  0  0  0  0
   11.1160   32.9600   19.2210 C   0  0  0  0  0
   10.9290   34.2670   19.4800 C   0  0  0  0  0
    9.8820   34.6750   20.4680 C   0  0  0  0  0
    9.1580   33.6230   21.1020 C   0  0  0  0  0
    8.0540   33.7160   22.1050 C   0  0  0  0  0
    7.7680   32.4700   22.3680 C   0  0  0  0  0
   12.1240   32.4840   18.1990 C   0  0  0  0  0
    8.5130   31.5980   21.6250 N   0  3  0  0  0
   11.6120   35.2890   18.8380 N   0  0  0  0  0
   10.4740   30.7080   19.7510 O   0  0  0  0  0
    9.7160   35.8730   20.6650 O   0  0  0  0  0
    7.4800   34.9430   22.6010 C   0  0  0  0  0
    6.3950   34.5180   23.5750 O   0  0  0  0  0
    5.9940   35.6560   24.1290 C   0  0  0  0  0
    6.1110   36.8420   23.8840 O   0  0  0  0  0
    5.0380   35.3040   25.0140 N   0  0  0  0  0
    6.7940   31.4740   23.1240 C   0  0  0  0  0
    6.9260   30.1080   22.7430 C   0  0  0  0  0
    8.0720   30.1320   21.7820 C   0  0  0  0  0
    5.9500   29.2690   22.3790 N   0  3  0  0  0
    5.5180   31.6190   23.0520 O   0  0  0  0  0
   12.8635   31.8499   18.6880 H   0  0  0  0  0
   11.6118   31.9151   17.4230 H   0  0  0  0  0
   12.6206   33.3452   17.7520 H   0  0  0  0  0
   12.3040   35.0687   18.1217 H   0  0  0  0  0
   11.4224   36.2611   19.0821 H   0  0  0  0  0
   11.1547   30.5397   19.0953 H   0  0  0  0  0
    9.0209   35.9959   21.3157 H   0  0  0  0  0
    7.0749   35.5505   21.7917 H   0  0  0  0  0
    8.2301   35.5677   23.0860 H   0  0  0  0  0
    4.4528   36.0201   25.4443 H   0  0  0  0  0
    4.9006   34.3219   25.2526 H   0  0  0  0  0
    7.1480   31.7449   24.1187 H   0  0  0  0  0
    7.0092   29.5934   23.7003 H   0  0  0  0  0
    8.5139   29.2690   21.2840 H   0  0  0  0  0
    5.2019   29.2986   23.0717 H   0  0  0  0  0
    5.5839   29.5495   21.4692 H   0  0  0  0  0
    6.3225   28.3213   22.3194 H   0  0  0  0  0
    5.0894   30.9316   23.5672 H   0  0  0  0  0
 10  1  1  0  0  0
  6  1  4  0  0  0
  1  2  4  0  0  0
  2 12  1  0  0  0
  2  3  4  0  0  0
  3  9  1  0  0  0
  4  3  4  0  0  0
  4 11  1  0  0  0
  5  4  4  0  0  0
  5 13  1  0  0  0
  6  5  4  0  0  0
  7  6  1  0  0  0
 14  7  1  0  0  0
  7  8  2  0  0  0
  8 19  1  0  0  0
  8 10  1  0  0  0
 10 21  2  0  0  0
 21 20  1  0  0  0
 20 22  1  0  0  0
 19 20  1  0  0  0
 19 23  1  0  0  0
 15 14  1  0  0  0
 16 15  1  0  0  0
 16 18  1  0  0  0
 16 17  2  0  0  0
  9 24  1  0  0  0
  9 25  1  0  0  0
  9 26  1  0  0  0
 11 27  1  0  0  0
 11 28  1  0  0  0
 12 29  1  0  0  0
 13 30  1  0  0  0
 14 31  1  0  0  0
 14 32  1  0  0  0
 18 33  1  0  0  0
 18 34  1  0  0  0
 19 35  1  0  0  0
 20 36  1  0  0  0
 21 37  1  0  0  0
 22 38  1  0  0  0
 22 39  1  0  0  0
 22 40  1  0  0  0
 23 41  1  0  0  0
M  END
$$$$
