6pvv_ligand
  -I-interpret- 

 57 59  0  0  0  0  0  0  0  0999 V2000
   11.7040   -3.4270   19.2810 N   0  0  0  0  0
   11.4250   -2.1850   19.6930 C   0  0  0  0  0
   12.1390   -1.8460   20.6680 N   0  0  0  0  0
   12.9200   -2.8760   20.9930 C   0  0  0  0  0
   13.8690   -3.1380   21.9760 C   0  0  0  0  0
   14.1160   -2.1760   22.8580 N   0  0  0  0  0
   14.4660   -4.3370   21.9850 N   0  0  0  0  0
   14.1810   -5.2430   21.0850 C   0  0  0  0  0
   13.2860   -5.0380   20.1630 N   0  0  0  0  0
   12.6390   -3.9160   20.0830 C   0  0  0  0  0
    8.3170   -1.6000   15.5610 O   0  0  0  0  0
    9.0870   -2.1440   16.6120 C   0  0  0  0  0
    9.8000   -3.4720   16.3410 C   0  0  0  0  0
   10.9960   -3.2370   17.0700 O   0  0  0  0  0
    9.1130   -4.6750   17.0640 C   0  0  0  0  0
    9.5210   -5.9510   16.6320 O   0  0  0  0  0
    9.6540   -4.5040   18.4960 C   0  0  0  0  0
    9.5920   -5.6440   19.3410 O   0  0  0  0  0
   11.1040   -4.1290   18.1740 C   0  0  0  0  0
    8.7640   -0.1850   14.8800 P   0  0  0  0  0
    7.9850    0.8950   15.3810 O   0  0  0  0  0
   10.2440    0.3270   15.0000 O   0  0  0  0  0
    8.7900   -0.5330   13.3010 O   0  0  0  0  0
    7.7780   -1.5440   12.5550 P   0  0  0  0  0
    8.2960   -1.4990   11.2140 O   0  0  0  0  0
    6.4210   -0.7990   12.5320 O   0  0  0  0  0
    7.5400   -3.0500   12.9980 O   0  0  0  0  0
    8.6550   -3.9390   12.2530 P   0  0  0  0  0
    8.4050   -4.0890   10.8390 O   0  0  0  0  0
    8.6890   -5.3280   13.0240 O   0  0  0  0  0
    9.9550   -3.0820   12.3550 O   0  0  0  0  0
   11.0600   -4.1200   12.6980 P   0  0  0  0  0
   10.9210   -4.6100   14.0600 O   0  0  0  0  0
   10.8880   -5.4370   11.7920 O   0  0  0  0  0
   12.4820   -3.5300   12.2490 O   0  0  0  0  0
   13.2420   -2.7630   13.3240 P   0  0  0  0  0
   13.1280   -3.4630   14.6180 O   0  0  0  0  0
   12.4010   -1.4000   13.3050 O   0  0  0  0  0
   14.7850   -2.4030   13.0840 O   0  0  0  0  0
   10.6693   -1.5452   19.2372 H   0  0  0  0  0
   13.6174   -1.2882   22.7974 H   0  0  0  0  0
   14.8043   -2.3250   23.5959 H   0  0  0  0  0
   14.7083   -6.1967   21.1083 H   0  0  0  0  0
    8.3845   -2.3445   17.4210 H   0  0  0  0  0
    9.8765   -1.4183   16.8073 H   0  0  0  0  0
    9.8581   -3.7139   15.2798 H   0  0  0  0  0
    8.0351   -4.6494   16.9043 H   0  0  0  0  0
    9.0484   -6.6223   17.1296 H   0  0  0  0  0
    9.0668   -3.7921   19.0761 H   0  0  0  0  0
    9.9538   -5.4226   20.2022 H   0  0  0  0  0
   11.7166   -5.0070   17.9694 H   0  0  0  0  0
   10.8430   -0.3509   14.6786 H   0  0  0  0  0
    6.0387   -0.8056   13.4126 H   0  0  0  0  0
    8.8578   -5.1713   13.9560 H   0  0  0  0  0
   10.9672   -5.1991   10.8653 H   0  0  0  0  0
   12.5004   -0.9759   12.4495 H   0  0  0  0  0
   14.8791   -1.9461   12.2450 H   0  0  0  0  0
  1  2  4  0  0  0
  1 10  4  0  0  0
 19  1  1  0  0  0
  2  3  4  0  0  0
  4  3  4  0  0  0
  4  5  4  0  0  0
 10  4  4  0  0  0
  5  6  1  0  0  0
  5  7  4  0  0  0
  8  7  4  0  0  0
  9  8  4  0  0  0
 10  9  4  0  0  0
 12 11  1  0  0  0
 11 20  1  0  0  0
 13 12  1  0  0  0
 14 13  1  0  0  0
 13 15  1  0  0  0
 14 19  1  0  0  0
 15 16  1  0  0  0
 15 17  1  0  0  0
 17 18  1  0  0  0
 17 19  1  0  0  0
 20 21  2  0  0  0
 20 22  1  0  0  0
 20 23  1  0  0  0
 23 24  1  0  0  0
 24 25  2  0  0  0
 24 26  1  0  0  0
 24 27  1  0  0  0
 27 28  1  0  0  0
 28 29  2  0  0  0
 28 30  1  0  0  0
 28 31  1  0  0  0
 31 32  1  0  0  0
 32 33  2  0  0  0
 32 34  1  0  0  0
 32 35  1  0  0  0
 35 36  1  0  0  0
 36 37  2  0  0  0
 36 38  1  0  0  0
 36 39  1  0  0  0
  2 40  1  0  0  0
  6 41  1  0  0  0
  6 42  1  0  0  0
  8 43  1  0  0  0
 12 44  1  0  0  0
 12 45  1  0  0  0
 13 46  1  0  0  0
 15 47  1  0  0  0
 16 48  1  0  0  0
 17 49  1  0  0  0
 18 50  1  0  0  0
 19 51  1  0  0  0
 22 52  1  0  0  0
 26 53  1  0  0  0
 30 54  1  0  0  0
 34 55  1  0  0  0
 38 56  1  0  0  0
 39 57  1  0  0  0
M  END
$$$$
