### 
### Created by X-TOOL on Mon Aug  2 16:16:11 2021
### 

@<TRIPOS>MOLECULE
6pvv_ligand
   51    53     1     0     0
SMALL
GAST_HUCK


@<TRIPOS>ATOM
      1 N9         11.7040   -3.4270   19.2810 N.pl3     1 MOL        -0.1919
      2 C8         11.4250   -2.1850   19.6930 C.2       1 MOL         0.1123
      3 N7         12.1390   -1.8460   20.6680 N.2       1 MOL        -0.2958
      4 C5         12.9200   -2.8760   20.9930 C.ar      1 MOL         0.1045
      5 C6         13.8690   -3.1380   21.9760 C.ar      1 MOL         0.1298
      6 N6         14.1160   -2.1760   22.8580 N.pl3     1 MOL        -0.3152
      7 N1         14.4660   -4.3370   21.9850 N.ar      1 MOL        -0.2698
      8 C2         14.1810   -5.2430   21.0850 C.ar      1 MOL         0.0533
      9 N3         13.2860   -5.0380   20.1630 N.ar      1 MOL        -0.2714
     10 C4         12.6390   -3.9160   20.0830 C.ar      1 MOL         0.1613
     11 O5'         8.3170   -1.6000   15.5610 O.3       1 MOL        -0.2453
     12 C5'         9.0870   -2.1440   16.6120 C.3       1 MOL         0.1130
     13 C4'         9.8000   -3.4720   16.3410 C.3       1 MOL         0.1189
     14 O4'        10.9960   -3.2370   17.0700 O.3       1 MOL        -0.3364
     15 C3'         9.1130   -4.6750   17.0640 C.3       1 MOL         0.1149
     16 O3'         9.5210   -5.9510   16.6320 O.3       1 MOL        -0.3864
     17 C2'         9.6540   -4.5040   18.4960 C.3       1 MOL         0.1385
     18 O2'         9.5920   -5.6440   19.3410 O.3       1 MOL        -0.3836
     19 C1'        11.1040   -4.1290   18.1740 C.3       1 MOL         0.2010
     20 PA          8.7640   -0.1850   14.8800 P.3       1 MOL         0.3171
     21 O1A         7.9850    0.8950   15.3810 O.co2     1 MOL        -0.5837
     22 O2A        10.2440    0.3270   15.0000 O.co2     1 MOL        -0.5837
     23 O3A         8.7900   -0.5330   13.3010 O.3       1 MOL        -0.1196
     24 PB          7.7780   -1.5440   12.5550 P.3       1 MOL         0.3547
     25 O1B         8.2960   -1.4990   11.2140 O.co2     1 MOL        -0.5789
     26 O2B         6.4210   -0.7990   12.5320 O.co2     1 MOL        -0.5789
     27 O3B         7.5400   -3.0500   12.9980 O.3       1 MOL        -0.1143
     28 PG          8.6550   -3.9390   12.2530 P.3       1 MOL         0.3552
     29 O2G         8.4050   -4.0890   10.8390 O.co2     1 MOL        -0.5789
     30 O1G         8.6890   -5.3280   13.0240 O.co2     1 MOL        -0.5789
     31 O3G         9.9550   -3.0820   12.3550 O.3       1 MOL        -0.1151
     32 PD         11.0600   -4.1200   12.6980 P.3       1 MOL         0.3464
     33 O1D        10.9210   -4.6100   14.0600 O.co2     1 MOL        -0.5797
     34 O2D        10.8880   -5.4370   11.7920 O.co2     1 MOL        -0.5797
     35 O3D        12.4820   -3.5300   12.2490 O.3       1 MOL        -0.1597
     36 PE         13.2420   -2.7630   13.3240 P.3       1 MOL         0.1683
     37 O1E        13.1280   -3.4630   14.6180 O.co2     1 MOL        -0.6292
     38 O2E        12.4010   -1.4000   13.3050 O.co2     1 MOL        -0.6292
     39 O3E        14.7850   -2.4030   13.0840 O.co2     1 MOL        -0.6292
     40 H1         10.6700   -1.5458   19.2376 H         1 MOL         0.1349
     41 H2         14.8110   -2.3265   23.6031 H         1 MOL         0.1820
     42 H3         13.6125   -1.2795   22.7968 H         1 MOL         0.1820
     43 H4         14.7054   -6.1914   21.1081 H         1 MOL         0.0996
     44 H5          8.4153   -2.2978   17.4694 H         1 MOL         0.0648
     45 H6          9.8560   -1.4034   16.8768 H         1 MOL         0.0648
     46 H7          9.9484   -3.6694   15.2691 H         1 MOL         0.0651
     47 H8          8.0174   -4.5936   17.0088 H         1 MOL         0.0648
     48 H9          9.0533   -6.6153   17.1244 H         1 MOL         0.2100
     49 H10         9.1312   -3.6792   19.0023 H         1 MOL         0.0676
     50 H11         9.9500   -5.4249   20.1932 H         1 MOL         0.2101
     51 H12        11.6982   -5.0189   17.9190 H         1 MOL         0.0996
@<TRIPOS>BOND
     1    1    2 1  
     2    1   10 1  
     3   19    1 1  
     4    2    3 2  
     5    4    3 1  
     6    4    5 ar 
     7   10    4 ar 
     8    5    6 1  
     9    5    7 ar 
    10    8    7 ar 
    11    9    8 ar 
    12   10    9 ar 
    13   12   11 1  
    14   11   20 1  
    15   13   12 1  
    16   14   13 1  
    17   13   15 1  
    18   14   19 1  
    19   15   16 1  
    20   15   17 1  
    21   17   18 1  
    22   17   19 1  
    23   20   21 ar 
    24   20   22 ar 
    25   20   23 1  
    26   23   24 1  
    27   24   25 ar 
    28   24   26 ar 
    29   24   27 1  
    30   27   28 1  
    31   28   29 ar 
    32   28   30 ar 
    33   28   31 1  
    34   31   32 1  
    35   32   33 ar 
    36   32   34 ar 
    37   32   35 1  
    38   35   36 1  
    39   36   37 ar 
    40   36   38 ar 
    41   36   39 ar 
    42    2   40 1  
    43    6   41 1  
    44    6   42 1  
    45    8   43 1  
    46   12   44 1  
    47   12   45 1  
    48   13   46 1  
    49   15   47 1  
    50   16   48 1  
    51   17   49 1  
    52   18   50 1  
    53   19   51 1  
@<TRIPOS>SUBSTRUCTURE
     1 MOL         1

