4gqr_ligand
  -I-interpret- 

 33 35  0  0  0  0  0  0  0  0999 V2000
   14.2640   13.8960   35.1200 C   0  0  0  0  0
   15.1520   14.3270   36.0970 C   0  0  0  0  0
   14.6650   14.9030   37.2670 C   0  0  0  0  0
   13.3060   15.0600   37.4600 C   0  0  0  0  0
   12.4130   14.6220   36.4780 C   0  0  0  0  0
   12.8910   14.0440   35.3170 C   0  0  0  0  0
   15.5370   15.2540   38.2980 C   0  0  0  0  0
   14.9800   15.5290   39.5470 C   0  0  0  0  0
   13.6000   15.5780   39.6650 C   0  0  0  0  0
   12.9770   15.5700   40.9150 C   0  0  0  0  0
   13.7160   15.4030   42.0780 C   0  0  0  0  0
   13.0720   15.4200   43.3130 C   0  0  0  0  0
   11.7040   15.6020   43.3790 C   0  0  0  0  0
   10.9640   15.7630   42.2200 C   0  0  0  0  0
   11.6020   15.7480   40.9830 C   0  0  0  0  0
   12.8130   15.6930   38.5620 O   0  0  0  0  0
   16.7430   15.3300   38.1170 O   0  0  0  0  0
    9.6120   15.9310   42.2840 O   0  0  0  0  0
   11.0770   15.6400   44.5940 O   0  0  0  0  0
   13.8030   15.2570   44.4540 O   0  0  0  0  0
   15.7950   15.7350   40.6150 O   0  0  0  0  0
   12.0170   13.6150   34.3650 O   0  0  0  0  0
   16.4900   14.1920   35.9030 O   0  0  0  0  0
   14.6388   13.4434   34.2020 H   0  0  0  0  0
   11.3394   14.7363   36.6278 H   0  0  0  0  0
   14.7952   15.2592   42.0251 H   0  0  0  0  0
   11.0225   15.8759   40.0687 H   0  0  0  0  0
    9.2602   16.0270   41.3960 H   0  0  0  0  0
   10.1352   15.7721   44.4628 H   0  0  0  0  0
   13.2187   15.2927   45.2149 H   0  0  0  0  0
   16.7107   15.6611   40.3363 H   0  0  0  0  0
   11.1187   13.7900   34.6548 H   0  0  0  0  0
   16.9592   14.5362   36.6665 H   0  0  0  0  0
  1  2  4  0  0  0
  1  6  4  0  0  0
  2  3  4  0  0  0
  2 23  1  0  0  0
  3  4  4  0  0  0
  3  7  1  0  0  0
  4  5  4  0  0  0
  4 16  1  0  0  0
  5  6  4  0  0  0
  6 22  1  0  0  0
  7  8  1  0  0  0
  7 17  2  0  0  0
  8  9  2  0  0  0
  8 21  1  0  0  0
  9 10  1  0  0  0
  9 16  1  0  0  0
 10 11  4  0  0  0
 10 15  4  0  0  0
 11 12  4  0  0  0
 12 13  4  0  0  0
 12 20  1  0  0  0
 13 14  4  0  0  0
 13 19  1  0  0  0
 14 15  4  0  0  0
 14 18  1  0  0  0
  1 24  1  0  0  0
  5 25  1  0  0  0
 11 26  1  0  0  0
 15 27  1  0  0  0
 18 28  1  0  0  0
 19 29  1  0  0  0
 20 30  1  0  0  0
 21 31  1  0  0  0
 22 32  1  0  0  0
 23 33  1  0  0  0
M  END
$$$$
