1qf0_ligand
  -I-interpret- 

 63 65  0  0  0  0  0  0  0  0999 V2000
   34.2260   43.1720   -6.9870 S   0  0  0  0  0
   34.6030   41.5420   -6.2280 C   0  0  0  0  0
   35.0560   40.5030   -7.2400 C   0  0  0  0  0
   33.9310   39.7730   -7.8610 C   0  0  0  0  0
   33.4910   40.1050   -9.1270 C   0  0  0  0  0
   33.2620   38.7820   -7.1420 C   0  0  0  0  0
   32.3900   39.4670   -9.6770 C   0  0  0  0  0
   32.1680   38.1390   -7.6770 C   0  0  0  0  0
   31.7230   38.4810   -8.9510 C   0  0  0  0  0
   35.7580   41.9180   -5.3220 C   0  0  0  0  0
   36.8010   42.3790   -5.7990 O   0  0  0  0  0
   35.5420   41.8020   -4.0220 N   0  0  0  0  0
   36.5570   42.1750   -3.0600 C   0  0  0  0  0
   35.9360   42.2750   -1.6710 C   0  0  0  0  0
   36.8080   42.9630   -0.6820 C   0  0  0  0  0
   37.1480   44.3040   -0.8620 C   0  0  0  0  0
   37.3170   42.2770    0.4140 C   0  0  0  0  0
   37.9910   44.9590    0.0440 C   0  0  0  0  0
   38.1610   42.9220    1.3260 C   0  0  0  0  0
   38.4980   44.2650    1.1400 C   0  0  0  0  0
   37.7240   41.2050   -3.0120 C   0  0  0  0  0
   38.8880   41.6100   -2.9040 O   0  0  0  0  0
   37.3860   39.9280   -3.1110 N   0  0  0  0  0
   38.3190   38.8210   -3.0360 C   0  0  0  0  0
   37.6990   37.8180   -2.0690 C   0  0  0  0  0
   38.5660   36.7060   -1.5080 C   0  0  0  0  0
   39.9190   36.9140   -1.2320 C   0  0  0  0  0
   40.6780   35.8700   -0.6830 C   0  0  0  0  0
   37.9620   35.4710   -1.2490 C   0  0  0  0  0
   38.7180   34.4310   -0.6980 C   0  0  0  0  0
   40.0750   34.6300   -0.4140 C   0  0  0  0  0
   40.8060   33.6190    0.1270 O   0  0  0  0  0
   38.4740   38.2180   -4.4360 C   0  0  0  0  0
   37.4580   38.0600   -5.1470 O   0  0  0  0  0
   39.6150   37.9430   -4.8370 O   0  0  0  0  0
   33.2107   43.0398   -7.8359 H   0  0  0  0  0
   33.7401   41.0863   -5.7424 H   0  0  0  0  0
   35.6745   39.7753   -6.7146 H   0  0  0  0  0
   35.5922   41.0238   -8.0333 H   0  0  0  0  0
   34.0126   40.8735   -9.6975 H   0  0  0  0  0
   33.6096   38.5134   -6.1444 H   0  0  0  0  0
   32.0461   39.7358  -10.6758 H   0  0  0  0  0
   31.6532   37.3663   -7.1059 H   0  0  0  0  0
   30.8555   37.9793   -9.3798 H   0  0  0  0  0
   34.6456   41.4439   -3.6923 H   0  0  0  0  0
   36.9512   43.1388   -3.3823 H   0  0  0  0  0
   35.7696   41.2595   -1.3117 H   0  0  0  0  0
   35.0194   42.8578   -1.7622 H   0  0  0  0  0
   36.7523   44.8489   -1.7191 H   0  0  0  0  0
   37.0573   41.2292    0.5648 H   0  0  0  0  0
   38.2492   46.0070   -0.1077 H   0  0  0  0  0
   38.5558   42.3755    2.1825 H   0  0  0  0  0
   39.1550   44.7677    1.8497 H   0  0  0  0  0
   36.3997   39.7081   -3.2498 H   0  0  0  0  0
   39.3084   39.1209   -2.6906 H   0  0  0  0  0
   36.9284   37.3089   -2.6478 H   0  0  0  0  0
   37.4037   38.4089   -1.2020 H   0  0  0  0  0
   40.3810   37.8788   -1.4413 H   0  0  0  0  0
   41.7353   36.0208   -0.4652 H   0  0  0  0  0
   36.9066   35.3198   -1.4756 H   0  0  0  0  0
   38.2520   33.4678   -0.4901 H   0  0  0  0  0
   40.2458   32.8484    0.2454 H   0  0  0  0  0
   36.6793   38.3301   -4.6549 H   0  0  0  0  0
  1  2  1  0  0  0
  2 10  1  0  0  0
  2  3  1  0  0  0
  3  4  1  0  0  0
  4  6  4  0  0  0
  4  5  4  0  0  0
  5  7  4  0  0  0
  7  9  4  0  0  0
  9  8  4  0  0  0
  8  6  4  0  0  0
 10 12  1  0  0  0
 10 11  2  0  0  0
 12 13  1  0  0  0
 13 21  1  0  0  0
 13 14  1  0  0  0
 14 15  1  0  0  0
 15 17  4  0  0  0
 15 16  4  0  0  0
 16 18  4  0  0  0
 18 20  4  0  0  0
 20 19  4  0  0  0
 19 17  4  0  0  0
 21 23  1  0  0  0
 21 22  2  0  0  0
 23 24  1  0  0  0
 24 33  1  0  0  0
 24 25  1  0  0  0
 25 26  1  0  0  0
 26 29  4  0  0  0
 26 27  4  0  0  0
 27 28  4  0  0  0
 28 31  4  0  0  0
 31 32  1  0  0  0
 31 30  4  0  0  0
 30 29  4  0  0  0
 33 35  2  0  0  0
 33 34  1  0  0  0
  1 36  1  0  0  0
  2 37  1  0  0  0
  3 38  1  0  0  0
  3 39  1  0  0  0
  5 40  1  0  0  0
  6 41  1  0  0  0
  7 42  1  0  0  0
  8 43  1  0  0  0
  9 44  1  0  0  0
 12 45  1  0  0  0
 13 46  1  0  0  0
 14 47  1  0  0  0
 14 48  1  0  0  0
 16 49  1  0  0  0
 17 50  1  0  0  0
 18 51  1  0  0  0
 19 52  1  0  0  0
 20 53  1  0  0  0
 23 54  1  0  0  0
 24 55  1  0  0  0
 25 56  1  0  0  0
 25 57  1  0  0  0
 27 58  1  0  0  0
 28 59  1  0  0  0
 29 60  1  0  0  0
 30 61  1  0  0  0
 32 62  1  0  0  0
 34 63  1  0  0  0
M  END
$$$$
