3f2a_ligand
  -I-interpret- 

 48 50  0  0  0  0  0  0  0  0999 V2000
   73.3120   36.8670    2.3800 C   0  0  0  0  0
   73.9550   35.7990    3.0270 N   0  0  0  0  0
   74.0510   35.6590    4.3900 C   0  0  0  0  0
   73.4500   36.6740    5.1930 C   0  0  0  0  0
   72.8280   37.7060    4.5700 N   0  0  0  0  0
   72.7300   37.8510    3.2270 C   0  0  0  0  0
   74.7200   34.5550    4.9160 N   0  0  0  0  0
   75.6310   33.7940    4.0240 C   0  0  0  0  0
   75.0250   32.4830    3.4600 C   0  0  0  0  0
   73.7600   32.0960    4.1430 N   0  3  0  0  0
   74.0560   31.7080    5.5420 C   0  0  0  0  0
   73.7190   32.8540    6.5160 C   0  0  0  0  0
   74.5730   34.1330    6.3410 C   0  0  0  0  0
   73.1670   30.9460    3.4390 C   0  0  0  0  0
   73.1610   36.8120   -2.0030 C   0  0  0  0  0
   72.9670   38.0650   -1.3260 C   0  0  0  0  0
   73.0170   38.1010    0.1070 C   0  0  0  0  0
   73.2600   36.9040    0.8740 C   0  0  0  0  0
   73.4510   35.6720    0.1690 C   0  0  0  0  0
   73.4050   35.6140   -1.2590 C   0  0  0  0  0
   73.6000   34.3320   -1.9840 C   0  0  0  0  0
   74.1240   33.1950   -1.4270 C   0  0  0  0  0
   74.2780   31.9400   -2.2050 C   0  0  0  0  0
   74.9620   31.0730   -1.7560 O   0  0  0  0  0
   73.6240   31.8170   -3.3860 O   0  0  0  0  0
   73.4898   36.6213    6.2810 H   0  0  0  0  0
   72.2121   38.7102    2.8007 H   0  0  0  0  0
   76.5016   33.5151    4.6177 H   0  0  0  0  0
   75.8552   34.4358    3.1720 H   0  0  0  0  0
   75.7492   31.6839    3.6180 H   0  0  0  0  0
   74.8009   32.6438    2.4055 H   0  0  0  0  0
   73.1102   32.8822    4.1355 H   0  0  0  0  0
   75.1187   31.4802    5.6244 H   0  0  0  0  0
   73.4493   30.8400    5.8000 H   0  0  0  0  0
   73.9139   32.4804    7.5212 H   0  0  0  0  0
   72.6844   33.1374    6.3228 H   0  0  0  0  0
   74.0700   34.9403    6.8733 H   0  0  0  0  0
   75.5701   33.9184    6.7255 H   0  0  0  0  0
   72.9576   31.2228    2.4057 H   0  0  0  0  0
   73.8662   30.1100    3.4580 H   0  0  0  0  0
   72.2399   30.6572    3.9341 H   0  0  0  0  0
   73.1220   36.7739   -3.0916 H   0  0  0  0  0
   72.7841   38.9767   -1.8947 H   0  0  0  0  0
   72.8689   39.0486    0.6249 H   0  0  0  0  0
   73.6356   34.7581    0.7337 H   0  0  0  0  0
   73.3055   34.2931   -3.0328 H   0  0  0  0  0
   74.4367   33.2125   -0.3830 H   0  0  0  0  0
   73.1329   32.6224   -3.5639 H   0  0  0  0  0
  1  2  4  0  0  0
  1  6  4  0  0  0
 18  1  1  0  0  0
  2  3  4  0  0  0
  3  4  4  0  0  0
  3  7  1  0  0  0
  5  4  4  0  0  0
  6  5  4  0  0  0
  7  8  1  0  0  0
  7 13  1  0  0  0
  8  9  1  0  0  0
  9 10  1  0  0  0
 11 10  1  0  0  0
 10 14  1  0  0  0
 12 11  1  0  0  0
 13 12  1  0  0  0
 16 15  4  0  0  0
 15 20  4  0  0  0
 17 16  4  0  0  0
 17 18  4  0  0  0
 18 19  4  0  0  0
 19 20  4  0  0  0
 20 21  1  0  0  0
 21 22  2  0  0  0
 22 23  1  0  0  0
 23 24  2  0  0  0
 23 25  1  0  0  0
  4 26  1  0  0  0
  6 27  1  0  0  0
  8 28  1  0  0  0
  8 29  1  0  0  0
  9 30  1  0  0  0
  9 31  1  0  0  0
 10 32  1  0  0  0
 11 33  1  0  0  0
 11 34  1  0  0  0
 12 35  1  0  0  0
 12 36  1  0  0  0
 13 37  1  0  0  0
 13 38  1  0  0  0
 14 39  1  0  0  0
 14 40  1  0  0  0
 14 41  1  0  0  0
 15 42  1  0  0  0
 16 43  1  0  0  0
 17 44  1  0  0  0
 19 45  1  0  0  0
 21 46  1  0  0  0
 22 47  1  0  0  0
 25 48  1  0  0  0
M  END
$$$$
