1bl7_ligand
  -I-interpret- 

 45 48  0  0  0  0  0  0  0  0999 V2000
   -0.7150   13.9340   31.0480 C   0  0  0  0  0
   -2.2560   14.0530   31.0450 C   0  0  0  0  0
   -2.7750   15.2930   30.3480 N   0  3  0  0  0
   -2.1910   15.6130   28.9920 C   0  0  0  0  0
   -0.6460   15.4360   28.9680 C   0  0  0  0  0
   -0.1460   14.1020   29.6150 C   0  0  0  0  0
    5.3620   11.7460   28.8610 C   0  0  0  0  0
    6.5890   11.0630   29.0130 C   0  0  0  0  0
    7.3730   11.2740   30.1640 C   0  0  0  0  0
    6.9400   12.1690   31.1760 C   0  0  0  0  0
    5.7110   12.8560   31.0300 C   0  0  0  0  0
    4.8890   12.6620   29.8690 C   0  0  0  0  0
    8.5510   10.6150   30.3030 F   0  0  0  0  0
    2.2910   10.5090   30.5950 C   0  0  0  0  0
    1.7660   11.5090   29.6870 C   0  0  0  0  0
    0.7890   11.1550   28.7880 N   0  0  0  0  0
    0.3490    9.8990   28.7720 C   0  0  0  0  0
    0.7740    8.9170   29.5640 N   0  0  0  0  0
    1.7370    9.2020   30.4730 C   0  0  0  0  0
   -0.5830    9.6050   27.9020 N   0  0  0  0  0
    1.3580   13.9970   29.6610 N   0  0  0  0  0
    2.2980   15.0140   29.6890 C   0  0  0  0  0
    3.6240   14.7740   29.7430 N   0  0  0  0  0
    3.6470   13.3730   29.7540 C   0  0  0  0  0
    2.2430   12.8750   29.6980 C   0  0  0  0  0
   -0.3035   14.7182   31.6834 H   0  0  0  0  0
   -0.4397   12.9478   31.4218 H   0  0  0  0  0
   -2.5787   14.1068   32.0847 H   0  0  0  0  0
   -2.6464   13.1905   30.5049 H   0  0  0  0  0
   -2.5246   16.0767   30.9509 H   0  0  0  0  0
   -3.7694   15.1286   30.1911 H   0  0  0  0  0
   -2.4190   16.6531   28.7590 H   0  0  0  0  0
   -2.6244   14.9278   28.2634 H   0  0  0  0  0
   -0.2184   16.2551   29.5463 H   0  0  0  0  0
   -0.3391   15.4222   27.9222 H   0  0  0  0  0
   -0.5145   13.3017   28.9733 H   0  0  0  0  0
    4.7625   11.5777   27.9664 H   0  0  0  0  0
    6.9288   10.3733   28.2404 H   0  0  0  0  0
    7.5522   12.3273   32.0638 H   0  0  0  0  0
    5.3838   13.5426   31.8108 H   0  0  0  0  0
    3.0636   10.7428   31.3275 H   0  0  0  0  0
    2.0979    8.4099   31.1290 H   0  0  0  0  0
   -0.9527    8.6557   27.8518 H   0  0  0  0  0
   -0.9399   10.3251   27.2739 H   0  0  0  0  0
    1.9528   16.0477   29.6665 H   0  0  0  0  0
  1  6  1  0  0  0
  1  2  1  0  0  0
  2  3  1  0  0  0
  3  4  1  0  0  0
  4  5  1  0  0  0
  5  6  1  0  0  0
  6 21  1  0  0  0
 21 25  4  0  0  0
 21 22  4  0  0  0
 22 23  4  0  0  0
 23 24  4  0  0  0
 24 25  4  0  0  0
 24 12  1  0  0  0
 12 11  4  0  0  0
 12  7  4  0  0  0
  7  8  4  0  0  0
  8  9  4  0  0  0
  9 13  1  0  0  0
  9 10  4  0  0  0
 10 11  4  0  0  0
 25 15  1  0  0  0
 15 16  4  0  0  0
 15 14  4  0  0  0
 14 19  4  0  0  0
 19 18  4  0  0  0
 18 17  4  0  0  0
 17 20  1  0  0  0
 17 16  4  0  0  0
  1 26  1  0  0  0
  1 27  1  0  0  0
  2 28  1  0  0  0
  2 29  1  0  0  0
  3 30  1  0  0  0
  3 31  1  0  0  0
  4 32  1  0  0  0
  4 33  1  0  0  0
  5 34  1  0  0  0
  5 35  1  0  0  0
  6 36  1  0  0  0
  7 37  1  0  0  0
  8 38  1  0  0  0
 10 39  1  0  0  0
 11 40  1  0  0  0
 14 41  1  0  0  0
 19 42  1  0  0  0
 20 43  1  0  0  0
 20 44  1  0  0  0
 22 45  1  0  0  0
M  END
$$$$
