4xuc_ligand
  -I-interpret- 

 35 37  0  0  0  0  0  0  0  0999 V2000
   -7.9990    4.3670  -23.3790 C   0  0  0  0  0
   -8.0180    3.5030  -24.4860 C   0  0  0  0  0
   -7.2670    2.3630  -24.5390 N   0  0  0  0  0
   -6.5110    2.0550  -23.4500 C   0  0  0  0  0
   -6.4220    2.8530  -22.2960 C   0  0  0  0  0
   -7.2080    4.0130  -22.2700 C   0  0  0  0  0
   -7.1850    4.7980  -21.2000 O   0  0  0  0  0
   -8.7420    5.5050  -23.3640 O   0  0  0  0  0
   -7.3550    1.5440  -25.6070 C   0  0  0  0  0
   -7.3520    1.9820  -26.9370 C   0  0  0  0  0
   -7.4900    1.1080  -28.0080 C   0  0  0  0  0
   -7.6540   -0.2500  -27.7270 C   0  0  0  0  0
   -7.7000   -0.7370  -26.4200 C   0  0  0  0  0
   -7.5580    0.1720  -25.3780 C   0  0  0  0  0
   -7.4750    1.6010  -29.4120 C   0  0  0  0  0
   -8.3600    1.0290  -30.3380 C   0  0  0  0  0
   -8.4130    1.4660  -31.6600 C   0  0  0  0  0
   -7.5660    2.4940  -32.0550 C   0  0  0  0  0
   -6.6790    3.0700  -31.1530 C   0  0  0  0  0
   -6.6300    2.6230  -29.8190 C   0  0  0  0  0
   -8.6557    3.7512  -25.3345 H   0  0  0  0  0
   -5.9368    1.1288  -23.4742 H   0  0  0  0  0
   -5.7736    2.5828  -21.4625 H   0  0  0  0  0
   -8.0007    3.2651  -22.2531 H   0  0  0  0  0
   -7.7728    5.5441  -21.3392 H   0  0  0  0  0
   -8.6035    5.9653  -22.5330 H   0  0  0  0  0
   -7.2373    3.0469  -27.1392 H   0  0  0  0  0
   -7.7491   -0.9522  -28.5552 H   0  0  0  0  0
   -7.8431   -1.7993  -26.2220 H   0  0  0  0  0
   -7.6056   -0.1904  -24.3511 H   0  0  0  0  0
   -9.0212    0.2245  -30.0160 H   0  0  0  0  0
   -9.1044    1.0110  -32.3693 H   0  0  0  0  0
   -7.5974    2.8529  -33.0838 H   0  0  0  0  0
   -6.0177    3.8722  -31.4804 H   0  0  0  0  0
   -5.9345    3.0758  -29.1124 H   0  0  0  0  0
  1  2  2  0  0  0
  1  6  1  0  0  0
  1  8  1  0  0  0
  2  3  1  0  0  0
  3  4  1  0  0  0
  3  9  1  0  0  0
  4  5  2  0  0  0
  5  6  1  0  0  0
  6  7  1  0  0  0
  9 10  4  0  0  0
  9 14  4  0  0  0
 10 11  4  0  0  0
 11 12  4  0  0  0
 11 15  1  0  0  0
 12 13  4  0  0  0
 13 14  4  0  0  0
 15 16  4  0  0  0
 15 20  4  0  0  0
 16 17  4  0  0  0
 17 18  4  0  0  0
 18 19  4  0  0  0
 19 20  4  0  0  0
  2 21  1  0  0  0
  4 22  1  0  0  0
  5 23  1  0  0  0
  6 24  1  0  0  0
  7 25  1  0  0  0
  8 26  1  0  0  0
 10 27  1  0  0  0
 12 28  1  0  0  0
 13 29  1  0  0  0
 14 30  1  0  0  0
 16 31  1  0  0  0
 17 32  1  0  0  0
 18 33  1  0  0  0
 19 34  1  0  0  0
 20 35  1  0  0  0
M  END
$$$$
