### 
### Created by X-TOOL on Mon Sep 10 21:12:55 2018
### 

@<TRIPOS>MOLECULE
1zsh_ligand
   42    42     1     0     0
SMALL
GAST_HUCK


@<TRIPOS>ATOM
      1 C1        -22.6290   58.7760    4.4350 C.3       1 IHP         0.1556
      2 C2        -21.2710   58.7300    3.7170 C.3       1 IHP         0.1556
      3 C3        -20.8320   58.0500    2.4180 C.3       1 IHP         0.1556
      4 C4        -21.7020   57.0570    1.7820 C.3       1 IHP         0.1556
      5 C5        -22.7620   56.4560    2.7610 C.3       1 IHP         0.1556
      6 C6        -23.5290   57.5240    3.7940 C.3       1 IHP         0.1556
      7 O11       -23.3080   60.1250    4.7940 O.3       1 IHP        -0.2668
      8 P1        -23.5890   60.6800    6.4700 P.3       1 IHP         0.2013
      9 O21       -24.4410   61.9750    6.5510 O.co2     1 IHP        -0.5537
     10 O31       -24.3460   59.5730    7.1630 O.co2     1 IHP        -0.5537
     11 O41       -22.1850   60.7840    7.1170 O.co2     1 IHP        -0.5537
     12 O12       -20.3410   59.7870    3.7660 O.3       1 IHP        -0.2668
     13 P2        -20.6580   61.3630    4.1660 P.3       1 IHP         0.2013
     14 O22       -21.2580   62.3870    3.1030 O.co2     1 IHP        -0.5537
     15 O32       -19.9880   61.9530    5.4340 O.co2     1 IHP        -0.5537
     16 O42       -19.2000   61.2890    3.5730 O.co2     1 IHP        -0.5537
     17 O13       -19.9100   58.9860    1.7010 O.3       1 IHP        -0.2668
     18 P3        -18.3030   58.5860    2.0050 P.3       1 IHP         0.2013
     19 O23       -18.1400   58.3410    3.5340 O.co2     1 IHP        -0.5537
     20 O33       -17.4690   59.7810    1.4910 O.co2     1 IHP        -0.5537
     21 O43       -17.9960   57.3640    1.1250 O.co2     1 IHP        -0.5537
     22 O14       -20.9010   55.8950    1.2750 O.3       1 IHP        -0.2668
     23 P4        -20.6870   55.6850   -0.3450 P.3       1 IHP         0.2013
     24 O24       -19.2050   55.4540   -0.5660 O.co2     1 IHP        -0.5537
     25 O34       -21.2800   57.0190   -0.9190 O.co2     1 IHP        -0.5537
     26 O44       -21.5530   54.4790   -0.7260 O.co2     1 IHP        -0.5537
     27 O15       -23.7370   55.6880    2.0080 O.3       1 IHP        -0.2668
     28 P5        -23.7100   54.0200    2.0190 P.3       1 IHP         0.2013
     29 O25       -22.2750   53.6630    1.6230 O.co2     1 IHP        -0.5537
     30 O35       -24.8210   53.7310    0.9790 O.co2     1 IHP        -0.5537
     31 O45       -24.0060   53.4500    3.4170 O.co2     1 IHP        -0.5537
     32 O16       -24.0190   56.7340    4.8650 O.3       1 IHP        -0.2668
     33 P6        -25.2350   57.3670    5.7360 P.3       1 IHP         0.2013
     34 O26       -26.6990   57.4650    5.3140 O.co2     1 IHP        -0.5537
     35 O36       -24.7860   57.4510    7.1890 O.co2     1 IHP        -0.5537
     36 O46       -25.5280   55.7500    5.9900 O.co2     1 IHP        -0.5537
     37 H1        -22.3825   58.4112    5.4431 H         1 IHP         0.0710
     38 H2        -20.8165   58.0298    4.4333 H         1 IHP         0.0710
     39 H3        -20.0886   57.3406    2.8105 H         1 IHP         0.0710
     40 H4        -22.2209   57.5421    0.9421 H         1 IHP         0.0710
     41 H5        -22.2165   55.7516    3.4062 H         1 IHP         0.0710
     42 H6        -24.3713   57.9735    3.2477 H         1 IHP         0.0710
@<TRIPOS>BOND
     1    1    2 1  
     2    1    6 1  
     3    1    7 1  
     4    2    3 1  
     5    2   12 1  
     6    3    4 1  
     7    3   17 1  
     8    4    5 1  
     9    4   22 1  
    10    5    6 1  
    11    5   27 1  
    12    6   32 1  
    13    7    8 1  
    14    8    9 ar 
    15    8   10 ar 
    16    8   11 ar 
    17   12   13 1  
    18   13   14 ar 
    19   13   15 ar 
    20   13   16 ar 
    21   17   18 1  
    22   18   19 ar 
    23   18   20 ar 
    24   18   21 ar 
    25   22   23 1  
    26   23   24 ar 
    27   23   25 ar 
    28   23   26 ar 
    29   27   28 1  
    30   28   29 ar 
    31   28   30 ar 
    32   28   31 ar 
    33   32   33 1  
    34   33   34 ar 
    35   33   35 ar 
    36   33   36 ar 
    37    1   37 1  
    38    2   38 1  
    39    3   39 1  
    40    4   40 1  
    41    5   41 1  
    42    6   42 1  
@<TRIPOS>SUBSTRUCTURE
     1 IHP         1

