1zsh_ligand
  -I-interpret- 

 54 54  0  0  0  0  0  0  0  0999 V2000
  -22.6290   58.7760    4.4350 C   0  0  0  0  0
  -21.2710   58.7300    3.7170 C   0  0  0  0  0
  -20.8320   58.0500    2.4180 C   0  0  0  0  0
  -21.7020   57.0570    1.7820 C   0  0  0  0  0
  -22.7620   56.4560    2.7610 C   0  0  0  0  0
  -23.5290   57.5240    3.7940 C   0  0  0  0  0
  -23.3080   60.1250    4.7940 O   0  0  0  0  0
  -23.5890   60.6800    6.4700 P   0  0  0  0  0
  -24.4410   61.9750    6.5510 O   0  0  0  0  0
  -24.3460   59.5730    7.1630 O   0  0  0  0  0
  -22.1850   60.7840    7.1170 O   0  0  0  0  0
  -20.3410   59.7870    3.7660 O   0  0  0  0  0
  -20.6580   61.3630    4.1660 P   0  0  0  0  0
  -21.2580   62.3870    3.1030 O   0  0  0  0  0
  -19.9880   61.9530    5.4340 O   0  0  0  0  0
  -19.2000   61.2890    3.5730 O   0  0  0  0  0
  -19.9100   58.9860    1.7010 O   0  0  0  0  0
  -18.3030   58.5860    2.0050 P   0  0  0  0  0
  -18.1400   58.3410    3.5340 O   0  0  0  0  0
  -17.4690   59.7810    1.4910 O   0  0  0  0  0
  -17.9960   57.3640    1.1250 O   0  0  0  0  0
  -20.9010   55.8950    1.2750 O   0  0  0  0  0
  -20.6870   55.6850   -0.3450 P   0  0  0  0  0
  -19.2050   55.4540   -0.5660 O   0  0  0  0  0
  -21.2800   57.0190   -0.9190 O   0  0  0  0  0
  -21.5530   54.4790   -0.7260 O   0  0  0  0  0
  -23.7370   55.6880    2.0080 O   0  0  0  0  0
  -23.7100   54.0200    2.0190 P   0  0  0  0  0
  -22.2750   53.6630    1.6230 O   0  0  0  0  0
  -24.8210   53.7310    0.9790 O   0  0  0  0  0
  -24.0060   53.4500    3.4170 O   0  0  0  0  0
  -24.0190   56.7340    4.8650 O   0  0  0  0  0
  -25.2350   57.3670    5.7360 P   0  0  0  0  0
  -26.6990   57.4650    5.3140 O   0  0  0  0  0
  -24.7860   57.4510    7.1890 O   0  0  0  0  0
  -25.5280   55.7500    5.9900 O   0  0  0  0  0
  -22.4693   58.6222    5.5022 H   0  0  0  0  0
  -21.4128   57.9780    4.4932 H   0  0  0  0  0
  -20.2279   57.1547    2.5649 H   0  0  0  0  0
  -22.2033   57.5941    0.9768 H   0  0  0  0  0
  -22.1838   55.8241    3.4352 H   0  0  0  0  0
  -24.2800   58.0376    3.1937 H   0  0  0  0  0
  -23.9744   62.6915    6.1145 H   0  0  0  0  0
  -21.6875   61.4843    6.6885 H   0  0  0  0  0
  -21.6412   61.8985    2.3708 H   0  0  0  0  0
  -19.2349   60.9254    2.6852 H   0  0  0  0  0
  -18.3489   59.1479    4.0103 H   0  0  0  0  0
  -17.6507   60.5529    2.0321 H   0  0  0  0  0
  -22.2189   57.0608   -0.7232 H   0  0  0  0  0
  -22.4764   54.6858   -0.5644 H   0  0  0  0  0
  -25.6710   53.9950    1.3387 H   0  0  0  0  0
  -24.9055   53.6724    3.6681 H   0  0  0  0  0
  -26.7614   57.3884    4.3591 H   0  0  0  0  0
  -25.8577   55.3546    5.1798 H   0  0  0  0  0
  1  2  1  0  0  0
  1  6  1  0  0  0
  1  7  1  0  0  0
  2  3  1  0  0  0
  2 12  1  0  0  0
  3  4  1  0  0  0
  3 17  1  0  0  0
  4  5  1  0  0  0
  4 22  1  0  0  0
  5  6  1  0  0  0
  5 27  1  0  0  0
  6 32  1  0  0  0
  7  8  1  0  0  0
  8  9  1  0  0  0
  8 10  2  0  0  0
  8 11  1  0  0  0
 12 13  1  0  0  0
 13 14  1  0  0  0
 13 15  2  0  0  0
 13 16  1  0  0  0
 17 18  1  0  0  0
 18 19  1  0  0  0
 18 20  1  0  0  0
 18 21  2  0  0  0
 22 23  1  0  0  0
 23 24  2  0  0  0
 23 25  1  0  0  0
 23 26  1  0  0  0
 27 28  1  0  0  0
 28 29  2  0  0  0
 28 30  1  0  0  0
 28 31  1  0  0  0
 32 33  1  0  0  0
 33 34  1  0  0  0
 33 35  2  0  0  0
 33 36  1  0  0  0
  1 37  1  0  0  0
  2 38  1  0  0  0
  3 39  1  0  0  0
  4 40  1  0  0  0
  5 41  1  0  0  0
  6 42  1  0  0  0
  9 43  1  0  0  0
 11 44  1  0  0  0
 14 45  1  0  0  0
 16 46  1  0  0  0
 19 47  1  0  0  0
 20 48  1  0  0  0
 25 49  1  0  0  0
 26 50  1  0  0  0
 30 51  1  0  0  0
 31 52  1  0  0  0
 34 53  1  0  0  0
 36 54  1  0  0  0
M  END
$$$$
