5o91_ligand
  -I-interpret- 

 82 87  0  0  0  0  0  0  0  0999 V2000
   -0.5750   -7.1710  -16.3610 O   0  0  0  0  0
    3.6630  -16.8900  -18.9880 O   0  0  0  0  0
   -1.1470   -5.8950  -16.0880 C   0  0  0  0  0
   -0.9610   -8.2340  -15.5970 C   0  0  0  0  0
   -1.0420   -8.1960  -14.2090 C   0  0  0  0  0
   -1.4400   -9.3220  -13.4850 C   0  0  0  0  0
   -1.5140   -9.2710  -12.0770 N   0  0  0  0  0
   -0.3820   -8.8050  -11.2750 C   0  0  0  0  0
   -0.1110   -9.7400  -10.1180 C   0  0  0  0  0
   -1.3140   -9.9330   -9.3070 N   0  3  0  0  0
   -1.0310  -10.7920   -8.1560 C   0  0  0  0  0
   -2.3650  -10.5200  -10.1380 C   0  0  0  0  0
   -2.7110   -9.6390  -11.3190 C   0  0  0  0  0
   -1.7420  -10.4980  -14.1700 C   0  0  0  0  0
   -1.6660  -10.5520  -15.5440 C   0  0  0  0  0
   -1.2750   -9.4240  -16.2690 C   0  0  0  0  0
   -1.1550   -9.4540  -17.6820 N   0  0  0  0  0
   -0.5790  -10.4080  -18.4740 C   0  0  0  0  0
   -0.6850  -10.2930  -19.8170 N   0  0  0  0  0
   -0.1270  -11.2480  -20.5470 C   0  0  0  0  0
    0.5750  -12.3670  -19.9420 C   0  0  0  0  0
    1.1860  -13.4820  -20.7590 C   0  0  0  0  0
    2.1800  -14.4050  -20.0740 C   0  0  0  0  0
    2.0000  -14.4770  -18.5850 C   0  0  0  0  0
    1.3000  -13.5120  -17.8940 C   0  0  0  0  0
    1.3380  -13.8450  -16.5790 N   0  0  0  0  0
    0.7370  -13.1720  -15.4390 C   0  0  0  0  0
    2.0650  -14.9910  -16.4160 N   0  0  0  0  0
    2.4740  -15.3690  -17.6400 C   0  0  0  0  0
    3.2890  -16.5880  -17.8540 C   0  0  0  0  0
    3.5340  -17.3480  -16.7530 N   0  0  0  0  0
    4.1700  -18.6330  -16.7350 C   0  0  0  0  0
    5.5610  -18.6920  -16.5980 C   0  0  0  0  0
    6.4150  -17.4550  -16.4470 C   0  0  0  0  0
    6.6070  -16.9990  -15.0240 C   0  0  0  0  0
    6.1610  -19.9530  -16.5960 C   0  0  0  0  0
    5.4170  -21.1050  -16.7280 C   0  0  0  0  0
    4.0490  -21.0220  -16.8660 C   0  0  0  0  0
    3.3910  -19.7900  -16.8750 C   0  0  0  0  0
    1.8870  -19.7550  -17.0200 C   0  0  0  0  0
    1.1220  -19.9280  -15.7260 C   0  0  0  0  0
    0.6350  -12.3990  -18.5510 C   0  0  0  0  0
    0.0550  -11.4200  -17.8240 N   0  0  0  0  0
   -2.2287   -5.9493  -16.2111 H   0  0  0  0  0
   -0.9107   -5.6038  -15.0645 H   0  0  0  0  0
   -0.7377   -5.1592  -16.7802 H   0  0  0  0  0
   -0.7919   -7.2764  -13.6800 H   0  0  0  0  0
   -0.6198   -7.8185  -10.8771 H   0  0  0  0  0
    0.5036   -8.7704  -11.9096 H   0  0  0  0  0
    0.6672   -9.3045   -9.4912 H   0  0  0  0  0
    0.2021  -10.7058  -10.5147 H   0  0  0  0  0
   -1.6272   -9.0293   -8.9525 H   0  0  0  0  0
   -0.6824  -11.7635   -8.5063 H   0  0  0  0  0
   -0.2607  -10.3289   -7.5393 H   0  0  0  0  0
   -1.9399  -10.9209   -7.5683 H   0  0  0  0  0
   -3.2591  -10.6363   -9.5256 H   0  0  0  0  0
   -2.0048  -11.4756  -10.5191 H   0  0  0  0  0
   -3.3829  -10.1895  -11.9774 H   0  0  0  0  0
   -3.1796   -8.7280  -10.9467 H   0  0  0  0  0
   -2.0417  -11.3849  -13.6117 H   0  0  0  0  0
   -1.9114  -11.4765  -16.0666 H   0  0  0  0  0
   -1.5529   -8.6544  -18.1747 H   0  0  0  0  0
   -0.1968  -11.1923  -21.6333 H   0  0  0  0  0
    0.9218  -13.6199  -21.8075 H   0  0  0  0  0
    2.9487  -14.9606  -20.6111 H   0  0  0  0  0
    1.1327  -12.1589  -15.3667 H   0  0  0  0  0
   -0.3443  -13.1326  -15.5706 H   0  0  0  0  0
    0.9736  -13.7217  -14.5280 H   0  0  0  0  0
    3.2370  -16.9676  -15.8544 H   0  0  0  0  0
    5.9052  -16.6488  -16.9745 H   0  0  0  0  0
    7.4020  -17.6986  -16.8401 H   0  0  0  0  0
    5.6367  -16.7712  -14.5828 H   0  0  0  0  0
    7.0907  -17.7909  -14.4522 H   0  0  0  0  0
    7.2321  -16.1061  -15.0111 H   0  0  0  0  0
    7.2430  -20.0276  -16.4875 H   0  0  0  0  0
    5.9087  -22.0778  -16.7233 H   0  0  0  0  0
    3.4672  -21.9378  -16.9705 H   0  0  0  0  0
    1.6113  -20.5892  -17.6652 H   0  0  0  0  0
    1.6291  -18.7710  -17.4115 H   0  0  0  0  0
    1.3738  -20.8914  -15.2826 H   0  0  0  0  0
    1.3911  -19.1278  -15.0366 H   0  0  0  0  0
    0.0520  -19.8890  -15.9300 H   0  0  0  0  0
  1  3  1  0  0  0
  4  1  1  0  0  0
 30  2  2  0  0  0
  4  5  4  0  0  0
 16  4  4  0  0  0
  5  6  4  0  0  0
  6  7  1  0  0  0
 14  6  4  0  0  0
  7  8  1  0  0  0
  7 13  1  0  0  0
  8  9  1  0  0  0
  9 10  1  0  0  0
 10 11  1  0  0  0
 12 10  1  0  0  0
 13 12  1  0  0  0
 15 14  4  0  0  0
 16 15  4  0  0  0
 17 16  1  0  0  0
 18 17  1  0  0  0
 19 18  4  0  0  0
 18 43  4  0  0  0
 20 19  4  0  0  0
 21 20  4  0  0  0
 22 21  4  0  0  0
 42 21  4  0  0  0
 23 22  4  0  0  0
 24 23  4  0  0  0
 24 25  4  0  0  0
 29 24  4  0  0  0
 26 25  4  0  0  0
 25 42  4  0  0  0
 26 27  1  0  0  0
 28 26  4  0  0  0
 29 28  4  0  0  0
 29 30  1  0  0  0
 30 31  1  0  0  0
 31 32  1  0  0  0
 32 33  4  0  0  0
 32 39  4  0  0  0
 33 34  1  0  0  0
 33 36  4  0  0  0
 34 35  1  0  0  0
 36 37  4  0  0  0
 37 38  4  0  0  0
 38 39  4  0  0  0
 39 40  1  0  0  0
 40 41  1  0  0  0
 42 43  4  0  0  0
  3 44  1  0  0  0
  3 45  1  0  0  0
  3 46  1  0  0  0
  5 47  1  0  0  0
  8 48  1  0  0  0
  8 49  1  0  0  0
  9 50  1  0  0  0
  9 51  1  0  0  0
 10 52  1  0  0  0
 11 53  1  0  0  0
 11 54  1  0  0  0
 11 55  1  0  0  0
 12 56  1  0  0  0
 12 57  1  0  0  0
 13 58  1  0  0  0
 13 59  1  0  0  0
 14 60  1  0  0  0
 15 61  1  0  0  0
 17 62  1  0  0  0
 20 63  1  0  0  0
 22 64  1  0  0  0
 23 65  1  0  0  0
 27 66  1  0  0  0
 27 67  1  0  0  0
 27 68  1  0  0  0
 31 69  1  0  0  0
 34 70  1  0  0  0
 34 71  1  0  0  0
 35 72  1  0  0  0
 35 73  1  0  0  0
 35 74  1  0  0  0
 36 75  1  0  0  0
 37 76  1  0  0  0
 38 77  1  0  0  0
 40 78  1  0  0  0
 40 79  1  0  0  0
 41 80  1  0  0  0
 41 81  1  0  0  0
 41 82  1  0  0  0
M  END
$$$$
