5huy_ligand
  -I-interpret- 

166166  0  0  0  0  0  0  0  0999 V2000
    6.1810   11.5760    2.9700 N   0  3  0  0  0
    4.8100   11.6100    2.4690 C   0  0  0  0  0
    4.7830   11.6970    0.9420 C   0  0  0  0  0
    4.8890   12.7890    0.3680 O   0  0  0  0  0
    4.0530   12.7690    3.0800 C   0  0  0  0  0
    4.6250   10.5410    0.2980 N   0  0  0  0  0
    4.7040   10.4360   -1.1510 C   0  0  0  0  0
    3.3350   10.6540   -1.8010 C   0  0  0  0  0
    2.3020   10.7430   -1.1340 O   0  0  0  0  0
    5.2580    9.0680   -1.5440 C   0  0  0  0  0
    4.3450    8.0390   -1.1220 O   0  0  0  0  0
    6.6160    8.8310   -0.8720 C   0  0  0  0  0
    3.3320   10.7170   -3.1330 N   0  0  0  0  0
    2.0860   10.8490   -3.8840 C   0  0  0  0  0
    2.1450    9.8960   -5.0730 C   0  0  0  0  0
    2.7770   10.2150   -6.0830 O   0  0  0  0  0
    1.9130   12.2920   -4.3310 C   0  0  0  0  0
    0.6050   12.6470   -5.0130 C   0  0  0  0  0
    0.4720   14.1690   -4.9850 C   0  0  0  0  0
   -0.7760   14.6840   -5.5510 N   0  0  0  0  0
   -0.8810   15.2900   -6.7260 C   0  0  0  0  0
    0.2060   15.4680   -7.4710 N   0  0  0  0  0
   -2.0660   15.7440   -7.1380 N   0  0  0  0  0
    1.4490    8.7640   -4.9690 N   0  0  0  0  0
    1.4920    7.6640   -5.9360 C   0  0  0  0  0
    0.1260    7.0050   -6.1360 C   0  0  0  0  0
   -0.6640    7.0260   -5.2450 O   0  0  0  0  0
    2.4770    6.6150   -5.4670 C   0  0  0  0  0
    3.8760    7.1040   -5.2290 C   0  0  0  0  0
    4.6750    6.0910   -4.4620 C   0  0  0  0  0
    6.1250    6.4800   -4.3410 C   0  0  0  0  0
    6.9040    5.5750   -3.4870 N   0  3  0  0  0
   -0.1440    6.4530   -7.3130 N   0  0  0  0  0
   -1.3760    5.7090   -7.6110 C   0  0  0  0  0
   -1.1210    4.4170   -8.3480 C   0  0  0  0  0
   -0.5210    4.4490   -9.3740 O   0  0  0  0  0
   -2.2830    6.5000   -8.5400 C   0  0  0  0  0
   -2.6680    7.8710   -8.1120 C   0  0  0  0  0
   -2.8040    8.8010   -9.2900 C   0  0  0  0  0
   -3.8090    8.3690  -10.2210 N   0  0  0  0  0
   -3.6360    8.3400  -11.5280 C   0  0  0  0  0
   -4.6040    7.9340  -12.3120 N   0  0  0  0  0
   -2.4900    8.7100  -12.0510 N   0  0  0  0  0
   -1.6800    3.2600   -7.8290 N   0  0  0  0  0
   -1.6620    2.1050   -8.7370 C   0  0  0  0  0
   -2.7270    2.1740   -9.8100 C   0  0  0  0  0
   -3.6930    2.8320   -9.6230 O   0  0  0  0  0
   -1.9160    0.9340   -7.8220 C   0  0  0  0  0
   -2.8810    1.4530   -6.8910 C   0  0  0  0  0
   -2.3860    2.8080   -6.5570 C   0  0  0  0  0
   -2.5370    1.4840  -10.9140 N   0  0  0  0  0
   -3.6140    1.2630  -11.8450 C   0  0  0  0  0
   -4.3160   -0.0420  -11.5350 C   0  0  0  0  0
   -3.7680   -1.0970  -11.6520 O   0  0  0  0  0
   -3.1110    1.2650  -13.2770 C   0  0  0  0  0
   -4.1300    0.8190  -14.2960 C   0  0  0  0  0
   -3.6960    1.0130  -15.7300 C   0  0  0  0  0
   -4.7990    0.7800  -16.6360 N   0  0  0  0  0
   -4.8440    1.1470  -17.9000 C   0  0  0  0  0
   -3.8410    1.7540  -18.4760 N   0  0  0  0  0
   -5.9090    0.8790  -18.6010 N   0  0  0  0  0
   -5.5630    0.0640  -11.1420 N   0  0  0  0  0
   -6.3510   -1.1020  -10.7840 C   0  0  0  0  0
   -7.2270   -1.5180  -11.9620 C   0  0  0  0  0
   -7.2980   -0.8380  -12.9880 O   0  0  0  0  0
   -7.2030   -0.7990   -9.5490 C   0  0  0  0  0
   -6.4030   -0.4790   -8.2890 C   0  0  0  0  0
   -5.6630   -1.7120   -7.7730 C   0  0  0  0  0
   -4.8080   -1.4050   -6.6270 N   0  0  0  0  0
   -3.8620   -2.2120   -6.1510 C   0  0  0  0  0
   -3.1340   -1.8370   -5.1050 N   0  0  0  0  0
   -3.6350   -3.3880   -6.7230 N   0  0  0  0  0
   -7.9120   -2.6450  -11.7910 N   0  0  0  0  0
   -9.0040   -3.1070  -12.6550 C   0  0  0  0  0
   -9.3630   -4.4890  -12.1670 C   0  0  0  0  0
   -8.4930   -5.1980  -11.6620 O   0  0  0  0  0
   -8.6170   -3.1440  -14.1300 C   0  0  0  0  0
  -10.5210   -4.8890  -12.2800 O   0  0  0  0  0
    6.6763   10.7901    2.5487 H   0  0  0  0  0
    6.6526   12.4469    2.7259 H   0  0  0  0  0
    6.1685   11.4674    3.9841 H   0  0  0  0  0
    4.3207   10.6808    2.7610 H   0  0  0  0  0
    4.5146   13.7065    2.7702 H   0  0  0  0  0
    3.0171   12.7434    2.7418 H   0  0  0  0  0
    4.0839   12.6890    4.1666 H   0  0  0  0  0
    4.4417    9.6977    0.8417 H   0  0  0  0  0
    5.3749   11.2161   -1.5107 H   0  0  0  0  0
    5.3803    9.0395   -2.6267 H   0  0  0  0  0
    4.6954    7.1804   -1.3701 H   0  0  0  0  0
    6.4951    8.8654    0.2107 H   0  0  0  0  0
    6.9994    7.8537   -1.1652 H   0  0  0  0  0
    7.3153    9.6061   -1.1856 H   0  0  0  0  0
    4.2174   10.6721   -3.6375 H   0  0  0  0  0
    1.2264   10.5907   -3.2656 H   0  0  0  0  0
    2.6935   12.4710   -5.0706 H   0  0  0  0  0
    1.9482   12.8924   -3.4219 H   0  0  0  0  0
   -0.2338   12.1811   -4.4958 H   0  0  0  0  0
    0.5989   12.2823   -6.0401 H   0  0  0  0  0
    1.2846   14.5699   -5.5909 H   0  0  0  0  0
    0.4938   14.4704   -3.9377 H   0  0  0  0  0
   -1.6274   14.5683   -5.0013 H   0  0  0  0  0
    1.1122   15.1394   -7.1376 H   0  0  0  0  0
   -2.1430   16.2318   -8.0305 H   0  0  0  0  0
   -2.8949   15.6033   -6.5605 H   0  0  0  0  0
    0.8419    8.6555   -4.1566 H   0  0  0  0  0
    1.8010    8.0887   -6.8911 H   0  0  0  0  0
    2.5390    5.8702   -6.2604 H   0  0  0  0  0
    2.1085    6.2492   -4.5086 H   0  0  0  0  0
    3.8309    8.0261   -4.6496 H   0  0  0  0  0
    4.3568    7.2726   -6.1926 H   0  0  0  0  0
    4.6226    5.1430   -4.9974 H   0  0  0  0  0
    4.2583    6.0218   -3.4572 H   0  0  0  0  0
    6.1620    7.4709   -3.8883 H   0  0  0  0  0
    6.5590    6.4426   -5.3402 H   0  0  0  0  0
    7.8719    5.8946   -3.4487 H   0  0  0  0  0
    6.5083    5.5719   -2.5469 H   0  0  0  0  0
    6.8712    4.6319   -3.8741 H   0  0  0  0  0
    0.5468    6.5514   -8.0569 H   0  0  0  0  0
   -1.8232    5.5235   -6.6344 H   0  0  0  0  0
   -3.2138    5.9356   -8.5949 H   0  0  0  0  0
   -1.7202    6.6266   -9.4649 H   0  0  0  0  0
   -1.8894    8.2585   -7.4549 H   0  0  0  0  0
   -3.6304    7.8159   -7.6033 H   0  0  0  0  0
   -1.8482    8.8215   -9.8135 H   0  0  0  0  0
   -3.0956    9.7809   -8.9121 H   0  0  0  0  0
   -4.7095    8.0669   -9.8492 H   0  0  0  0  0
   -5.4947    7.6391  -11.9118 H   0  0  0  0  0
   -2.3575    8.6803  -13.0619 H   0  0  0  0  0
   -1.7322    9.0271  -11.4464 H   0  0  0  0  0
   -0.7218    2.0466   -9.2854 H   0  0  0  0  0
   -1.0096    0.5752   -7.3343 H   0  0  0  0  0
   -2.2744    0.0527   -8.3540 H   0  0  0  0  0
   -2.9735    0.8232   -6.0062 H   0  0  0  0  0
   -3.8844    1.4788   -7.3159 H   0  0  0  0  0
   -3.1902    3.4838   -6.2659 H   0  0  0  0  0
   -1.7226    2.8062   -5.6921 H   0  0  0  0  0
   -1.6135    1.0998  -11.1137 H   0  0  0  0  0
   -4.3259    2.0814  -11.7380 H   0  0  0  0  0
   -2.2807    0.5605  -13.3254 H   0  0  0  0  0
   -2.8438    2.2932  -13.5207 H   0  0  0  0  0
   -5.0231    1.4254  -14.1450 H   0  0  0  0  0
   -4.2863   -0.2496  -14.1486 H   0  0  0  0  0
   -2.8999    0.3035  -15.9555 H   0  0  0  0  0
   -3.3477    2.0381  -15.8563 H   0  0  0  0  0
   -5.6121    0.2892  -16.2640 H   0  0  0  0  0
   -3.8984    2.0114  -19.4613 H   0  0  0  0  0
   -3.0004    1.9706  -17.9405 H   0  0  0  0  0
   -6.6940    0.3909  -18.1697 H   0  0  0  0  0
   -5.9899    0.9887  -11.0865 H   0  0  0  0  0
   -5.6831   -1.9291  -10.5435 H   0  0  0  0  0
   -7.7862   -1.6951   -9.3369 H   0  0  0  0  0
   -7.7978    0.0844   -9.7814 H   0  0  0  0  0
   -7.0933   -0.1401   -7.5165 H   0  0  0  0  0
   -5.6694    0.2903   -8.5299 H   0  0  0  0  0
   -5.0301   -2.0882   -8.5767 H   0  0  0  0  0
   -6.4053   -2.4443   -7.4553 H   0  0  0  0  0
   -4.9462   -0.5092   -6.1592 H   0  0  0  0  0
   -2.4042   -2.4519   -4.7448 H   0  0  0  0  0
   -3.3048   -0.9342   -4.6621 H   0  0  0  0  0
   -4.1864   -3.6771   -7.5310 H   0  0  0  0  0
   -7.6585   -3.2338  -10.9976 H   0  0  0  0  0
   -9.8445   -2.4156  -12.5946 H   0  0  0  0  0
   -7.6582   -4.7241  -11.6578 H   0  0  0  0  0
   -8.3354   -2.1426  -14.4557 H   0  0  0  0  0
   -7.7746   -3.8221  -14.2664 H   0  0  0  0  0
   -9.4654   -3.4936  -14.7183 H   0  0  0  0  0
  1  2  1  0  0  0
  2  3  1  0  0  0
  2  5  1  0  0  0
  3  4  2  0  0  0
  3  6  1  0  0  0
  6  7  1  0  0  0
  7  8  1  0  0  0
  7 10  1  0  0  0
  8  9  2  0  0  0
  8 13  1  0  0  0
 10 11  1  0  0  0
 10 12  1  0  0  0
 13 14  1  0  0  0
 14 15  1  0  0  0
 14 17  1  0  0  0
 15 16  2  0  0  0
 15 24  1  0  0  0
 17 18  1  0  0  0
 18 19  1  0  0  0
 19 20  1  0  0  0
 20 21  1  0  0  0
 21 22  2  0  0  0
 21 23  1  0  0  0
 24 25  1  0  0  0
 25 26  1  0  0  0
 25 28  1  0  0  0
 26 27  2  0  0  0
 26 33  1  0  0  0
 28 29  1  0  0  0
 29 30  1  0  0  0
 30 31  1  0  0  0
 31 32  1  0  0  0
 33 34  1  0  0  0
 34 35  1  0  0  0
 34 37  1  0  0  0
 35 36  2  0  0  0
 35 44  1  0  0  0
 37 38  1  0  0  0
 38 39  1  0  0  0
 39 40  1  0  0  0
 40 41  1  0  0  0
 41 42  2  0  0  0
 41 43  1  0  0  0
 44 45  1  0  0  0
 44 50  1  0  0  0
 45 46  1  0  0  0
 45 48  1  0  0  0
 46 47  2  0  0  0
 46 51  1  0  0  0
 48 49  1  0  0  0
 49 50  1  0  0  0
 51 52  1  0  0  0
 52 53  1  0  0  0
 52 55  1  0  0  0
 53 54  2  0  0  0
 53 62  1  0  0  0
 55 56  1  0  0  0
 56 57  1  0  0  0
 57 58  1  0  0  0
 58 59  1  0  0  0
 59 60  1  0  0  0
 59 61  2  0  0  0
 62 63  1  0  0  0
 63 64  1  0  0  0
 63 66  1  0  0  0
 64 65  2  0  0  0
 64 73  1  0  0  0
 66 67  1  0  0  0
 67 68  1  0  0  0
 68 69  1  0  0  0
 69 70  1  0  0  0
 70 71  1  0  0  0
 70 72  2  0  0  0
 73 74  1  0  0  0
 74 75  1  0  0  0
 74 77  1  0  0  0
 75 76  1  0  0  0
 75 78  2  0  0  0
  1 79  1  0  0  0
  1 80  1  0  0  0
  1 81  1  0  0  0
  2 82  1  0  0  0
  5 83  1  0  0  0
  5 84  1  0  0  0
  5 85  1  0  0  0
  6 86  1  0  0  0
  7 87  1  0  0  0
 10 88  1  0  0  0
 11 89  1  0  0  0
 12 90  1  0  0  0
 12 91  1  0  0  0
 12 92  1  0  0  0
 13 93  1  0  0  0
 14 94  1  0  0  0
 17 95  1  0  0  0
 17 96  1  0  0  0
 18 97  1  0  0  0
 18 98  1  0  0  0
 19 99  1  0  0  0
 19100  1  0  0  0
 20101  1  0  0  0
 22102  1  0  0  0
 23103  1  0  0  0
 23104  1  0  0  0
 24105  1  0  0  0
 25106  1  0  0  0
 28107  1  0  0  0
 28108  1  0  0  0
 29109  1  0  0  0
 29110  1  0  0  0
 30111  1  0  0  0
 30112  1  0  0  0
 31113  1  0  0  0
 31114  1  0  0  0
 32115  1  0  0  0
 32116  1  0  0  0
 32117  1  0  0  0
 33118  1  0  0  0
 34119  1  0  0  0
 37120  1  0  0  0
 37121  1  0  0  0
 38122  1  0  0  0
 38123  1  0  0  0
 39124  1  0  0  0
 39125  1  0  0  0
 40126  1  0  0  0
 42127  1  0  0  0
 43128  1  0  0  0
 43129  1  0  0  0
 45130  1  0  0  0
 48131  1  0  0  0
 48132  1  0  0  0
 49133  1  0  0  0
 49134  1  0  0  0
 50135  1  0  0  0
 50136  1  0  0  0
 51137  1  0  0  0
 52138  1  0  0  0
 55139  1  0  0  0
 55140  1  0  0  0
 56141  1  0  0  0
 56142  1  0  0  0
 57143  1  0  0  0
 57144  1  0  0  0
 58145  1  0  0  0
 60146  1  0  0  0
 60147  1  0  0  0
 61148  1  0  0  0
 62149  1  0  0  0
 63150  1  0  0  0
 66151  1  0  0  0
 66152  1  0  0  0
 67153  1  0  0  0
 67154  1  0  0  0
 68155  1  0  0  0
 68156  1  0  0  0
 69157  1  0  0  0
 71158  1  0  0  0
 71159  1  0  0  0
 72160  1  0  0  0
 73161  1  0  0  0
 74162  1  0  0  0
 76163  1  0  0  0
 77164  1  0  0  0
 77165  1  0  0  0
 77166  1  0  0  0
M  END
$$$$
