### 
### Created by X-TOOL on Mon Sep 10 21:13:27 2018
### 

@<TRIPOS>MOLECULE
5huy_ligand
  169   169     1     0     0
SMALL
GAST_HUCK


@<TRIPOS>ATOM
      1 N           6.1810   11.5760    2.9700 N.4       1 ALA         0.2377
      2 CA          4.8100   11.6100    2.4690 C.3       1 ALA         0.0621
      3 C           4.7830   11.6970    0.9420 C.2       1 ALA         0.2265
      4 O           4.8890   12.7890    0.3680 O.2       1 ALA        -0.3907
      5 CB          4.0530   12.7690    3.0800 C.3       1 ALA        -0.0040
      6 N           4.6250   10.5410    0.2980 N.am      1 THR        -0.2586
      7 CA          4.7040   10.4360   -1.1510 C.3       1 THR         0.1566
      8 C           3.3350   10.6540   -1.8010 C.2       1 THR         0.2065
      9 O           2.3020   10.7430   -1.1340 O.2       1 THR        -0.3943
     10 CB          5.2580    9.0680   -1.5440 C.3       1 THR         0.0924
     11 OG1         4.3450    8.0390   -1.1220 O.3       1 THR        -0.3874
     12 CG2         6.6160    8.8310   -0.8720 C.3       1 THR        -0.0346
     13 N           3.3320   10.7170   -3.1330 N.am      1 ARG        -0.2636
     14 CA          2.0860   10.8490   -3.8840 C.3       1 ARG         0.1311
     15 C           2.1450    9.8960   -5.0730 C.2       1 ARG         0.2039
     16 O           2.7770   10.2150   -6.0830 O.2       1 ARG        -0.3944
     17 CB          1.9130   12.2920   -4.3310 C.3       1 ARG        -0.0092
     18 CG          0.6050   12.6470   -5.0130 C.3       1 ARG        -0.0156
     19 CD          0.4720   14.1690   -4.9850 C.3       1 ARG         0.0627
     20 NE         -0.7760   14.6840   -5.5510 N.pl3     1 ARG        -0.2723
     21 CZ         -0.8810   15.2900   -6.7260 C.cat     1 ARG         0.2882
     22 NH1         0.2060   15.4680   -7.4710 N.pl3     1 ARG        -0.2849
     23 NH2        -2.0660   15.7440   -7.1380 N.pl3     1 ARG        -0.2849
     24 N           1.4490    8.7640   -4.9690 N.am      1 LYS        -0.2637
     25 CA          1.4920    7.6640   -5.9360 C.3       1 LYS         0.1310
     26 C           0.1260    7.0050   -6.1360 C.2       1 LYS         0.2039
     27 O          -0.6640    7.0260   -5.2450 O.2       1 LYS        -0.3944
     28 CB          2.4770    6.6150   -5.4670 C.3       1 LYS        -0.0122
     29 CG          3.8760    7.1040   -5.2290 C.3       1 LYS        -0.0440
     30 CD          4.6750    6.0910   -4.4620 C.3       1 LYS        -0.0124
     31 CE          6.1250    6.4800   -4.3410 C.3       1 LYS        -0.0354
     32 NZ          6.9040    5.5750   -3.4870 N.4       1 LYS         0.2185
     33 N          -0.1440    6.4530   -7.3130 N.am      1 ARG        -0.2637
     34 CA         -1.3760    5.7090   -7.6110 C.3       1 ARG         0.1313
     35 C          -1.1210    4.4170   -8.3480 C.2       1 ARG         0.2064
     36 O          -0.5210    4.4490   -9.3740 O.2       1 ARG        -0.3942
     37 CB         -2.2830    6.5000   -8.5400 C.3       1 ARG        -0.0092
     38 CG         -2.6680    7.8710   -8.1120 C.3       1 ARG        -0.0156
     39 CD         -2.8040    8.8010   -9.2900 C.3       1 ARG         0.0627
     40 NE         -3.8090    8.3690  -10.2210 N.pl3     1 ARG        -0.2723
     41 CZ         -3.6360    8.3400  -11.5280 C.cat     1 ARG         0.2882
     42 NH1        -4.6040    7.9340  -12.3120 N.pl3     1 ARG        -0.2849
     43 NH2        -2.4900    8.7100  -12.0510 N.pl3     1 ARG        -0.2849
     44 N          -1.6800    3.2600   -7.8290 N.am      1 PRO        -0.2498
     45 CA         -1.6620    2.1050   -8.7370 C.3       1 PRO         0.1338
     46 C          -2.7270    2.1740   -9.8100 C.2       1 PRO         0.2041
     47 O          -3.6930    2.8320   -9.6230 O.2       1 PRO        -0.3944
     48 CB         -1.9160    0.9340   -7.8220 C.3       1 PRO        -0.0104
     49 CG         -2.8810    1.4530   -6.8910 C.3       1 PRO        -0.0281
     50 CD         -2.3860    2.8080   -6.5570 C.3       1 PRO         0.0369
     51 N          -2.5370    1.4840  -10.9140 N.am      1 ARG        -0.2637
     52 CA         -3.6140    1.2630  -11.8450 C.3       1 ARG         0.1311
     53 C          -4.3160   -0.0420  -11.5350 C.2       1 ARG         0.2039
     54 O          -3.7680   -1.0970  -11.6520 O.2       1 ARG        -0.3944
     55 CB         -3.1110    1.2650  -13.2770 C.3       1 ARG        -0.0092
     56 CG         -4.1300    0.8190  -14.2960 C.3       1 ARG        -0.0156
     57 CD         -3.6960    1.0130  -15.7300 C.3       1 ARG         0.0627
     58 NE         -4.7990    0.7800  -16.6360 N.pl3     1 ARG        -0.2723
     59 CZ         -4.8440    1.1470  -17.9000 C.cat     1 ARG         0.2882
     60 NH1        -3.8410    1.7540  -18.4760 N.pl3     1 ARG        -0.2849
     61 NH2        -5.9090    0.8790  -18.6010 N.pl3     1 ARG        -0.2849
     62 N          -5.5630    0.0640  -11.1420 N.am      1 ARG        -0.2637
     63 CA         -6.3510   -1.1020  -10.7840 C.3       1 ARG         0.1310
     64 C          -7.2270   -1.5180  -11.9620 C.2       1 ARG         0.2033
     65 O          -7.2980   -0.8380  -12.9880 O.2       1 ARG        -0.3944
     66 CB         -7.2030   -0.7990   -9.5490 C.3       1 ARG        -0.0092
     67 CG         -6.4030   -0.4790   -8.2890 C.3       1 ARG        -0.0156
     68 CD         -5.6630   -1.7120   -7.7730 C.3       1 ARG         0.0627
     69 NE         -4.8080   -1.4050   -6.6270 N.pl3     1 ARG        -0.2723
     70 CZ         -3.8620   -2.2120   -6.1510 C.cat     1 ARG         0.2882
     71 NH1        -3.1340   -1.8370   -5.1050 N.pl3     1 ARG        -0.2849
     72 NH2        -3.6350   -3.3880   -6.7230 N.pl3     1 ARG        -0.2849
     73 N          -7.9120   -2.6450  -11.7910 N.am      1 ALA        -0.2698
     74 CA         -9.0040   -3.1070  -12.6550 C.3       1 ALA         0.0916
     75 C          -9.3630   -4.4890  -12.1670 C.2       1 ALA         0.0598
     76 O          -8.4930   -5.1980  -11.6620 O.co2     1 ALA        -0.5666
     77 CB         -8.6170   -3.1440  -14.1300 C.3       1 ALA        -0.0300
     78 OXT       -10.5210   -4.8890  -12.2800 O.co2     1 ALA        -0.5666
     79 H1          6.1696   11.5188    3.9763 H         1 ALA         0.2015
     80 H2          6.6632   12.4146    2.6866 H         1 ALA         0.2015
     81 H3          6.6566   10.7712    2.5931 H         1 ALA         0.2015
     82 H4          4.3119   10.6760    2.7682 H         1 ALA         0.1095
     83 H5          3.0236   12.7797    2.6923 H         1 ALA         0.0310
     84 H6          4.5534   13.7128    2.8177 H         1 ALA         0.0310
     85 H7          4.0316   12.6570    4.1741 H         1 ALA         0.0310
     86 H8          4.4453    9.7142    0.8310 H         1 THR         0.1885
     87 H9          5.3905   11.2128   -1.5188 H         1 THR         0.0826
     88 H10         5.3793    9.0264   -2.6365 H         1 THR         0.0639
     89 H11         4.6918    7.1893   -1.3676 H         1 THR         0.2101
     90 H12         7.0021    7.8432   -1.1639 H         1 THR         0.0257
     91 H13         6.4961    8.8695    0.2208 H         1 THR         0.0257
     92 H14         7.3239    9.6102   -1.1909 H         1 THR         0.0257
     93 H15         4.2000   10.6730   -3.6276 H         1 ARG         0.1883
     94 H16         1.2375   10.5716   -3.2413 H         1 ARG         0.0800
     95 H17         2.7273   12.5222   -5.0337 H         1 ARG         0.0313
     96 H18         2.0067   12.9296   -3.4396 H         1 ARG         0.0313
     97 H19        -0.2365   12.1864   -4.4748 H         1 ARG         0.0301
     98 H20         0.6146   12.2898   -6.0533 H         1 ARG         0.0301
     99 H21         1.3094   14.5968   -5.5558 H         1 ARG         0.0689
    100 H22         0.5353   14.4994   -3.9377 H         1 ARG         0.0689
    101 H23        -1.6357   14.5671   -4.9959 H         1 ARG         0.2642
    102 H24         0.1329   15.9377   -8.3847 H         1 ARG         0.2615
    103 H25         1.1211   15.1361   -7.1343 H         1 ARG         0.2615
    104 H26        -2.9030   15.6019   -6.5548 H         1 ARG         0.2615
    105 H27        -2.1438   16.2366   -8.0392 H         1 ARG         0.2615
    106 H28         0.8538    8.6576   -4.1725 H         1 LYS         0.1883
    107 H29         1.8293    8.0665   -6.9026 H         1 LYS         0.0800
    108 H30         2.5195    5.8243   -6.2306 H         1 LYS         0.0312
    109 H31         2.1000    6.1937   -4.5234 H         1 LYS         0.0312
    110 H32         3.8369    8.0414   -4.6547 H         1 LYS         0.0269
    111 H33         4.3629    7.2877   -6.1981 H         1 LYS         0.0269
    112 H34         4.6105    5.1231   -4.9807 H         1 LYS         0.0317
    113 H35         4.2490    5.9951   -3.4524 H         1 LYS         0.0317
    114 H36         6.1796    7.4931   -3.9159 H         1 LYS         0.0813
    115 H37         6.5708    6.4798   -5.3466 H         1 LYS         0.0813
    116 H38         7.8608    5.8899   -3.4484 H         1 LYS         0.1994
    117 H39         6.8724    4.6426   -3.8686 H         1 LYS         0.1994
    118 H40         6.5139    5.5711   -2.5576 H         1 LYS         0.1994
    119 H41         0.5333    6.5495   -8.0424 H         1 ARG         0.1883
    120 H42        -1.8940    5.5003   -6.6633 H         1 ARG         0.0800
    121 H43        -3.2097    5.9215   -8.6687 H         1 ARG         0.0313
    122 H44        -1.7684    6.5883   -9.5082 H         1 ARG         0.0313
    123 H45        -1.8957    8.2637   -7.4342 H         1 ARG         0.0301
    124 H46        -3.6307    7.8227   -7.5821 H         1 ARG         0.0301
    125 H47        -1.8375    8.8511   -9.8129 H         1 ARG         0.0689
    126 H48        -3.0731    9.8014   -8.9200 H         1 ARG         0.0689
    127 H49        -4.7183    8.0639   -9.8456 H         1 ARG         0.2642
    128 H50        -4.4656    7.9126  -13.3324 H         1 ARG         0.2615
    129 H51        -5.5034    7.6362  -11.9079 H         1 ARG         0.2615
    130 H52        -1.7248    9.0303  -11.4405 H         1 ARG         0.2615
    131 H53        -2.3562    8.6800  -13.0718 H         1 ARG         0.2615
    132 H54        -0.6772    2.0168   -9.2190 H         1 PRO         0.0802
    133 H55        -0.9939    0.6284   -7.3060 H         1 PRO         0.0313
    134 H56        -2.3251    0.0785   -8.3793 H         1 PRO         0.0313
    135 H57        -2.9287    0.8239   -5.9899 H         1 PRO         0.0287
    136 H58        -3.8774    1.5067   -7.3539 H         1 PRO         0.0287
    137 H59        -3.2209    3.4809   -6.3118 H         1 PRO         0.0524
    138 H60        -1.6840    2.7713   -5.7109 H         1 PRO         0.0524
    139 H61        -1.6316    1.1074  -11.1098 H         1 ARG         0.1883
    140 H62        -4.3391    2.0826  -11.7338 H         1 ARG         0.0800
    141 H63        -2.2448    0.5897  -13.3384 H         1 ARG         0.0313
    142 H64        -2.7968    2.2884  -13.5299 H         1 ARG         0.0313
    143 H65        -5.0541    1.3934  -14.1344 H         1 ARG         0.0301
    144 H66        -4.3309   -0.2509  -14.1379 H         1 ARG         0.0301
    145 H67        -2.8849    0.3066  -15.9601 H         1 ARG         0.0689
    146 H68        -3.3332    2.0432  -15.8609 H         1 ARG         0.0689
    147 H69        -5.6200    0.2844  -16.2603 H         1 ARG         0.2642
    148 H70        -3.9056    2.0290  -19.4665 H         1 ARG         0.2615
    149 H71        -2.9855    1.9576  -17.9397 H         1 ARG         0.2615
    150 H72        -6.7082    0.4008  -18.1611 H         1 ARG         0.2615
    151 H73        -5.9517    1.1453  -19.5951 H         1 ARG         0.2615
    152 H74        -5.9815    0.9706  -11.0876 H         1 ARG         0.1883
    153 H75        -5.6686   -1.9308  -10.5442 H         1 ARG         0.0800
    154 H76        -7.8323   -1.6772   -9.3422 H         1 ARG         0.0313
    155 H77        -7.8436    0.0655   -9.7776 H         1 ARG         0.0313
    156 H78        -7.0911   -0.1216   -7.5088 H         1 ARG         0.0301
    157 H79        -5.6701    0.3080   -8.5201 H         1 ARG         0.0301
    158 H80        -5.0376   -2.1146   -8.5835 H         1 ARG         0.0689
    159 H81        -6.4026   -2.4680   -7.4704 H         1 ARG         0.0689
    160 H82        -4.9475   -0.5004   -6.1546 H         1 ARG         0.2642
    161 H83        -2.4021   -2.4611   -4.7366 H         1 ARG         0.2615
    162 H84        -3.3014   -0.9221   -4.6624 H         1 ARG         0.2615
    163 H85        -4.1969   -3.6831   -7.5342 H         1 ARG         0.2615
    164 H86        -2.8970   -4.0055   -6.3556 H         1 ARG         0.2615
    165 H87        -7.6635   -3.2223  -11.0132 H         1 ALA         0.1875
    166 H88        -9.8677   -2.4357  -12.5395 H         1 ALA         0.0723
    167 H89        -9.4725   -3.4967  -14.7248 H         1 ALA         0.0270
    168 H90        -7.7669   -3.8281  -14.2690 H         1 ALA         0.0270
    169 H91        -8.3326   -2.1339  -14.4599 H         1 ALA         0.0270
@<TRIPOS>BOND
     1    1    2 1  
     2    2    3 1  
     3    2    5 1  
     4    3    4 2  
     5    3    6 am 
     6    6    7 1  
     7    7    8 1  
     8    7   10 1  
     9    8    9 2  
    10    8   13 am 
    11   10   11 1  
    12   10   12 1  
    13   13   14 1  
    14   14   15 1  
    15   14   17 1  
    16   15   16 2  
    17   15   24 am 
    18   17   18 1  
    19   18   19 1  
    20   19   20 1  
    21   20   21 ar 
    22   21   22 ar 
    23   21   23 ar 
    24   24   25 1  
    25   25   26 1  
    26   25   28 1  
    27   26   27 2  
    28   26   33 am 
    29   28   29 1  
    30   29   30 1  
    31   30   31 1  
    32   31   32 1  
    33   33   34 1  
    34   34   35 1  
    35   34   37 1  
    36   35   36 2  
    37   35   44 am 
    38   37   38 1  
    39   38   39 1  
    40   39   40 1  
    41   40   41 ar 
    42   41   42 ar 
    43   41   43 ar 
    44   44   45 1  
    45   44   50 1  
    46   45   46 1  
    47   45   48 1  
    48   46   47 2  
    49   46   51 am 
    50   48   49 1  
    51   49   50 1  
    52   51   52 1  
    53   52   53 1  
    54   52   55 1  
    55   53   54 2  
    56   53   62 am 
    57   55   56 1  
    58   56   57 1  
    59   57   58 1  
    60   58   59 ar 
    61   59   60 ar 
    62   59   61 ar 
    63   62   63 1  
    64   63   64 1  
    65   63   66 1  
    66   64   65 2  
    67   64   73 am 
    68   66   67 1  
    69   67   68 1  
    70   68   69 1  
    71   69   70 ar 
    72   70   71 ar 
    73   70   72 ar 
    74   73   74 1  
    75   74   75 1  
    76   74   77 1  
    77   75   76 ar 
    78   75   78 ar 
    79    1   79 1  
    80    1   80 1  
    81    1   81 1  
    82    2   82 1  
    83    5   83 1  
    84    5   84 1  
    85    5   85 1  
    86    6   86 1  
    87    7   87 1  
    88   10   88 1  
    89   11   89 1  
    90   12   90 1  
    91   12   91 1  
    92   12   92 1  
    93   13   93 1  
    94   14   94 1  
    95   17   95 1  
    96   17   96 1  
    97   18   97 1  
    98   18   98 1  
    99   19   99 1  
   100   19  100 1  
   101   20  101 1  
   102   22  102 1  
   103   22  103 1  
   104   23  104 1  
   105   23  105 1  
   106   24  106 1  
   107   25  107 1  
   108   28  108 1  
   109   28  109 1  
   110   29  110 1  
   111   29  111 1  
   112   30  112 1  
   113   30  113 1  
   114   31  114 1  
   115   31  115 1  
   116   32  116 1  
   117   32  117 1  
   118   32  118 1  
   119   33  119 1  
   120   34  120 1  
   121   37  121 1  
   122   37  122 1  
   123   38  123 1  
   124   38  124 1  
   125   39  125 1  
   126   39  126 1  
   127   40  127 1  
   128   42  128 1  
   129   42  129 1  
   130   43  130 1  
   131   43  131 1  
   132   45  132 1  
   133   48  133 1  
   134   48  134 1  
   135   49  135 1  
   136   49  136 1  
   137   50  137 1  
   138   50  138 1  
   139   51  139 1  
   140   52  140 1  
   141   55  141 1  
   142   55  142 1  
   143   56  143 1  
   144   56  144 1  
   145   57  145 1  
   146   57  146 1  
   147   58  147 1  
   148   60  148 1  
   149   60  149 1  
   150   61  150 1  
   151   61  151 1  
   152   62  152 1  
   153   63  153 1  
   154   66  154 1  
   155   66  155 1  
   156   67  156 1  
   157   67  157 1  
   158   68  158 1  
   159   68  159 1  
   160   69  160 1  
   161   71  161 1  
   162   71  162 1  
   163   72  163 1  
   164   72  164 1  
   165   73  165 1  
   166   74  166 1  
   167   77  167 1  
   168   77  168 1  
   169   77  169 1  
@<TRIPOS>SUBSTRUCTURE
     1 ALA         1

