5js3_ligand
  -I-interpret- 

 69 69  0  0  0  0  0  0  0  0999 V2000
   10.0960   38.4160   -3.5650 C   0  0  0  0  0
    8.9270   39.3410   -3.8680 C   0  0  0  0  0
    6.7240   43.5570   -3.6360 C   0  0  0  0  0
    7.5410   44.7230   -4.1590 C   0  0  0  0  0
    5.9370   44.1150   -2.4730 C   0  0  0  0  0
    5.7530   43.0810   -4.7890 C   0  0  0  0  0
    8.6720   42.7890   -2.1700 C   0  0  0  0  0
    7.7640   38.9380   -3.8920 O   0  0  0  0  0
    9.2800   37.9170   -1.1840 C   0  0  0  0  0
    9.1290   36.3990   -1.3030 C   0  0  0  0  0
    9.5230   38.3220    0.2810 C   0  0  0  0  0
   11.3020   38.7790   -4.3030 N   0  0  0  0  0
    9.2680   40.6570   -4.0650 N   0  0  0  0  0
    8.2720   41.6780   -4.3860 C   0  0  0  0  0
    7.6420   42.3610   -3.1670 C   0  0  0  0  0
   10.4170   38.4530   -2.0770 C   0  0  0  0  0
   11.5140   38.4900   -5.9170 P   0  0  0  0  0
   10.1680   38.0720   -6.5050 O   0  0  0  0  0
   11.9820   40.1150   -6.5850 C   0  0  0  0  0
   13.6480   41.6140  -10.8340 C   0  0  0  0  0
   15.0050   41.1970  -11.4020 C   0  0  0  0  0
   15.1060   40.6870  -12.6940 C   0  0  0  0  0
   16.3590   40.3360  -13.2110 C   0  0  0  0  0
   17.5240   40.4580  -12.4440 C   0  0  0  0  0
   17.4240   41.0020  -11.1570 C   0  0  0  0  0
   16.1840   41.3640  -10.6410 C   0  0  0  0  0
   12.5930   37.4930   -6.1820 O   0  0  0  0  0
   12.0070   40.0280   -8.0290 N   0  0  0  0  0
   12.9750   40.7790   -8.7470 C   0  0  0  0  0
   12.8430   40.6410  -10.1580 O   0  0  0  0  0
   13.7100   41.6300   -8.2030 O   0  0  0  0  0
    9.7913   37.4162   -3.8742 H   0  0  0  0  0
    8.2002   45.0858   -3.3704 H   0  0  0  0  0
    8.1373   44.3944   -5.0102 H   0  0  0  0  0
    6.8706   45.5238   -4.4709 H   0  0  0  0  0
    5.3073   43.3309   -2.0525 H   0  0  0  0  0
    6.6261   44.4775   -1.7102 H   0  0  0  0  0
    5.3119   44.9377   -2.8203 H   0  0  0  0  0
    6.3419   42.7292   -5.6361 H   0  0  0  0  0
    5.1237   42.2707   -4.4209 H   0  0  0  0  0
    5.1262   43.9160   -5.1023 H   0  0  0  0  0
    9.2254   41.9161   -1.8237 H   0  0  0  0  0
    9.3588   43.4938   -2.6388 H   0  0  0  0  0
    8.1796   43.2679   -1.3236 H   0  0  0  0  0
    8.3474   38.3634   -1.5292 H   0  0  0  0  0
   10.0392   35.9157   -0.9479 H   0  0  0  0  0
    8.2827   36.0709   -0.6995 H   0  0  0  0  0
    8.9579   36.1328   -2.3461 H   0  0  0  0  0
    8.6781   38.0010    0.8903 H   0  0  0  0  0
   10.4346   37.8457    0.6419 H   0  0  0  0  0
    9.6277   39.4051    0.3446 H   0  0  0  0  0
   12.0575   39.2374   -3.7936 H   0  0  0  0  0
   10.2473   40.9306   -3.9848 H   0  0  0  0  0
    7.4656   41.1780   -4.9224 H   0  0  0  0  0
    8.7839   42.4535   -4.9558 H   0  0  0  0  0
    7.0135   41.6356   -2.6504 H   0  0  0  0  0
   10.5812   39.4956   -1.8049 H   0  0  0  0  0
   11.2864   37.8158   -1.9152 H   0  0  0  0  0
    9.5114   38.7439   -6.3077 H   0  0  0  0  0
   12.9656   40.4011   -6.2125 H   0  0  0  0  0
   11.2601   40.8686   -6.2701 H   0  0  0  0  0
   13.0598   41.9064  -11.7039 H   0  0  0  0  0
   13.8814   42.3593  -10.0736 H   0  0  0  0  0
   14.2103   40.5612  -13.3023 H   0  0  0  0  0
   16.4289   39.9600  -14.2317 H   0  0  0  0  0
   18.4875   40.1368  -12.8396 H   0  0  0  0  0
   18.3228   41.1424  -10.5566 H   0  0  0  0  0
   16.1209   41.7820   -9.6363 H   0  0  0  0  0
   11.3395   39.4363   -8.5237 H   0  0  0  0  0
  1  2  1  0  0  0
 12  1  1  0  0  0
  1 16  1  0  0  0
  2  8  2  0  0  0
  2 13  1  0  0  0
  3  4  1  0  0  0
  3  5  1  0  0  0
  3  6  1  0  0  0
 15  3  1  0  0  0
 15  7  1  0  0  0
  9 10  1  0  0  0
  9 11  1  0  0  0
 16  9  1  0  0  0
 17 12  1  0  0  0
 13 14  1  0  0  0
 14 15  1  0  0  0
 17 18  1  0  0  0
 19 17  1  0  0  0
 17 27  2  0  0  0
 28 19  1  0  0  0
 20 21  1  0  0  0
 30 20  1  0  0  0
 21 22  4  0  0  0
 21 26  4  0  0  0
 22 23  4  0  0  0
 23 24  4  0  0  0
 25 24  4  0  0  0
 26 25  4  0  0  0
 29 28  1  0  0  0
 29 30  1  0  0  0
 29 31  2  0  0  0
  1 32  1  0  0  0
  4 33  1  0  0  0
  4 34  1  0  0  0
  4 35  1  0  0  0
  5 36  1  0  0  0
  5 37  1  0  0  0
  5 38  1  0  0  0
  6 39  1  0  0  0
  6 40  1  0  0  0
  6 41  1  0  0  0
  7 42  1  0  0  0
  7 43  1  0  0  0
  7 44  1  0  0  0
  9 45  1  0  0  0
 10 46  1  0  0  0
 10 47  1  0  0  0
 10 48  1  0  0  0
 11 49  1  0  0  0
 11 50  1  0  0  0
 11 51  1  0  0  0
 12 52  1  0  0  0
 13 53  1  0  0  0
 14 54  1  0  0  0
 14 55  1  0  0  0
 15 56  1  0  0  0
 16 57  1  0  0  0
 16 58  1  0  0  0
 18 59  1  0  0  0
 19 60  1  0  0  0
 19 61  1  0  0  0
 20 62  1  0  0  0
 20 63  1  0  0  0
 22 64  1  0  0  0
 23 65  1  0  0  0
 24 66  1  0  0  0
 25 67  1  0  0  0
 26 68  1  0  0  0
 28 69  1  0  0  0
M  END
$$$$
