3zsq_ligand
  -I-interpret- 

 74 77  0  0  0  0  0  0  0  0999 V2000
  -11.6750   35.2310    7.0140 C   0  0  0  0  0
  -12.7850   34.8420    6.2940 C   0  0  0  0  0
  -10.6210   35.9020    6.3410 C   0  0  0  0  0
  -12.8650   35.0840    4.9420 C   0  0  0  0  0
   -9.4130   33.3640   -0.4800 C   0  0  0  0  0
   -6.7700   36.5390    1.4710 C   0  0  0  0  0
   -6.6790   34.5590    2.8120 C   0  0  0  0  0
   -9.3250   32.3810   -1.4400 C   0  0  0  0  0
   -6.4370   35.7430    0.3690 C   0  0  0  0  0
   -6.3720   33.7720    1.7240 C   0  0  0  0  0
  -10.7270   36.1490    4.9800 C   0  0  0  0  0
  -10.6080   31.8330    0.9950 C   0  0  0  0  0
   -6.8820   35.9370    2.7030 C   0  0  0  0  0
  -11.8620   35.7320    4.2620 C   0  0  0  0  0
  -10.0740   33.1070    0.7410 C   0  0  0  0  0
   -9.8790   31.1520   -1.1970 C   0  0  0  0  0
  -10.4860   30.8660    0.0210 C   0  0  0  0  0
   -6.2510   34.3710    0.5040 C   0  0  0  0  0
  -12.4730   37.2430   -0.5130 C   0  0  0  0  0
  -11.8860   36.0500   -0.3560 C   0  0  0  0  0
   -9.6200   36.8400    4.3240 C   0  0  0  0  0
  -11.2720   31.4800    2.3300 C   0  0  0  0  0
  -10.4760   29.0410   -1.1770 C   0  0  0  0  0
   -5.0400   37.8170    6.8400 C   0  0  0  0  0
   -5.6750   32.3020   -0.5290 C   0  0  0  0  0
  -12.0270   35.9400    2.7360 C   0  0  0  0  0
  -10.1660   34.2720    1.7290 C   0  0  0  0  0
  -12.3920   34.9150    0.4800 C   0  0  0  0  0
   -6.3600   37.7950    6.0330 C   0  0  0  0  0
   -6.0880   36.8300    4.8890 C   0  0  0  0  0
   -7.2060   36.8340    3.8980 C   0  0  0  0  0
   -8.3840   36.3970    4.6270 N   0  0  0  0  0
  -11.6810   34.7400    1.8270 N   0  3  0  0  0
  -11.0620   30.2890    2.7380 O   0  0  0  0  0
   -9.8010   37.7530    3.5090 O   0  0  0  0  0
  -11.8040   32.4040    3.0000 O   0  0  0  0  0
   -9.9260   30.0620   -2.0030 O   0  0  0  0  0
  -11.0080   29.5570    0.0760 O   0  0  0  0  0
   -5.9890   33.7080   -0.6660 O   0  0  0  0  0
  -11.6083   35.0264    8.0826 H   0  0  0  0  0
  -13.6074   34.3376    6.8013 H   0  0  0  0  0
   -9.7347   36.2210    6.8894 H   0  0  0  0  0
  -13.7479   34.7527    4.3954 H   0  0  0  0  0
   -8.9711   34.3435   -0.6631 H   0  0  0  0  0
   -6.9366   37.6100    1.3559 H   0  0  0  0  0
   -6.7666   34.0903    3.7922 H   0  0  0  0  0
   -8.8190   32.5790   -2.3849 H   0  0  0  0  0
   -6.3215   36.2057   -0.6111 H   0  0  0  0  0
   -6.2292   32.6971    1.8349 H   0  0  0  0  0
  -13.4124   37.4594   -0.0042 H   0  0  0  0  0
  -12.0115   37.9979   -1.1496 H   0  0  0  0  0
  -10.9486   35.8891   -0.8884 H   0  0  0  0  0
   -9.6778   28.3385   -0.9374 H   0  0  0  0  0
  -11.2969   28.5755   -1.7225 H   0  0  0  0  0
   -4.8179   36.8118    7.1984 H   0  0  0  0  0
   -4.2293   38.1628    6.1987 H   0  0  0  0  0
   -5.1462   38.4918    7.6894 H   0  0  0  0  0
   -4.7883   32.1881    0.0947 H   0  0  0  0  0
   -6.5159   31.7868   -0.0648 H   0  0  0  0  0
   -5.4851   31.8758   -1.5141 H   0  0  0  0  0
  -11.3283   36.7315    2.4650 H   0  0  0  0  0
  -13.0860   36.1417    2.5746 H   0  0  0  0  0
   -9.5450   35.0989    1.3845 H   0  0  0  0  0
   -9.8130   33.9538    2.7099 H   0  0  0  0  0
  -12.2194   34.0017   -0.0894 H   0  0  0  0  0
  -13.4383   35.1267    0.7002 H   0  0  0  0  0
   -6.6377   38.7864    5.6751 H   0  0  0  0  0
   -7.2071   37.4796    6.6421 H   0  0  0  0  0
   -5.9911   35.8246    5.2987 H   0  0  0  0  0
   -5.1743   37.1410    4.3825 H   0  0  0  0  0
   -7.3719   37.8234    3.4717 H   0  0  0  0  0
   -8.2719   35.7332    5.3933 H   0  0  0  0  0
  -12.0466   33.9198    2.3108 H   0  0  0  0  0
  -10.6454   29.7809    2.0380 H   0  0  0  0  0
  1  2  4  0  0  0
  3  1  4  0  0  0
  4  2  4  0  0  0
 11  3  4  0  0  0
 14  4  4  0  0  0
  5  8  4  0  0  0
 15  5  4  0  0  0
  6  9  4  0  0  0
 13  6  4  0  0  0
  7 10  4  0  0  0
 13  7  4  0  0  0
  8 16  4  0  0  0
  9 18  4  0  0  0
 10 18  4  0  0  0
 11 14  4  0  0  0
 21 11  1  0  0  0
 15 12  4  0  0  0
 12 17  4  0  0  0
 12 22  1  0  0  0
 31 13  1  0  0  0
 14 26  1  0  0  0
 27 15  1  0  0  0
 17 16  4  0  0  0
 16 37  1  0  0  0
 17 38  1  0  0  0
 18 39  1  0  0  0
 20 19  2  0  0  0
 28 20  1  0  0  0
 32 21  1  0  0  0
 21 35  2  0  0  0
 22 34  1  0  0  0
 22 36  2  0  0  0
 23 37  1  0  0  0
 38 23  1  0  0  0
 29 24  1  0  0  0
 39 25  1  0  0  0
 26 33  1  0  0  0
 33 27  1  0  0  0
 33 28  1  0  0  0
 30 29  1  0  0  0
 31 30  1  0  0  0
 31 32  1  0  0  0
  1 40  1  0  0  0
  2 41  1  0  0  0
  3 42  1  0  0  0
  4 43  1  0  0  0
  5 44  1  0  0  0
  6 45  1  0  0  0
  7 46  1  0  0  0
  8 47  1  0  0  0
  9 48  1  0  0  0
 10 49  1  0  0  0
 19 50  1  0  0  0
 19 51  1  0  0  0
 20 52  1  0  0  0
 23 53  1  0  0  0
 23 54  1  0  0  0
 24 55  1  0  0  0
 24 56  1  0  0  0
 24 57  1  0  0  0
 25 58  1  0  0  0
 25 59  1  0  0  0
 25 60  1  0  0  0
 26 61  1  0  0  0
 26 62  1  0  0  0
 27 63  1  0  0  0
 27 64  1  0  0  0
 28 65  1  0  0  0
 28 66  1  0  0  0
 29 67  1  0  0  0
 29 68  1  0  0  0
 30 69  1  0  0  0
 30 70  1  0  0  0
 31 71  1  0  0  0
 32 72  1  0  0  0
 33 73  1  0  0  0
 34 74  1  0  0  0
M  END
$$$$
