5h17_ligand
  -I-interpret- 

 56 59  0  0  0  0  0  0  0  0999 V2000
    3.0990   13.4110   10.6240 C   0  0  0  0  0
    1.8020   13.2500   11.1740 C   0  0  0  0  0
    4.3120   13.6300   11.5540 C   0  0  0  0  0
    0.8840   12.9230    8.9370 C   0  0  0  0  0
    5.2090   13.9580   13.9480 C   0  0  0  0  0
    4.9350   14.1480    7.4820 C   0  0  0  0  0
    4.8670   14.6860   15.2840 C   0  0  0  0  0
    3.5930   14.0660   15.8890 C   0  0  0  0  0
    1.1380   14.1800   15.6170 C   0  0  0  0  0
    6.0830   14.8850   16.2250 C   0  0  0  0  0
    6.3340   16.4020   16.0790 C   0  0  0  0  0
    7.2080   16.8560   15.0800 C   0  0  0  0  0
    5.5420   17.3420   16.7750 C   0  0  0  0  0
    7.3950   18.2290   14.8300 C   0  0  0  0  0
    5.6700   18.7140   16.5040 C   0  0  0  0  0
    6.6180   19.1600   15.5640 C   0  0  0  0  0
    9.2970   17.7690   13.2140 C   0  0  0  0  0
    3.2920   13.3120    9.2190 C   0  0  0  0  0
    1.4940   13.3760   12.6760 C   0  0  0  0  0
    0.7020   13.0230   10.3250 C   0  0  0  0  0
    3.9880   14.1460   12.9880 C   0  0  0  0  0
    2.1730   13.0450    8.3920 C   0  0  0  0  0
    4.5890   13.4210    8.6750 O   0  0  0  0  0
    2.7150   13.5000   13.6460 C   0  0  0  0  0
    2.4650   14.2430   14.9370 N   0  3  0  0  0
    8.3370   18.6340   13.8570 O   0  0  0  0  0
    4.9243   14.3989   11.0829 H   0  0  0  0  0
    4.7826   12.6547   11.6784 H   0  0  0  0  0
    0.0282   12.7513    8.2842 H   0  0  0  0  0
    5.3955   12.8990   14.1265 H   0  0  0  0  0
    6.1122   14.3772   13.5045 H   0  0  0  0  0
    4.3871   13.7354    6.6349 H   0  0  0  0  0
    4.6728   15.1983    7.6092 H   0  0  0  0  0
    6.0063   14.0589    7.3016 H   0  0  0  0  0
    4.6185   15.7281   15.0830 H   0  0  0  0  0
    3.3575   14.5599   16.8317 H   0  0  0  0  0
    3.7542   13.0037   16.0723 H   0  0  0  0  0
    1.0246   13.2097   16.1005 H   0  0  0  0  0
    1.0770   14.9698   16.3657 H   0  0  0  0  0
    0.3466   14.3146   14.8797 H   0  0  0  0  0
    6.9448   14.2711   15.9630 H   0  0  0  0  0
    5.8990   14.5682   17.2516 H   0  0  0  0  0
    7.7561   16.1276   14.4823 H   0  0  0  0  0
    4.8287   17.0011   17.5254 H   0  0  0  0  0
    5.0353   19.4334   17.0215 H   0  0  0  0  0
    6.7556   20.2287   15.3994 H   0  0  0  0  0
    9.9497   17.3288   13.9679 H   0  0  0  0  0
    8.7708   16.9776   12.6803 H   0  0  0  0  0
    9.8930   18.3497   12.5099 H   0  0  0  0  0
    0.9873   12.4517   12.9535 H   0  0  0  0  0
    0.9317   14.3032   12.7868 H   0  0  0  0  0
   -0.2975   12.9243   10.7485 H   0  0  0  0  0
    3.7688   15.2049   12.8507 H   0  0  0  0  0
    2.3144   12.9326    7.3171 H   0  0  0  0  0
    2.8887   12.4498   13.8805 H   0  0  0  0  0
    2.4136   15.1986   14.5840 H   0  0  0  0  0
  1  2  4  0  0  0
  1  3  1  0  0  0
 18  1  4  0  0  0
  2 19  1  0  0  0
  2 20  4  0  0  0
  3 21  1  0  0  0
  4 20  4  0  0  0
 22  4  4  0  0  0
  5  7  1  0  0  0
 21  5  1  0  0  0
 23  6  1  0  0  0
  7  8  1  0  0  0
  7 10  1  0  0  0
  8 25  1  0  0  0
 25  9  1  0  0  0
 10 11  1  0  0  0
 11 12  4  0  0  0
 11 13  4  0  0  0
 12 14  4  0  0  0
 13 15  4  0  0  0
 14 16  4  0  0  0
 14 26  1  0  0  0
 15 16  4  0  0  0
 26 17  1  0  0  0
 18 22  4  0  0  0
 18 23  1  0  0  0
 19 24  1  0  0  0
 21 24  1  0  0  0
 24 25  1  0  0  0
  3 27  1  0  0  0
  3 28  1  0  0  0
  4 29  1  0  0  0
  5 30  1  0  0  0
  5 31  1  0  0  0
  6 32  1  0  0  0
  6 33  1  0  0  0
  6 34  1  0  0  0
  7 35  1  0  0  0
  8 36  1  0  0  0
  8 37  1  0  0  0
  9 38  1  0  0  0
  9 39  1  0  0  0
  9 40  1  0  0  0
 10 41  1  0  0  0
 10 42  1  0  0  0
 12 43  1  0  0  0
 13 44  1  0  0  0
 15 45  1  0  0  0
 16 46  1  0  0  0
 17 47  1  0  0  0
 17 48  1  0  0  0
 17 49  1  0  0  0
 19 50  1  0  0  0
 19 51  1  0  0  0
 20 52  1  0  0  0
 21 53  1  0  0  0
 22 54  1  0  0  0
 24 55  1  0  0  0
 25 56  1  0  0  0
M  END
$$$$
