### 
### Created by X-TOOL on Mon Sep 10 21:12:58 2018
### 

@<TRIPOS>MOLECULE
2jkt_ligand
  161   160     1     0     0
SMALL
GAST_HUCK


@<TRIPOS>ATOM
      1 N          60.7110  -33.0920  -92.6350 N.4       1 MET         0.2379
      2 CA         59.5960  -33.9290  -93.0720 C.3       1 MET         0.0658
      3 C          59.6410  -34.1860  -94.5870 C.2       1 MET         0.2268
      4 O          59.1180  -33.3990  -95.3830 O.2       1 MET        -0.3907
      5 CB         58.2550  -33.3200  -92.6400 C.3       1 MET         0.0168
      6 CG         57.9170  -31.9680  -93.2650 C.3       1 MET         0.0007
      7 SD         59.1160  -30.6640  -92.9230 S.3       1 MET        -0.1638
      8 CE         58.2740  -29.2440  -93.6130 C.3       1 MET        -0.0181
      9 N          60.2700  -35.3060  -94.9570 N.am      1 SEP        -0.2589
     10 CA         60.5750  -35.6810  -96.3530 C.3       1 SEP         0.1540
     11 CB         59.7710  -36.9070  -96.8040 C.3       1 SEP         0.0843
     12 OG         60.5160  -37.6710  -97.7450 O.3       1 SEP        -0.3903
     13 C          60.4660  -34.5440  -97.3750 C.2       1 SEP         0.2062
     14 O          59.4750  -34.4060  -98.0950 O.2       1 SEP        -0.3943
     15 N          61.5280  -33.7580  -97.4510 N.am      1 GLU        -0.2636
     16 CA         61.5220  -32.5430  -98.2380 C.3       1 GLU         0.1325
     17 C          61.6300  -32.8110  -99.7410 C.2       1 GLU         0.2040
     18 O          61.8930  -31.9070 -100.5330 O.2       1 GLU        -0.3944
     19 CB         62.6360  -31.6200  -97.7370 C.3       1 GLU        -0.0008
     20 CG         62.4740  -31.2550  -96.2590 C.3       1 GLU         0.0044
     21 CD         63.4890  -30.2320  -95.7720 C.2       1 GLU         0.0350
     22 OE1        64.3630  -29.8270  -96.5650 O.co2     1 GLU        -0.5690
     23 OE2        63.4170  -29.8370  -94.5880 O.co2     1 GLU        -0.5690
     24 N          61.4190  -34.0550 -100.1420 N.am      1 ILE        -0.2635
     25 CA         61.5600  -34.4000 -101.5510 C.3       1 ILE         0.1335
     26 C          60.2040  -34.6230 -102.2430 C.2       1 ILE         0.2042
     27 O          60.1330  -34.8540 -103.4530 O.2       1 ILE        -0.3944
     28 CB         62.5420  -35.5820 -101.7340 C.3       1 ILE        -0.0037
     29 CG1        62.4060  -36.2170 -103.1180 C.3       1 ILE        -0.0491
     30 CG2        62.3390  -36.6140 -100.6380 C.3       1 ILE        -0.0582
     31 CD1        62.7570  -35.2880 -104.2730 C.3       1 ILE        -0.0648
     32 N          59.1230  -34.5170 -101.4780 N.am      1 LYS        -0.2637
     33 CA         57.7900  -34.6500 -102.0590 C.3       1 LYS         0.1310
     34 C          57.5570  -33.4970 -103.0230 C.2       1 LYS         0.2039
     35 O          57.8920  -32.3460 -102.7200 O.2       1 LYS        -0.3944
     36 CB         56.7130  -34.6750 -100.9680 C.3       1 LYS        -0.0122
     37 CG         55.3410  -35.1540 -101.4360 C.3       1 LYS        -0.0440
     38 CD         54.4440  -35.4750 -100.2500 C.3       1 LYS        -0.0124
     39 CE         55.1600  -36.3970  -99.2680 C.3       1 LYS        -0.0354
     40 NZ         54.2680  -36.9160  -98.1930 N.4       1 LYS         0.2185
     41 N          57.0010  -33.8110 -104.1890 N.am      1 ARG        -0.2637
     42 CA         56.7040  -32.7910 -105.1810 C.3       1 ARG         0.1311
     43 C          55.8690  -31.6700 -104.5810 C.2       1 ARG         0.2039
     44 O          55.0680  -31.9010 -103.6710 O.2       1 ARG        -0.3944
     45 CB         55.9300  -33.3920 -106.3420 C.3       1 ARG        -0.0092
     46 CG         56.7390  -34.2480 -107.2480 C.3       1 ARG        -0.0156
     47 CD         55.8070  -34.9610 -108.1660 C.3       1 ARG         0.0627
     48 NE         56.5070  -35.8230 -109.1030 N.pl3     1 ARG        -0.2723
     49 CZ         55.8940  -36.7260 -109.8590 C.cat     1 ARG         0.2882
     50 NH1        54.5760  -36.8770 -109.7720 N.pl3     1 ARG        -0.2849
     51 NH2        56.5880  -37.4790 -110.6960 N.pl3     1 ARG        -0.2849
     52 N          56.0470  -30.4590 -105.1050 N.am      1 LEU        -0.2637
     53 CA         55.2090  -29.3360 -104.7130 C.3       1 LEU         0.1312
     54 C          53.8670  -29.3420 -105.4490 C.2       1 LEU         0.2039
     55 O          52.9070  -28.7040 -105.0030 O.2       1 LEU        -0.3944
     56 CB         55.9400  -28.0190 -104.9540 C.3       1 LEU        -0.0101
     57 CG         57.2290  -27.8180 -104.1570 C.3       1 LEU        -0.0425
     58 CD1        57.4470  -26.3390 -103.8590 C.3       1 LEU        -0.0625
     59 CD2        57.1620  -28.5900 -102.8670 C.3       1 LEU        -0.0625
     60 N          53.7960  -30.0870 -106.5540 N.am      1 LEU        -0.2637
     61 CA         52.6120  -30.0780 -107.4100 C.3       1 LEU         0.1312
     62 C          52.0690  -31.4590 -107.7750 C.2       1 LEU         0.2040
     63 O          52.0850  -32.3930 -106.9670 O.2       1 LEU        -0.3944
     64 CB         52.8910  -29.2990 -108.6940 C.3       1 LEU        -0.0101
     65 CG         53.0020  -27.7750 -108.6370 C.3       1 LEU        -0.0425
     66 CD1        53.1090  -27.1940 -110.0610 C.3       1 LEU        -0.0625
     67 CD2        51.8350  -27.1370 -107.8670 C.3       1 LEU        -0.0625
     68 N          51.5580  -31.5510 -109.0010 N.am      1 SER        -0.2604
     69 CA         50.9770  -32.7770 -109.5280 C.3       1 SER         0.1651
     70 C          50.0890  -33.4670 -108.4900 C.2       1 SER         0.2594
     71 O          48.9980  -32.9860 -108.1690 O.2       1 SER        -0.3679
     72 CB         52.0750  -33.7250 -110.0320 C.3       1 SER         0.0857
     73 OG         52.7840  -33.1750 -111.1380 O.3       1 SER        -0.3902
     74 H1         60.6503  -32.9442  -91.6397 H         1 MET         0.2015
     75 H2         60.6705  -32.2037  -93.1096 H         1 MET         0.2015
     76 H3         61.5815  -33.5506  -92.8541 H         1 MET         0.2015
     77 H4         59.6951  -34.9028  -92.5701 H         1 MET         0.1098
     78 H5         58.2764  -33.1928  -91.5476 H         1 MET         0.0354
     79 H6         57.4579  -34.0278  -92.9112 H         1 MET         0.0354
     80 H7         56.9392  -31.6455  -92.8779 H         1 MET         0.0380
     81 H8         57.8545  -32.0997  -94.3553 H         1 MET         0.0380
     82 H9         58.8965  -28.3472  -93.4778 H         1 MET         0.0340
     83 H10        57.3115  -29.1031  -93.0994 H         1 MET         0.0340
     84 H11        58.0964  -29.4086  -94.6860 H         1 MET         0.0340
     85 H12        60.5552  -35.9368  -94.2353 H         1 SEP         0.1885
     86 H13        61.6324  -35.9840  -96.3543 H         1 SEP         0.0823
     87 H14        58.8324  -36.5732  -97.2705 H         1 SEP         0.0606
     88 H15        59.5431  -37.5329  -95.9286 H         1 SEP         0.0606
     89 H16        60.0051  -38.4255  -98.0140 H         1 SEP         0.2097
     90 H17        62.3568  -34.0101  -96.9514 H         1 GLU         0.1883
     91 H18        60.5606  -32.0367  -98.0667 H         1 GLU         0.0801
     92 H19        62.6224  -30.6951  -98.3323 H         1 GLU         0.0330
     93 H20        63.6023  -32.1282  -97.8710 H         1 GLU         0.0330
     94 H21        62.5874  -32.1705  -95.6598 H         1 GLU         0.0433
     95 H22        61.4652  -30.8423  -96.1108 H         1 GLU         0.0433
     96 H23        61.1629  -34.7578  -99.4783 H         1 ILE         0.1883
     97 H24        62.0189  -33.5311 -102.0454 H         1 ILE         0.0803
     98 H25        63.5652  -35.1882 -101.6445 H         1 ILE         0.0345
     99 H26        61.3639  -36.5455 -103.2451 H         1 ILE         0.0267
    100 H27        63.0738  -37.0899 -103.1633 H         1 ILE         0.0267
    101 H28        62.4422  -36.1304  -99.6554 H         1 ILE         0.0235
    102 H29        63.0942  -37.4076 -100.7372 H         1 ILE         0.0235
    103 H30        61.3336  -37.0512 -100.7277 H         1 ILE         0.0235
    104 H31        62.6319  -35.8238 -105.2255 H         1 ILE         0.0230
    105 H32        63.8012  -34.9569 -104.1730 H         1 ILE         0.0230
    106 H33        62.0913  -34.4125 -104.2547 H         1 ILE         0.0230
    107 H34        59.2229  -34.3450 -100.4980 H         1 LYS         0.1883
    108 H35        57.7398  -35.5960 -102.6180 H         1 LYS         0.0800
    109 H36        56.6028  -33.6547 -100.5720 H         1 LYS         0.0312
    110 H37        57.0542  -35.3451 -100.1652 H         1 LYS         0.0312
    111 H38        55.4653  -36.0590 -102.0487 H         1 LYS         0.0269
    112 H39        54.8705  -34.3641 -102.0398 H         1 LYS         0.0269
    113 H40        53.5311  -35.9710 -100.6112 H         1 LYS         0.0317
    114 H41        54.1748  -34.5399  -99.7370 H         1 LYS         0.0317
    115 H42        55.9830  -35.8374  -98.7995 H         1 LYS         0.0813
    116 H43        55.5690  -37.2522  -99.8260 H         1 LYS         0.0813
    117 H44        54.7960  -37.5161  -97.5789 H         1 LYS         0.1994
    118 H45        53.5127  -37.4397  -98.6068 H         1 LYS         0.1994
    119 H46        53.8920  -36.1433  -97.6661 H         1 LYS         0.1994
    120 H47        56.7831  -34.7666 -104.3873 H         1 ARG         0.1883
    121 H48        57.6516  -32.3747 -105.5534 H         1 ARG         0.0800
    122 H49        55.5071  -32.5681 -106.9355 H         1 ARG         0.0313
    123 H50        55.1139  -34.0038 -105.9302 H         1 ARG         0.0313
    124 H51        57.3122  -34.9782 -106.6578 H         1 ARG         0.0301
    125 H52        57.4315  -33.6234 -107.8313 H         1 ARG         0.0301
    126 H53        55.2308  -34.2157 -108.7339 H         1 ARG         0.0689
    127 H54        55.1203  -35.5755 -107.5654 H         1 ARG         0.0689
    128 H55        57.5294  -35.7289 -109.1848 H         1 ARG         0.2642
    129 H56        54.0981  -37.5768 -110.3574 H         1 ARG         0.2615
    130 H57        54.0328  -36.2941 -109.1192 H         1 ARG         0.2615
    131 H58        57.6092  -37.3646 -110.7659 H         1 ARG         0.2615
    132 H59        56.1072  -38.1798 -111.2779 H         1 ARG         0.2615
    133 H60        56.7705  -30.3186 -105.7809 H         1 LEU         0.1883
    134 H61        55.0053  -29.4248 -103.6357 H         1 LEU         0.0800
    135 H62        55.2528  -27.1995 -104.6966 H         1 LEU         0.0315
    136 H63        56.1923  -27.9638 -106.0232 H         1 LEU         0.0315
    137 H64        58.0759  -28.1896 -104.7526 H         1 LEU         0.0298
    138 H65        58.3775  -26.2137 -103.2859 H         1 LEU         0.0232
    139 H66        56.6001  -25.9546 -103.2717 H         1 LEU         0.0232
    140 H67        57.5208  -25.7815 -104.8043 H         1 LEU         0.0232
    141 H68        57.0047  -29.6565 -103.0857 H         1 LEU         0.0232
    142 H69        56.3273  -28.2137 -102.2574 H         1 LEU         0.0232
    143 H70        58.1051  -28.4642 -102.3150 H         1 LEU         0.0232
    144 H71        54.5727  -30.6659 -106.8023 H         1 LEU         0.1883
    145 H72        51.8199  -29.5528 -106.8561 H         1 LEU         0.0800
    146 H73        52.0774  -29.5352 -109.3956 H         1 LEU         0.0315
    147 H74        53.8431  -29.6749 -109.0967 H         1 LEU         0.0315
    148 H75        53.9291  -27.5269 -108.0995 H         1 LEU         0.0298
    149 H76        53.1881  -26.0983 -110.0049 H         1 LEU         0.0232
    150 H77        52.2128  -27.4679 -110.6371 H         1 LEU         0.0232
    151 H78        54.0024  -27.6012 -110.5570 H         1 LEU         0.0232
    152 H79        51.7824  -27.5692 -106.8568 H         1 LEU         0.0232
    153 H80        50.8929  -27.3341 -108.3996 H         1 LEU         0.0232
    154 H81        51.9943  -26.0511 -107.7934 H         1 LEU         0.0232
    155 H82        51.5741  -30.7406 -109.5866 H         1 SER         0.1885
    156 H83        50.3431  -32.5076 -110.3857 H         1 SER         0.0840
    157 O          50.4979  -34.6000 -107.9260 O.3       1 SER        -0.2909
    158 H84        51.6116  -34.6730 -110.3425 H         1 SER         0.0607
    159 H85        52.7847  -33.9146 -109.2133 H         1 SER         0.0607
    160 H86        53.4524  -33.7880 -111.4207 H         1 SER         0.2097
    161 H87        50.5629  -34.4790 -106.9859 H         1 SER         0.2540
@<TRIPOS>BOND
     1    1    2 1  
     2    2    3 1  
     3    2    5 1  
     4    3    4 2  
     5    3    9 am 
     6    5    6 1  
     7    6    7 1  
     8    7    8 1  
     9    9   10 1  
    10   10   11 1  
    11   10   13 1  
    12   11   12 1  
    13   13   14 2  
    14   13   15 am 
    15   15   16 1  
    16   16   17 1  
    17   16   19 1  
    18   17   18 2  
    19   17   24 am 
    20   19   20 1  
    21   20   21 1  
    22   21   22 ar 
    23   21   23 ar 
    24   24   25 1  
    25   25   26 1  
    26   25   28 1  
    27   26   27 2  
    28   26   32 am 
    29   28   29 1  
    30   28   30 1  
    31   29   31 1  
    32   32   33 1  
    33   33   34 1  
    34   33   36 1  
    35   34   35 2  
    36   34   41 am 
    37   36   37 1  
    38   37   38 1  
    39   38   39 1  
    40   39   40 1  
    41   41   42 1  
    42   42   43 1  
    43   42   45 1  
    44   43   44 2  
    45   43   52 am 
    46   45   46 1  
    47   46   47 1  
    48   47   48 1  
    49   48   49 ar 
    50   49   50 ar 
    51   49   51 ar 
    52   52   53 1  
    53   53   54 1  
    54   53   56 1  
    55   54   55 2  
    56   54   60 am 
    57   56   57 1  
    58   57   58 1  
    59   57   59 1  
    60   60   61 1  
    61   61   62 1  
    62   61   64 1  
    63   62   63 2  
    64   62   68 am 
    65   64   65 1  
    66   65   66 1  
    67   65   67 1  
    68   68   69 1  
    69   69   70 1  
    70   69   72 1  
    71   70   71 2  
    72   72   73 1  
    73    1   74 1  
    74    1   75 1  
    75    1   76 1  
    76    2   77 1  
    77    5   78 1  
    78    5   79 1  
    79    6   80 1  
    80    6   81 1  
    81    8   82 1  
    82    8   83 1  
    83    8   84 1  
    84    9   85 1  
    85   10   86 1  
    86   11   87 1  
    87   11   88 1  
    88   12   89 1  
    89   15   90 1  
    90   16   91 1  
    91   19   92 1  
    92   19   93 1  
    93   20   94 1  
    94   20   95 1  
    95   24   96 1  
    96   25   97 1  
    97   28   98 1  
    98   29   99 1  
    99   29  100 1  
   100   30  101 1  
   101   30  102 1  
   102   30  103 1  
   103   31  104 1  
   104   31  105 1  
   105   31  106 1  
   106   32  107 1  
   107   33  108 1  
   108   36  109 1  
   109   36  110 1  
   110   37  111 1  
   111   37  112 1  
   112   38  113 1  
   113   38  114 1  
   114   39  115 1  
   115   39  116 1  
   116   40  117 1  
   117   40  118 1  
   118   40  119 1  
   119   41  120 1  
   120   42  121 1  
   121   45  122 1  
   122   45  123 1  
   123   46  124 1  
   124   46  125 1  
   125   47  126 1  
   126   47  127 1  
   127   48  128 1  
   128   50  129 1  
   129   50  130 1  
   130   51  131 1  
   131   51  132 1  
   132   52  133 1  
   133   53  134 1  
   134   56  135 1  
   135   56  136 1  
   136   57  137 1  
   137   58  138 1  
   138   58  139 1  
   139   58  140 1  
   140   59  141 1  
   141   59  142 1  
   142   59  143 1  
   143   60  144 1  
   144   61  145 1  
   145   64  146 1  
   146   64  147 1  
   147   65  148 1  
   148   66  149 1  
   149   66  150 1  
   150   66  151 1  
   151   67  152 1  
   152   67  153 1  
   153   67  154 1  
   154   68  155 1  
   155   69  156 1  
   156   70  157 1  
   157   72  158 1  
   158   72  159 1  
   159   73  160 1  
   160  157  161 1  
@<TRIPOS>SUBSTRUCTURE
     1 MET         1

