2jkt_ligand
  -I-interpret- 

161160  0  0  0  0  0  0  0  0999 V2000
   60.7110  -33.0920  -92.6350 N   0  3  0  0  0
   59.5960  -33.9290  -93.0720 C   0  0  0  0  0
   59.6410  -34.1860  -94.5870 C   0  0  0  0  0
   59.1180  -33.3990  -95.3830 O   0  0  0  0  0
   58.2550  -33.3200  -92.6400 C   0  0  0  0  0
   57.9170  -31.9680  -93.2650 C   0  0  0  0  0
   59.1160  -30.6640  -92.9230 S   0  0  0  0  0
   58.2740  -29.2440  -93.6130 C   0  0  0  0  0
   60.2700  -35.3060  -94.9570 N   0  0  0  0  0
   60.5750  -35.6810  -96.3530 C   0  0  0  0  0
   59.7710  -36.9070  -96.8040 C   0  0  0  0  0
   60.5160  -37.6710  -97.7450 O   0  0  0  0  0
   60.4660  -34.5440  -97.3750 C   0  0  0  0  0
   59.4750  -34.4060  -98.0950 O   0  0  0  0  0
   61.5280  -33.7580  -97.4510 N   0  0  0  0  0
   61.5220  -32.5430  -98.2380 C   0  0  0  0  0
   61.6300  -32.8110  -99.7410 C   0  0  0  0  0
   61.8930  -31.9070 -100.5330 O   0  0  0  0  0
   62.6360  -31.6200  -97.7370 C   0  0  0  0  0
   62.4740  -31.2550  -96.2590 C   0  0  0  0  0
   63.4890  -30.2320  -95.7720 C   0  0  0  0  0
   64.3630  -29.8270  -96.5650 O   0  0  0  0  0
   63.4170  -29.8370  -94.5880 O   0  0  0  0  0
   61.4190  -34.0550 -100.1420 N   0  0  0  0  0
   61.5600  -34.4000 -101.5510 C   0  0  0  0  0
   60.2040  -34.6230 -102.2430 C   0  0  0  0  0
   60.1330  -34.8540 -103.4530 O   0  0  0  0  0
   62.5420  -35.5820 -101.7340 C   0  0  0  0  0
   62.4060  -36.2170 -103.1180 C   0  0  0  0  0
   62.3390  -36.6140 -100.6380 C   0  0  0  0  0
   62.7570  -35.2880 -104.2730 C   0  0  0  0  0
   59.1230  -34.5170 -101.4780 N   0  0  0  0  0
   57.7900  -34.6500 -102.0590 C   0  0  0  0  0
   57.5570  -33.4970 -103.0230 C   0  0  0  0  0
   57.8920  -32.3460 -102.7200 O   0  0  0  0  0
   56.7130  -34.6750 -100.9680 C   0  0  0  0  0
   55.3410  -35.1540 -101.4360 C   0  0  0  0  0
   54.4440  -35.4750 -100.2500 C   0  0  0  0  0
   55.1600  -36.3970  -99.2680 C   0  0  0  0  0
   54.2680  -36.9160  -98.1930 N   0  3  0  0  0
   57.0010  -33.8110 -104.1890 N   0  0  0  0  0
   56.7040  -32.7910 -105.1810 C   0  0  0  0  0
   55.8690  -31.6700 -104.5810 C   0  0  0  0  0
   55.0680  -31.9010 -103.6710 O   0  0  0  0  0
   55.9300  -33.3920 -106.3420 C   0  0  0  0  0
   56.7390  -34.2480 -107.2480 C   0  0  0  0  0
   55.8070  -34.9610 -108.1660 C   0  0  0  0  0
   56.5070  -35.8230 -109.1030 N   0  0  0  0  0
   55.8940  -36.7260 -109.8590 C   0  0  0  0  0
   54.5760  -36.8770 -109.7720 N   0  0  0  0  0
   56.5880  -37.4790 -110.6960 N   0  0  0  0  0
   56.0470  -30.4590 -105.1050 N   0  0  0  0  0
   55.2090  -29.3360 -104.7130 C   0  0  0  0  0
   53.8670  -29.3420 -105.4490 C   0  0  0  0  0
   52.9070  -28.7040 -105.0030 O   0  0  0  0  0
   55.9400  -28.0190 -104.9540 C   0  0  0  0  0
   57.2290  -27.8180 -104.1570 C   0  0  0  0  0
   57.4470  -26.3390 -103.8590 C   0  0  0  0  0
   57.1620  -28.5900 -102.8670 C   0  0  0  0  0
   53.7960  -30.0870 -106.5540 N   0  0  0  0  0
   52.6120  -30.0780 -107.4100 C   0  0  0  0  0
   52.0690  -31.4590 -107.7750 C   0  0  0  0  0
   52.0850  -32.3930 -106.9670 O   0  0  0  0  0
   52.8910  -29.2990 -108.6940 C   0  0  0  0  0
   53.0020  -27.7750 -108.6370 C   0  0  0  0  0
   53.1090  -27.1940 -110.0610 C   0  0  0  0  0
   51.8350  -27.1370 -107.8670 C   0  0  0  0  0
   51.5580  -31.5510 -109.0010 N   0  0  0  0  0
   50.9770  -32.7770 -109.5280 C   0  0  0  0  0
   50.0890  -33.4670 -108.4900 C   0  0  0  0  0
   48.9980  -32.9860 -108.1690 O   0  0  0  0  0
   52.0750  -33.7250 -110.0320 C   0  0  0  0  0
   52.7840  -33.1750 -111.1380 O   0  0  0  0  0
   50.4979  -34.6000 -107.9260 O   0  0  0  0  0
   61.5897  -33.5158  -92.9327 H   0  0  0  0  0
   60.6215  -32.1646  -93.0502 H   0  0  0  0  0
   60.6974  -33.0134  -91.6181 H   0  0  0  0  0
   59.6942  -34.8982  -92.5829 H   0  0  0  0  0
   58.3193  -33.1578  -91.5641 H   0  0  0  0  0
   57.4796  -34.0145  -92.9631 H   0  0  0  0  0
   56.9670  -31.6477  -92.8372 H   0  0  0  0  0
   57.9014  -32.1113  -94.3454 H   0  0  0  0  0
   58.0986  -29.4084  -94.6762 H   0  0  0  0  0
   57.3205  -29.1055  -93.1033 H   0  0  0  0  0
   58.8917  -28.3561  -93.4784 H   0  0  0  0  0
   60.5609  -35.9494  -94.2209 H   0  0  0  0  0
   61.6335  -35.9403  -96.3321 H   0  0  0  0  0
   58.8457  -36.5716  -97.2725 H   0  0  0  0  0
   59.5542  -37.5282  -95.9350 H   0  0  0  0  0
   59.9998  -38.4334  -98.0168 H   0  0  0  0  0
   62.3733  -34.0152  -96.9414 H   0  0  0  0  0
   60.5594  -32.0493  -98.1047 H   0  0  0  0  0
   62.5958  -30.6983  -98.3175 H   0  0  0  0  0
   63.5846  -32.1444  -97.8520 H   0  0  0  0  0
   62.6222  -32.1656  -95.6785 H   0  0  0  0  0
   61.4832  -30.8176  -96.1362 H   0  0  0  0  0
   62.6786  -30.2688  -94.1521 H   0  0  0  0  0
   61.1578  -34.7718  -99.4650 H   0  0  0  0  0
   61.9987  -33.5419 -102.0602 H   0  0  0  0  0
   63.5563  -35.1904 -101.6565 H   0  0  0  0  0
   61.3600  -36.4981 -103.2398 H   0  0  0  0  0
   63.1039  -37.0534 -103.1564 H   0  0  0  0  0
   62.5169  -36.1511  -99.6674 H   0  0  0  0  0
   61.3171  -36.9910 -100.6804 H   0  0  0  0  0
   63.0378  -37.4379 -100.7826 H   0  0  0  0  0
   62.0968  -34.4209 -104.2537 H   0  0  0  0  0
   63.7918  -34.9606 -104.1727 H   0  0  0  0  0
   62.6327  -35.8200 -105.2162 H   0  0  0  0  0
   59.2249  -34.3416 -100.4784 H   0  0  0  0  0
   57.7250  -35.5949 -102.5985 H   0  0  0  0  0
   56.5893  -33.6491 -100.6210 H   0  0  0  0  0
   57.0506  -35.3767 -100.2052 H   0  0  0  0  0
   55.4699  -36.0572 -102.0324 H   0  0  0  0  0
   54.8753  -34.3628 -102.0235 H   0  0  0  0  0
   53.5456  -35.9747 -100.6122 H   0  0  0  0  0
   54.1881  -34.5465  -99.7397 H   0  0  0  0  0
   55.9517  -35.8199  -98.7903 H   0  0  0  0  0
   55.5323  -37.2533  -99.8303 H   0  0  0  0  0
   54.8033  -37.5230  -97.5722 H   0  0  0  0  0
   53.8881  -36.1333  -97.6606 H   0  0  0  0  0
   53.5041  -37.4457  -98.6129 H   0  0  0  0  0
   56.7787  -34.7857 -104.3912 H   0  0  0  0  0
   57.6556  -32.3895 -105.5295 H   0  0  0  0  0
   55.5564  -32.5605 -106.9396 H   0  0  0  0  0
   55.1548  -34.0268 -105.9128 H   0  0  0  0  0
   57.3180  -34.9667 -106.6680 H   0  0  0  0  0
   57.4353  -33.6356 -107.8209 H   0  0  0  0  0
   55.2592  -34.2131 -108.7393 H   0  0  0  0  0
   55.1478  -35.5839 -107.5614 H   0  0  0  0  0
   57.5195  -35.7298 -109.1840 H   0  0  0  0  0
   54.1030  -37.5719 -110.3497 H   0  0  0  0  0
   54.0378  -36.2979 -109.1275 H   0  0  0  0  0
   57.5997  -37.3676 -110.7632 H   0  0  0  0  0
   56.7850  -30.3158 -105.7944 H   0  0  0  0  0
   54.9999  -29.4387 -103.6482 H   0  0  0  0  0
   55.2587  -27.2273 -104.6423 H   0  0  0  0  0
   56.2246  -28.0130 -106.0062 H   0  0  0  0  0
   58.0649  -28.1836 -104.7534 H   0  0  0  0  0
   57.5199  -25.7877 -104.7965 H   0  0  0  0  0
   56.6072  -25.9593 -103.2771 H   0  0  0  0  0
   58.3693  -26.2162 -103.2911 H   0  0  0  0  0
   56.3161  -28.2368 -102.2772 H   0  0  0  0  0
   57.0365  -29.6504 -103.0858 H   0  0  0  0  0
   58.0850  -28.4400 -102.3069 H   0  0  0  0  0
   54.5882  -30.6775 -106.8073 H   0  0  0  0  0
   51.8398  -29.5937 -106.8123 H   0  0  0  0  0
   52.0261  -29.4910 -109.3290 H   0  0  0  0  0
   53.8759  -29.6375 -109.0159 H   0  0  0  0  0
   53.9117  -27.5309 -108.0884 H   0  0  0  0  0
   53.9945  -27.5983 -110.5514 H   0  0  0  0  0
   52.2205  -27.4661 -110.6308 H   0  0  0  0  0
   53.1873  -26.1083 -110.0041 H   0  0  0  0  0
   50.8955  -27.3908 -108.3580 H   0  0  0  0  0
   51.8260  -27.5152 -106.8447 H   0  0  0  0  0
   51.9587  -26.0541 -107.8541 H   0  0  0  0  0
   51.5744  -30.7244 -109.5983 H   0  0  0  0  0
   50.3432  -32.5089 -110.3733 H   0  0  0  0  0
   51.6037  -34.6531 -110.3553 H   0  0  0  0  0
   52.7831  -33.8907 -109.2200 H   0  0  0  0  0
   53.4595  -33.7945 -111.4237 H   0  0  0  0  0
   51.3578  -34.8398 -108.2791 H   0  0  0  0  0
  1  2  1  0  0  0
  2  3  1  0  0  0
  2  5  1  0  0  0
  3  4  2  0  0  0
  3  9  1  0  0  0
  5  6  1  0  0  0
  6  7  1  0  0  0
  7  8  1  0  0  0
  9 10  1  0  0  0
 10 11  1  0  0  0
 10 13  1  0  0  0
 11 12  1  0  0  0
 13 14  2  0  0  0
 13 15  1  0  0  0
 15 16  1  0  0  0
 16 17  1  0  0  0
 16 19  1  0  0  0
 17 18  2  0  0  0
 17 24  1  0  0  0
 19 20  1  0  0  0
 20 21  1  0  0  0
 21 22  2  0  0  0
 21 23  1  0  0  0
 24 25  1  0  0  0
 25 26  1  0  0  0
 25 28  1  0  0  0
 26 27  2  0  0  0
 26 32  1  0  0  0
 28 29  1  0  0  0
 28 30  1  0  0  0
 29 31  1  0  0  0
 32 33  1  0  0  0
 33 34  1  0  0  0
 33 36  1  0  0  0
 34 35  2  0  0  0
 34 41  1  0  0  0
 36 37  1  0  0  0
 37 38  1  0  0  0
 38 39  1  0  0  0
 39 40  1  0  0  0
 41 42  1  0  0  0
 42 43  1  0  0  0
 42 45  1  0  0  0
 43 44  2  0  0  0
 43 52  1  0  0  0
 45 46  1  0  0  0
 46 47  1  0  0  0
 47 48  1  0  0  0
 48 49  1  0  0  0
 49 50  1  0  0  0
 49 51  2  0  0  0
 52 53  1  0  0  0
 53 54  1  0  0  0
 53 56  1  0  0  0
 54 55  2  0  0  0
 54 60  1  0  0  0
 56 57  1  0  0  0
 57 58  1  0  0  0
 57 59  1  0  0  0
 60 61  1  0  0  0
 61 62  1  0  0  0
 61 64  1  0  0  0
 62 63  2  0  0  0
 62 68  1  0  0  0
 64 65  1  0  0  0
 65 66  1  0  0  0
 65 67  1  0  0  0
 68 69  1  0  0  0
 69 70  1  0  0  0
 69 72  1  0  0  0
 70 71  2  0  0  0
 72 73  1  0  0  0
 70 74  1  0  0  0
  1 75  1  0  0  0
  1 76  1  0  0  0
  1 77  1  0  0  0
  2 78  1  0  0  0
  5 79  1  0  0  0
  5 80  1  0  0  0
  6 81  1  0  0  0
  6 82  1  0  0  0
  8 83  1  0  0  0
  8 84  1  0  0  0
  8 85  1  0  0  0
  9 86  1  0  0  0
 10 87  1  0  0  0
 11 88  1  0  0  0
 11 89  1  0  0  0
 12 90  1  0  0  0
 15 91  1  0  0  0
 16 92  1  0  0  0
 19 93  1  0  0  0
 19 94  1  0  0  0
 20 95  1  0  0  0
 20 96  1  0  0  0
 23 97  1  0  0  0
 24 98  1  0  0  0
 25 99  1  0  0  0
 28100  1  0  0  0
 29101  1  0  0  0
 29102  1  0  0  0
 30103  1  0  0  0
 30104  1  0  0  0
 30105  1  0  0  0
 31106  1  0  0  0
 31107  1  0  0  0
 31108  1  0  0  0
 32109  1  0  0  0
 33110  1  0  0  0
 36111  1  0  0  0
 36112  1  0  0  0
 37113  1  0  0  0
 37114  1  0  0  0
 38115  1  0  0  0
 38116  1  0  0  0
 39117  1  0  0  0
 39118  1  0  0  0
 40119  1  0  0  0
 40120  1  0  0  0
 40121  1  0  0  0
 41122  1  0  0  0
 42123  1  0  0  0
 45124  1  0  0  0
 45125  1  0  0  0
 46126  1  0  0  0
 46127  1  0  0  0
 47128  1  0  0  0
 47129  1  0  0  0
 48130  1  0  0  0
 50131  1  0  0  0
 50132  1  0  0  0
 51133  1  0  0  0
 52134  1  0  0  0
 53135  1  0  0  0
 56136  1  0  0  0
 56137  1  0  0  0
 57138  1  0  0  0
 58139  1  0  0  0
 58140  1  0  0  0
 58141  1  0  0  0
 59142  1  0  0  0
 59143  1  0  0  0
 59144  1  0  0  0
 60145  1  0  0  0
 61146  1  0  0  0
 64147  1  0  0  0
 64148  1  0  0  0
 65149  1  0  0  0
 66150  1  0  0  0
 66151  1  0  0  0
 66152  1  0  0  0
 67153  1  0  0  0
 67154  1  0  0  0
 67155  1  0  0  0
 68156  1  0  0  0
 69157  1  0  0  0
 72158  1  0  0  0
 72159  1  0  0  0
 73160  1  0  0  0
 74161  1  0  0  0
M  END
$$$$
