5fnc_ligand
  -I-interpret- 

 30 31  0  0  0  0  0  0  0  0999 V2000
    0.6860   10.1820   26.1050 C   0  0  0  0  0
   -0.6390   10.1620   26.5130 C   0  0  0  0  0
   -1.0330    9.5030   28.0320 Cl  0  0  0  0  0
   -1.6170   10.6290   25.7320 N   0  0  0  0  0
   -1.2640   11.0940   24.5130 C   0  0  0  0  0
   -2.2480   11.5290   23.7680 N   0  0  0  0  0
    0.0230   11.1950   24.0730 N   0  0  0  0  0
    0.9850   10.7230   24.8500 C   0  0  0  0  0
    2.2690   10.6870   24.4930 N   0  0  0  0  0
    3.1350   11.7760   23.9680 C   0  0  0  0  0
    4.4260   11.2440   23.6570 C   0  0  0  0  0
    4.6020    9.8660   23.3230 C   0  0  0  0  0
    5.8480    9.3040   23.0010 C   0  0  0  0  0
    6.9550   10.1110   23.0070 C   0  0  0  0  0
    8.1890    9.5570   22.7110 C   0  0  0  0  0
    6.8000   11.4790   23.3530 C   0  0  0  0  0
    5.5620   12.0460   23.6780 C   0  0  0  0  0
    1.4743    9.7864   26.7455 H   0  0  0  0  0
   -3.2049   11.5021   24.1203 H   0  0  0  0  0
   -2.0581   11.8950   22.8350 H   0  0  0  0  0
    2.7239    9.7798   24.5949 H   0  0  0  0  0
    3.2341   12.5586   24.7203 H   0  0  0  0  0
    2.6870   12.1970   23.0679 H   0  0  0  0  0
    3.7252    9.2185   23.3179 H   0  0  0  0  0
    5.9327    8.2464   22.7512 H   0  0  0  0  0
    8.4165    8.7729   23.4332 H   0  0  0  0  0
    8.1639    9.1323   21.7075 H   0  0  0  0  0
    8.9546   10.3313   22.7601 H   0  0  0  0  0
    7.6842   12.1163   23.3662 H   0  0  0  0  0
    5.4895   13.1006   23.9436 H   0  0  0  0  0
  1  2  4  0  0  0
  1  8  4  0  0  0
  2  3  1  0  0  0
  2  4  4  0  0  0
  4  5  4  0  0  0
  5  6  1  0  0  0
  5  7  4  0  0  0
  7  8  4  0  0  0
  8  9  1  0  0  0
  9 10  1  0  0  0
 10 11  1  0  0  0
 11 12  4  0  0  0
 11 17  4  0  0  0
 12 13  4  0  0  0
 13 14  4  0  0  0
 14 15  1  0  0  0
 14 16  4  0  0  0
 16 17  4  0  0  0
  1 18  1  0  0  0
  6 19  1  0  0  0
  6 20  1  0  0  0
  9 21  1  0  0  0
 10 22  1  0  0  0
 10 23  1  0  0  0
 12 24  1  0  0  0
 13 25  1  0  0  0
 15 26  1  0  0  0
 15 27  1  0  0  0
 15 28  1  0  0  0
 16 29  1  0  0  0
 17 30  1  0  0  0
M  END
$$$$
