1t4s_ligand
  -I-interpret- 

 20 19  0  0  0  0  0  0  0  0999 V2000
    0.7320   45.3470   -8.5190 N   0  3  0  0  0
    0.3340   44.7360   -9.7660 C   0  0  0  0  0
    0.9670   45.5810  -10.9400 C   0  0  0  0  0
    0.0940   46.1250  -11.8210 O   0  0  0  0  0
   -1.2180   44.3770   -9.7090 C   0  0  0  0  0
   -2.0690   44.8630  -10.8980 C   0  0  0  0  0
   -1.3740   42.8760   -9.5690 C   0  0  0  0  0
    2.1670   45.7960  -11.0610 O   0  0  0  0  0
    1.7252   45.5765   -8.5560 H   0  0  0  0  0
    0.1903   46.1985   -8.3708 H   0  0  0  0  0
    0.5606   44.6959   -7.7528 H   0  0  0  0  0
    0.7359   43.7449   -9.9762 H   0  0  0  0  0
   -0.7994   45.8619  -11.5883 H   0  0  0  0  0
   -1.6025   44.9200   -8.8456 H   0  0  0  0  0
   -1.7306   44.3717  -11.8102 H   0  0  0  0  0
   -3.1157   44.6175  -10.7184 H   0  0  0  0  0
   -1.9606   45.9425  -11.0035 H   0  0  0  0  0
   -2.4225   42.6358   -9.3929 H   0  0  0  0  0
   -1.0374   42.3900  -10.4848 H   0  0  0  0  0
   -0.7738   42.5264   -8.7289 H   0  0  0  0  0
  1  2  1  0  0  0
  2  3  1  0  0  0
  2  5  1  0  0  0
  3  4  1  0  0  0
  3  8  2  0  0  0
  5  6  1  0  0  0
  5  7  1  0  0  0
  1  9  1  0  0  0
  1 10  1  0  0  0
  1 11  1  0  0  0
  2 12  1  0  0  0
  4 13  1  0  0  0
  5 14  1  0  0  0
  6 15  1  0  0  0
  6 16  1  0  0  0
  6 17  1  0  0  0
  7 18  1  0  0  0
  7 19  1  0  0  0
  7 20  1  0  0  0
M  END
$$$$
