4isu_ligand
  -I-interpret- 

 35 37  0  0  0  0  0  0  0  0999 V2000
   -5.7600   28.3840   -1.6550 C   0  0  0  0  0
   -4.3560   28.3070    0.4200 C   0  0  0  0  0
   -4.6230   27.8700   -0.8240 C   0  0  0  0  0
   -6.1420   30.1090    0.1190 C   0  0  0  0  0
   -5.1780   29.3770    1.0760 C   0  0  0  0  0
   -6.0170   28.7780    2.0730 O   0  0  0  0  0
   -6.4090   32.0160    2.7870 N   0  0  0  0  0
   -6.4930   30.7110    3.4370 C   0  0  0  0  0
   -7.0540   29.7510    2.3460 C   0  0  0  0  0
   -7.2100   30.6230    1.0750 C   0  0  0  0  0
   -6.7950   32.0190    1.4760 C   0  0  0  0  0
   -6.8040   33.0140    0.7470 O   0  0  0  0  0
   -8.2820   28.9480    2.7750 C   0  0  0  0  0
   -7.3440   30.7750    4.7360 C   0  0  0  0  0
   -7.1930   29.8330    5.5660 O   0  0  0  0  0
   -8.8940   28.0060    1.7580 C   0  0  0  0  0
   -9.9240   27.3780    2.1150 O   0  0  0  0  0
   -8.3240   27.9370    0.6390 O   0  0  0  0  0
   -8.1200   31.7590    4.8290 O   0  0  0  0  0
   -6.7380   29.1500   -0.8590 N   0  3  0  0  0
   -6.2755   27.5267   -2.0879 H   0  0  0  0  0
   -5.3487   29.0491   -2.4143 H   0  0  0  0  0
   -3.5193   27.8717    0.9664 H   0  0  0  0  0
   -3.9784   27.1014   -1.2504 H   0  0  0  0  0
   -5.6657   30.8889   -0.4751 H   0  0  0  0  0
   -4.4567   30.0925    1.4708 H   0  0  0  0  0
   -6.0890   32.8550    3.2709 H   0  0  0  0  0
   -5.5270   30.3490    3.7889 H   0  0  0  0  0
   -8.2128   30.6009    0.6484 H   0  0  0  0  0
   -9.0538   29.6865    2.9917 H   0  0  0  0  0
   -7.9456   28.3145    3.5957 H   0  0  0  0  0
   -6.5332   29.2192    5.2351 H   0  0  0  0  0
  -10.1458   27.6163    3.0181 H   0  0  0  0  0
   -7.2734   28.4714   -0.3175 H   0  0  0  0  0
   -7.2857   29.7033   -1.5180 H   0  0  0  0  0
  3  1  1  0  0  0
 20  1  1  0  0  0
  2  3  2  0  0  0
  5  2  1  0  0  0
  5  4  1  0  0  0
  4 10  1  0  0  0
  4 20  1  0  0  0
  6  5  1  0  0  0
  9  6  1  0  0  0
  8  7  1  0  0  0
  7 11  1  0  0  0
  8  9  1  0  0  0
  8 14  1  0  0  0
  9 10  1  0  0  0
  9 13  1  0  0  0
 10 11  1  0  0  0
 11 12  2  0  0  0
 13 16  1  0  0  0
 14 15  1  0  0  0
 14 19  2  0  0  0
 16 17  1  0  0  0
 16 18  2  0  0  0
  1 21  1  0  0  0
  1 22  1  0  0  0
  2 23  1  0  0  0
  3 24  1  0  0  0
  4 25  1  0  0  0
  5 26  1  0  0  0
  7 27  1  0  0  0
  8 28  1  0  0  0
 10 29  1  0  0  0
 13 30  1  0  0  0
 13 31  1  0  0  0
 15 32  1  0  0  0
 17 33  1  0  0  0
 20 34  1  0  0  0
 20 35  1  0  0  0
M  END
$$$$
