2r3j_ligand
  -I-interpret- 

 38 41  0  0  0  0  0  0  0  0999 V2000
   -0.2650   32.0710    8.5400 C   0  0  0  0  0
    0.2890   30.8530    8.8530 C   0  0  0  0  0
    1.4490   30.7730    8.1420 N   0  0  0  0  0
    1.6550   31.9170    7.3860 N   0  0  0  0  0
    0.6190   32.7020    7.6570 C   0  0  0  0  0
   -0.1960   29.8790    9.6960 N   0  0  0  0  0
    0.5330   28.7870    9.8010 C   0  0  0  0  0
    1.7580   28.6500    9.0780 C   0  0  0  0  0
    2.2420   29.6580    8.2470 C   0  0  0  0  0
    3.4080   29.6340    7.5070 N   0  0  0  0  0
    0.0480   27.7290   10.6980 C   0  0  0  0  0
    4.4700   28.6680    7.8500 C   0  0  0  0  0
    4.6130   27.6790    6.7200 C   0  0  0  0  0
    4.5850   26.2910    6.9300 C   0  0  0  0  0
    4.7050   25.3750    5.9610 N   0  0  0  0  0
    4.8670   25.8290    4.7140 C   0  0  0  0  0
    4.9280   27.1820    4.3920 C   0  0  0  0  0
    4.7860   28.1190    5.4110 C   0  0  0  0  0
   -0.4940   28.0580   11.9460 C   0  0  0  0  0
   -0.9570   27.0610   12.8220 C   0  0  0  0  0
   -0.8640   25.7210   12.4640 C   0  0  0  0  0
   -0.3000   25.3730   11.2320 C   0  0  0  0  0
    0.1480   26.3680   10.3580 C   0  0  0  0  0
   -1.8400   32.7670    9.2150 Br  0  0  0  0  0
    0.4763   33.7020    7.2475 H   0  0  0  0  0
    2.3313   27.7286    9.1798 H   0  0  0  0  0
    3.5345   30.2801    6.7279 H   0  0  0  0  0
    4.2084   28.1430    8.7687 H   0  0  0  0  0
    5.4125   29.1942    8.0011 H   0  0  0  0  0
    4.4568   25.9348    7.9521 H   0  0  0  0  0
    4.9560   25.1016    3.9071 H   0  0  0  0  0
    5.0840   27.5013    3.3616 H   0  0  0  0  0
    4.8100   29.1854    5.1865 H   0  0  0  0  0
   -0.5581   29.1047   12.2434 H   0  0  0  0  0
   -1.3895   27.3389   13.7832 H   0  0  0  0  0
   -1.2282   24.9464   13.1389 H   0  0  0  0  0
   -0.2096   24.3233   10.9527 H   0  0  0  0  0
    0.5812   26.0847    9.3988 H   0  0  0  0  0
  1  2  4  0  0  0
  1  5  4  0  0  0
  1 24  1  0  0  0
  2  3  4  0  0  0
  2  6  4  0  0  0
  3  4  4  0  0  0
  3  9  4  0  0  0
  4  5  4  0  0  0
  6  7  4  0  0  0
  7  8  4  0  0  0
  7 11  1  0  0  0
  8  9  4  0  0  0
  9 10  1  0  0  0
 10 12  1  0  0  0
 11 19  4  0  0  0
 11 23  4  0  0  0
 12 13  1  0  0  0
 13 14  4  0  0  0
 13 18  4  0  0  0
 14 15  4  0  0  0
 15 16  4  0  0  0
 16 17  4  0  0  0
 17 18  4  0  0  0
 19 20  4  0  0  0
 20 21  4  0  0  0
 21 22  4  0  0  0
 22 23  4  0  0  0
  5 25  1  0  0  0
  8 26  1  0  0  0
 10 27  1  0  0  0
 12 28  1  0  0  0
 12 29  1  0  0  0
 14 30  1  0  0  0
 16 31  1  0  0  0
 17 32  1  0  0  0
 18 33  1  0  0  0
 19 34  1  0  0  0
 20 35  1  0  0  0
 21 36  1  0  0  0
 22 37  1  0  0  0
 23 38  1  0  0  0
M  END
$$$$
