3ayc_ligand
  -I-interpret- 

130134  0  0  0  0  0  0  0  0999 V2000
   19.3570   27.1410    7.6980 C   0  0  0  0  0
   19.1460   25.6750    7.3170 C   0  0  0  0  0
   19.0340   25.5140    5.8010 C   0  0  0  0  0
   17.9330   26.4450    5.2920 C   0  0  0  0  0
   18.2410   27.8760    5.7350 C   0  0  0  0  0
   17.1580   28.8370    5.2410 C   0  0  0  0  0
   20.2230   24.8850    7.8280 O   0  0  0  0  0
   18.6910   24.1600    5.4940 O   0  0  0  0  0
   16.6880   26.0320    5.8620 O   0  0  0  0  0
   18.2900   27.9430    7.1680 O   0  0  0  0  0
   17.4660   30.1560    5.7000 O   0  0  0  0  0
   21.1120   29.2830   11.6870 C   0  0  0  0  0
   20.3760   28.0840   11.0890 C   0  0  0  0  0
   20.0290   28.3440    9.6240 C   0  0  0  0  0
   19.2130   29.6350    9.5400 C   0  0  0  0  0
   19.9750   30.7730   10.2230 C   0  0  0  0  0
   19.1120   32.0360   10.1890 C   0  0  0  0  0
   20.7180   25.6920   11.4870 C   0  0  0  0  0
   21.7380   24.5530   11.5320 C   0  0  0  0  0
   21.2200   26.8830   11.1760 N   0  0  0  0  0
   19.3090   27.2060    9.1290 O   0  0  0  0  0
   17.9510   29.4500   10.1880 O   0  0  0  0  0
   20.2580   30.4340   11.5910 O   0  0  0  0  0
   19.8040   33.1090   10.8330 O   0  0  0  0  0
   19.5280   25.4860   11.7260 O   0  0  0  0  0
   22.9670   27.6700   15.6910 C   0  0  0  0  0
   23.3470   27.3090   14.2530 C   0  0  0  0  0
   23.6840   28.5170   13.3780 C   0  0  0  0  0
   22.5820   29.5540   13.5250 C   0  0  0  0  0
   22.4100   29.8770   15.0000 C   0  0  0  0  0
   21.3700   30.9910   15.1390 C   0  0  0  0  0
   24.4740   26.4280   14.2740 O   0  0  0  0  0
   23.6950   27.9960   12.0400 O   0  0  0  0  0
   21.3420   28.9890   13.0730 O   0  0  0  0  0
   21.9680   28.7030   15.7020 O   0  0  0  0  0
   21.1640   31.2910   16.5220 O   0  0  0  0  0
   20.7680   25.3990   19.3830 C   0  0  0  0  0
   20.8750   25.7960   17.9090 C   0  0  0  0  0
   22.2720   26.3350   17.5890 C   0  0  0  0  0
   23.2850   25.2920   18.0400 C   0  0  0  0  0
   24.7030   25.7850   17.7460 C   0  0  0  0  0
   21.8820   24.4100   19.7290 C   0  0  0  0  0
   21.8240   24.0840   21.1210 O   0  0  0  0  0
   19.5000   24.7720   19.5970 O   0  0  0  0  0
   19.8930   26.7890   17.6040 O   0  0  0  0  0
   22.3560   26.4590   16.1620 O   0  0  0  0  0
   23.1550   25.0110   19.4430 O   0  0  0  0  0
   24.9380   26.9980   18.4660 O   0  0  0  0  0
   24.3030   28.0990    9.7490 C   0  0  0  0  0
   24.6350   28.6070   11.1540 C   0  0  0  0  0
   26.0600   28.2040   11.5430 C   0  0  0  0  0
   27.0520   28.8730   10.5880 C   0  0  0  0  0
   26.8230   30.3850   10.5650 C   0  0  0  0  0
   25.3580   30.6470   10.2130 C   0  0  0  0  0
   25.0470   32.1440   10.1450 C   0  0  0  0  0
   23.5550   32.3480    9.8720 C   0  0  0  0  0
   23.2170   33.8280    9.6800 C   0  0  0  0  0
   28.7450   31.7430    9.8640 C   0  0  0  0  0
   29.5590   32.2620    8.6790 C   0  0  0  0  0
   27.7020   30.9910    9.5490 N   0  0  0  0  0
   24.7900   26.9960    9.4140 O   0  0  0  0  0
   23.5460   28.8050    9.0510 O   0  0  0  0  0
   28.3920   28.5900   10.9980 O   0  0  0  0  0
   24.5120   30.0330   11.1990 O   0  0  0  0  0
   25.3900   32.7570   11.3900 O   0  0  0  0  0
   23.1670   31.6030    8.7160 O   0  0  0  0  0
   21.8170   33.9660    9.4230 O   0  0  0  0  0
   29.0810   32.0130   11.0250 O   0  0  0  0  0
   20.3045   27.5086    7.3040 H   0  0  0  0  0
   18.2104   25.3308    7.7578 H   0  0  0  0  0
   19.9828   25.7629    5.3257 H   0  0  0  0  0
   17.8787   26.4044    4.2041 H   0  0  0  0  0
   19.2033   28.1628    5.3109 H   0  0  0  0  0
   16.1869   28.5290    5.6286 H   0  0  0  0  0
   17.1227   28.8244    4.1516 H   0  0  0  0  0
   20.2781   24.9984    8.7797 H   0  0  0  0  0
   19.3823   23.5756    5.8136 H   0  0  0  0  0
   16.4928   25.1338    5.5850 H   0  0  0  0  0
   16.7907   30.7659    5.3941 H   0  0  0  0  0
   22.0504   29.4755   11.1669 H   0  0  0  0  0
   19.4563   27.9310   11.6537 H   0  0  0  0  0
   20.9189   28.4754    9.0085 H   0  0  0  0  0
   19.0491   29.8873    8.4923 H   0  0  0  0  0
   20.9154   30.9404    9.6978 H   0  0  0  0  0
   18.1734   31.8468   10.7098 H   0  0  0  0  0
   18.9084   32.3071    9.1531 H   0  0  0  0  0
   21.7506   24.1175   12.5311 H   0  0  0  0  0
   21.4606   23.7897   10.8050 H   0  0  0  0  0
   22.7271   24.9430   11.2918 H   0  0  0  0  0
   22.2199   26.9662   10.9923 H   0  0  0  0  0
   17.4422   30.2622   10.1330 H   0  0  0  0  0
   19.2594   33.8992   10.8096 H   0  0  0  0  0
   23.8156   28.0206   16.2784 H   0  0  0  0  0
   22.4698   26.8357   13.8120 H   0  0  0  0  0
   24.6289   28.9914   13.6430 H   0  0  0  0  0
   22.8415   30.4426   12.9495 H   0  0  0  0  0
   23.3589   30.2041   15.4250 H   0  0  0  0  0
   20.4291   30.6630   14.6972 H   0  0  0  0  0
   21.7272   31.8838   14.6257 H   0  0  0  0  0
   24.7162   26.1986   13.3738 H   0  0  0  0  0
   20.5110   31.9901   16.6028 H   0  0  0  0  0
   20.8623   26.2838   20.0126 H   0  0  0  0  0
   20.6999   24.9093   17.2998 H   0  0  0  0  0
   22.4611   27.2895   18.0802 H   0  0  0  0  0
   23.0913   24.3727   17.4873 H   0  0  0  0  0
   24.8126   25.9672   16.6769 H   0  0  0  0  0
   25.4247   25.0295   18.0568 H   0  0  0  0  0
   21.7551   23.5039   19.1365 H   0  0  0  0  0
   22.5251   23.4632   21.3326 H   0  0  0  0  0
   19.4214   24.5182   20.5195 H   0  0  0  0  0
   19.9644   27.0344   16.6786 H   0  0  0  0  0
   25.8274   27.3100   18.2835 H   0  0  0  0  0
   26.1640   27.1209   11.4781 H   0  0  0  0  0
   26.2641   28.5239   12.5648 H   0  0  0  0  0
   26.8956   28.4768    9.5847 H   0  0  0  0  0
   27.0507   30.8216   11.5374 H   0  0  0  0  0
   25.1705   30.2185    9.2285 H   0  0  0  0  0
   25.6269   32.5977    9.3413 H   0  0  0  0  0
   23.0013   31.9893   10.7397 H   0  0  0  0  0
   23.7827   34.2241    8.8367 H   0  0  0  0  0
   23.4776   34.3809   10.5825 H   0  0  0  0  0
   29.5715   33.3518    8.6979 H   0  0  0  0  0
   30.5792   31.8844    8.7475 H   0  0  0  0  0
   29.1047   31.9186    7.7496 H   0  0  0  0  0
   27.4985   30.8243    8.5635 H   0  0  0  0  0
   25.3369   26.6590   10.1274 H   0  0  0  0  0
   29.0064   29.0132   10.3939 H   0  0  0  0  0
   25.1950   33.6960   11.3475 H   0  0  0  0  0
   22.2307   31.7355    8.5507 H   0  0  0  0  0
   21.6049   34.8945    9.3025 H   0  0  0  0  0
  1  2  1  0  0  0
  1 10  1  0  0  0
 21  1  1  0  0  0
  2  3  1  0  0  0
  2  7  1  0  0  0
  3  4  1  0  0  0
  3  8  1  0  0  0
  5  4  1  0  0  0
  4  9  1  0  0  0
  5  6  1  0  0  0
 10  5  1  0  0  0
  6 11  1  0  0  0
 12 13  1  0  0  0
 12 23  1  0  0  0
 34 12  1  0  0  0
 13 14  1  0  0  0
 13 20  1  0  0  0
 14 15  1  0  0  0
 14 21  1  0  0  0
 16 15  1  0  0  0
 15 22  1  0  0  0
 16 17  1  0  0  0
 23 16  1  0  0  0
 17 24  1  0  0  0
 18 19  1  0  0  0
 20 18  1  0  0  0
 18 25  2  0  0  0
 27 26  1  0  0  0
 26 35  1  0  0  0
 26 46  1  0  0  0
 28 27  1  0  0  0
 27 32  1  0  0  0
 28 29  1  0  0  0
 33 28  1  0  0  0
 29 30  1  0  0  0
 29 34  1  0  0  0
 30 31  1  0  0  0
 30 35  1  0  0  0
 31 36  1  0  0  0
 50 33  1  0  0  0
 38 37  1  0  0  0
 37 42  1  0  0  0
 37 44  1  0  0  0
 39 38  1  0  0  0
 38 45  1  0  0  0
 39 40  1  0  0  0
 46 39  1  0  0  0
 40 41  1  0  0  0
 40 47  1  0  0  0
 41 48  1  0  0  0
 42 43  1  0  0  0
 47 42  1  0  0  0
 50 49  1  0  0  0
 49 61  1  0  0  0
 49 62  2  0  0  0
 51 50  1  0  0  0
 64 50  1  0  0  0
 52 51  1  0  0  0
 53 52  1  0  0  0
 52 63  1  0  0  0
 53 54  1  0  0  0
 60 53  1  0  0  0
 54 55  1  0  0  0
 54 64  1  0  0  0
 55 56  1  0  0  0
 55 65  1  0  0  0
 56 57  1  0  0  0
 56 66  1  0  0  0
 57 67  1  0  0  0
 58 59  1  0  0  0
 58 60  1  0  0  0
 58 68  2  0  0  0
  1 69  1  0  0  0
  2 70  1  0  0  0
  3 71  1  0  0  0
  4 72  1  0  0  0
  5 73  1  0  0  0
  6 74  1  0  0  0
  6 75  1  0  0  0
  7 76  1  0  0  0
  8 77  1  0  0  0
  9 78  1  0  0  0
 11 79  1  0  0  0
 12 80  1  0  0  0
 13 81  1  0  0  0
 14 82  1  0  0  0
 15 83  1  0  0  0
 16 84  1  0  0  0
 17 85  1  0  0  0
 17 86  1  0  0  0
 19 87  1  0  0  0
 19 88  1  0  0  0
 19 89  1  0  0  0
 20 90  1  0  0  0
 22 91  1  0  0  0
 24 92  1  0  0  0
 26 93  1  0  0  0
 27 94  1  0  0  0
 28 95  1  0  0  0
 29 96  1  0  0  0
 30 97  1  0  0  0
 31 98  1  0  0  0
 31 99  1  0  0  0
 32100  1  0  0  0
 36101  1  0  0  0
 37102  1  0  0  0
 38103  1  0  0  0
 39104  1  0  0  0
 40105  1  0  0  0
 41106  1  0  0  0
 41107  1  0  0  0
 42108  1  0  0  0
 43109  1  0  0  0
 44110  1  0  0  0
 45111  1  0  0  0
 48112  1  0  0  0
 51113  1  0  0  0
 51114  1  0  0  0
 52115  1  0  0  0
 53116  1  0  0  0
 54117  1  0  0  0
 55118  1  0  0  0
 56119  1  0  0  0
 57120  1  0  0  0
 57121  1  0  0  0
 59122  1  0  0  0
 59123  1  0  0  0
 59124  1  0  0  0
 60125  1  0  0  0
 61126  1  0  0  0
 63127  1  0  0  0
 65128  1  0  0  0
 66129  1  0  0  0
 67130  1  0  0  0
M  END
$$$$
