### 
### Created by X-TOOL on Mon Sep 10 21:13:05 2018
### 

@<TRIPOS>MOLECULE
3ayc_ligand
  129   133     1     0     0
SMALL
GAST_HUCK


@<TRIPOS>ATOM
      1 C1         19.3570   27.1410    7.6980 C.3       1 GAL         0.1884
      2 C2         19.1460   25.6750    7.3170 C.3       1 GAL         0.1341
      3 C3         19.0340   25.5140    5.8010 C.3       1 GAL         0.1141
      4 C4         17.9330   26.4450    5.2920 C.3       1 GAL         0.1119
      5 C5         18.2410   27.8760    5.7350 C.3       1 GAL         0.1130
      6 C6         17.1580   28.8370    5.2410 C.3       1 GAL         0.0730
      7 O2         20.2230   24.8850    7.8280 O.3       1 GAL        -0.3841
      8 O3         18.6910   24.1600    5.4940 O.3       1 GAL        -0.3864
      9 O4         16.6880   26.0320    5.8620 O.3       1 GAL        -0.3865
     10 O5         18.2900   27.9430    7.1680 O.3       1 GAL        -0.3405
     11 O6         17.4660   30.1560    5.7000 O.3       1 GAL        -0.3924
     12 C1         21.1120   29.2830   11.6870 C.3       1 NGA         0.1854
     13 C2         20.3760   28.0840   11.0890 C.3       1 NGA         0.1213
     14 C3         20.0290   28.3440    9.6240 C.3       1 NGA         0.1176
     15 C4         19.2130   29.6350    9.5400 C.3       1 NGA         0.1120
     16 C5         19.9750   30.7730   10.2230 C.3       1 NGA         0.1130
     17 C6         19.1120   32.0360   10.1890 C.3       1 NGA         0.0730
     18 C7         20.7180   25.6920   11.4870 C.2       1 NGA         0.1733
     19 C8         21.7380   24.5530   11.5320 C.3       1 NGA         0.0257
     20 N2         21.2200   26.8830   11.1760 N.am      1 NGA        -0.2766
     21 O3         19.3090   27.2060    9.1290 O.3       1 NGA        -0.3403
     22 O4         17.9510   29.4500   10.1880 O.3       1 NGA        -0.3865
     23 O5         20.2580   30.4340   11.5910 O.3       1 NGA        -0.3408
     24 O6         19.8040   33.1090   10.8330 O.3       1 NGA        -0.3924
     25 O7         19.5280   25.4860   11.7260 O.2       1 NGA        -0.3974
     26 C1         22.9670   27.6700   15.6910 C.3       1 GAL         0.1884
     27 C2         23.3470   27.3090   14.2530 C.3       1 GAL         0.1344
     28 C3         23.6840   28.5170   13.3780 C.3       1 GAL         0.1200
     29 C4         22.5820   29.5540   13.5250 C.3       1 GAL         0.1186
     30 C5         22.4100   29.8770   15.0000 C.3       1 GAL         0.1134
     31 C6         21.3700   30.9910   15.1390 C.3       1 GAL         0.0730
     32 O2         24.4740   26.4280   14.2740 O.3       1 GAL        -0.3841
     33 O3         23.6950   27.9960   12.0400 O.3       1 GAL        -0.3380
     34 O4         21.3420   28.9890   13.0730 O.3       1 GAL        -0.3404
     35 O5         21.9680   28.7030   15.7020 O.3       1 GAL        -0.3405
     36 O6         21.1640   31.2910   16.5220 O.3       1 GAL        -0.3924
     37 C2         20.7680   25.3990   19.3830 C.3       1 BGC         0.1339
     38 C3         20.8750   25.7960   17.9090 C.3       1 BGC         0.1144
     39 C4         22.2720   26.3350   17.5890 C.3       1 BGC         0.1184
     40 C5         23.2850   25.2920   18.0400 C.3       1 BGC         0.1134
     41 C6         24.7030   25.7850   17.7460 C.3       1 BGC         0.0730
     42 C1         21.8820   24.4100   19.7290 C.3       1 BGC         0.1854
     43 O1         21.8240   24.0840   21.1210 O.3       1 BGC        -0.3649
     44 O2         19.5000   24.7720   19.5970 O.3       1 BGC        -0.3841
     45 O3         19.8930   26.7890   17.6040 O.3       1 BGC        -0.3864
     46 O4         22.3560   26.4590   16.1620 O.3       1 BGC        -0.3401
     47 O5         23.1550   25.0110   19.4430 O.3       1 BGC        -0.3407
     48 O6         24.9380   26.9980   18.4660 O.3       1 BGC        -0.3924
     49 C1         24.3030   28.0990    9.7490 C.2       1 SIA         0.1041
     50 C2         24.6350   28.6070   11.1540 C.3       1 SIA         0.2208
     51 C3         26.0600   28.2040   11.5430 C.3       1 SIA         0.0353
     52 C4         27.0520   28.8730   10.5880 C.3       1 SIA         0.0850
     53 C5         26.8230   30.3850   10.5650 C.3       1 SIA         0.0964
     54 C6         25.3580   30.6470   10.2130 C.3       1 SIA         0.1143
     55 C7         25.0470   32.1440   10.1450 C.3       1 SIA         0.1114
     56 C8         23.5550   32.3480    9.8720 C.3       1 SIA         0.1065
     57 C9         23.2170   33.8280    9.6800 C.3       1 SIA         0.0727
     58 C10        28.7450   31.7430    9.8640 C.2       1 SIA         0.1733
     59 C11        29.5590   32.2620    8.6790 C.3       1 SIA         0.0257
     60 N5         27.7020   30.9910    9.5490 N.am      1 SIA        -0.2790
     61 O1A        24.7900   26.9960    9.4140 O.co2     1 SIA        -0.5426
     62 O1B        23.5460   28.8050    9.0510 O.co2     1 SIA        -0.5426
     63 O4         28.3920   28.5900   10.9980 O.3       1 SIA        -0.3893
     64 O6         24.5120   30.0330   11.1990 O.3       1 SIA        -0.3384
     65 O7         25.3900   32.7570   11.3900 O.3       1 SIA        -0.3865
     66 O8         23.1670   31.6030    8.7160 O.3       1 SIA        -0.3869
     67 O9         21.8170   33.9660    9.4230 O.3       1 SIA        -0.3924
     68 O10        29.0810   32.0130   11.0250 O.2       1 SIA        -0.3974
     69 H          20.3045   27.5086    7.3040 H         1 GAL         0.0938
     70 H          18.2104   25.3308    7.7578 H         1 GAL         0.0671
     71 H          19.9828   25.7629    5.3257 H         1 GAL         0.0648
     72 H          17.8787   26.4044    4.2041 H         1 GAL         0.0647
     73 H          19.2033   28.1628    5.3109 H         1 GAL         0.0647
     74 H          16.1869   28.5290    5.6286 H         1 GAL         0.0584
     75 H          17.1227   28.8244    4.1516 H         1 GAL         0.0584
     76 H          20.0653   23.9604    7.6234 H         1 GAL         0.2101
     77 H          17.8599   23.9372    5.9197 H         1 GAL         0.2100
     78 H          16.4928   25.1338    5.5850 H         1 GAL         0.2100
     79 H          17.4928   30.1616    6.6596 H         1 GAL         0.2095
     80 H          22.0504   29.4755   11.1669 H         1 GAL         0.0935
     81 H          19.4563   27.9310   11.6537 H         1 GAL         0.0633
     82 H          20.9189   28.4754    9.0085 H         1 GAL         0.0649
     83 H          19.0491   29.8873    8.4923 H         1 GAL         0.0647
     84 H          20.9154   30.9404    9.6978 H         1 GAL         0.0647
     85 H          18.1734   31.8468   10.7098 H         1 GAL         0.0584
     86 H          18.9084   32.3071    9.1531 H         1 GAL         0.0584
     87 H          21.7506   24.1175   12.5311 H         1 GAL         0.0467
     88 H          21.4606   23.7897   10.8050 H         1 GAL         0.0467
     89 H          22.7271   24.9430   11.2918 H         1 GAL         0.0467
     90 H          22.2199   26.9662   10.9923 H         1 GAL         0.1857
     91 H          18.0958   29.2301   11.1112 H         1 GAL         0.2100
     92 H          19.2594   33.8992   10.8096 H         1 GAL         0.2095
     93 H          23.8156   28.0206   16.2784 H         1 GAL         0.0938
     94 H          22.4698   26.8357   13.8120 H         1 GAL         0.0671
     95 H          24.6289   28.9914   13.6430 H         1 GAL         0.0650
     96 H          22.8415   30.4426   12.9495 H         1 GAL         0.0651
     97 H          23.3589   30.2041   15.4250 H         1 GAL         0.0647
     98 H          20.4291   30.6630   14.6972 H         1 GAL         0.0584
     99 H          21.7272   31.8838   14.6257 H         1 GAL         0.0584
    100 H          24.2725   25.6654   14.8213 H         1 GAL         0.2101
    101 H          20.8508   30.5050   16.9756 H         1 GAL         0.2095
    102 H          20.8623   26.2838   20.0126 H         1 GAL         0.0671
    103 H          20.6999   24.9093   17.2998 H         1 GAL         0.0648
    104 H          22.4611   27.2895   18.0802 H         1 GAL         0.0651
    105 H          23.0913   24.3727   17.4873 H         1 GAL         0.0647
    106 H          24.8126   25.9672   16.6769 H         1 GAL         0.0584
    107 H          25.4247   25.0295   18.0568 H         1 GAL         0.0584
    108 H          21.7551   23.5039   19.1365 H         1 GAL         0.0935
    109 H          22.5289   23.4680   21.3339 H         1 GAL         0.2126
    110 H          19.4290   23.9963   19.0358 H         1 GAL         0.2101
    111 H          20.0596   27.5744   18.1303 H         1 GAL         0.2100
    112 H          24.8420   26.8340   19.4070 H         1 GAL         0.2095
    113 H          26.1640   27.1209   11.4781 H         1 GAL         0.0336
    114 H          26.2641   28.5239   12.5648 H         1 GAL         0.0336
    115 H          26.8956   28.4768    9.5847 H         1 GAL         0.0618
    116 H          27.0507   30.8216   11.5374 H         1 GAL         0.0608
    117 H          25.1705   30.2185    9.2285 H         1 GAL         0.0646
    118 H          25.6269   32.5977    9.3413 H         1 GAL         0.0647
    119 H          23.0013   31.9893   10.7397 H         1 GAL         0.0643
    120 H          23.7827   34.2241    8.8367 H         1 GAL         0.0584
    121 H          23.4776   34.3809   10.5825 H         1 GAL         0.0584
    122 H          29.5715   33.3518    8.6979 H         1 GAL         0.0467
    123 H          30.5792   31.8844    8.7475 H         1 GAL         0.0467
    124 H          29.1047   31.9186    7.7496 H         1 GAL         0.0467
    125 H          27.4985   30.8243    8.5635 H         1 GAL         0.1856
    126 H          28.5279   27.6398   11.0099 H         1 GAL         0.2099
    127 H          24.8767   32.3558   12.0951 H         1 GAL         0.2100
    128 H          23.3830   30.6768    8.8462 H         1 GAL         0.2100
    129 H          21.3203   33.6170   10.1667 H         1 GAL         0.2095
@<TRIPOS>BOND
     1    1    2 1  
     2    1   10 1  
     3   21    1 1  
     4    2    3 1  
     5    2    7 1  
     6    3    4 1  
     7    3    8 1  
     8    5    4 1  
     9    4    9 1  
    10    5    6 1  
    11   10    5 1  
    12    6   11 1  
    13   12   13 1  
    14   12   23 1  
    15   34   12 1  
    16   13   14 1  
    17   13   20 1  
    18   14   15 1  
    19   14   21 1  
    20   16   15 1  
    21   15   22 1  
    22   16   17 1  
    23   23   16 1  
    24   17   24 1  
    25   18   19 1  
    26   20   18 am 
    27   18   25 2  
    28   27   26 1  
    29   26   35 1  
    30   26   46 1  
    31   28   27 1  
    32   27   32 1  
    33   28   29 1  
    34   33   28 1  
    35   29   30 1  
    36   29   34 1  
    37   30   31 1  
    38   30   35 1  
    39   31   36 1  
    40   50   33 1  
    41   38   37 1  
    42   37   42 1  
    43   37   44 1  
    44   39   38 1  
    45   38   45 1  
    46   39   40 1  
    47   46   39 1  
    48   40   41 1  
    49   40   47 1  
    50   41   48 1  
    51   42   43 1  
    52   47   42 1  
    53   50   49 1  
    54   49   61 ar 
    55   49   62 ar 
    56   51   50 1  
    57   64   50 1  
    58   52   51 1  
    59   53   52 1  
    60   52   63 1  
    61   53   54 1  
    62   60   53 1  
    63   54   55 1  
    64   54   64 1  
    65   55   56 1  
    66   55   65 1  
    67   56   57 1  
    68   56   66 1  
    69   57   67 1  
    70   58   59 1  
    71   58   60 am 
    72   58   68 2  
    73    1   69 1  
    74    2   70 1  
    75    3   71 1  
    76    4   72 1  
    77    5   73 1  
    78    6   74 1  
    79    6   75 1  
    80    7   76 1  
    81    8   77 1  
    82    9   78 1  
    83   11   79 1  
    84   12   80 1  
    85   13   81 1  
    86   14   82 1  
    87   15   83 1  
    88   16   84 1  
    89   17   85 1  
    90   17   86 1  
    91   19   87 1  
    92   19   88 1  
    93   19   89 1  
    94   20   90 1  
    95   22   91 1  
    96   24   92 1  
    97   26   93 1  
    98   27   94 1  
    99   28   95 1  
   100   29   96 1  
   101   30   97 1  
   102   31   98 1  
   103   31   99 1  
   104   32  100 1  
   105   36  101 1  
   106   37  102 1  
   107   38  103 1  
   108   39  104 1  
   109   40  105 1  
   110   41  106 1  
   111   41  107 1  
   112   42  108 1  
   113   43  109 1  
   114   44  110 1  
   115   45  111 1  
   116   48  112 1  
   117   51  113 1  
   118   51  114 1  
   119   52  115 1  
   120   53  116 1  
   121   54  117 1  
   122   55  118 1  
   123   56  119 1  
   124   57  120 1  
   125   57  121 1  
   126   59  122 1  
   127   59  123 1  
   128   59  124 1  
   129   60  125 1  
   130   63  126 1  
   131   65  127 1  
   132   66  128 1  
   133   67  129 1  
@<TRIPOS>SUBSTRUCTURE
     1 GAL         1

