6dvl_ligand
  -I-interpret- 

 63 65  0  0  0  0  0  0  0  0999 V2000
  -10.5840    6.0180  -46.0430 C   0  0  0  0  0
  -11.3330    5.9400  -44.7170 C   0  0  0  0  0
  -10.6660    5.7060  -43.5080 C   0  0  0  0  0
  -11.3440    5.6310  -42.2780 C   0  0  0  0  0
  -10.5930    5.3810  -41.0040 C   0  0  0  0  0
  -12.7370    5.8020  -42.2800 C   0  0  0  0  0
  -13.4670    6.0430  -43.4620 C   0  0  0  0  0
  -14.9950    6.2190  -43.4080 C   0  0  0  0  0
  -17.4180    5.4950  -43.8870 C   0  0  0  0  0
  -18.1020    6.6260  -44.7140 C   0  0  0  0  0
  -17.9680    8.2770  -46.6970 C   0  0  0  0  0
  -18.4280    7.7570  -48.0560 C   0  0  0  0  0
  -19.0630    8.8370  -48.8850 C   0  0  0  0  0
  -18.0670    9.9220  -49.2580 C   0  0  0  0  0
  -17.1250   10.3730  -48.1000 C   0  0  0  0  0
  -16.8710    9.3600  -46.9450 C   0  0  0  0  0
  -15.3850    4.0800  -44.6450 C   0  0  0  0  0
  -15.5160    2.7590  -43.9120 C   0  0  0  0  0
  -15.8930    2.7060  -42.5690 C   0  0  0  0  0
  -16.0280    1.4990  -41.8700 C   0  0  0  0  0
  -15.7890    0.2450  -42.4820 C   0  0  0  0  0
  -15.9430   -1.0350  -41.6930 C   0  0  0  0  0
  -15.4120    0.3200  -43.8200 C   0  0  0  0  0
  -15.2770    1.5200  -44.5160 C   0  0  0  0  0
  -12.7250    6.1050  -44.6590 C   0  0  0  0  0
  -15.9420    5.2740  -43.9730 N   0  0  0  0  0
  -17.4740    7.2010  -45.8230 N   0  0  0  0  0
  -16.5560   -1.0290  -40.4160 N   0  0  0  0  0
  -15.4740    7.1890  -42.8500 O   0  0  0  0  0
  -19.2080    7.0110  -44.3690 O   0  0  0  0  0
  -15.5430   -2.1010  -42.1310 O   0  0  0  0  0
  -16.6870   -2.1900  -39.7190 O   0  0  0  0  0
   -9.8568    6.8288  -46.0009 H   0  0  0  0  0
  -10.0684    5.0748  -46.2236 H   0  0  0  0  0
  -11.2933    6.2059  -46.8490 H   0  0  0  0  0
   -9.5837    5.5775  -43.5207 H   0  0  0  0  0
  -10.0748    4.4244  -41.0709 H   0  0  0  0  0
   -9.8668    6.1790  -40.8493 H   0  0  0  0  0
  -11.2935    5.3586  -40.1692 H   0  0  0  0  0
  -13.2742    5.7465  -41.3332 H   0  0  0  0  0
  -17.8493    4.5759  -44.2837 H   0  0  0  0  0
  -17.5847    5.7846  -42.8495 H   0  0  0  0  0
  -18.8177    8.7132  -46.1718 H   0  0  0  0  0
  -19.1686    6.9749  -47.8892 H   0  0  0  0  0
  -17.5552    7.3841  -48.5920 H   0  0  0  0  0
  -19.8622    9.2923  -48.3001 H   0  0  0  0  0
  -19.4391    8.3869  -49.8038 H   0  0  0  0  0
  -18.6476   10.7965  -49.5518 H   0  0  0  0  0
  -17.4303    9.5107  -50.0413 H   0  0  0  0  0
  -17.6172   11.2285  -47.6374 H   0  0  0  0  0
  -16.1522   10.5419  -48.5617 H   0  0  0  0  0
  -15.9701    8.8126  -47.2223 H   0  0  0  0  0
  -16.8282    9.9543  -46.0323 H   0  0  0  0  0
  -15.9504    3.9662  -45.5699 H   0  0  0  0  0
  -14.3149    4.2633  -44.7422 H   0  0  0  0  0
  -16.0901    3.6403  -42.0433 H   0  0  0  0  0
  -16.3264    1.5265  -40.8220 H   0  0  0  0  0
  -15.2116   -0.6100  -44.3521 H   0  0  0  0  0
  -14.9759    1.4922  -45.5632 H   0  0  0  0  0
  -13.2615    6.2911  -45.5894 H   0  0  0  0  0
  -16.5545    6.8262  -46.0565 H   0  0  0  0  0
  -16.8992   -0.1543  -40.0191 H   0  0  0  0  0
  -17.1198   -2.0117  -38.8809 H   0  0  0  0  0
  2  1  1  0  0  0
  2  3  4  0  0  0
 25  2  4  0  0  0
  4  3  4  0  0  0
  4  5  1  0  0  0
  6  4  4  0  0  0
  7  6  4  0  0  0
  8  7  1  0  0  0
  7 25  4  0  0  0
 26  8  1  0  0  0
  8 29  2  0  0  0
  9 10  1  0  0  0
 26  9  1  0  0  0
 10 27  1  0  0  0
 10 30  2  0  0  0
 11 12  1  0  0  0
 11 16  1  0  0  0
 27 11  1  0  0  0
 12 13  1  0  0  0
 13 14  1  0  0  0
 15 14  1  0  0  0
 16 15  1  0  0  0
 17 18  1  0  0  0
 17 26  1  0  0  0
 18 19  4  0  0  0
 18 24  4  0  0  0
 19 20  4  0  0  0
 20 21  4  0  0  0
 21 22  1  0  0  0
 21 23  4  0  0  0
 22 28  1  0  0  0
 22 31  2  0  0  0
 23 24  4  0  0  0
 28 32  1  0  0  0
  1 33  1  0  0  0
  1 34  1  0  0  0
  1 35  1  0  0  0
  3 36  1  0  0  0
  5 37  1  0  0  0
  5 38  1  0  0  0
  5 39  1  0  0  0
  6 40  1  0  0  0
  9 41  1  0  0  0
  9 42  1  0  0  0
 11 43  1  0  0  0
 12 44  1  0  0  0
 12 45  1  0  0  0
 13 46  1  0  0  0
 13 47  1  0  0  0
 14 48  1  0  0  0
 14 49  1  0  0  0
 15 50  1  0  0  0
 15 51  1  0  0  0
 16 52  1  0  0  0
 16 53  1  0  0  0
 17 54  1  0  0  0
 17 55  1  0  0  0
 19 56  1  0  0  0
 20 57  1  0  0  0
 23 58  1  0  0  0
 24 59  1  0  0  0
 25 60  1  0  0  0
 27 61  1  0  0  0
 28 62  1  0  0  0
 32 63  1  0  0  0
M  END
$$$$
