5umx_ligand
  -I-interpret- 

 47 49  0  0  0  0  0  0  0  0999 V2000
   10.6790   -4.9510    7.9630 N   0  0  0  0  0
   11.4450   -4.7540    9.0740 C   0  0  0  0  0
   12.2520   -5.6610    9.4410 O   0  0  0  0  0
   11.3640   -3.6240    9.8130 N   0  0  0  0  0
   10.5230   -2.6220    9.5090 C   0  0  0  0  0
   10.4640   -1.5940   10.2330 O   0  0  0  0  0
    9.6630   -2.7580    8.2970 C   0  0  0  0  0
    8.7980   -1.7770    7.9400 N   0  0  0  0  0
    8.0300   -1.9550    6.8340 C   0  0  0  0  0
    7.1670   -0.9250    6.4970 C   0  0  0  0  0
    6.3580   -1.0280    5.3790 C   0  0  0  0  0
    5.4090    0.0990    5.0330 C   0  0  0  0  0
    6.4130   -2.2690    4.5650 C   0  0  0  0  0
    5.5210   -2.4180    3.3680 C   0  0  0  0  0
    7.2710   -3.3060    4.8960 C   0  0  0  0  0
    8.1050   -3.2130    6.0120 C   0  0  0  0  0
    8.9940   -4.2620    6.3820 N   0  0  0  0  0
    9.7810   -4.0330    7.5330 C   0  0  0  0  0
    9.1180   -5.5580    5.6380 C   0  0  0  0  0
    9.7570   -5.5210    4.2330 C   0  0  0  0  0
    8.7670   -5.2450    3.2450 O   0  0  0  0  0
   10.3680   -6.8050    3.6800 C   0  0  0  0  0
   10.8510   -7.6380    4.7400 O   0  0  0  0  0
   11.4730   -6.4720    2.6440 C   0  0  0  0  0
   11.0650   -5.4270    1.7290 O   0  0  0  0  0
   11.9250   -7.6900    1.8270 C   0  0  0  0  0
   13.1540   -8.2290    2.3350 O   0  0  0  0  0
   11.9644   -3.5293   10.6321 H   0  0  0  0  0
    7.1250   -0.0287    7.1158 H   0  0  0  0  0
    4.7097    0.2489    5.8556 H   0  0  0  0  0
    5.9783    1.0136    4.8672 H   0  0  0  0  0
    4.8580   -0.1567    4.1280 H   0  0  0  0  0
    4.4793   -2.3529    3.6824 H   0  0  0  0  0
    5.7369   -1.6229    2.6544 H   0  0  0  0  0
    5.7010   -3.3861    2.9006 H   0  0  0  0  0
    7.2950   -4.2038    4.2784 H   0  0  0  0  0
    8.0962   -5.9050    5.4845 H   0  0  0  0  0
    9.7788   -6.1792    6.2426 H   0  0  0  0  0
   10.5389   -4.7788    4.3937 H   0  0  0  0  0
    9.1786   -5.2252    2.3780 H   0  0  0  0  0
    9.5938   -7.3709    3.1618 H   0  0  0  0  0
   11.2302   -8.4382    4.3692 H   0  0  0  0  0
   12.3163   -6.1268    3.2422 H   0  0  0  0  0
   11.7752   -5.2525    1.1071 H   0  0  0  0  0
   12.0828   -7.3773    0.7948 H   0  0  0  0  0
   11.1547   -8.4584    1.8930 H   0  0  0  0  0
   13.4121   -8.9876    1.8064 H   0  0  0  0  0
  1  2  1  0  0  0
  1 18  2  0  0  0
  2  3  2  0  0  0
  2  4  1  0  0  0
  4  5  1  0  0  0
  5  6  2  0  0  0
  5  7  1  0  0  0
  7  8  2  0  0  0
  7 18  1  0  0  0
  8  9  1  0  0  0
  9 10  4  0  0  0
  9 16  4  0  0  0
 10 11  4  0  0  0
 11 12  1  0  0  0
 11 13  4  0  0  0
 13 14  1  0  0  0
 13 15  4  0  0  0
 15 16  4  0  0  0
 16 17  1  0  0  0
 17 18  1  0  0  0
 17 19  1  0  0  0
 19 20  1  0  0  0
 20 21  1  0  0  0
 20 22  1  0  0  0
 22 23  1  0  0  0
 22 24  1  0  0  0
 24 25  1  0  0  0
 24 26  1  0  0  0
 26 27  1  0  0  0
  4 28  1  0  0  0
 10 29  1  0  0  0
 12 30  1  0  0  0
 12 31  1  0  0  0
 12 32  1  0  0  0
 14 33  1  0  0  0
 14 34  1  0  0  0
 14 35  1  0  0  0
 15 36  1  0  0  0
 19 37  1  0  0  0
 19 38  1  0  0  0
 20 39  1  0  0  0
 21 40  1  0  0  0
 22 41  1  0  0  0
 23 42  1  0  0  0
 24 43  1  0  0  0
 25 44  1  0  0  0
 26 45  1  0  0  0
 26 46  1  0  0  0
 27 47  1  0  0  0
M  END
$$$$
