5khj_ligand
  -I-interpret- 

 31 33  0  0  0  0  0  0  0  0999 V2000
  -18.6610    0.8210  -35.6350 N   0  0  0  0  0
  -19.1550   -0.7640  -33.5250 C   0  0  0  0  0
  -17.2890   -1.1010  -30.3240 C   0  0  0  0  0
  -17.2550   -2.5080  -29.7260 C   0  0  0  0  0
  -18.5890   -0.3530  -30.1600 C   0  0  0  0  0
  -17.7360   -2.4300  -28.3380 O   0  0  0  0  0
  -19.2270   -1.2310  -26.5030 O   0  0  0  0  0
  -19.0700   -1.6540  -27.9530 P   0  0  0  0  0
  -17.1900    1.9030  -34.3710 O   0  0  0  0  0
  -18.0130    1.0160  -34.4680 C   0  0  0  0  0
  -19.5500   -0.1370  -35.7990 C   0  0  0  0  0
  -20.1240   -0.2580  -36.9070 O   0  0  0  0  0
  -18.2520    0.2230  -33.3630 N   0  0  0  0  0
  -19.8240   -0.9590  -34.7360 C   0  0  0  0  0
  -17.4930    0.3860  -32.1100 C   0  0  0  0  0
  -18.3080    0.9210  -30.9440 C   0  0  0  0  0
  -17.5610    1.9060  -30.2040 O   0  0  0  0  0
  -17.0140   -0.9450  -31.7290 O   0  0  0  0  0
  -18.8610   -0.2130  -28.7860 O   0  0  0  0  0
  -20.2040   -2.3830  -28.6100 O   0  0  0  0  0
  -18.4548    1.4387  -36.4200 H   0  0  0  0  0
  -19.3694   -1.4286  -32.6881 H   0  0  0  0  0
  -16.4711   -0.7024  -29.7238 H   0  0  0  0  0
  -16.2382   -2.8999  -29.7485 H   0  0  0  0  0
  -17.8912   -3.1768  -30.3058 H   0  0  0  0  0
  -19.4981   -0.8227  -30.5355 H   0  0  0  0  0
  -18.4310   -0.7782  -26.2150 H   0  0  0  0  0
  -20.5582   -1.7585  -34.8351 H   0  0  0  0  0
  -16.7040    1.1128  -32.3030 H   0  0  0  0  0
  -19.2202    1.4508  -31.2182 H   0  0  0  0  0
  -18.0946    2.2288  -29.4742 H   0  0  0  0  0
 10  1  1  0  0  0
  1 11  1  0  0  0
 13  2  1  0  0  0
  2 14  2  0  0  0
  3  4  1  0  0  0
  5  3  1  0  0  0
  3 18  1  0  0  0
  4  6  1  0  0  0
 16  5  1  0  0  0
  5 19  1  0  0  0
  8  6  1  0  0  0
  8  7  1  0  0  0
 19  8  1  0  0  0
  8 20  2  0  0  0
 10  9  2  0  0  0
 13 10  1  0  0  0
 11 12  2  0  0  0
 14 11  1  0  0  0
 15 13  1  0  0  0
 15 16  1  0  0  0
 15 18  1  0  0  0
 16 17  1  0  0  0
  1 21  1  0  0  0
  2 22  1  0  0  0
  3 23  1  0  0  0
  4 24  1  0  0  0
  4 25  1  0  0  0
  5 26  1  0  0  0
  7 27  1  0  0  0
 14 28  1  0  0  0
 15 29  1  0  0  0
 16 30  1  0  0  0
 17 31  1  0  0  0
M  END
$$$$
