### 
### Created by X-TOOL on Mon Sep 10 21:13:28 2018
### 

@<TRIPOS>MOLECULE
5khj_ligand
   30    32     1     0     0
SMALL
GAST_HUCK


@<TRIPOS>ATOM
      1 N1        -18.6610    0.8210  -35.6350 N.am      1 6SY        -0.1865
      2 C2        -19.1550   -0.7640  -33.5250 C.2       1 6SY         0.0591
      3 C4        -17.2890   -1.1010  -30.3240 C.3       1 6SY         0.1242
      4 C5        -17.2550   -2.5080  -29.7260 C.3       1 6SY         0.1128
      5 C6        -18.5890   -0.3530  -30.1600 C.3       1 6SY         0.1539
      6 O2        -17.7360   -2.4300  -28.3380 O.3       1 6SY        -0.2514
      7 O4        -19.2270   -1.2310  -26.5030 O.co2     1 6SY        -0.6177
      8 P         -19.0700   -1.6540  -27.9530 P.3       1 6SY         0.2557
      9 O7        -17.1900    1.9030  -34.3710 O.2       1 6SY        -0.3815
     10 C8        -18.0130    1.0160  -34.4680 C.2       1 6SY         0.3328
     11 C         -19.5500   -0.1370  -35.7990 C.2       1 6SY         0.1822
     12 O         -20.1240   -0.2580  -36.9070 O.2       1 6SY        -0.4124
     13 N         -18.2520    0.2230  -33.3630 N.am      1 6SY        -0.1592
     14 C1        -19.8240   -0.9590  -34.7360 C.2       1 6SY         0.0062
     15 C3        -17.4930    0.3860  -32.1100 C.3       1 6SY         0.2063
     16 C7        -18.3080    0.9210  -30.9440 C.3       1 6SY         0.1440
     17 O6        -17.5610    1.9060  -30.2040 O.3       1 6SY        -0.3832
     18 O1        -17.0140   -0.9450  -31.7290 O.3       1 6SY        -0.3358
     19 O5        -18.8610   -0.2130  -28.7860 O.3       1 6SY        -0.2453
     20 O3        -20.2040   -2.3830  -28.6100 O.co2     1 6SY        -0.6177
     21 H1        -18.4588    1.4266  -36.4046 H         1 6SY         0.2259
     22 H2        -19.3693   -1.4280  -32.6889 H         1 6SY         0.1178
     23 H3        -16.5117   -0.5467  -29.7776 H         1 6SY         0.0655
     24 H4        -16.2253   -2.8945  -29.7419 H         1 6SY         0.0647
     25 H5        -17.9064   -3.1760  -30.3087 H         1 6SY         0.0647
     26 H6        -19.4258   -0.8958  -30.6238 H         1 6SY         0.0712
     27 H7        -20.5575   -1.7578  -34.8350 H         1 6SY         0.0258
     28 H8        -16.6447    1.0623  -32.2914 H         1 6SY         0.0997
     29 H9        -19.2472    1.3765  -31.2911 H         1 6SY         0.0680
     30 H10       -18.0891    2.2255  -29.4818 H         1 6SY         0.2101
@<TRIPOS>BOND
     1   10    1 am 
     2    1   11 am 
     3   13    2 1  
     4    2   14 2  
     5    3    4 1  
     6    5    3 1  
     7    3   18 1  
     8    4    6 1  
     9   16    5 1  
    10    5   19 1  
    11    8    6 1  
    12    8    7 ar 
    13   19    8 1  
    14    8   20 ar 
    15   10    9 2  
    16   13   10 am 
    17   11   12 2  
    18   14   11 1  
    19   15   13 1  
    20   15   16 1  
    21   15   18 1  
    22   16   17 1  
    23    1   21 1  
    24    2   22 1  
    25    3   23 1  
    26    4   24 1  
    27    4   25 1  
    28    5   26 1  
    29   14   27 1  
    30   15   28 1  
    31   16   29 1  
    32   17   30 1  
@<TRIPOS>SUBSTRUCTURE
     1 6SY         1

