4hvi_ligand
  -I-interpret- 

 47 50  0  0  0  0  0  0  0  0999 V2000
    5.3540  -16.0890   -5.5840 N   0  0  0  0  0
    6.1610  -15.2020   -6.4320 C   0  0  0  0  0
    7.1600  -14.5010   -5.5090 C   0  0  0  0  0
    8.0360  -15.5530   -4.8150 C   0  0  0  0  0
    7.2170  -16.6180   -4.0670 C   0  0  0  0  0
    6.0760  -17.1920   -4.9350 C   0  0  0  0  0
   -2.5350  -14.2800   -3.0510 N   0  0  0  0  0
   -1.2720  -16.1750   -3.7370 C   0  0  0  0  0
   -2.4230  -15.6060   -3.1920 C   0  0  0  0  0
   -0.2630  -15.3960   -4.1300 N   0  0  0  0  0
   -0.3650  -14.0710   -4.0040 C   0  0  0  0  0
   -1.5310  -13.4810   -3.4500 C   0  0  0  0  0
   -1.3390  -12.1110   -3.4490 N   0  0  0  0  0
   -0.1230  -11.8150   -3.9890 C   0  0  0  0  0
    0.5350  -12.9630   -4.3340 C   0  0  0  0  0
    1.8490  -13.1240   -4.9750 C   0  0  0  0  0
    2.1250  -14.3530   -5.4270 N   0  0  0  0  0
    2.6350  -12.2040   -5.1260 O   0  0  0  0  0
    3.3400  -14.7410   -6.1370 C   0  0  0  0  0
   -1.1870  -17.6730   -3.8990 C   0  0  0  0  0
   -0.4850  -18.1880   -5.1630 C   0  0  0  0  0
    0.1630  -18.3930   -3.7840 C   0  0  0  0  0
    4.0160  -15.8860   -5.4180 C   0  0  0  0  0
    2.8670  -15.2650   -7.5040 C   0  0  0  0  0
    3.3230  -16.6190   -4.7190 O   0  0  0  0  0
    5.5306  -14.4759   -6.9453 H   0  0  0  0  0
    6.6787  -15.7692   -7.2056 H   0  0  0  0  0
    6.6198  -13.9240   -4.7584 H   0  0  0  0  0
    7.7897  -13.8315   -6.0949 H   0  0  0  0  0
    8.6573  -15.0372   -4.0829 H   0  0  0  0  0
    8.6173  -16.0610   -5.5845 H   0  0  0  0  0
    6.7725  -16.1493   -3.1890 H   0  0  0  0  0
    7.8863  -17.4365   -3.8021 H   0  0  0  0  0
    6.4939  -17.8510   -5.6960 H   0  0  0  0  0
    5.3883  -17.7564   -4.3052 H   0  0  0  0  0
   -3.2432  -16.2508   -2.8764 H   0  0  0  0  0
    0.2689  -10.8072   -4.1262 H   0  0  0  0  0
    1.4282  -15.0793   -5.2616 H   0  0  0  0  0
    4.0356  -13.9051   -6.2108 H   0  0  0  0  0
   -2.1534  -17.8147   -3.4152 H   0  0  0  0  0
   -0.2070  -17.8218   -6.1513 H   0  0  0  0  0
   -0.7239  -18.7746   -6.0501 H   0  0  0  0  0
    0.6137  -19.1981   -3.2037 H   0  0  0  0  0
    1.1308  -18.2447   -3.3049 H   0  0  0  0  0
    2.2028  -16.1164   -7.3553 H   0  0  0  0  0
    2.3331  -14.4736   -8.0301 H   0  0  0  0  0
    3.7311  -15.5749   -8.0917 H   0  0  0  0  0
  1  2  1  0  0  0
  1  6  1  0  0  0
 23  1  1  0  0  0
  2  3  1  0  0  0
  3  4  1  0  0  0
  5  4  1  0  0  0
  6  5  1  0  0  0
  7  9  4  0  0  0
 12  7  4  0  0  0
  8  9  4  0  0  0
 10  8  4  0  0  0
  8 20  1  0  0  0
 11 10  4  0  0  0
 11 12  4  0  0  0
 15 11  4  0  0  0
 13 12  4  0  0  0
 14 13  4  0  0  0
 15 14  4  0  0  0
 16 15  1  0  0  0
 17 16  1  0  0  0
 16 18  2  0  0  0
 19 17  1  0  0  0
 19 23  1  0  0  0
 19 24  1  0  0  0
 20 21  1  0  0  0
 20 22  1  0  0  0
 21 22  1  0  0  0
 23 25  2  0  0  0
  2 26  1  0  0  0
  2 27  1  0  0  0
  3 28  1  0  0  0
  3 29  1  0  0  0
  4 30  1  0  0  0
  4 31  1  0  0  0
  5 32  1  0  0  0
  5 33  1  0  0  0
  6 34  1  0  0  0
  6 35  1  0  0  0
  9 36  1  0  0  0
 14 37  1  0  0  0
 17 38  1  0  0  0
 19 39  1  0  0  0
 20 40  1  0  0  0
 21 41  1  0  0  0
 21 42  1  0  0  0
 22 43  1  0  0  0
 22 44  1  0  0  0
 24 45  1  0  0  0
 24 46  1  0  0  0
 24 47  1  0  0  0
M  END
$$$$
