3u4o_ligand
  -I-interpret- 

 43 46  0  0  0  0  0  0  0  0999 V2000
   25.8760   41.9110   46.3980 C   0  0  0  0  0
   25.7760   41.8360   47.7910 C   0  0  0  0  0
   27.4090   42.7130   41.5880 C   0  0  0  0  0
   24.4570   43.8860   47.8680 C   0  0  0  0  0
   27.6690   44.2720   43.4290 C   0  0  0  0  0
   28.5100   43.3100   41.0180 C   0  0  0  0  0
   24.5380   43.9790   46.4570 C   0  0  0  0  0
   24.0330   44.8860   45.4860 C   0  0  0  0  0
   26.9790   43.2020   42.8200 C   0  0  0  0  0
   25.2480   42.9950   45.7660 C   0  0  0  0  0
   25.0850   42.8110   48.5130 C   0  0  0  0  0
   24.4430   44.4640   44.2190 C   0  0  0  0  0
   28.7710   44.8190   42.7730 C   0  0  0  0  0
   22.6090   48.0220   47.0800 C   0  0  0  0  0
   23.4820   46.8970   46.7950 C   0  0  0  0  0
   21.5080   48.2100   46.3300 C   0  0  0  0  0
   23.2150   46.0250   45.7950 C   0  0  0  0  0
   21.9460   46.2330   44.9860 C   0  0  0  0  0
   24.2290   44.9900   42.8740 C   0  0  0  0  0
   25.7840   42.5140   43.4020 C   0  0  0  0  0
   29.1940   44.3460   41.5710 N   0  0  0  0  0
   25.1660   43.3180   44.4430 N   0  0  0  0  0
   21.1880   47.3310   45.3190 N   0  0  0  0  0
   29.4780   45.8700   43.3530 N   0  0  0  0  0
   21.6130   45.4410   44.0750 O   0  0  0  0  0
   23.9820   44.3320   41.8760 O   0  0  0  0  0
   24.1920   46.3310   42.8370 O   0  0  0  0  0
   24.9680   42.6760   50.2400 Cl  0  0  0  0  0
   26.4194   41.1583   45.8268 H   0  0  0  0  0
   26.2436   41.0055   48.3199 H   0  0  0  0  0
   26.8930   41.8892   41.0948 H   0  0  0  0  0
   23.9156   44.6374   48.4428 H   0  0  0  0  0
   27.3465   44.6633   44.3939 H   0  0  0  0  0
   28.8568   42.9262   40.0586 H   0  0  0  0  0
   22.8436   48.7078   47.8941 H   0  0  0  0  0
   24.3754   46.7511   47.4022 H   0  0  0  0  0
   20.8627   49.0666   46.5244 H   0  0  0  0  0
   24.2801   46.2119   45.9323 H   0  0  0  0  0
   26.1067   41.5691   43.8392 H   0  0  0  0  0
   25.0546   42.3548   42.6078 H   0  0  0  0  0
   29.1896   46.2402   44.2586 H   0  0  0  0  0
   30.2840   46.2693   42.8720 H   0  0  0  0  0
   24.4111   46.6801   43.7040 H   0  0  0  0  0
  1  2  4  0  0  0
 10  1  4  0  0  0
  2 11  4  0  0  0
  3  6  4  0  0  0
  9  3  4  0  0  0
  7  4  4  0  0  0
  4 11  4  0  0  0
  9  5  4  0  0  0
  5 13  4  0  0  0
  6 21  4  0  0  0
  8  7  4  0  0  0
 10  7  4  0  0  0
 12  8  4  0  0  0
  8 17  1  0  0  0
 20  9  1  0  0  0
 22 10  4  0  0  0
 11 28  1  0  0  0
 12 19  1  0  0  0
 22 12  4  0  0  0
 13 21  4  0  0  0
 13 24  1  0  0  0
 15 14  2  0  0  0
 14 16  1  0  0  0
 17 15  1  0  0  0
 23 16  2  0  0  0
 17 18  1  0  0  0
 18 23  1  0  0  0
 18 25  2  0  0  0
 19 26  2  0  0  0
 19 27  1  0  0  0
 20 22  1  0  0  0
  1 29  1  0  0  0
  2 30  1  0  0  0
  3 31  1  0  0  0
  4 32  1  0  0  0
  5 33  1  0  0  0
  6 34  1  0  0  0
 14 35  1  0  0  0
 15 36  1  0  0  0
 16 37  1  0  0  0
 17 38  1  0  0  0
 20 39  1  0  0  0
 20 40  1  0  0  0
 24 41  1  0  0  0
 24 42  1  0  0  0
 27 43  1  0  0  0
M  END
$$$$
