2z92_ligand
  -I-interpret- 

 58 62  0  0  0  0  0  0  0  0999 V2000
  -17.9460    7.3040  -39.1180 O   0  0  0  0  0
  -17.3270    7.7870  -37.9190 C   0  0  0  0  0
  -18.3570    8.5560  -37.1400 C   0  0  0  0  0
  -17.9860    9.4420  -36.0900 C   0  0  0  0  0
  -16.6740    9.6250  -35.7420 C   0  0  0  0  0
  -16.3370    8.8150  -34.4810 C   0  0  0  0  0
  -17.4650    8.9890  -33.6090 O   0  0  0  0  0
  -17.0170    8.6860  -32.2820 C   0  0  0  0  0
  -17.5770    9.6660  -31.2470 C   0  0  0  0  0
  -16.9630    9.3530  -29.8800 C   0  0  0  0  0
  -17.5850   10.1810  -28.8870 O   0  0  0  0  0
  -17.0770    9.9820  -27.5580 C   0  0  0  0  0
  -17.8680   11.0270  -26.7660 C   0  0  0  0  0
  -17.7750   11.0030  -25.3860 C   0  0  0  0  0
  -17.2360   10.0750  -24.4980 C   0  0  0  0  0
  -16.6270    8.8440  -24.7290 C   0  0  0  0  0
  -16.3660    8.2830  -26.0180 O   0  0  0  0  0
  -17.2910    8.5420  -27.0920 C   0  0  0  0  0
  -16.7830    7.5700  -28.1370 C   0  0  0  0  0
  -17.2260    6.2380  -27.8100 O   0  0  0  0  0
  -17.2530    7.8970  -29.5600 C   0  0  0  0  0
  -16.5620    7.0610  -30.4960 O   0  0  0  0  0
  -17.1650    7.2620  -31.7820 C   0  0  0  0  0
  -16.7820    6.2550  -32.6900 C   0  0  0  0  0
  -16.4110    6.2910  -33.9940 C   0  0  0  0  0
  -16.3950    7.3760  -34.9160 C   0  0  0  0  0
  -15.8310    7.0200  -36.1810 O   0  0  0  0  0
  -16.8240    6.5700  -37.1090 C   0  0  0  0  0
  -16.1210    5.6090  -38.0610 C   0  0  0  0  0
  -14.9730    6.2590  -38.6200 O   0  0  0  0  0
  -18.2648    8.0479  -39.6342 H   0  0  0  0  0
  -16.4825    8.4403  -38.1383 H   0  0  0  0  0
  -19.4119    8.4323  -37.3848 H   0  0  0  0  0
  -18.7619    9.9862  -35.5516 H   0  0  0  0  0
  -16.5041   10.6827  -35.5407 H   0  0  0  0  0
  -16.0389    9.2877  -36.5611 H   0  0  0  0  0
  -15.3881    9.0952  -34.0236 H   0  0  0  0  0
  -15.9395    8.8077  -32.3924 H   0  0  0  0  0
  -18.6611    9.5652  -31.1946 H   0  0  0  0  0
  -17.3287   10.6872  -31.5361 H   0  0  0  0  0
  -15.8890    9.5385  -29.8903 H   0  0  0  0  0
  -16.0003   10.1111  -27.4482 H   0  0  0  0  0
  -18.4857   11.7674  -27.2743 H   0  0  0  0  0
  -18.2063   11.8783  -24.9003 H   0  0  0  0  0
  -17.3018   10.3595  -23.4479 H   0  0  0  0  0
  -16.3254    8.2621  -23.8581 H   0  0  0  0  0
  -18.3490    8.4277  -26.8559 H   0  0  0  0  0
  -15.6960    7.6494  -28.1244 H   0  0  0  0  0
  -16.9035    5.6230  -28.4728 H   0  0  0  0  0
  -18.3262    7.7195  -29.6298 H   0  0  0  0  0
  -18.2437    7.1470  -31.6759 H   0  0  0  0  0
  -16.7843    5.2528  -32.2613 H   0  0  0  0  0
  -16.0713    5.3385  -34.4007 H   0  0  0  0  0
  -17.4680    7.5144  -35.0485 H   0  0  0  0  0
  -17.6634    6.0932  -36.6028 H   0  0  0  0  0
  -16.8036    5.3193  -38.8599 H   0  0  0  0  0
  -15.8091    4.7171  -37.5176 H   0  0  0  0  0
  -14.5268    5.6574  -39.2205 H   0  0  0  0  0
  1  2  1  0  0  0
  2  3  1  0  0  0
  2 28  1  0  0  0
  3  4  2  0  0  0
  4  5  1  0  0  0
  5  6  1  0  0  0
  6  7  1  0  0  0
  6 26  1  0  0  0
  7  8  1  0  0  0
  8  9  1  0  0  0
  8 23  1  0  0  0
  9 10  1  0  0  0
 10 11  1  0  0  0
 10 21  1  0  0  0
 11 12  1  0  0  0
 12 13  1  0  0  0
 12 18  1  0  0  0
 13 14  2  0  0  0
 14 15  1  0  0  0
 15 16  2  0  0  0
 16 17  1  0  0  0
 17 18  1  0  0  0
 18 19  1  0  0  0
 19 20  1  0  0  0
 19 21  1  0  0  0
 21 22  1  0  0  0
 22 23  1  0  0  0
 23 24  1  0  0  0
 24 25  2  0  0  0
 25 26  1  0  0  0
 26 27  1  0  0  0
 27 28  1  0  0  0
 28 29  1  0  0  0
 29 30  1  0  0  0
  1 31  1  0  0  0
  2 32  1  0  0  0
  3 33  1  0  0  0
  4 34  1  0  0  0
  5 35  1  0  0  0
  5 36  1  0  0  0
  6 37  1  0  0  0
  8 38  1  0  0  0
  9 39  1  0  0  0
  9 40  1  0  0  0
 10 41  1  0  0  0
 12 42  1  0  0  0
 13 43  1  0  0  0
 14 44  1  0  0  0
 15 45  1  0  0  0
 16 46  1  0  0  0
 18 47  1  0  0  0
 19 48  1  0  0  0
 20 49  1  0  0  0
 21 50  1  0  0  0
 23 51  1  0  0  0
 24 52  1  0  0  0
 25 53  1  0  0  0
 26 54  1  0  0  0
 28 55  1  0  0  0
 29 56  1  0  0  0
 29 57  1  0  0  0
 30 58  1  0  0  0
M  END
$$$$
