5wa7_ligand
  -I-interpret- 

 63 66  0  0  0  0  0  0  0  0999 V2000
  490.1770  195.9600  561.4240 C   0  0  0  0  0
  491.3380  193.3730  552.0110 C   0  0  0  0  0
  491.0440  192.3000  552.8180 C   0  0  0  0  0
  491.6560  192.1550  554.0510 C   0  0  0  0  0
  489.6920  193.8810  560.3300 C   0  0  0  0  0
  488.7520  192.7240  560.0570 C   0  0  0  0  0
  489.2640  191.9140  557.7320 C   0  0  0  0  0
  489.3100  193.3010  557.1420 C   0  0  0  0  0
  487.9590  193.8340  556.6850 C   0  0  0  0  0
  487.3740  194.8820  557.6030 C   0  0  0  0  0
  486.1750  194.6730  558.2810 C   0  0  0  0  0
  491.4140  195.9330  560.7860 C   0  0  0  0  0
  485.6350  195.6330  559.1160 C   0  0  0  0  0
  486.2830  196.8320  559.2930 C   0  0  0  0  0
  487.4660  197.0750  558.6420 C   0  0  0  0  0
  488.0010  196.1100  557.8060 C   0  0  0  0  0
  489.7500  190.5280  559.7180 C   0  0  0  0  0
  489.7360  190.8870  561.1860 C   0  0  0  0  0
  488.5250  191.8030  561.2670 C   0  0  0  0  0
  491.7290  194.8970  559.9590 C   0  0  0  0  0
  493.0640  194.8640  559.2640 C   0  0  0  0  0
  494.4220  193.7490  557.5610 C   0  0  0  0  0
  494.1340  193.9470  556.0940 C   0  0  0  0  0
  492.5750  193.1040  554.4710 C   0  0  0  0  0
  492.8720  194.1900  553.6610 C   0  0  0  0  0
  492.2480  194.3130  552.4310 C   0  0  0  0  0
  493.2280  193.8810  558.3810 N   0  0  0  0  0
  490.8870  193.8780  559.7360 N   0  0  0  0  0
  489.2570  191.7510  559.0670 N   0  0  0  0  0
  489.3300  194.9020  561.1690 N   0  0  0  0  0
  489.8180  196.8670  562.1880 O   0  0  0  0  0
  492.2320  196.9650  561.0370 O   0  0  0  0  0
  493.1770  192.9640  555.6920 O   0  0  0  0  0
  493.9180  195.7160  559.5050 O   0  0  0  0  0
  489.2150  190.9260  557.0050 O   0  0  0  0  0
  489.5080  196.4820  557.0040 Cl  0  0  0  0  0
  490.8511  193.4779  551.0414 H   0  0  0  0  0
  490.3215  191.5556  552.4836 H   0  0  0  0  0
  491.4174  191.3020  554.6862 H   0  0  0  0  0
  487.8624  193.2639  559.7327 H   0  0  0  0  0
  489.9501  193.2532  556.2610 H   0  0  0  0  0
  489.6704  193.9698  557.9237 H   0  0  0  0  0
  487.2662  192.9926  556.6694 H   0  0  0  0  0
  488.1066  194.3010  555.7112 H   0  0  0  0  0
  485.6489  193.7275  558.1495 H   0  0  0  0  0
  484.6957  195.4392  559.6339 H   0  0  0  0  0
  485.8571  197.5898  559.9506 H   0  0  0  0  0
  487.9827  198.0244  558.7825 H   0  0  0  0  0
  489.1362  189.6558  559.4930 H   0  0  0  0  0
  490.7393  190.2348  559.3667 H   0  0  0  0  0
  490.6590  191.3553  561.5279 H   0  0  0  0  0
  489.6710  190.0210  561.8448 H   0  0  0  0  0
  487.5741  191.2711  561.2368 H   0  0  0  0  0
  488.4469  192.3386  562.2131 H   0  0  0  0  0
  495.1323  194.5149  557.8724 H   0  0  0  0  0
  494.8146  192.7411  557.6954 H   0  0  0  0  0
  495.0502  193.8385  555.5135 H   0  0  0  0  0
  493.7393  194.9481  555.9206 H   0  0  0  0  0
  493.5907  194.9405  553.9900 H   0  0  0  0  0
  492.4808  195.1633  551.7900 H   0  0  0  0  0
  492.4844  193.1909  558.2751 H   0  0  0  0  0
  488.4131  194.8790  561.6152 H   0  0  0  0  0
  491.8029  197.5715  561.6450 H   0  0  0  0  0
 12  1  1  0  0  0
  1 30  1  0  0  0
  1 31  2  0  0  0
  3  2  4  0  0  0
  2 26  4  0  0  0
  4  3  4  0  0  0
 24  4  4  0  0  0
  5  6  1  0  0  0
 28  5  2  0  0  0
  5 30  1  0  0  0
  6 19  1  0  0  0
  6 29  1  0  0  0
  7  8  1  0  0  0
 29  7  1  0  0  0
  7 35  2  0  0  0
  8  9  1  0  0  0
  9 10  1  0  0  0
 10 11  4  0  0  0
 10 16  4  0  0  0
 11 13  4  0  0  0
 20 12  2  0  0  0
 12 32  1  0  0  0
 13 14  4  0  0  0
 15 14  4  0  0  0
 16 15  4  0  0  0
 16 36  1  0  0  0
 17 18  1  0  0  0
 29 17  1  0  0  0
 19 18  1  0  0  0
 21 20  1  0  0  0
 20 28  1  0  0  0
 27 21  1  0  0  0
 21 34  2  0  0  0
 23 22  1  0  0  0
 22 27  1  0  0  0
 33 23  1  0  0  0
 24 25  4  0  0  0
 24 33  1  0  0  0
 25 26  4  0  0  0
  2 37  1  0  0  0
  3 38  1  0  0  0
  4 39  1  0  0  0
  6 40  1  0  0  0
  8 41  1  0  0  0
  8 42  1  0  0  0
  9 43  1  0  0  0
  9 44  1  0  0  0
 11 45  1  0  0  0
 13 46  1  0  0  0
 14 47  1  0  0  0
 15 48  1  0  0  0
 17 49  1  0  0  0
 17 50  1  0  0  0
 18 51  1  0  0  0
 18 52  1  0  0  0
 19 53  1  0  0  0
 19 54  1  0  0  0
 22 55  1  0  0  0
 22 56  1  0  0  0
 23 57  1  0  0  0
 23 58  1  0  0  0
 25 59  1  0  0  0
 26 60  1  0  0  0
 27 61  1  0  0  0
 30 62  1  0  0  0
 32 63  1  0  0  0
M  END
$$$$
