### 
### Created by X-TOOL on Mon Aug  2 16:10:28 2021
### 

@<TRIPOS>MOLECULE
5ok3_ligand
  297   301     1     0     0
SMALL
GAST_HUCK


@<TRIPOS>ATOM
      1 N          18.1630  -35.8970   24.4820 N.4       1 THR         0.2398
      2 CA         17.4590  -35.4870   23.2710 C.3       1 THR         0.0910
      3 C          16.5380  -34.3310   23.6160 C.2       1 THR         0.2293
      4 O          16.2640  -34.0920   24.7900 O.2       1 THR        -0.3906
      5 CB         16.6530  -36.6470   22.6920 C.3       1 THR         0.1120
      6 OG1        15.5760  -36.9520   23.5800 O.3       1 THR        -0.3840
      7 CG2        17.5200  -37.8940   22.5530 C.3       1 THR        -0.0314
      8 C1         15.5670  -30.4960   21.3230 C.3       1 THR        -0.0243
      9 C2         16.8980  -30.9380   20.7090 C.3       1 THR        -0.0443
     10 C3         17.6120  -29.7330   20.0750 C.3       1 THR        -0.0400
     11 C4         17.8860  -28.6800   21.1500 C.3       1 THR        -0.0473
     12 C5         16.5650  -28.2270   21.7730 C.3       1 THR        -0.0400
     13 C6         15.8460  -29.4390   22.3970 C.3       1 THR        -0.0443
     14 O          13.2920  -32.3930   24.4930 O.2       1 THR        -0.3944
     15 N          16.0380  -33.5970   22.6200 N.am      1 THR        -0.2609
     16 CA         15.1290  -32.5120   22.9690 C.3       1 THR         0.1316
     17 C          13.8360  -33.0300   23.5870 C.2       1 THR         0.2040
     18 CB         14.8000  -31.6870   21.7730 C.3       1 THR        -0.0067
     19 C9         14.6940  -29.8670   20.2250 C.3       1 THR        -0.0443
     20 C8         15.4090  -28.6690   19.6070 C.3       1 THR        -0.0400
     21 C7         15.6770  -27.6210   20.6890 C.3       1 THR        -0.0473
     22 C10        16.7220  -29.1340   18.9900 C.3       1 THR        -0.0473
     23 N          13.3080  -34.1580   23.0940 N.am      1 THR        -0.2621
     24 CA         12.1120  -34.7350   23.7030 C.3       1 THR         0.1390
     25 C          12.3510  -35.0760   25.1700 C.2       1 THR         0.2057
     26 O          11.5030  -34.8090   26.0360 O.2       1 THR        -0.3942
     27 CB         11.6830  -35.9850   22.9360 C.3       1 THR         0.0163
     28 CG         10.4450  -36.6520   23.5040 C.ar      1 THR        -0.0493
     29 CD1        10.5070  -37.9220   24.0800 C.ar      1 THR        -0.0685
     30 CD2         9.2020  -36.0110   23.4640 C.ar      1 THR        -0.0685
     31 CE1         9.3550  -38.5340   24.5920 C.ar      1 THR        -0.0398
     32 CE2         8.0530  -36.6110   23.9820 C.ar      1 THR        -0.0398
     33 CZ          8.1360  -37.8690   24.5340 C.ar      1 THR         0.0805
     34 OH          7.0050  -38.4690   25.0410 O.3       1 THR        -0.3376
     35 N          13.4890  -35.6980   25.4690 N.am      1 THR        -0.2639
     36 CA         13.8060  -35.9980   26.8560 C.3       1 THR         0.1282
     37 C          13.9400  -34.7160   27.6660 C.2       1 THR         0.2037
     38 O          13.5190  -34.6600   28.8280 O.2       1 THR        -0.3944
     39 CB         15.0790  -36.8340   26.9310 C.3       1 THR        -0.0244
     40 N          14.5070  -33.6630   27.0640 N.am      1 THR        -0.2622
     41 CA         14.5720  -32.3810   27.7590 C.3       1 THR         0.1423
     42 C          13.1800  -31.8350   28.0290 C.2       1 THR         0.2057
     43 O          12.9390  -31.2240   29.0760 O.2       1 THR        -0.3943
     44 CB         15.3630  -31.3540   26.9480 C.3       1 THR         0.0406
     45 CG         16.8440  -31.6250   26.9330 C.2       1 THR         0.0393
     46 OD1        17.3170  -32.5370   27.6550 O.co2     1 THR        -0.5688
     47 OD2        17.5380  -30.8920   26.1940 O.co2     1 THR        -0.5688
     48 N          12.2600  -32.0170   27.0780 N.am      1 THR        -0.2618
     49 CA         10.8910  -31.5540   27.2700 C.3       1 THR         0.1404
     50 C          10.2550  -32.2750   28.4480 C.2       1 THR         0.2060
     51 O           9.6420  -31.6490   29.3150 O.2       1 THR        -0.3942
     52 CB         10.1060  -31.7790   25.9840 C.3       1 THR         0.0214
     53 CG          8.6360  -31.3920   26.0400 C.ar      1 THR        -0.0386
     54 CD1         7.6730  -32.3000   25.6400 C.ar      1 THR        -0.0601
     55 CD2         8.2240  -30.1190   26.4190 C.ar      1 THR        -0.0601
     56 CE1         6.3070  -31.9520   25.6260 C.ar      1 THR        -0.0686
     57 CE2         6.8670  -29.7820   26.4140 C.ar      1 THR        -0.0686
     58 CZ          5.9190  -30.7050   26.0190 C.ar      1 THR        -0.0687
     59 N          10.4150  -33.6000   28.5080 N.am      1 THR        -0.2633
     60 CA          9.8680  -34.3610   29.6310 C.3       1 THR         0.1335
     61 C          10.5020  -33.9030   30.9430 C.2       1 THR         0.2041
     62 O           9.8180  -33.7780   31.9680 O.2       1 THR        -0.3944
     63 CB         10.0620  -35.8720   29.3930 C.3       1 THR        -0.0037
     64 CG1         9.4460  -36.3110   28.0510 C.3       1 THR        -0.0491
     65 CG2         9.4780  -36.6930   30.5510 C.3       1 THR        -0.0582
     66 CD1         7.9960  -35.9110   27.8420 C.3       1 THR        -0.0648
     67 N          11.8120  -33.6220   30.9270 N.am      1 THR        -0.2640
     68 CA         12.5100  -33.2010   32.1340 C.3       1 THR         0.1282
     69 C          12.0390  -31.8460   32.6390 C.2       1 THR         0.2037
     70 O          12.1720  -31.5610   33.8310 O.2       1 THR        -0.3944
     71 CB         14.0150  -33.1440   31.8750 C.3       1 THR        -0.0244
     72 N          11.5060  -30.9960   31.7560 N.am      1 THR        -0.2616
     73 CA         11.0790  -29.6600   32.1650 C.3       1 THR         0.1539
     74 C           9.9030  -29.6990   33.1220 C.2       1 THR         0.2060
     75 O           9.6550  -28.7100   33.8170 O.2       1 THR        -0.3943
     76 CB         10.6770  -28.8150   30.9520 C.3       1 THR         0.0843
     77 OG          9.4170  -29.2200   30.4550 O.3       1 THR        -0.3903
     78 N           9.1580  -30.7970   33.1330 N.am      1 THR        -0.2663
     79 CA          7.9320  -30.8720   33.8890 C.3       1 THR         0.1201
     80 C           6.8150  -29.9990   33.3690 C.2       1 THR         0.2007
     81 O           5.7990  -29.8490   34.0520 O.2       1 THR        -0.3947
     82 N           6.9540  -29.4310   32.1750 N.am      1 THR        -0.2640
     83 CA          5.9090  -28.6020   31.5920 C.3       1 THR         0.1311
     84 C           5.2810  -29.2720   30.3690 C.2       1 THR         0.2040
     85 O           5.0420  -28.6330   29.3400 O.2       1 THR        -0.3944
     86 CB          6.4590  -27.2180   31.2680 C.3       1 THR        -0.0092
     87 CG          6.9120  -26.5100   32.5690 C.3       1 THR        -0.0156
     88 CD          7.4300  -25.1100   32.3550 C.3       1 THR         0.0627
     89 NE          6.4210  -24.2360   31.7540 N.pl3     1 THR        -0.2723
     90 CZ          5.5510  -23.5000   32.4430 C.cat     1 THR         0.2882
     91 NH1         4.6740  -22.7420   31.7990 N.pl3     1 THR        -0.2849
     92 NH2         5.5440  -23.5270   33.7760 N.pl3     1 THR        -0.2849
     93 N           4.9740  -30.5750   30.4890 N.am      1 THR        -0.2613
     94 CA          4.3030  -31.3100   29.4240 C.3       1 THR         0.1565
     95 C           2.7840  -31.2820   29.5510 C.2       1 THR         0.2063
     96 O           2.0910  -31.6860   28.6090 O.2       1 THR        -0.3943
     97 CB          4.7540  -32.7740   29.3640 C.3       1 THR         0.0924
     98 OG1         4.2750  -33.4820   30.5140 O.3       1 THR        -0.3874
     99 CG2         6.2930  -32.9010   29.2520 C.3       1 THR        -0.0346
    100 N           2.2550  -30.8450   30.6900 N.am      1 THR        -0.2663
    101 CA          0.8270  -30.7660   30.8950 C.3       1 THR         0.1201
    102 C           0.2730  -29.4140   30.4910 C.2       1 THR         0.2007
    103 O           0.9620  -28.5590   29.9260 O.2       1 THR        -0.3947
    104 N          -1.0120  -29.2240   30.7800 N.am      1 THR        -0.2640
    105 CA         -1.6370  -27.9600   30.4220 C.3       1 THR         0.1311
    106 C          -0.9700  -26.8200   31.1740 C.2       1 THR         0.2039
    107 O          -0.6750  -26.9260   32.3690 O.2       1 THR        -0.3944
    108 CB         -3.1280  -27.9960   30.7150 C.3       1 THR        -0.0092
    109 CG         -3.8640  -28.9340   29.8150 C.3       1 THR        -0.0156
    110 CD         -5.3550  -28.9760   30.0730 C.3       1 THR         0.0627
    111 NE         -5.9810  -29.4920   28.8740 N.pl3     1 THR        -0.2723
    112 CZ         -6.0840  -30.7870   28.5600 C.cat     1 THR         0.2882
    113 NH1        -5.6220  -31.7310   29.4010 N.pl3     1 THR        -0.2849
    114 NH2        -6.6370  -31.1350   27.3910 N.pl3     1 THR        -0.2849
    115 N          -0.7150  -25.7310   30.4550 N.am      1 THR        -0.2637
    116 CA          0.0380  -24.6050   30.9760 C.3       1 THR         0.1311
    117 C          -0.8970  -23.4610   31.3320 C.2       1 THR         0.2040
    118 O          -1.7300  -23.0540   30.5150 O.2       1 THR        -0.3944
    119 CB          1.0660  -24.1560   29.9480 C.3       1 THR        -0.0092
    120 CG          2.0970  -25.2250   29.6790 C.3       1 THR        -0.0156
    121 CD          2.7550  -25.1100   28.3160 C.3       1 THR         0.0627
    122 NE          1.8230  -25.3920   27.2250 N.pl3     1 THR        -0.2723
    123 CZ          2.1770  -25.7700   26.0040 C.cat     1 THR         0.2882
    124 NH1         3.4600  -25.9160   25.6650 N.pl3     1 THR        -0.2849
    125 NH2         1.2430  -25.9910   25.0970 N.pl3     1 THR        -0.2849
    126 N          -0.7350  -22.9320   32.5430 N.am      1 THR        -0.2616
    127 CA         -1.5190  -21.7910   32.9770 C.3       1 THR         0.1476
    128 C          -0.9610  -20.4880   32.4320 C.2       1 THR         0.2062
    129 O           0.2420  -20.3440   32.2020 O.2       1 THR        -0.3942
    130 CB         -1.5490  -21.6990   34.4990 C.3       1 THR         0.0773
    131 CG         -2.2090  -22.8830   35.1250 C.2       1 THR         0.1780
    132 OD1        -3.1720  -23.4290   34.5820 O.2       1 THR        -0.3970
    133 ND2        -1.6850  -23.3150   36.2560 N.am      1 THR        -0.3007
    134 N          -1.8600  -19.5300   32.2500 N.am      1 THR        -0.2639
    135 CA         -1.4600  -18.1530   32.0210 C.3       1 THR         0.1282
    136 C          -0.7220  -17.6070   33.2370 C.2       1 THR         0.2031
    137 O          -0.9220  -18.0540   34.3680 O.2       1 THR        -0.3944
    138 CB         -2.6830  -17.2900   31.7450 C.3       1 THR        -0.0244
    139 N           0.1300  -16.6220   32.9950 N.am      1 THR        -0.2692
    140 CA          0.8790  -15.9780   34.0690 C.3       1 THR         0.0969
    141 C          -0.0180  -15.0280   34.8470 C.2       1 THR         0.0604
    142 O           0.3170  -14.6390   35.9750 O.co2     1 THR        -0.5666
    143 CB          2.1000  -15.2520   33.5210 C.3       1 THR        -0.0092
    144 CG1         1.6880  -14.1650   32.5350 C.3       1 THR        -0.0497
    145 CG2         3.0100  -16.2350   32.8370 C.3       1 THR        -0.0588
    146 CD1         2.8380  -13.2830   32.0760 C.3       1 THR        -0.0649
    147 OXT        -1.0830  -14.6260   34.3790 O.co2     1 THR        -0.5666
    148 H1         18.6874  -35.1170   24.8462 H         1 THR         0.2016
    149 H2         18.7930  -36.6532   24.2647 H         1 THR         0.2016
    150 H3         17.4948  -36.2039   25.1715 H         1 THR         0.2016
    151 H4         18.1929  -35.1557   22.5216 H         1 THR         0.1125
    152 H5         16.2575  -36.3613   21.7061 H         1 THR         0.0674
    153 H6         15.0697  -37.6735   23.2258 H         1 THR         0.2102
    154 H7         16.9181  -38.7142   22.1347 H         1 THR         0.0258
    155 H8         17.9021  -38.1871   23.5420 H         1 THR         0.0258
    156 H9         18.3650  -37.6802   21.8820 H         1 THR         0.0258
    157 H10        16.7080  -31.6968   19.9356 H         1 THR         0.0273
    158 H11        17.5367  -31.3674   21.4949 H         1 THR         0.0273
    159 H12        18.5635  -30.0607   19.6309 H         1 THR         0.0301
    160 H13        18.3916  -27.8155   20.6952 H         1 THR         0.0271
    161 H14        18.5295  -29.1124   21.9304 H         1 THR         0.0271
    162 H15        16.7635  -27.4753   22.5511 H         1 THR         0.0301
    163 H16        16.4825  -29.8757   23.1807 H         1 THR         0.0273
    164 H17        14.8942  -29.1094   22.8390 H         1 THR         0.0273
    165 H18        16.2784  -33.7846   21.6676 H         1 THR         0.1885
    166 H19        15.6332  -31.8714   23.7075 H         1 THR         0.0800
    167 H20        14.8149  -32.3843   20.9224 H         1 THR         0.0318
    168 H21        13.7725  -31.3299   21.9365 H         1 THR         0.0318
    169 H22        13.7413  -29.5353   20.6634 H         1 THR         0.0273
    170 H23        14.4971  -30.6157   19.4435 H         1 THR         0.0273
    171 H24        14.7750  -28.2279   18.8238 H         1 THR         0.0301
    172 H25        16.1840  -26.7533   20.2418 H         1 THR         0.0271
    173 H26        14.7232  -27.2998   21.1330 H         1 THR         0.0271
    174 H27        16.5169  -29.8951   18.2228 H         1 THR         0.0271
    175 H28        17.2337  -28.2766   18.5284 H         1 THR         0.0271
    176 H29        13.7333  -34.6060   22.3076 H         1 THR         0.1885
    177 H30        11.3015  -33.9934   23.6467 H         1 THR         0.0821
    178 H31        12.5105  -36.7093   22.9611 H         1 THR         0.0453
    179 H32        11.4769  -35.6997   21.8938 H         1 THR         0.0453
    180 H33        11.4573  -38.4409   24.1319 H         1 THR         0.0530
    181 H34         9.1295  -35.0247   23.0201 H         1 THR         0.0530
    182 H35         9.4145  -39.5229   25.0319 H         1 THR         0.0525
    183 H36         7.1028  -36.0902   23.9497 H         1 THR         0.0525
    184 H37         7.2289  -39.3267   25.3825 H         1 THR         0.2458
    185 H38        14.1242  -35.9583   24.7418 H         1 THR         0.1883
    186 H39        12.9804  -36.5875   27.2812 H         1 THR         0.0797
    187 H40        15.3105  -37.0557   27.9832 H         1 THR         0.0277
    188 H41        15.9126  -36.2738   26.4824 H         1 THR         0.0277
    189 H42        14.9322  -37.7756   26.3816 H         1 THR         0.0277
    190 H43        14.8843  -33.7544   26.1424 H         1 THR         0.1884
    191 H44        15.0815  -32.5366   28.7214 H         1 THR         0.0819
    192 H45        15.1940  -30.3585   27.3843 H         1 THR         0.0478
    193 H46        14.9944  -31.3676   25.9117 H         1 THR         0.0478
    194 H47        12.5127  -32.4754   26.2259 H         1 THR         0.1885
    195 H48        10.9059  -30.4761   27.4889 H         1 THR         0.0823
    196 H49        10.1659  -32.8482   25.7326 H         1 THR         0.0474
    197 H50        10.5823  -31.1879   25.1880 H         1 THR         0.0474
    198 H51         7.9732  -33.2951   25.3323 H         1 THR         0.0557
    199 H52         8.9602  -29.3827   26.7205 H         1 THR         0.0557
    200 H53         5.5661  -32.6745   25.3033 H         1 THR         0.0599
    201 H54         6.5572  -28.7899   26.7221 H         1 THR         0.0599
    202 H55         4.8682  -30.4389   26.0213 H         1 THR         0.0559
    203 H56        10.9116  -34.0742   27.7810 H         1 THR         0.1883
    204 H57         8.7877  -34.1624   29.6893 H         1 THR         0.0803
    205 H58        11.1432  -36.0696   29.3493 H         1 THR         0.0345
    206 H59         9.5083  -37.4076   27.9908 H         1 THR         0.0267
    207 H60        10.0419  -35.8648   27.2412 H         1 THR         0.0267
    208 H61         9.9304  -36.3642   31.4982 H         1 THR         0.0235
    209 H62         9.6962  -37.7592   30.3911 H         1 THR         0.0235
    210 H63         8.3890  -36.5439   30.5936 H         1 THR         0.0235
    211 H64         7.6545  -36.2701   26.8599 H         1 THR         0.0230
    212 H65         7.9084  -34.8153   27.8825 H         1 THR         0.0230
    213 H66         7.3748  -36.3580   28.6321 H         1 THR         0.0230
    214 H67        12.3203  -33.7029   30.0697 H         1 THR         0.1883
    215 H68        12.3146  -33.9471   32.9183 H         1 THR         0.0797
    216 H69        14.5330  -32.8254   32.7916 H         1 THR         0.0277
    217 H70        14.2213  -32.4250   31.0685 H         1 THR         0.0277
    218 H71        14.3741  -34.1406   31.5786 H         1 THR         0.0277
    219 H72        11.3980  -31.2782   30.8027 H         1 THR         0.1884
    220 H73        11.9258  -29.1733   32.6710 H         1 THR         0.0823
    221 H74        11.4324  -28.9358   30.1616 H         1 THR         0.0606
    222 H75        10.6243  -27.7575   31.2503 H         1 THR         0.0606
    223 H76         9.4594  -30.1323   30.1934 H         1 THR         0.2097
    224 H77         9.4540  -31.5923   32.6039 H         1 THR         0.1881
    225 H78         8.1489  -30.5702   34.9243 H         1 THR         0.0763
    226 H79         7.5851  -31.9158   33.8764 H         1 THR         0.0763
    227 H80         7.8004  -29.5774   31.6629 H         1 THR         0.1883
    228 H81         5.1163  -28.4796   32.3447 H         1 THR         0.0800
    229 H82         5.6750  -26.6192   30.7815 H         1 THR         0.0313
    230 H83         7.3188  -27.3174   30.5891 H         1 THR         0.0313
    231 H84         7.7123  -27.1087   33.0284 H         1 THR         0.0301
    232 H85         6.0523  -26.4602   33.2534 H         1 THR         0.0301
    233 H86         8.3042  -25.1531   31.6888 H         1 THR         0.0689
    234 H87         7.7297  -24.6902   33.3265 H         1 THR         0.0689
    235 H88         6.3812  -24.1869   30.7259 H         1 THR         0.2642
    236 H89         3.9996  -22.1714   32.3286 H         1 THR         0.2615
    237 H90         4.6672  -22.7238   30.7692 H         1 THR         0.2615
    238 H91         6.2223  -24.1135   34.2828 H         1 THR         0.2615
    239 H92         4.8603  -22.9614   34.2990 H         1 THR         0.2615
    240 H93         5.2129  -31.0542   31.3336 H         1 THR         0.1884
    241 H94         4.5739  -30.8280   28.4731 H         1 THR         0.0826
    242 H95         4.3102  -33.2306   28.4671 H         1 THR         0.0639
    243 H96         4.6236  -33.0790   31.3005 H         1 THR         0.2101
    244 H97         6.5712  -33.9645   29.2119 H         1 THR         0.0257
    245 H98         6.7644  -32.4315   30.1280 H         1 THR         0.0257
    246 H99         6.6368  -32.3974   28.3365 H         1 THR         0.0257
    247 H100        2.8659  -30.5616   31.4293 H         1 THR         0.1881
    248 H101        0.6105  -30.9354   31.9601 H         1 THR         0.0763
    249 H102        0.3374  -31.5455   30.2928 H         1 THR         0.0763
    250 H103       -1.5404  -29.9397   31.2367 H         1 THR         0.1883
    251 H104       -1.4993  -27.7951   29.3432 H         1 THR         0.0800
    252 H105       -3.5385  -26.9842   30.5820 H         1 THR         0.0313
    253 H106       -3.2755  -28.3175   31.7566 H         1 THR         0.0313
    254 H107       -3.4574  -29.9458   29.9596 H         1 THR         0.0301
    255 H108       -3.6999  -28.6181   28.7742 H         1 THR         0.0301
    256 H109       -5.7292  -27.9643   30.2883 H         1 THR         0.0689
    257 H110       -5.5718  -29.6363   30.9257 H         1 THR         0.0689
    258 H111       -6.3772  -28.8091   28.2125 H         1 THR         0.2642
    259 H112       -5.7047  -32.7272   29.1525 H         1 THR         0.2615
    260 H113       -5.1858  -31.4572   30.2930 H         1 THR         0.2615
    261 H114       -6.9889  -30.4085   26.7512 H         1 THR         0.2615
    262 H115       -6.7104  -32.1291   27.1317 H         1 THR         0.2615
    263 H116       -1.0563  -25.6859   29.5161 H         1 THR         0.1883
    264 H117        0.5655  -24.9232   31.8873 H         1 THR         0.0800
    265 H118        1.5759  -23.2569   30.3242 H         1 THR         0.0313
    266 H119        0.5477  -23.9172   29.0076 H         1 THR         0.0313
    267 H120        1.6048  -26.2065   29.7451 H         1 THR         0.0301
    268 H121        2.8793  -25.1545   30.4491 H         1 THR         0.0301
    269 H122        3.5882  -25.8263   28.2637 H         1 THR         0.0689
    270 H123        3.1423  -24.0876   28.1951 H         1 THR         0.0689
    271 H124        0.8167  -25.2894   27.4192 H         1 THR         0.2642
    272 H125        3.7101  -26.2106   24.7103 H         1 THR         0.2615
    273 H126        4.1998  -25.7340   26.3582 H         1 THR         0.2615
    274 H127        0.2490  -25.8823   25.3442 H         1 THR         0.2615
    275 H128        1.5085  -26.2721   24.1423 H         1 THR         0.2615
    276 H129       -0.0601  -23.3287   33.1653 H         1 THR         0.1885
    277 H130       -2.5470  -21.9182   32.6069 H         1 THR         0.0826
    278 H131       -2.1010  -20.7925   34.7879 H         1 THR         0.0551
    279 H132       -0.5155  -21.6329   34.8699 H         1 THR         0.0551
    280 H133       -2.0838  -24.1046   36.7224 H         1 THR         0.1814
    281 H134       -0.8890  -22.8528   36.6470 H         1 THR         0.1814
    282 H135       -2.8328  -19.7606   32.2709 H         1 THR         0.1883
    283 H136       -0.7906  -18.1172   31.1489 H         1 THR         0.0797
    284 H137       -2.3670  -16.2504   31.5734 H         1 THR         0.0277
    285 H138       -3.3619  -17.3288   32.6096 H         1 THR         0.0277
    286 H139       -3.2039  -17.6669   30.8525 H         1 THR         0.0277
    287 H140        0.2631  -16.3123   32.0535 H         1 THR         0.1875
    288 H141        1.2292  -16.7598   34.7590 H         1 THR         0.0729
    289 H142        2.6401  -14.7854   34.3580 H         1 THR         0.0338
    290 H143        0.9334  -13.5269   33.0180 H         1 THR         0.0267
    291 H144        1.2476  -14.6483   31.6504 H         1 THR         0.0267
    292 H145        3.3060  -17.0183   33.5503 H         1 THR         0.0234
    293 H146        3.9070  -15.7125   32.4732 H         1 THR         0.0234
    294 H147        2.4826  -16.6931   31.9874 H         1 THR         0.0234
    295 H148        2.4618  -12.5278   31.3703 H         1 THR         0.0230
    296 H149        3.5993  -13.9022   31.5790 H         1 THR         0.0230
    297 H150        3.2850  -12.7808   32.9466 H         1 THR         0.0230
@<TRIPOS>BOND
     1    2    1 1  
     2    3    2 1  
     3    2    5 1  
     4    3    4 2  
     5   15    3 am 
     6    5    6 1  
     7    5    7 1  
     8    8    9 1  
     9    8   13 1  
    10   18    8 1  
    11    8   19 1  
    12    9   10 1  
    13   10   11 1  
    14   10   22 1  
    15   12   11 1  
    16   13   12 1  
    17   12   21 1  
    18   17   14 2  
    19   16   15 1  
    20   16   17 1  
    21   16   18 1  
    22   17   23 am 
    23   19   20 1  
    24   20   21 1  
    25   20   22 1  
    26   23   24 1  
    27   24   25 1  
    28   24   27 1  
    29   25   26 2  
    30   25   35 am 
    31   27   28 1  
    32   28   29 ar 
    33   28   30 ar 
    34   29   31 ar 
    35   30   32 ar 
    36   31   33 ar 
    37   32   33 ar 
    38   33   34 1  
    39   35   36 1  
    40   36   37 1  
    41   36   39 1  
    42   37   38 2  
    43   37   40 am 
    44   40   41 1  
    45   41   42 1  
    46   41   44 1  
    47   42   43 2  
    48   42   48 am 
    49   44   45 1  
    50   45   46 ar 
    51   45   47 ar 
    52   48   49 1  
    53   49   50 1  
    54   49   52 1  
    55   50   51 2  
    56   50   59 am 
    57   52   53 1  
    58   53   54 ar 
    59   53   55 ar 
    60   54   56 ar 
    61   55   57 ar 
    62   56   58 ar 
    63   57   58 ar 
    64   59   60 1  
    65   60   61 1  
    66   60   63 1  
    67   61   62 2  
    68   61   67 am 
    69   63   64 1  
    70   63   65 1  
    71   64   66 1  
    72   67   68 1  
    73   68   69 1  
    74   68   71 1  
    75   69   70 2  
    76   69   72 am 
    77   72   73 1  
    78   73   74 1  
    79   73   76 1  
    80   74   75 2  
    81   74   78 am 
    82   76   77 1  
    83   78   79 1  
    84   79   80 1  
    85   80   81 2  
    86   80   82 am 
    87   82   83 1  
    88   83   84 1  
    89   83   86 1  
    90   84   85 2  
    91   84   93 am 
    92   86   87 1  
    93   87   88 1  
    94   88   89 1  
    95   89   90 ar 
    96   90   91 ar 
    97   90   92 ar 
    98   93   94 1  
    99   94   95 1  
   100   94   97 1  
   101   95   96 2  
   102   95  100 am 
   103   97   98 1  
   104   97   99 1  
   105  100  101 1  
   106  101  102 1  
   107  102  103 2  
   108  102  104 am 
   109  104  105 1  
   110  105  106 1  
   111  105  108 1  
   112  106  107 2  
   113  106  115 am 
   114  108  109 1  
   115  109  110 1  
   116  110  111 1  
   117  111  112 ar 
   118  112  113 ar 
   119  112  114 ar 
   120  115  116 1  
   121  116  117 1  
   122  116  119 1  
   123  117  118 2  
   124  117  126 am 
   125  119  120 1  
   126  120  121 1  
   127  121  122 1  
   128  122  123 ar 
   129  123  124 ar 
   130  123  125 ar 
   131  126  127 1  
   132  127  128 1  
   133  127  130 1  
   134  128  129 2  
   135  128  134 am 
   136  130  131 1  
   137  131  132 2  
   138  131  133 am 
   139  134  135 1  
   140  135  136 1  
   141  135  138 1  
   142  136  137 2  
   143  136  139 am 
   144  139  140 1  
   145  140  141 1  
   146  140  143 1  
   147  141  142 ar 
   148  141  147 ar 
   149  143  144 1  
   150  143  145 1  
   151  144  146 1  
   152    1  148 1  
   153    1  149 1  
   154    1  150 1  
   155    2  151 1  
   156    5  152 1  
   157    6  153 1  
   158    7  154 1  
   159    7  155 1  
   160    7  156 1  
   161    9  157 1  
   162    9  158 1  
   163   10  159 1  
   164   11  160 1  
   165   11  161 1  
   166   12  162 1  
   167   13  163 1  
   168   13  164 1  
   169   15  165 1  
   170   16  166 1  
   171   18  167 1  
   172   18  168 1  
   173   19  169 1  
   174   19  170 1  
   175   20  171 1  
   176   21  172 1  
   177   21  173 1  
   178   22  174 1  
   179   22  175 1  
   180   23  176 1  
   181   24  177 1  
   182   27  178 1  
   183   27  179 1  
   184   29  180 1  
   185   30  181 1  
   186   31  182 1  
   187   32  183 1  
   188   34  184 1  
   189   35  185 1  
   190   36  186 1  
   191   39  187 1  
   192   39  188 1  
   193   39  189 1  
   194   40  190 1  
   195   41  191 1  
   196   44  192 1  
   197   44  193 1  
   198   48  194 1  
   199   49  195 1  
   200   52  196 1  
   201   52  197 1  
   202   54  198 1  
   203   55  199 1  
   204   56  200 1  
   205   57  201 1  
   206   58  202 1  
   207   59  203 1  
   208   60  204 1  
   209   63  205 1  
   210   64  206 1  
   211   64  207 1  
   212   65  208 1  
   213   65  209 1  
   214   65  210 1  
   215   66  211 1  
   216   66  212 1  
   217   66  213 1  
   218   67  214 1  
   219   68  215 1  
   220   71  216 1  
   221   71  217 1  
   222   71  218 1  
   223   72  219 1  
   224   73  220 1  
   225   76  221 1  
   226   76  222 1  
   227   77  223 1  
   228   78  224 1  
   229   79  225 1  
   230   79  226 1  
   231   82  227 1  
   232   83  228 1  
   233   86  229 1  
   234   86  230 1  
   235   87  231 1  
   236   87  232 1  
   237   88  233 1  
   238   88  234 1  
   239   89  235 1  
   240   91  236 1  
   241   91  237 1  
   242   92  238 1  
   243   92  239 1  
   244   93  240 1  
   245   94  241 1  
   246   97  242 1  
   247   98  243 1  
   248   99  244 1  
   249   99  245 1  
   250   99  246 1  
   251  100  247 1  
   252  101  248 1  
   253  101  249 1  
   254  104  250 1  
   255  105  251 1  
   256  108  252 1  
   257  108  253 1  
   258  109  254 1  
   259  109  255 1  
   260  110  256 1  
   261  110  257 1  
   262  111  258 1  
   263  113  259 1  
   264  113  260 1  
   265  114  261 1  
   266  114  262 1  
   267  115  263 1  
   268  116  264 1  
   269  119  265 1  
   270  119  266 1  
   271  120  267 1  
   272  120  268 1  
   273  121  269 1  
   274  121  270 1  
   275  122  271 1  
   276  124  272 1  
   277  124  273 1  
   278  125  274 1  
   279  125  275 1  
   280  126  276 1  
   281  127  277 1  
   282  130  278 1  
   283  130  279 1  
   284  133  280 1  
   285  133  281 1  
   286  134  282 1  
   287  135  283 1  
   288  138  284 1  
   289  138  285 1  
   290  138  286 1  
   291  139  287 1  
   292  140  288 1  
   293  143  289 1  
   294  144  290 1  
   295  144  291 1  
   296  145  292 1  
   297  145  293 1  
   298  145  294 1  
   299  146  295 1  
   300  146  296 1  
   301  146  297 1  
@<TRIPOS>SUBSTRUCTURE
     1 THR         1

