5ok3_ligand
  -I-interpret- 

296300  0  0  0  0  0  0  0  0999 V2000
   18.1630  -35.8970   24.4820 N   0  3  0  0  0
   17.4590  -35.4870   23.2710 C   0  0  0  0  0
   16.5380  -34.3310   23.6160 C   0  0  0  0  0
   16.2640  -34.0920   24.7900 O   0  0  0  0  0
   16.6530  -36.6470   22.6920 C   0  0  0  0  0
   15.5760  -36.9520   23.5800 O   0  0  0  0  0
   17.5200  -37.8940   22.5530 C   0  0  0  0  0
   15.5670  -30.4960   21.3230 C   0  0  0  0  0
   16.8980  -30.9380   20.7090 C   0  0  0  0  0
   17.6120  -29.7330   20.0750 C   0  0  0  0  0
   17.8860  -28.6800   21.1500 C   0  0  0  0  0
   16.5650  -28.2270   21.7730 C   0  0  0  0  0
   15.8460  -29.4390   22.3970 C   0  0  0  0  0
   13.2920  -32.3930   24.4930 O   0  0  0  0  0
   16.0380  -33.5970   22.6200 N   0  0  0  0  0
   15.1290  -32.5120   22.9690 C   0  0  0  0  0
   13.8360  -33.0300   23.5870 C   0  0  0  0  0
   14.8000  -31.6870   21.7730 C   0  0  0  0  0
   14.6940  -29.8670   20.2250 C   0  0  0  0  0
   15.4090  -28.6690   19.6070 C   0  0  0  0  0
   15.6770  -27.6210   20.6890 C   0  0  0  0  0
   16.7220  -29.1340   18.9900 C   0  0  0  0  0
   13.3080  -34.1580   23.0940 N   0  0  0  0  0
   12.1120  -34.7350   23.7030 C   0  0  0  0  0
   12.3510  -35.0760   25.1700 C   0  0  0  0  0
   11.5030  -34.8090   26.0360 O   0  0  0  0  0
   11.6830  -35.9850   22.9360 C   0  0  0  0  0
   10.4450  -36.6520   23.5040 C   0  0  0  0  0
   10.5070  -37.9220   24.0800 C   0  0  0  0  0
    9.2020  -36.0110   23.4640 C   0  0  0  0  0
    9.3550  -38.5340   24.5920 C   0  0  0  0  0
    8.0530  -36.6110   23.9820 C   0  0  0  0  0
    8.1360  -37.8690   24.5340 C   0  0  0  0  0
    7.0050  -38.4690   25.0410 O   0  0  0  0  0
   13.4890  -35.6980   25.4690 N   0  0  0  0  0
   13.8060  -35.9980   26.8560 C   0  0  0  0  0
   13.9400  -34.7160   27.6660 C   0  0  0  0  0
   13.5190  -34.6600   28.8280 O   0  0  0  0  0
   15.0790  -36.8340   26.9310 C   0  0  0  0  0
   14.5070  -33.6630   27.0640 N   0  0  0  0  0
   14.5720  -32.3810   27.7590 C   0  0  0  0  0
   13.1800  -31.8350   28.0290 C   0  0  0  0  0
   12.9390  -31.2240   29.0760 O   0  0  0  0  0
   15.3630  -31.3540   26.9480 C   0  0  0  0  0
   16.8440  -31.6250   26.9330 C   0  0  0  0  0
   17.3170  -32.5370   27.6550 O   0  0  0  0  0
   17.5380  -30.8920   26.1940 O   0  0  0  0  0
   12.2600  -32.0170   27.0780 N   0  0  0  0  0
   10.8910  -31.5540   27.2700 C   0  0  0  0  0
   10.2550  -32.2750   28.4480 C   0  0  0  0  0
    9.6420  -31.6490   29.3150 O   0  0  0  0  0
   10.1060  -31.7790   25.9840 C   0  0  0  0  0
    8.6360  -31.3920   26.0400 C   0  0  0  0  0
    7.6730  -32.3000   25.6400 C   0  0  0  0  0
    8.2240  -30.1190   26.4190 C   0  0  0  0  0
    6.3070  -31.9520   25.6260 C   0  0  0  0  0
    6.8670  -29.7820   26.4140 C   0  0  0  0  0
    5.9190  -30.7050   26.0190 C   0  0  0  0  0
   10.4150  -33.6000   28.5080 N   0  0  0  0  0
    9.8680  -34.3610   29.6310 C   0  0  0  0  0
   10.5020  -33.9030   30.9430 C   0  0  0  0  0
    9.8180  -33.7780   31.9680 O   0  0  0  0  0
   10.0620  -35.8720   29.3930 C   0  0  0  0  0
    9.4460  -36.3110   28.0510 C   0  0  0  0  0
    9.4780  -36.6930   30.5510 C   0  0  0  0  0
    7.9960  -35.9110   27.8420 C   0  0  0  0  0
   11.8120  -33.6220   30.9270 N   0  0  0  0  0
   12.5100  -33.2010   32.1340 C   0  0  0  0  0
   12.0390  -31.8460   32.6390 C   0  0  0  0  0
   12.1720  -31.5610   33.8310 O   0  0  0  0  0
   14.0150  -33.1440   31.8750 C   0  0  0  0  0
   11.5060  -30.9960   31.7560 N   0  0  0  0  0
   11.0790  -29.6600   32.1650 C   0  0  0  0  0
    9.9030  -29.6990   33.1220 C   0  0  0  0  0
    9.6550  -28.7100   33.8170 O   0  0  0  0  0
   10.6770  -28.8150   30.9520 C   0  0  0  0  0
    9.4170  -29.2200   30.4550 O   0  0  0  0  0
    9.1580  -30.7970   33.1330 N   0  0  0  0  0
    7.9320  -30.8720   33.8890 C   0  0  0  0  0
    6.8150  -29.9990   33.3690 C   0  0  0  0  0
    5.7990  -29.8490   34.0520 O   0  0  0  0  0
    6.9540  -29.4310   32.1750 N   0  0  0  0  0
    5.9090  -28.6020   31.5920 C   0  0  0  0  0
    5.2810  -29.2720   30.3690 C   0  0  0  0  0
    5.0420  -28.6330   29.3400 O   0  0  0  0  0
    6.4590  -27.2180   31.2680 C   0  0  0  0  0
    6.9120  -26.5100   32.5690 C   0  0  0  0  0
    7.4300  -25.1100   32.3550 C   0  0  0  0  0
    6.4210  -24.2360   31.7540 N   0  0  0  0  0
    5.5510  -23.5000   32.4430 C   0  0  0  0  0
    4.6740  -22.7420   31.7990 N   0  0  0  0  0
    5.5440  -23.5270   33.7760 N   0  0  0  0  0
    4.9740  -30.5750   30.4890 N   0  0  0  0  0
    4.3030  -31.3100   29.4240 C   0  0  0  0  0
    2.7840  -31.2820   29.5510 C   0  0  0  0  0
    2.0910  -31.6860   28.6090 O   0  0  0  0  0
    4.7540  -32.7740   29.3640 C   0  0  0  0  0
    4.2750  -33.4820   30.5140 O   0  0  0  0  0
    6.2930  -32.9010   29.2520 C   0  0  0  0  0
    2.2550  -30.8450   30.6900 N   0  0  0  0  0
    0.8270  -30.7660   30.8950 C   0  0  0  0  0
    0.2730  -29.4140   30.4910 C   0  0  0  0  0
    0.9620  -28.5590   29.9260 O   0  0  0  0  0
   -1.0120  -29.2240   30.7800 N   0  0  0  0  0
   -1.6370  -27.9600   30.4220 C   0  0  0  0  0
   -0.9700  -26.8200   31.1740 C   0  0  0  0  0
   -0.6750  -26.9260   32.3690 O   0  0  0  0  0
   -3.1280  -27.9960   30.7150 C   0  0  0  0  0
   -3.8640  -28.9340   29.8150 C   0  0  0  0  0
   -5.3550  -28.9760   30.0730 C   0  0  0  0  0
   -5.9810  -29.4920   28.8740 N   0  0  0  0  0
   -6.0840  -30.7870   28.5600 C   0  0  0  0  0
   -5.6220  -31.7310   29.4010 N   0  0  0  0  0
   -6.6370  -31.1350   27.3910 N   0  0  0  0  0
   -0.7150  -25.7310   30.4550 N   0  0  0  0  0
    0.0380  -24.6050   30.9760 C   0  0  0  0  0
   -0.8970  -23.4610   31.3320 C   0  0  0  0  0
   -1.7300  -23.0540   30.5150 O   0  0  0  0  0
    1.0660  -24.1560   29.9480 C   0  0  0  0  0
    2.0970  -25.2250   29.6790 C   0  0  0  0  0
    2.7550  -25.1100   28.3160 C   0  0  0  0  0
    1.8230  -25.3920   27.2250 N   0  0  0  0  0
    2.1770  -25.7700   26.0040 C   0  0  0  0  0
    3.4600  -25.9160   25.6650 N   0  0  0  0  0
    1.2430  -25.9910   25.0970 N   0  0  0  0  0
   -0.7350  -22.9320   32.5430 N   0  0  0  0  0
   -1.5190  -21.7910   32.9770 C   0  0  0  0  0
   -0.9610  -20.4880   32.4320 C   0  0  0  0  0
    0.2420  -20.3440   32.2020 O   0  0  0  0  0
   -1.5490  -21.6990   34.4990 C   0  0  0  0  0
   -2.2090  -22.8830   35.1250 C   0  0  0  0  0
   -3.1720  -23.4290   34.5820 O   0  0  0  0  0
   -1.6850  -23.3150   36.2560 N   0  0  0  0  0
   -1.8600  -19.5300   32.2500 N   0  0  0  0  0
   -1.4600  -18.1530   32.0210 C   0  0  0  0  0
   -0.7220  -17.6070   33.2370 C   0  0  0  0  0
   -0.9220  -18.0540   34.3680 O   0  0  0  0  0
   -2.6830  -17.2900   31.7450 C   0  0  0  0  0
    0.1300  -16.6220   32.9950 N   0  0  0  0  0
    0.8790  -15.9780   34.0690 C   0  0  0  0  0
   -0.0180  -15.0280   34.8470 C   0  0  0  0  0
    0.3170  -14.6390   35.9750 O   0  0  0  0  0
    2.1000  -15.2520   33.5210 C   0  0  0  0  0
    1.6880  -14.1650   32.5350 C   0  0  0  0  0
    3.0100  -16.2350   32.8370 C   0  0  0  0  0
    2.8380  -13.2830   32.0760 C   0  0  0  0  0
   -1.0830  -14.6260   34.3790 O   0  0  0  0  0
   18.6932  -35.1070   24.8496 H   0  0  0  0  0
   17.4859  -36.2073   25.1789 H   0  0  0  0  0
   18.8001  -36.6622   24.2609 H   0  0  0  0  0
   18.1837  -35.1770   22.5182 H   0  0  0  0  0
   16.2829  -36.3540   21.7095 H   0  0  0  0  0
   15.0171  -36.1780   23.6811 H   0  0  0  0  0
   17.9079  -38.1762   23.5318 H   0  0  0  0  0
   16.9195  -38.7094   22.1498 H   0  0  0  0  0
   18.3501  -37.6845   21.8784 H   0  0  0  0  0
   16.7067  -31.6863   19.9399 H   0  0  0  0  0
   17.5308  -31.3587   21.4905 H   0  0  0  0  0
   18.5559  -30.0560   19.6359 H   0  0  0  0  0
   18.3861  -27.8232   20.6985 H   0  0  0  0  0
   18.5228  -29.1093   21.9235 H   0  0  0  0  0
   16.7647  -27.4840   22.5451 H   0  0  0  0  0
   16.4809  -29.8728   23.1695 H   0  0  0  0  0
   14.9010  -29.1105   22.8297 H   0  0  0  0  0
   16.2832  -33.7884   21.6486 H   0  0  0  0  0
   15.6454  -31.8976   23.7065 H   0  0  0  0  0
   14.9593  -32.3893   20.9548 H   0  0  0  0  0
   13.8375  -31.2545   22.0461 H   0  0  0  0  0
   13.7531  -29.5344   20.6634 H   0  0  0  0  0
   14.5052  -30.6094   19.4496 H   0  0  0  0  0
   14.7855  -28.2244   18.8313 H   0  0  0  0  0
   16.1789  -26.7607   20.2461 H   0  0  0  0  0
   14.7320  -27.3020   21.1288 H   0  0  0  0  0
   16.5185  -29.8887   18.2303 H   0  0  0  0  0
   17.2291  -28.2841   18.5332 H   0  0  0  0  0
   13.7418  -34.6150   22.2919 H   0  0  0  0  0
   11.3150  -33.9930   23.6535 H   0  0  0  0  0
   12.4998  -36.7039   23.0003 H   0  0  0  0  0
   11.4499  -35.6784   21.9163 H   0  0  0  0  0
   11.4626  -38.4437   24.1321 H   0  0  0  0  0
    9.1291  -35.0193   23.0176 H   0  0  0  0  0
    9.4148  -39.5284   25.0343 H   0  0  0  0  0
    7.0976  -36.0873   23.9496 H   0  0  0  0  0
    6.2536  -37.8831   24.9242 H   0  0  0  0  0
   14.1369  -35.9635   24.7273 H   0  0  0  0  0
   12.9897  -36.5772   27.2875 H   0  0  0  0  0
   14.9323  -37.7666   26.3862 H   0  0  0  0  0
   15.9041  -36.2778   26.4861 H   0  0  0  0  0
   15.3074  -37.0531   27.9741 H   0  0  0  0  0
   14.8918  -33.7562   26.1240 H   0  0  0  0  0
   15.0795  -32.5558   28.7077 H   0  0  0  0  0
   15.2099  -30.3788   27.4102 H   0  0  0  0  0
   15.0078  -31.4010   25.9186 H   0  0  0  0  0
   16.6043  -32.9668   28.1335 H   0  0  0  0  0
   12.5178  -32.4845   26.2089 H   0  0  0  0  0
   10.8848  -30.4882   27.4982 H   0  0  0  0  0
   10.1383  -32.8499   25.7832 H   0  0  0  0  0
   10.5654  -31.1464   25.2245 H   0  0  0  0  0
    7.9748  -33.3006   25.3306 H   0  0  0  0  0
    8.9643  -29.3786   26.7221 H   0  0  0  0  0
    5.5620  -32.6785   25.3016 H   0  0  0  0  0
    6.5555  -28.7845   26.7238 H   0  0  0  0  0
    4.8624  -30.4374   26.0213 H   0  0  0  0  0
   10.9215  -34.0837   27.7665 H   0  0  0  0  0
    8.7967  -34.1738   29.7050 H   0  0  0  0  0
   11.1345  -36.0615   29.3485 H   0  0  0  0  0
    9.4750  -37.4005   28.0354 H   0  0  0  0  0
   10.0219  -35.8192   27.2671 H   0  0  0  0  0
    9.9798  -36.4182   31.4788 H   0  0  0  0  0
    8.4112  -36.4873   30.6387 H   0  0  0  0  0
    9.6298  -37.7544   30.3549 H   0  0  0  0  0
    7.3815  -36.3545   28.6255 H   0  0  0  0  0
    7.9105  -34.8251   27.8824 H   0  0  0  0  0
    7.6588  -36.2673   26.8686 H   0  0  0  0  0
   12.3305  -33.7045   30.0525 H   0  0  0  0  0
   12.2838  -33.9392   32.9034 H   0  0  0  0  0
   14.3695  -34.1320   31.5813 H   0  0  0  0  0
   14.2181  -32.4313   31.0757 H   0  0  0  0  0
   14.5271  -32.8282   32.7839 H   0  0  0  0  0
   11.3959  -31.2839   30.7837 H   0  0  0  0  0
   11.9351  -29.2138   32.6711 H   0  0  0  0  0
   11.4233  -28.9466   30.1685 H   0  0  0  0  0
   10.6162  -27.7699   31.2557 H   0  0  0  0  0
    9.1844  -28.6790   29.6968 H   0  0  0  0  0
    9.4599  -31.6082   32.5934 H   0  0  0  0  0
    8.1600  -30.5278   34.8978 H   0  0  0  0  0
    7.5838  -31.9030   33.8269 H   0  0  0  0  0
    7.8173  -29.5803   31.6527 H   0  0  0  0  0
    5.1099  -28.4830   32.3237 H   0  0  0  0  0
    5.6792  -26.6251   30.7900 H   0  0  0  0  0
    7.3134  -27.3193   30.5988 H   0  0  0  0  0
    7.7286  -27.0968   32.9896 H   0  0  0  0  0
    6.0398  -26.4369   33.2186 H   0  0  0  0  0
    8.2820  -25.1624   31.6772 H   0  0  0  0  0
    7.7037  -24.6964   33.3256 H   0  0  0  0  0
    6.3816  -24.1874   30.7359 H   0  0  0  0  0
    4.6673  -22.7240   30.7792 H   0  0  0  0  0
    4.8669  -22.9669   34.2939 H   0  0  0  0  0
    6.2157  -24.1078   34.2779 H   0  0  0  0  0
    5.2177  -31.0638   31.3505 H   0  0  0  0  0
    4.5896  -30.7976   28.5057 H   0  0  0  0  0
    4.3266  -33.2169   28.4644 H   0  0  0  0  0
    4.5621  -34.3969   30.4676 H   0  0  0  0  0
    6.6324  -32.4016   28.3446 H   0  0  0  0  0
    6.7589  -32.4354   30.1205 H   0  0  0  0  0
    6.5674  -33.9552   29.2124 H   0  0  0  0  0
    2.8781  -30.5559   31.4441 H   0  0  0  0  0
    0.6248  -30.9156   31.9556 H   0  0  0  0  0
    0.3502  -31.5289   30.2796 H   0  0  0  0  0
   -1.5510  -29.9540   31.2458 H   0  0  0  0  0
   -1.5081  -27.7967   29.3520 H   0  0  0  0  0
   -3.5268  -26.9941   30.5559 H   0  0  0  0  0
   -3.2614  -28.3393   31.7409 H   0  0  0  0  0
   -3.4726  -29.9351   29.9956 H   0  0  0  0  0
   -3.7188  -28.5870   28.7919 H   0  0  0  0  0
   -5.7330  -27.9806   30.3061 H   0  0  0  0  0
   -5.5793  -29.6132   30.9285 H   0  0  0  0  0
   -6.3734  -28.8157   28.2189 H   0  0  0  0  0
   -5.6922  -32.7169   29.1492 H   0  0  0  0  0
   -5.2017  -31.4604   30.2901 H   0  0  0  0  0
   -6.9739  -30.4151   26.7518 H   0  0  0  0  0
   -1.0631  -25.6850   29.4973 H   0  0  0  0  0
    0.5576  -24.9133   31.8832 H   0  0  0  0  0
    1.5789  -23.2772   30.3388 H   0  0  0  0  0
    0.5450  -23.9412   29.0150 H   0  0  0  0  0
    1.5854  -26.1869   29.7135 H   0  0  0  0  0
    2.8806  -25.1177   30.4290 H   0  0  0  0  0
    3.5633  -25.8397   28.2678 H   0  0  0  0  0
    3.1139  -24.0875   28.1987 H   0  0  0  0  0
    0.8265  -25.2904   27.4174 H   0  0  0  0  0
    3.7081  -26.1949   24.7158 H   0  0  0  0  0
    4.1921  -25.7486   26.3552 H   0  0  0  0  0
    0.2593  -25.8707   25.3382 H   0  0  0  0  0
   -0.0466  -23.3366   33.1777 H   0  0  0  0  0
   -2.5273  -21.9407   32.5910 H   0  0  0  0  0
   -2.1178  -20.8105   34.7731 H   0  0  0  0  0
   -0.5199  -21.6574   34.8557 H   0  0  0  0  0
   -2.0771  -24.1347   36.7195 H   0  0  0  0  0
   -0.8877  -22.8293   36.6670 H   0  0  0  0  0
   -2.8523  -19.7652   32.2713 H   0  0  0  0  0
   -0.7964  -18.1274   31.1567 H   0  0  0  0  0
   -3.1983  -17.6645   30.8605 H   0  0  0  0  0
   -3.3549  -17.3294   32.6024 H   0  0  0  0  0
   -2.3686  -16.2602   31.5751 H   0  0  0  0  0
    0.2658  -16.3061   32.0347 H   0  0  0  0  0
    1.2314  -16.7504   34.7526 H   0  0  0  0  0
    1.1619  -15.0300   36.2092 H   0  0  0  0  0
    2.6245  -14.7835   34.3537 H   0  0  0  0  0
    0.9686  -13.5223   33.0425 H   0  0  0  0  0
    1.2882  -14.6628   31.6516 H   0  0  0  0  0
    3.3301  -16.9913   33.5537 H   0  0  0  0  0
    2.4750  -16.7134   32.0166 H   0  0  0  0  0
    3.8820  -15.7102   32.4468 H   0  0  0  0  0
    3.2801  -12.7860   32.9395 H   0  0  0  0  0
    3.5916  -13.8977   31.5837 H   0  0  0  0  0
    2.4640  -12.5351   31.3768 H   0  0  0  0  0
  2  1  1  0  0  0
  3  2  1  0  0  0
  2  5  1  0  0  0
  3  4  2  0  0  0
 15  3  1  0  0  0
  5  6  1  0  0  0
  5  7  1  0  0  0
  8  9  1  0  0  0
  8 13  1  0  0  0
 18  8  1  0  0  0
  8 19  1  0  0  0
  9 10  1  0  0  0
 10 11  1  0  0  0
 10 22  1  0  0  0
 12 11  1  0  0  0
 13 12  1  0  0  0
 12 21  1  0  0  0
 17 14  2  0  0  0
 16 15  1  0  0  0
 16 17  1  0  0  0
 16 18  1  0  0  0
 17 23  1  0  0  0
 19 20  1  0  0  0
 20 21  1  0  0  0
 20 22  1  0  0  0
 23 24  1  0  0  0
 24 25  1  0  0  0
 24 27  1  0  0  0
 25 26  2  0  0  0
 25 35  1  0  0  0
 27 28  1  0  0  0
 28 29  4  0  0  0
 28 30  4  0  0  0
 29 31  4  0  0  0
 30 32  4  0  0  0
 31 33  4  0  0  0
 32 33  4  0  0  0
 33 34  1  0  0  0
 35 36  1  0  0  0
 36 37  1  0  0  0
 36 39  1  0  0  0
 37 38  2  0  0  0
 37 40  1  0  0  0
 40 41  1  0  0  0
 41 42  1  0  0  0
 41 44  1  0  0  0
 42 43  2  0  0  0
 42 48  1  0  0  0
 44 45  1  0  0  0
 45 46  1  0  0  0
 45 47  2  0  0  0
 48 49  1  0  0  0
 49 50  1  0  0  0
 49 52  1  0  0  0
 50 51  2  0  0  0
 50 59  1  0  0  0
 52 53  1  0  0  0
 53 54  4  0  0  0
 53 55  4  0  0  0
 54 56  4  0  0  0
 55 57  4  0  0  0
 56 58  4  0  0  0
 57 58  4  0  0  0
 59 60  1  0  0  0
 60 61  1  0  0  0
 60 63  1  0  0  0
 61 62  2  0  0  0
 61 67  1  0  0  0
 63 64  1  0  0  0
 63 65  1  0  0  0
 64 66  1  0  0  0
 67 68  1  0  0  0
 68 69  1  0  0  0
 68 71  1  0  0  0
 69 70  2  0  0  0
 69 72  1  0  0  0
 72 73  1  0  0  0
 73 74  1  0  0  0
 73 76  1  0  0  0
 74 75  2  0  0  0
 74 78  1  0  0  0
 76 77  1  0  0  0
 78 79  1  0  0  0
 79 80  1  0  0  0
 80 81  2  0  0  0
 80 82  1  0  0  0
 82 83  1  0  0  0
 83 84  1  0  0  0
 83 86  1  0  0  0
 84 85  2  0  0  0
 84 93  1  0  0  0
 86 87  1  0  0  0
 87 88  1  0  0  0
 88 89  1  0  0  0
 89 90  1  0  0  0
 90 91  2  0  0  0
 90 92  1  0  0  0
 93 94  1  0  0  0
 94 95  1  0  0  0
 94 97  1  0  0  0
 95 96  2  0  0  0
 95100  1  0  0  0
 97 98  1  0  0  0
 97 99  1  0  0  0
100101  1  0  0  0
101102  1  0  0  0
102103  2  0  0  0
102104  1  0  0  0
104105  1  0  0  0
105106  1  0  0  0
105108  1  0  0  0
106107  2  0  0  0
106115  1  0  0  0
108109  1  0  0  0
109110  1  0  0  0
110111  1  0  0  0
111112  1  0  0  0
112113  1  0  0  0
112114  2  0  0  0
115116  1  0  0  0
116117  1  0  0  0
116119  1  0  0  0
117118  2  0  0  0
117126  1  0  0  0
119120  1  0  0  0
120121  1  0  0  0
121122  1  0  0  0
122123  1  0  0  0
123124  1  0  0  0
123125  2  0  0  0
126127  1  0  0  0
127128  1  0  0  0
127130  1  0  0  0
128129  2  0  0  0
128134  1  0  0  0
130131  1  0  0  0
131132  2  0  0  0
131133  1  0  0  0
134135  1  0  0  0
135136  1  0  0  0
135138  1  0  0  0
136137  2  0  0  0
136139  1  0  0  0
139140  1  0  0  0
140141  1  0  0  0
140143  1  0  0  0
141142  1  0  0  0
141147  2  0  0  0
143144  1  0  0  0
143145  1  0  0  0
144146  1  0  0  0
  1148  1  0  0  0
  1149  1  0  0  0
  1150  1  0  0  0
  2151  1  0  0  0
  5152  1  0  0  0
  6153  1  0  0  0
  7154  1  0  0  0
  7155  1  0  0  0
  7156  1  0  0  0
  9157  1  0  0  0
  9158  1  0  0  0
 10159  1  0  0  0
 11160  1  0  0  0
 11161  1  0  0  0
 12162  1  0  0  0
 13163  1  0  0  0
 13164  1  0  0  0
 15165  1  0  0  0
 16166  1  0  0  0
 18167  1  0  0  0
 18168  1  0  0  0
 19169  1  0  0  0
 19170  1  0  0  0
 20171  1  0  0  0
 21172  1  0  0  0
 21173  1  0  0  0
 22174  1  0  0  0
 22175  1  0  0  0
 23176  1  0  0  0
 24177  1  0  0  0
 27178  1  0  0  0
 27179  1  0  0  0
 29180  1  0  0  0
 30181  1  0  0  0
 31182  1  0  0  0
 32183  1  0  0  0
 34184  1  0  0  0
 35185  1  0  0  0
 36186  1  0  0  0
 39187  1  0  0  0
 39188  1  0  0  0
 39189  1  0  0  0
 40190  1  0  0  0
 41191  1  0  0  0
 44192  1  0  0  0
 44193  1  0  0  0
 46194  1  0  0  0
 48195  1  0  0  0
 49196  1  0  0  0
 52197  1  0  0  0
 52198  1  0  0  0
 54199  1  0  0  0
 55200  1  0  0  0
 56201  1  0  0  0
 57202  1  0  0  0
 58203  1  0  0  0
 59204  1  0  0  0
 60205  1  0  0  0
 63206  1  0  0  0
 64207  1  0  0  0
 64208  1  0  0  0
 65209  1  0  0  0
 65210  1  0  0  0
 65211  1  0  0  0
 66212  1  0  0  0
 66213  1  0  0  0
 66214  1  0  0  0
 67215  1  0  0  0
 68216  1  0  0  0
 71217  1  0  0  0
 71218  1  0  0  0
 71219  1  0  0  0
 72220  1  0  0  0
 73221  1  0  0  0
 76222  1  0  0  0
 76223  1  0  0  0
 77224  1  0  0  0
 78225  1  0  0  0
 79226  1  0  0  0
 79227  1  0  0  0
 82228  1  0  0  0
 83229  1  0  0  0
 86230  1  0  0  0
 86231  1  0  0  0
 87232  1  0  0  0
 87233  1  0  0  0
 88234  1  0  0  0
 88235  1  0  0  0
 89236  1  0  0  0
 91237  1  0  0  0
 92238  1  0  0  0
 92239  1  0  0  0
 93240  1  0  0  0
 94241  1  0  0  0
 97242  1  0  0  0
 98243  1  0  0  0
 99244  1  0  0  0
 99245  1  0  0  0
 99246  1  0  0  0
100247  1  0  0  0
101248  1  0  0  0
101249  1  0  0  0
104250  1  0  0  0
105251  1  0  0  0
108252  1  0  0  0
108253  1  0  0  0
109254  1  0  0  0
109255  1  0  0  0
110256  1  0  0  0
110257  1  0  0  0
111258  1  0  0  0
113259  1  0  0  0
113260  1  0  0  0
114261  1  0  0  0
115262  1  0  0  0
116263  1  0  0  0
119264  1  0  0  0
119265  1  0  0  0
120266  1  0  0  0
120267  1  0  0  0
121268  1  0  0  0
121269  1  0  0  0
122270  1  0  0  0
124271  1  0  0  0
124272  1  0  0  0
125273  1  0  0  0
126274  1  0  0  0
127275  1  0  0  0
130276  1  0  0  0
130277  1  0  0  0
133278  1  0  0  0
133279  1  0  0  0
134280  1  0  0  0
135281  1  0  0  0
138282  1  0  0  0
138283  1  0  0  0
138284  1  0  0  0
139285  1  0  0  0
140286  1  0  0  0
142287  1  0  0  0
143288  1  0  0  0
144289  1  0  0  0
144290  1  0  0  0
145291  1  0  0  0
145292  1  0  0  0
145293  1  0  0  0
146294  1  0  0  0
146295  1  0  0  0
146296  1  0  0  0
M  END
$$$$
