2pcp_ligand
  -I-interpret- 

 44 46  0  0  0  0  0  0  0  0999 V2000
   -7.3300  -31.7920  -15.3690 C   0  0  0  0  0
   -9.1620  -27.2400  -14.5290 C   0  0  0  0  0
   -9.4430  -27.0060  -15.9010 C   0  0  0  0  0
  -10.7910  -26.7340  -16.3260 C   0  0  0  0  0
  -11.8960  -26.6870  -15.3840 C   0  0  0  0  0
  -11.6170  -26.9260  -14.0510 C   0  0  0  0  0
  -10.2900  -27.1930  -13.6110 C   0  0  0  0  0
   -7.6760  -27.5180  -13.9960 C   0  0  0  0  0
   -6.5630  -26.5590  -14.6380 C   0  0  0  0  0
   -6.9940  -25.1210  -14.3940 C   0  0  0  0  0
   -6.9050  -24.7740  -12.8920 C   0  0  0  0  0
   -7.7300  -25.7770  -12.0620 C   0  0  0  0  0
   -7.4210  -27.2270  -12.4630 C   0  0  0  0  0
   -7.2300  -29.0100  -14.1940 N   0  3  0  0  0
   -8.2710  -30.0700  -13.7270 C   0  0  0  0  0
   -7.7730  -31.5110  -13.9330 C   0  0  0  0  0
   -6.2590  -30.7550  -15.7650 C   0  0  0  0  0
   -6.7380  -29.3290  -15.6150 C   0  0  0  0  0
   -6.9167  -32.7981  -15.4399 H   0  0  0  0  0
   -8.1842  -31.7190  -16.0421 H   0  0  0  0  0
   -8.6364  -27.0324  -16.6337 H   0  0  0  0  0
  -10.9882  -26.5585  -17.3836 H   0  0  0  0  0
  -12.9111  -26.4706  -15.7169 H   0  0  0  0  0
  -12.4285  -26.9096  -13.3235 H   0  0  0  0  0
  -10.1126  -27.3683  -12.5499 H   0  0  0  0  0
   -6.4688  -26.7503  -15.7069 H   0  0  0  0  0
   -5.5916  -26.7464  -14.1804 H   0  0  0  0  0
   -8.0260  -25.0010  -14.7235 H   0  0  0  0  0
   -6.3337  -24.4554  -14.9499 H   0  0  0  0  0
   -7.3009  -23.7708  -12.7343 H   0  0  0  0  0
   -5.8628  -24.8230  -12.5764 H   0  0  0  0  0
   -8.7880  -25.5867  -12.2422 H   0  0  0  0  0
   -7.4747  -25.6475  -11.0103 H   0  0  0  0  0
   -6.3644  -27.4063  -12.2644 H   0  0  0  0  0
   -8.0825  -27.8762  -11.8894 H   0  0  0  0  0
   -6.4312  -29.0887  -13.5646 H   0  0  0  0  0
   -8.4473  -29.9231  -12.6614 H   0  0  0  0  0
   -9.1761  -29.9379  -14.3198 H   0  0  0  0  0
   -6.9094  -31.6592  -13.2846 H   0  0  0  0  0
   -8.5996  -32.1834  -13.7035 H   0  0  0  0  0
   -6.0124  -30.9150  -16.8146 H   0  0  0  0  0
   -5.4034  -30.8904  -15.1034 H   0  0  0  0  0
   -5.8969  -28.6706  -15.8319 H   0  0  0  0  0
   -7.5756  -29.1855  -16.2975 H   0  0  0  0  0
  1 17  1  0  0  0
  1 16  1  0  0  0
 16 15  1  0  0  0
 15 14  1  0  0  0
 14 18  1  0  0  0
 14  8  1  0  0  0
  8 13  1  0  0  0
  8  9  1  0  0  0
  8  2  1  0  0  0
  2  7  4  0  0  0
  2  3  4  0  0  0
  3  4  4  0  0  0
  4  5  4  0  0  0
  5  6  4  0  0  0
  6  7  4  0  0  0
  9 10  1  0  0  0
 10 11  1  0  0  0
 11 12  1  0  0  0
 12 13  1  0  0  0
 18 17  1  0  0  0
  1 19  1  0  0  0
  1 20  1  0  0  0
  3 21  1  0  0  0
  4 22  1  0  0  0
  5 23  1  0  0  0
  6 24  1  0  0  0
  7 25  1  0  0  0
  9 26  1  0  0  0
  9 27  1  0  0  0
 10 28  1  0  0  0
 10 29  1  0  0  0
 11 30  1  0  0  0
 11 31  1  0  0  0
 12 32  1  0  0  0
 12 33  1  0  0  0
 13 34  1  0  0  0
 13 35  1  0  0  0
 14 36  1  0  0  0
 15 37  1  0  0  0
 15 38  1  0  0  0
 16 39  1  0  0  0
 16 40  1  0  0  0
 17 41  1  0  0  0
 17 42  1  0  0  0
 18 43  1  0  0  0
 18 44  1  0  0  0
M  END
$$$$
