4xdo_ligand
  -I-interpret- 

 15 14  0  0  0  0  0  0  0  0999 V2000
  -28.9990    2.2020   45.8030 C   0  0  0  0  0
  -28.9410    3.6430   45.4980 C   0  0  0  0  0
  -30.1010    5.4420   44.3240 C   0  0  0  0  0
  -30.9640    5.8000   43.1200 C   0  0  0  0  0
  -29.7520    1.4870   45.0430 O   0  0  0  0  0
  -28.2210    1.7250   46.6820 O   0  0  0  0  0
  -28.0630    4.3740   45.9980 O   0  0  0  0  0
  -31.3280    6.9950   43.1230 O   0  0  0  0  0
  -29.8310    4.0470   44.6000 N   0  0  0  0  0
  -31.2780    4.9560   42.1980 O   0  0  0  0  0
  -30.6620    5.7970   45.1885 H   0  0  0  0  0
  -29.1261    5.8814   44.1128 H   0  0  0  0  0
  -30.2516    2.0612   44.4579 H   0  0  0  0  0
  -30.3499    3.3401   44.0791 H   0  0  0  0  0
  -30.8899    4.1019   42.4019 H   0  0  0  0  0
  2  1  1  0  0  0
  1  5  1  0  0  0
  1  6  2  0  0  0
  2  7  2  0  0  0
  9  2  1  0  0  0
  3  4  1  0  0  0
  3  9  1  0  0  0
  4  8  2  0  0  0
  4 10  1  0  0  0
  3 11  1  0  0  0
  3 12  1  0  0  0
  5 13  1  0  0  0
  9 14  1  0  0  0
 10 15  1  0  0  0
M  END
$$$$
