2ff2_ligand
  -I-interpret- 

 33 35  0  0  0  0  0  0  0  0999 V2000
  -25.0190   12.9380  -18.9240 O   0  0  0  0  0
  -24.4450   11.6690  -19.2490 C   0  0  0  0  0
  -25.0790   10.3750  -18.6170 C   0  0  0  0  0
  -26.5540   10.4700  -18.8030 N   0  3  0  0  0
  -24.7200    9.0300  -19.2680 C   0  0  0  0  0
  -24.6900    7.9410  -18.3080 O   0  0  0  0  0
  -25.8140    8.7690  -20.3650 C   0  0  0  0  0
  -26.1950    7.3870  -20.5030 O   0  0  0  0  0
  -27.0180    9.7120  -19.9860 C   0  0  0  0  0
  -27.4440   10.7740  -21.1670 C   0  0  0  0  0
  -27.1760   12.0990  -21.1720 C   0  0  0  0  0
  -27.6750   12.7070  -22.3560 N   0  0  0  0  0
  -28.2550   11.6480  -23.0450 C   0  0  0  0  0
  -28.9100   11.7400  -24.3510 C   0  0  0  0  0
  -29.0420   12.7410  -25.0220 O   0  0  0  0  0
  -29.3960   10.4590  -24.7550 N   0  0  0  0  0
  -29.2710    9.2400  -24.0110 C   0  0  0  0  0
  -28.6430    9.2580  -22.8240 N   0  0  0  0  0
  -28.1550   10.4730  -22.3800 C   0  0  0  0  0
  -24.5349   13.6324  -19.3769 H   0  0  0  0  0
  -23.4278   11.7078  -18.8592 H   0  0  0  0  0
  -24.5855   11.5594  -20.3243 H   0  0  0  0  0
  -24.6989   10.3632  -17.5955 H   0  0  0  0  0
  -26.7939   11.4517  -18.9409 H   0  0  0  0  0
  -27.0041   10.0758  -17.9769 H   0  0  0  0  0
  -23.7177    9.0751  -19.6940 H   0  0  0  0  0
  -24.0170    8.1174  -17.6466 H   0  0  0  0  0
  -25.4231    8.9983  -21.3563 H   0  0  0  0  0
  -25.4230    6.8649  -20.7333 H   0  0  0  0  0
  -27.9065    9.1047  -19.8132 H   0  0  0  0  0
  -26.6498   12.6282  -20.3776 H   0  0  0  0  0
  -29.8752   10.4069  -25.6539 H   0  0  0  0  0
  -29.6808    8.3096  -24.4040 H   0  0  0  0  0
  1  2  1  0  0  0
  2  3  1  0  0  0
  3  4  1  0  0  0
  3  5  1  0  0  0
  4  9  1  0  0  0
  5  6  1  0  0  0
  5  7  1  0  0  0
  7  8  1  0  0  0
  7  9  1  0  0  0
  9 10  1  0  0  0
 10 11  4  0  0  0
 10 19  4  0  0  0
 11 12  4  0  0  0
 12 13  4  0  0  0
 13 14  1  0  0  0
 13 19  4  0  0  0
 14 15  2  0  0  0
 14 16  1  0  0  0
 16 17  1  0  0  0
 17 18  2  0  0  0
 18 19  1  0  0  0
  1 20  1  0  0  0
  2 21  1  0  0  0
  2 22  1  0  0  0
  3 23  1  0  0  0
  4 24  1  0  0  0
  4 25  1  0  0  0
  5 26  1  0  0  0
  6 27  1  0  0  0
  7 28  1  0  0  0
  8 29  1  0  0  0
  9 30  1  0  0  0
 11 31  1  0  0  0
 16 32  1  0  0  0
 17 33  1  0  0  0
M  END
$$$$
