2oz7_ligand
  -I-interpret- 

 58 62  0  0  0  0  0  0  0  0999 V2000
   25.3710    5.4860    4.3600 C   0  0  0  0  0
   27.7990    0.4200    3.9100 C   0  0  0  0  0
   26.0230    4.2600    4.4340 C   0  0  0  0  0
   25.2610    3.1080    4.6110 C   0  0  0  0  0
   29.5410    2.7440    3.9590 C   0  0  0  0  0
   25.8560    1.8540    4.7240 C   0  0  0  0  0
   27.3760    1.6800    4.6680 C   0  0  0  0  0
   28.0150    2.8790    3.9640 C   0  0  0  0  0
   27.5410    4.1740    4.6230 C   0  0  0  0  0
   29.9710    1.4620    3.2380 C   0  0  0  0  0
   29.3160    0.2570    3.9150 C   0  0  0  0  0
   26.0480    6.6800    4.1380 C   0  0  0  0  0
   27.7830    4.1280    6.1340 C   0  0  0  0  0
   28.3140    5.3730    4.0650 C   0  0  0  0  0
   27.9610    5.8950    2.6730 C   0  0  0  0  0
   27.5610    6.6960    3.9160 C   0  0  0  0  0
   25.4290    7.7430    4.1380 O   0  0  0  0  0
   23.5410    3.2460    4.7440 Cl  0  0  0  0  0
   29.8460    0.1050    5.3430 C   0  0  0  0  0
   27.3500   -0.9240    4.4870 C   0  0  0  0  0
   28.3530   -1.9110    3.8730 C   0  0  0  0  0
   29.3940   -1.0580    3.1380 C   0  0  0  0  0
   30.7950   -1.6720    3.1960 C   0  0  0  0  0
   31.1210   -2.7110    4.2700 C   0  0  0  0  0
   31.6470   -1.3520    2.3680 O   0  0  0  0  0
   28.9720   -0.8100    1.7920 O   0  0  0  0  0
   29.0160   -1.9120    0.9930 C   0  0  0  0  0
   28.6380   -1.7700   -0.4820 C   0  0  0  0  0
   29.3700   -3.0040    1.4370 O   0  0  0  0  0
   24.2880    5.5120    4.4806 H   0  0  0  0  0
   27.3302    0.5987    2.9424 H   0  0  0  0  0
   29.8938    2.7031    4.9895 H   0  0  0  0  0
   29.9681    3.6007    3.4378 H   0  0  0  0  0
   25.2244    0.9754    4.8555 H   0  0  0  0  0
   27.7121    1.5971    5.7016 H   0  0  0  0  0
   27.6998    2.9076    2.9210 H   0  0  0  0  0
   31.0554    1.3626    3.2861 H   0  0  0  0  0
   29.6593    1.5082    2.1946 H   0  0  0  0  0
   27.2334    3.2903    6.5633 H   0  0  0  0  0
   28.8485    4.0020    6.3264 H   0  0  0  0  0
   27.4388    5.0590    6.5843 H   0  0  0  0  0
   29.2371    5.0544    4.5492 H   0  0  0  0  0
   27.5032    5.5286    1.7542 H   0  0  0  0  0
   28.4516    6.0639    1.7144 H   0  0  0  0  0
   27.7293    7.6935    4.3218 H   0  0  0  0  0
   30.9256   -0.0424    5.3147 H   0  0  0  0  0
   29.6157    1.0055    5.9124 H   0  0  0  0  0
   29.3727   -0.7559    5.8151 H   0  0  0  0  0
   26.3151   -1.1651    4.2441 H   0  0  0  0  0
   27.3529   -0.9396    5.5769 H   0  0  0  0  0
   27.8579   -2.6023    3.1910 H   0  0  0  0  0
   28.8202   -2.5268    4.6415 H   0  0  0  0  0
   31.3906   -3.6530    3.7925 H   0  0  0  0  0
   31.9557   -2.3568    4.8749 H   0  0  0  0  0
   30.2481   -2.8611    4.9054 H   0  0  0  0  0
   29.4919   -2.0421   -1.1024 H   0  0  0  0  0
   27.7996   -2.4296   -0.7060 H   0  0  0  0  0
   28.3540   -0.7374   -0.6852 H   0  0  0  0  0
  3  1  2  0  0  0
  1 12  1  0  0  0
  7  2  1  0  0  0
  2 11  1  0  0  0
  2 20  1  0  0  0
  4  3  1  0  0  0
  3  9  1  0  0  0
  6  4  2  0  0  0
  4 18  1  0  0  0
  8  5  1  0  0  0
  5 10  1  0  0  0
  7  6  1  0  0  0
  7  8  1  0  0  0
  8  9  1  0  0  0
  9 13  1  0  0  0
  9 14  1  0  0  0
 10 11  1  0  0  0
 11 19  1  0  0  0
 11 22  1  0  0  0
 12 16  1  0  0  0
 12 17  2  0  0  0
 14 15  1  0  0  0
 14 16  1  0  0  0
 15 16  1  0  0  0
 20 21  1  0  0  0
 21 22  1  0  0  0
 22 23  1  0  0  0
 22 26  1  0  0  0
 23 24  1  0  0  0
 23 25  2  0  0  0
 26 27  1  0  0  0
 27 28  1  0  0  0
 27 29  2  0  0  0
  1 30  1  0  0  0
  2 31  1  0  0  0
  5 32  1  0  0  0
  5 33  1  0  0  0
  6 34  1  0  0  0
  7 35  1  0  0  0
  8 36  1  0  0  0
 10 37  1  0  0  0
 10 38  1  0  0  0
 13 39  1  0  0  0
 13 40  1  0  0  0
 13 41  1  0  0  0
 14 42  1  0  0  0
 15 43  1  0  0  0
 15 44  1  0  0  0
 16 45  1  0  0  0
 19 46  1  0  0  0
 19 47  1  0  0  0
 19 48  1  0  0  0
 20 49  1  0  0  0
 20 50  1  0  0  0
 21 51  1  0  0  0
 21 52  1  0  0  0
 24 53  1  0  0  0
 24 54  1  0  0  0
 24 55  1  0  0  0
 28 56  1  0  0  0
 28 57  1  0  0  0
 28 58  1  0  0  0
M  END
$$$$
