1pxl_ligand
  -I-interpret- 

 37 39  0  0  0  0  0  0  0  0999 V2000
    8.5860   45.8700   30.4820 F   0  0  0  0  0
    7.4920   45.9380   29.5940 C   0  0  0  0  0
    6.6520   47.0090   29.9800 F   0  0  0  0  0
    6.7780   44.7360   29.6220 F   0  0  0  0  0
    8.0710   46.1830   28.1180 C   0  0  0  0  0
    7.4150   47.1130   27.2140 C   0  0  0  0  0
    7.9630   47.3440   25.9040 C   0  0  0  0  0
    9.2760   45.4860   27.6780 C   0  0  0  0  0
    9.8190   45.7110   26.3930 C   0  0  0  0  0
    9.2100   46.6290   25.4760 C   0  0  0  0  0
    9.8050   46.8810   24.1400 N   0  0  0  0  0
   10.9180   46.5200   23.2800 C   0  0  0  0  0
   10.9680   47.0990   22.0930 N   0  0  0  0  0
   12.0090   46.7930   21.2420 C   0  0  0  0  0
   13.0550   45.8810   21.5460 C   0  0  0  0  0
   11.8620   45.6440   23.6600 N   0  0  0  0  0
   12.9530   45.2710   22.8570 C   0  0  0  0  0
   13.8620   44.3090   23.4280 C   0  0  0  0  0
   13.4400   43.7410   25.0860 S   0  0  0  0  0
   15.0560   43.6450   23.0360 C   0  0  0  0  0
   15.8070   43.7990   21.6860 C   0  0  0  0  0
   15.5950   42.7590   23.9940 N   0  0  0  0  0
   14.8030   42.7540   25.0980 C   0  0  0  0  0
   14.9890   41.9640   26.3620 C   0  0  0  0  0
    6.5104   47.6340   27.5277 H   0  0  0  0  0
    7.4719   48.0387   25.2225 H   0  0  0  0  0
    9.7643   44.7812   28.3510 H   0  0  0  0  0
   10.7196   45.1754   26.0929 H   0  0  0  0  0
    9.2181   47.5528   23.6454 H   0  0  0  0  0
   12.0308   47.2846   20.2694 H   0  0  0  0  0
   13.8657   45.6588   20.8521 H   0  0  0  0  0
   15.1463   43.5089   20.8690 H   0  0  0  0  0
   16.1114   44.8377   21.5574 H   0  0  0  0  0
   16.6887   43.1582   21.6870 H   0  0  0  0  0
   15.0845   42.6477   27.2055 H   0  0  0  0  0
   14.1261   41.3157   26.5141 H   0  0  0  0  0
   15.8909   41.3574   26.2804 H   0  0  0  0  0
  2  1  1  0  0  0
  2  3  1  0  0  0
  2  4  1  0  0  0
  2  5  1  0  0  0
  5  6  4  0  0  0
  5  8  4  0  0  0
  6  7  4  0  0  0
  7 10  4  0  0  0
  8  9  4  0  0  0
  9 10  4  0  0  0
 10 11  1  0  0  0
 11 12  1  0  0  0
 12 13  4  0  0  0
 12 16  4  0  0  0
 13 14  4  0  0  0
 14 15  4  0  0  0
 15 17  4  0  0  0
 16 17  4  0  0  0
 17 18  1  0  0  0
 18 19  4  0  0  0
 18 20  4  0  0  0
 19 23  4  0  0  0
 20 21  1  0  0  0
 20 22  4  0  0  0
 22 23  4  0  0  0
 23 24  1  0  0  0
  6 25  1  0  0  0
  7 26  1  0  0  0
  8 27  1  0  0  0
  9 28  1  0  0  0
 11 29  1  0  0  0
 14 30  1  0  0  0
 15 31  1  0  0  0
 21 32  1  0  0  0
 21 33  1  0  0  0
 21 34  1  0  0  0
 24 35  1  0  0  0
 24 36  1  0  0  0
 24 37  1  0  0  0
M  END
$$$$
