2zq0_ligand
  -I-interpret- 

 88 91  0  0  0  0  0  0  0  0999 V2000
   31.8660   51.7960   36.1020 C   0  0  0  0  0
   32.3290   50.6950   35.0560 C   0  0  0  0  0
   31.2340   49.6430   34.6820 C   0  0  0  0  0
   30.7630   48.8510   35.9860 C   0  0  0  0  0
   30.8060   49.6760   37.3120 C   0  0  0  0  0
   30.3440   48.9850   38.5690 C   0  0  0  0  0
   31.2950   51.0120   37.3460 C   0  0  0  0  0
   32.8230   51.4420   33.9640 O   0  0  0  0  0
   31.8060   48.8000   33.7360 O   0  0  0  0  0
   29.4940   48.3220   35.6130 O   0  0  0  0  0
   31.1980   48.1790   39.3810 O   0  0  0  0  0
   29.0210   56.2950   37.2250 C   0  0  0  0  0
   30.5550   56.2750   37.1420 C   0  0  0  0  0
   31.0260   55.2620   36.0780 C   0  0  0  0  0
   30.4810   53.8540   36.4800 C   0  0  0  0  0
   28.9120   53.9460   36.4870 C   0  0  0  0  0
   28.2460   52.6130   36.8570 C   0  0  0  0  0
   30.9420   52.8350   35.5190 N   0  3  0  0  0
   31.0140   57.6030   36.8580 O   0  0  0  0  0
   32.4550   55.2690   36.0380 O   0  0  0  0  0
   28.4780   54.9510   37.4680 O   0  0  0  0  0
   25.6090   60.0580   35.7110 C   0  0  0  0  0
   27.1160   60.3990   35.8020 C   0  0  0  0  0
   27.9640   59.1700   35.4410 C   0  0  0  0  0
   27.6160   58.0150   36.3960 C   0  0  0  0  0
   26.0850   57.6920   36.2290 C   0  0  0  0  0
   25.6350   56.5440   37.1520 C   0  0  0  0  0
   27.4090   61.4990   34.9190 O   0  0  0  0  0
   29.3520   59.5030   35.5650 O   0  0  0  0  0
   28.4270   56.8750   36.0530 O   0  0  0  0  0
   25.2860   58.9000   36.5650 O   0  0  0  0  0
   25.8610   56.8940   38.5250 O   0  0  0  0  0
   21.3960   60.9040   32.5120 C   0  0  0  0  0
   22.3500   62.0350   33.0190 C   0  0  0  0  0
   23.7820   61.4930   33.1910 C   0  0  0  0  0
   23.7770   60.3200   34.1850 C   0  0  0  0  0
   22.8020   59.2030   33.6580 C   0  0  0  0  0
   22.6960   58.0340   34.6600 C   0  0  0  0  0
   21.7710   60.4620   31.2040 O   0  0  0  0  0
   22.3540   63.1370   32.0900 O   0  0  0  0  0
   24.6510   62.5340   33.6660 O   0  0  0  0  0
   25.1440   59.8410   34.3510 O   0  0  0  0  0
   21.4360   59.7650   33.4630 O   0  0  0  0  0
   22.0770   58.4580   35.8830 O   0  0  0  0  0
   32.7070   52.4131   36.4182 H   0  0  0  0  0
   33.0928   50.0410   35.4766 H   0  0  0  0  0
   30.3405   50.1131   34.2713 H   0  0  0  0  0
   31.4548   48.0564   36.2657 H   0  0  0  0  0
   29.6095   48.2693   38.1997 H   0  0  0  0  0
   30.0923   49.8163   39.2276 H   0  0  0  0  0
   31.2734   51.5326   38.3034 H   0  0  0  0  0
   33.4869   52.0615   34.2757 H   0  0  0  0  0
   32.0742   49.3144   32.9711 H   0  0  0  0  0
   29.5806   47.8364   34.7894 H   0  0  0  0  0
   30.6998   47.8384   40.1276 H   0  0  0  0  0
   28.7612   56.9264   38.0747 H   0  0  0  0  0
   30.9802   55.9526   38.0925 H   0  0  0  0  0
   30.6534   55.5205   35.0868 H   0  0  0  0  0
   30.8474   53.5617   37.4641 H   0  0  0  0  0
   28.6107   54.2180   35.4754 H   0  0  0  0  0
   28.5347   51.8508   36.1332 H   0  0  0  0  0
   28.5693   52.3109   37.8531 H   0  0  0  0  0
   27.1628   52.7342   36.8464 H   0  0  0  0  0
   30.1129   52.3431   35.1858 H   0  0  0  0  0
   31.4648   53.3250   34.7931 H   0  0  0  0  0
   31.9724   57.6043   36.8035 H   0  0  0  0  0
   32.7586   54.6412   35.3782 H   0  0  0  0  0
   25.0751   60.9352   36.0766 H   0  0  0  0  0
   27.3619   60.6884   36.8237 H   0  0  0  0  0
   27.7567   58.8634   34.4158 H   0  0  0  0  0
   27.8138   58.2798   37.4347 H   0  0  0  0  0
   25.9257   57.3893   35.1941 H   0  0  0  0  0
   26.2088   55.6485   36.9131 H   0  0  0  0  0
   24.5711   56.3612   37.0010 H   0  0  0  0  0
   28.3435   61.7120   34.9741 H   0  0  0  0  0
   29.8850   58.7369   35.3401 H   0  0  0  0  0
   25.5768   56.1712   39.0893 H   0  0  0  0  0
   20.3829   61.3020   32.4550 H   0  0  0  0  0
   21.9867   62.3849   33.9853 H   0  0  0  0  0
   24.1477   61.1434   32.2255 H   0  0  0  0  0
   23.4143   60.6311   35.1647 H   0  0  0  0  0
   23.2068   58.8383   32.7139 H   0  0  0  0  0
   23.7001   57.6735   34.8835 H   0  0  0  0  0
   22.0873   57.2468   34.2151 H   0  0  0  0  0
   21.1711   59.7696   30.9172 H   0  0  0  0  0
   22.9425   63.8236   32.4122 H   0  0  0  0  0
   25.5394   62.1853   33.7694 H   0  0  0  0  0
   22.0231   57.7143   36.4877 H   0  0  0  0  0
  1  2  1  0  0  0
  1  7  1  0  0  0
 18  1  1  0  0  0
  2  3  1  0  0  0
  2  8  1  0  0  0
  3  4  1  0  0  0
  3  9  1  0  0  0
  5  4  1  0  0  0
  4 10  1  0  0  0
  5  6  1  0  0  0
  7  5  2  0  0  0
  6 11  1  0  0  0
 12 13  1  0  0  0
 12 21  1  0  0  0
 30 12  1  0  0  0
 13 14  1  0  0  0
 13 19  1  0  0  0
 14 15  1  0  0  0
 14 20  1  0  0  0
 16 15  1  0  0  0
 15 18  1  0  0  0
 16 17  1  0  0  0
 21 16  1  0  0  0
 22 23  1  0  0  0
 22 31  1  0  0  0
 42 22  1  0  0  0
 23 24  1  0  0  0
 23 28  1  0  0  0
 24 25  1  0  0  0
 24 29  1  0  0  0
 26 25  1  0  0  0
 25 30  1  0  0  0
 26 27  1  0  0  0
 31 26  1  0  0  0
 27 32  1  0  0  0
 34 33  1  0  0  0
 33 39  1  0  0  0
 33 43  1  0  0  0
 35 34  1  0  0  0
 34 40  1  0  0  0
 36 35  1  0  0  0
 35 41  1  0  0  0
 36 37  1  0  0  0
 36 42  1  0  0  0
 37 38  1  0  0  0
 37 43  1  0  0  0
 38 44  1  0  0  0
  1 45  1  0  0  0
  2 46  1  0  0  0
  3 47  1  0  0  0
  4 48  1  0  0  0
  6 49  1  0  0  0
  6 50  1  0  0  0
  7 51  1  0  0  0
  8 52  1  0  0  0
  9 53  1  0  0  0
 10 54  1  0  0  0
 11 55  1  0  0  0
 12 56  1  0  0  0
 13 57  1  0  0  0
 14 58  1  0  0  0
 15 59  1  0  0  0
 16 60  1  0  0  0
 17 61  1  0  0  0
 17 62  1  0  0  0
 17 63  1  0  0  0
 18 64  1  0  0  0
 18 65  1  0  0  0
 19 66  1  0  0  0
 20 67  1  0  0  0
 22 68  1  0  0  0
 23 69  1  0  0  0
 24 70  1  0  0  0
 25 71  1  0  0  0
 26 72  1  0  0  0
 27 73  1  0  0  0
 27 74  1  0  0  0
 28 75  1  0  0  0
 29 76  1  0  0  0
 32 77  1  0  0  0
 33 78  1  0  0  0
 34 79  1  0  0  0
 35 80  1  0  0  0
 36 81  1  0  0  0
 37 82  1  0  0  0
 38 83  1  0  0  0
 38 84  1  0  0  0
 39 85  1  0  0  0
 40 86  1  0  0  0
 41 87  1  0  0  0
 44 88  1  0  0  0
M  END
$$$$
