3uph_ligand
  -I-interpret- 

 52 56  0  0  0  0  0  0  0  0999 V2000
   25.9290   41.2770   47.8320 C   0  0  0  0  0
   25.9680   41.4830   46.4480 C   0  0  0  0  0
   29.4860   44.7190   42.7020 C   0  0  0  0  0
   29.0380   43.7630   41.7940 C   0  0  0  0  0
   27.6110   44.2080   44.1530 C   0  0  0  0  0
   24.4990   43.4600   46.7100 C   0  0  0  0  0
   23.9250   44.4210   45.8460 C   0  0  0  0  0
   25.2070   42.1420   48.6240 C   0  0  0  0  0
   27.1450   43.2260   43.2460 C   0  0  0  0  0
   25.2600   42.5820   45.9120 C   0  0  0  0  0
   24.4980   43.2060   48.0860 C   0  0  0  0  0
   28.7690   44.9380   43.8660 C   0  0  0  0  0
   27.8840   43.0380   42.0670 C   0  0  0  0  0
   24.3800   44.1600   44.5530 C   0  0  0  0  0
   22.5230   47.4700   47.6180 C   0  0  0  0  0
   23.3780   46.3690   47.2430 C   0  0  0  0  0
   21.4060   47.7030   46.9120 C   0  0  0  0  0
   23.0870   45.5310   46.2200 C   0  0  0  0  0
   21.8010   45.7970   45.4400 C   0  0  0  0  0
   24.2380   45.0370   43.4150 C   0  0  0  0  0
   25.0460   42.1390   50.1000 C   0  0  0  0  0
   23.8470   43.0720   50.2010 C   0  0  0  0  0
   25.8950   45.7820   41.0500 C   0  0  0  0  0
   25.8940   42.4150   43.5120 C   0  0  0  0  0
   25.1610   43.0280   44.6180 N   0  0  0  0  0
   21.0640   46.9010   45.8580 N   0  0  0  0  0
   23.7900   44.4640   42.2080 N   0  0  0  0  0
   21.4310   45.0730   44.4980 O   0  0  0  0  0
   24.2860   46.2640   43.5190 O   0  0  0  0  0
   24.6150   43.7890   39.8460 O   0  0  0  0  0
   23.4970   46.0000   40.2400 O   0  0  0  0  0
   23.8440   43.9550   49.0600 O   0  0  0  0  0
   29.1930   45.8720   44.7210 F   0  0  0  0  0
   27.4830   42.1530   41.1690 F   0  0  0  0  0
   24.3820   44.9440   40.6830 S   0  0  0  0  0
   26.4651   40.4397   48.2788 H   0  0  0  0  0
   26.5310   40.8118   45.7994 H   0  0  0  0  0
   30.3923   45.2893   42.4984 H   0  0  0  0  0
   29.5907   43.5838   40.8718 H   0  0  0  0  0
   27.0656   44.3958   45.0779 H   0  0  0  0  0
   22.7819   48.1050   48.4652 H   0  0  0  0  0
   24.2963   46.2054   47.8070 H   0  0  0  0  0
   20.7635   48.5413   47.1816 H   0  0  0  0  0
   24.0245   45.0680   46.5280 H   0  0  0  0  0
   25.6137   41.6250   50.8756 H   0  0  0  0  0
   23.1106   43.0727   51.0047 H   0  0  0  0  0
   26.5677   45.1023   41.5731 H   0  0  0  0  0
   26.3603   46.1125   40.1214 H   0  0  0  0  0
   25.6865   46.6460   41.6810 H   0  0  0  0  0
   26.1656   41.3917   43.7713 H   0  0  0  0  0
   25.2687   42.3974   42.6194 H   0  0  0  0  0
   23.0817   43.7312   42.2485 H   0  0  0  0  0
  2  1  4  0  0  0
  1  8  4  0  0  0
 10  2  4  0  0  0
  4  3  4  0  0  0
 12  3  4  0  0  0
 13  4  4  0  0  0
  9  5  4  0  0  0
  5 12  4  0  0  0
  7  6  4  0  0  0
 10  6  4  0  0  0
  6 11  4  0  0  0
 14  7  4  0  0  0
  7 18  1  0  0  0
 11  8  4  0  0  0
  8 21  4  0  0  0
  9 13  4  0  0  0
 24  9  1  0  0  0
 25 10  4  0  0  0
 11 32  4  0  0  0
 12 33  1  0  0  0
 13 34  1  0  0  0
 20 14  1  0  0  0
 14 25  4  0  0  0
 16 15  2  0  0  0
 15 17  1  0  0  0
 18 16  1  0  0  0
 26 17  2  0  0  0
 18 19  1  0  0  0
 19 26  1  0  0  0
 19 28  2  0  0  0
 27 20  1  0  0  0
 20 29  2  0  0  0
 22 21  4  0  0  0
 32 22  4  0  0  0
 35 23  1  0  0  0
 25 24  1  0  0  0
 27 35  1  0  0  0
 35 30  2  0  0  0
 35 31  2  0  0  0
  1 36  1  0  0  0
  2 37  1  0  0  0
  3 38  1  0  0  0
  4 39  1  0  0  0
  5 40  1  0  0  0
 15 41  1  0  0  0
 16 42  1  0  0  0
 17 43  1  0  0  0
 18 44  1  0  0  0
 21 45  1  0  0  0
 22 46  1  0  0  0
 23 47  1  0  0  0
 23 48  1  0  0  0
 23 49  1  0  0  0
 24 50  1  0  0  0
 24 51  1  0  0  0
 27 52  1  0  0  0
M  END
$$$$
