5f6u_ligand
  -I-interpret- 

 39 40  0  0  0  0  0  0  0  0999 V2000
  -12.0950   11.0000  -25.8890 C   0  0  0  0  0
  -13.5960   11.0070  -25.8710 C   0  0  0  0  0
  -14.0390   11.4670  -24.5800 O   0  0  0  0  0
  -14.1730   10.4680  -23.5990 C   0  0  0  0  0
  -13.9230    9.3120  -23.8590 O   0  0  0  0  0
  -14.2930   10.9120  -22.0950 C   0  0  0  0  0
  -12.9570   10.7400  -21.3730 C   0  0  0  0  0
  -11.8100   11.6660  -21.9680 C   0  0  0  0  0
  -11.9770   13.0330  -22.0260 C   0  0  0  0  0
  -10.9530   13.8570  -22.5480 C   0  0  0  0  0
  -11.1540   15.2560  -22.5960 O   0  0  0  0  0
  -10.6100   11.0930  -22.4460 C   0  0  0  0  0
   -9.6200   11.8890  -22.9600 C   0  0  0  0  0
   -9.7740   13.2860  -23.0340 C   0  0  0  0  0
   -8.6150   14.0720  -23.5770 C   0  0  0  0  0
   -7.3930   13.5070  -23.3880 C   0  0  0  0  0
   -6.2260   14.1620  -23.8420 C   0  0  0  0  0
   -6.3000   15.3930  -24.4750 C   0  0  0  0  0
   -7.5090   15.9670  -24.6670 C   0  0  0  0  0
   -8.6860   15.3180  -24.2170 C   0  0  0  0  0
   -9.9050   15.9730  -24.4430 O   0  0  0  0  0
  -11.7260   12.0095  -25.7079 H   0  0  0  0  0
  -11.7267   10.3320  -25.1104 H   0  0  0  0  0
  -11.7462   10.6534  -26.8618 H   0  0  0  0  0
  -13.9737   10.0014  -26.0559 H   0  0  0  0  0
  -13.9730   11.6696  -26.6501 H   0  0  0  0  0
  -15.0420   10.2915  -21.6030 H   0  0  0  0  0
  -14.5800   11.9629  -22.0596 H   0  0  0  0  0
  -12.6441    9.7028  -21.4934 H   0  0  0  0  0
  -13.1035   11.0196  -20.3297 H   0  0  0  0  0
  -12.9035   13.4814  -21.6675 H   0  0  0  0  0
  -10.3775   15.6770  -22.9722 H   0  0  0  0  0
  -10.4711   10.0126  -22.4057 H   0  0  0  0  0
   -8.6972   11.4323  -23.3177 H   0  0  0  0  0
   -7.3130   12.5440  -22.8838 H   0  0  0  0  0
   -5.2537   13.6925  -23.6923 H   0  0  0  0  0
   -5.3929   15.8930  -24.8144 H   0  0  0  0  0
   -7.5788   16.9318  -25.1694 H   0  0  0  0  0
   -9.7411   16.8062  -24.8907 H   0  0  0  0  0
  1  2  1  0  0  0
  2  3  1  0  0  0
  3  4  1  0  0  0
  4  5  2  0  0  0
  4  6  1  0  0  0
  6  7  1  0  0  0
  7  8  1  0  0  0
  8  9  4  0  0  0
  8 12  4  0  0  0
  9 10  4  0  0  0
 10 11  1  0  0  0
 10 14  4  0  0  0
 12 13  4  0  0  0
 13 14  4  0  0  0
 14 15  1  0  0  0
 15 16  4  0  0  0
 15 20  4  0  0  0
 16 17  4  0  0  0
 17 18  4  0  0  0
 18 19  4  0  0  0
 19 20  4  0  0  0
 20 21  1  0  0  0
  1 22  1  0  0  0
  1 23  1  0  0  0
  1 24  1  0  0  0
  2 25  1  0  0  0
  2 26  1  0  0  0
  6 27  1  0  0  0
  6 28  1  0  0  0
  7 29  1  0  0  0
  7 30  1  0  0  0
  9 31  1  0  0  0
 11 32  1  0  0  0
 12 33  1  0  0  0
 13 34  1  0  0  0
 16 35  1  0  0  0
 17 36  1  0  0  0
 18 37  1  0  0  0
 19 38  1  0  0  0
 21 39  1  0  0  0
M  END
$$$$
