2f7i_ligand
  -I-interpret- 

 25 26  0  0  0  0  0  0  0  0999 V2000
   20.9760   86.1010   29.1210 O   0  0  0  0  0
   21.6430   85.0980   28.4360 C   0  0  0  0  0
   22.2410   84.1940   29.0500 O   0  0  0  0  0
   21.6450   85.1010   26.9500 C   0  0  0  0  0
   20.9650   86.1320   26.2590 C   0  0  0  0  0
   22.3230   84.0790   26.2360 C   0  0  0  0  0
   22.3360   84.0920   24.9170 C   0  0  0  0  0
   21.6390   85.1240   24.1540 C   0  0  0  0  0
   20.9610   86.1450   24.8890 C   0  0  0  0  0
   21.6360   85.1360   22.7760 C   0  0  0  0  0
   21.6380   83.9080   21.9550 C   0  0  0  0  0
   21.6030   82.6700   22.5720 F   0  0  0  0  0
   21.6510   83.9380   20.6360 C   0  0  0  0  0
   21.6310   85.1600   19.9930 C   0  0  0  0  0
   21.6130   86.3700   20.7100 C   0  0  0  0  0
   21.6150   86.3710   22.0830 C   0  0  0  0  0
   21.6660   87.6030   22.7220 F   0  0  0  0  0
   20.5765   86.7058   28.4915 H   0  0  0  0  0
   20.4462   86.9130   26.8148 H   0  0  0  0  0
   22.8334   83.2827   26.7779 H   0  0  0  0  0
   22.8805   83.3131   24.3832 H   0  0  0  0  0
   20.4375   86.9389   24.3564 H   0  0  0  0  0
   21.6771   83.0117   20.0621 H   0  0  0  0  0
   21.6291   85.1875   18.9033 H   0  0  0  0  0
   21.5973   87.3167   20.1700 H   0  0  0  0  0
  1  2  1  0  0  0
  2  3  2  0  0  0
  2  4  1  0  0  0
  4  5  4  0  0  0
  4  6  4  0  0  0
  5  9  4  0  0  0
  6  7  4  0  0  0
  7  8  4  0  0  0
  8  9  4  0  0  0
  8 10  1  0  0  0
 10 11  4  0  0  0
 10 16  4  0  0  0
 11 12  1  0  0  0
 11 13  4  0  0  0
 13 14  4  0  0  0
 14 15  4  0  0  0
 15 16  4  0  0  0
 16 17  1  0  0  0
  1 18  1  0  0  0
  5 19  1  0  0  0
  6 20  1  0  0  0
  7 21  1  0  0  0
  9 22  1  0  0  0
 13 23  1  0  0  0
 14 24  1  0  0  0
 15 25  1  0  0  0
M  END
$$$$
