3oof_ligand
  -I-interpret- 

 61 65  0  0  0  0  0  0  0  0999 V2000
   22.7090   11.0990   52.2500 N   0  0  0  0  0
   23.2350   11.8720   53.3320 C   0  0  0  0  0
   23.9980   11.1550   54.1430 N   0  0  0  0  0
   23.1190    9.7900   52.4530 C   0  0  0  0  0
   23.9120    9.8260   53.6590 C   0  0  0  0  0
   20.6490   10.7520   50.9510 C   0  0  0  0  0
   21.9730   11.5760   51.1060 C   0  0  0  0  0
   22.8970    8.6180   51.7310 C   0  0  0  0  0
   24.4390    8.6320   54.1800 C   0  0  0  0  0
   19.9250   10.5460   52.1210 N   0  0  0  0  0
   23.4790    7.4490   52.2330 C   0  0  0  0  0
   23.0210   13.3100   53.4270 C   0  0  0  0  0
   24.1950    7.4600   53.4640 C   0  0  0  0  0
   14.9520    7.7890   52.5180 C   0  0  0  0  0
   20.3030   10.3030   49.8470 O   0  0  0  0  0
   16.2170    8.5390   52.4880 C   0  0  0  0  0
   14.1300    7.6380   51.6140 O   0  0  0  0  0
   22.7980   11.5070   49.7860 C   0  0  0  0  0
   24.1170   14.1900   53.3660 C   0  0  0  0  0
   21.7340   13.8120   53.5660 C   0  0  0  0  0
   18.6900    9.8850   52.2810 C   0  0  0  0  0
   16.7080    9.2730   53.5720 C   0  0  0  0  0
   16.9540    8.4980   51.2990 C   0  0  0  0  0
   23.3280    6.2520   51.6160 F   0  0  0  0  0
   24.7460    6.2900   53.8320 F   0  0  0  0  0
   14.6540    7.1190   53.6640 O   0  0  0  0  0
   22.5810   16.0550   53.5150 C   0  0  0  0  0
   17.9320    9.9280   53.4740 C   0  0  0  0  0
   18.1710    9.1400   51.1950 C   0  0  0  0  0
   23.8940   15.5730   53.4190 C   0  0  0  0  0
   21.4950   15.1790   53.5930 C   0  0  0  0  0
   22.2810   17.7160   53.5200 Cl  0  0  0  0  0
   22.1720   12.4180   48.7310 C   0  0  0  0  0
   24.2830   11.8530   49.9860 C   0  0  0  0  0
   25.0630   11.8220   48.6830 C   0  0  0  0  0
   22.9620   12.3550   47.4350 C   0  0  0  0  0
   24.4160   12.7310   47.6480 C   0  0  0  0  0
   21.7453   12.6270   51.2838 H   0  0  0  0  0
   22.2990    8.6128   50.8197 H   0  0  0  0  0
   25.0147    8.6221   55.1055 H   0  0  0  0  0
   20.3414   10.9217   52.9730 H   0  0  0  0  0
   22.7664   10.4728   49.4433 H   0  0  0  0  0
   25.1310   13.7998   53.2783 H   0  0  0  0  0
   20.8964   13.1203   53.6555 H   0  0  0  0  0
   16.1313    9.3323   54.4951 H   0  0  0  0  0
   16.5608    7.9507   50.4423 H   0  0  0  0  0
   15.3373    7.2854   54.3175 H   0  0  0  0  0
   18.3127   10.4834   54.3311 H   0  0  0  0  0
   18.7386    9.0728   50.2669 H   0  0  0  0  0
   24.7337   16.2672   53.3859 H   0  0  0  0  0
   20.4779   15.5626   53.6736 H   0  0  0  0  0
   22.1794   13.4436   49.1001 H   0  0  0  0  0
   21.1512   12.0875   48.5392 H   0  0  0  0  0
   24.7157   11.1107   50.6568 H   0  0  0  0  0
   24.3431   12.8628   50.3920 H   0  0  0  0  0
   25.0703   10.8013   48.3006 H   0  0  0  0  0
   26.0788   12.1694   48.8717 H   0  0  0  0  0
   22.5236   13.0612   46.7299 H   0  0  0  0  0
   22.9225   11.3334   47.0571 H   0  0  0  0  0
   24.9490   12.6233   46.7033 H   0  0  0  0  0
   24.4645   13.7599   48.0045 H   0  0  0  0  0
  1  2  4  0  0  0
  1  4  4  0  0  0
  7  1  1  0  0  0
  2  3  4  0  0  0
  2 12  1  0  0  0
  5  3  4  0  0  0
  4  5  4  0  0  0
  4  8  4  0  0  0
  5  9  4  0  0  0
  6  7  1  0  0  0
 10  6  1  0  0  0
  6 15  2  0  0  0
  7 18  1  0  0  0
  8 11  4  0  0  0
  9 13  4  0  0  0
 21 10  1  0  0  0
 11 13  4  0  0  0
 11 24  1  0  0  0
 12 19  4  0  0  0
 12 20  4  0  0  0
 13 25  1  0  0  0
 16 14  1  0  0  0
 14 17  2  0  0  0
 14 26  1  0  0  0
 22 16  4  0  0  0
 16 23  4  0  0  0
 18 33  1  0  0  0
 18 34  1  0  0  0
 19 30  4  0  0  0
 20 31  4  0  0  0
 28 21  4  0  0  0
 21 29  4  0  0  0
 22 28  4  0  0  0
 23 29  4  0  0  0
 30 27  4  0  0  0
 27 31  4  0  0  0
 27 32  1  0  0  0
 33 36  1  0  0  0
 34 35  1  0  0  0
 35 37  1  0  0  0
 36 37  1  0  0  0
  7 38  1  0  0  0
  8 39  1  0  0  0
  9 40  1  0  0  0
 10 41  1  0  0  0
 18 42  1  0  0  0
 19 43  1  0  0  0
 20 44  1  0  0  0
 22 45  1  0  0  0
 23 46  1  0  0  0
 26 47  1  0  0  0
 28 48  1  0  0  0
 29 49  1  0  0  0
 30 50  1  0  0  0
 31 51  1  0  0  0
 33 52  1  0  0  0
 33 53  1  0  0  0
 34 54  1  0  0  0
 34 55  1  0  0  0
 35 56  1  0  0  0
 35 57  1  0  0  0
 36 58  1  0  0  0
 36 59  1  0  0  0
 37 60  1  0  0  0
 37 61  1  0  0  0
M  END
$$$$
