4xv3_ligand
  -I-interpret- 

 56 58  0  0  0  0  0  0  0  0999 V2000
   -5.2790   -3.6290  -16.5960 C   0  0  0  0  0
   -5.6230   -1.8970  -18.6680 C   0  0  0  0  0
   -4.7080   -4.0590  -17.9330 C   0  0  0  0  0
   -5.3330   -4.8930  -21.1000 O   0  0  0  0  0
   -4.9460   -2.4520  -21.4730 O   0  0  0  0  0
   -5.4020   -3.3240  -19.0430 N   0  0  0  0  0
   -4.7860   -3.6320  -20.6430 S   0  0  0  0  0
    6.5380   -1.5380  -19.1610 N   0  0  0  0  0
    5.1560   -1.6210  -19.1640 C   0  0  0  0  0
    4.5390   -2.1710  -20.2400 N   0  0  0  0  0
    3.1830   -2.2310  -20.2200 C   0  0  0  0  0
    2.5530   -2.8440  -21.3920 C   0  0  0  0  0
    1.2480   -2.8890  -21.8660 C   0  0  0  0  0
    0.0340   -2.3210  -21.3400 C   0  0  0  0  0
   -0.2180   -0.9500  -21.2180 C   0  0  0  0  0
   -1.4560   -0.5280  -20.7250 C   0  0  0  0  0
   -2.4360   -1.4590  -20.3730 C   0  0  0  0  0
   -2.1830   -2.8250  -20.5240 C   0  0  0  0  0
   -3.1320   -3.8560  -20.1830 N   0  0  0  0  0
   -0.9540   -3.2370  -21.0060 C   0  0  0  0  0
   -0.7170   -4.5500  -21.1400 F   0  0  0  0  0
    1.0360   -3.5980  -23.0230 N   0  0  0  0  0
    2.1480   -4.1040  -23.4750 C   0  0  0  0  0
    2.1810   -4.9420  -24.7450 C   0  0  0  0  0
    2.7750   -4.1670  -25.9370 C   0  0  0  0  0
    0.7270   -5.3300  -25.0990 C   0  0  0  0  0
    2.9550   -6.2460  -24.4840 C   0  0  0  0  0
    3.5260   -3.7510  -22.4960 S   0  0  0  0  0
    2.4390   -1.7750  -19.1500 C   0  0  0  0  0
    3.1530   -1.2350  -18.1070 C   0  0  0  0  0
    4.4980   -1.1450  -18.0860 N   0  0  0  0  0
   -5.1306   -2.5569  -16.4669 H   0  0  0  0  0
   -6.3448   -3.8556  -16.5677 H   0  0  0  0  0
   -4.7706   -4.1664  -15.7955 H   0  0  0  0  0
   -4.6787   -1.3561  -18.7294 H   0  0  0  0  0
   -6.3442   -1.4503  -19.3524 H   0  0  0  0  0
   -6.0071   -1.8457  -17.6492 H   0  0  0  0  0
   -4.8589   -5.1309  -18.0612 H   0  0  0  0  0
   -3.6427   -3.8299  -17.9602 H   0  0  0  0  0
    7.0716   -1.8866  -19.9573 H   0  0  0  0  0
    7.0226   -1.1282  -18.3624 H   0  0  0  0  0
    0.5406   -0.2212  -21.5035 H   0  0  0  0  0
   -1.6585    0.5373  -20.6142 H   0  0  0  0  0
   -3.3955   -1.1209  -19.9816 H   0  0  0  0  0
   -2.8365   -4.6951  -19.6840 H   0  0  0  0  0
    2.1703   -3.2810  -26.1303 H   0  0  0  0  0
    3.7961   -3.8672  -25.7013 H   0  0  0  0  0
    2.7773   -4.8065  -26.8197 H   0  0  0  0  0
    0.2958   -5.9045  -24.2792 H   0  0  0  0  0
    0.1397   -4.4258  -25.2590 H   0  0  0  0  0
    0.7240   -5.9323  -26.0075 H   0  0  0  0  0
    3.9743   -6.0074  -24.1805 H   0  0  0  0  0
    2.4607   -6.8080  -23.6916 H   0  0  0  0  0
    2.9763   -6.8431  -25.3957 H   0  0  0  0  0
    1.3510   -1.8394  -19.1334 H   0  0  0  0  0
    2.5997   -0.8577  -17.2470 H   0  0  0  0  0
  3  1  1  0  0  0
  6  2  1  0  0  0
  6  3  1  0  0  0
  7  4  2  0  0  0
  7  5  2  0  0  0
  7  6  1  0  0  0
 19  7  1  0  0  0
  9  8  1  0  0  0
 10  9  4  0  0  0
  9 31  4  0  0  0
 11 10  4  0  0  0
 12 11  1  0  0  0
 11 29  4  0  0  0
 13 12  4  0  0  0
 12 28  4  0  0  0
 14 13  1  0  0  0
 13 22  4  0  0  0
 15 14  4  0  0  0
 14 20  4  0  0  0
 16 15  4  0  0  0
 17 16  4  0  0  0
 18 17  4  0  0  0
 18 19  1  0  0  0
 18 20  4  0  0  0
 20 21  1  0  0  0
 22 23  4  0  0  0
 23 24  1  0  0  0
 23 28  4  0  0  0
 24 25  1  0  0  0
 24 26  1  0  0  0
 24 27  1  0  0  0
 29 30  4  0  0  0
 30 31  4  0  0  0
  1 32  1  0  0  0
  1 33  1  0  0  0
  1 34  1  0  0  0
  2 35  1  0  0  0
  2 36  1  0  0  0
  2 37  1  0  0  0
  3 38  1  0  0  0
  3 39  1  0  0  0
  8 40  1  0  0  0
  8 41  1  0  0  0
 15 42  1  0  0  0
 16 43  1  0  0  0
 17 44  1  0  0  0
 19 45  1  0  0  0
 25 46  1  0  0  0
 25 47  1  0  0  0
 25 48  1  0  0  0
 26 49  1  0  0  0
 26 50  1  0  0  0
 26 51  1  0  0  0
 27 52  1  0  0  0
 27 53  1  0  0  0
 27 54  1  0  0  0
 29 55  1  0  0  0
 30 56  1  0  0  0
M  END
$$$$
