4ocv_ligand
  -I-interpret- 

 48 50  0  0  0  0  0  0  0  0999 V2000
    0.6960   37.9760  -21.4290 P   0  0  0  0  0
    1.5410   38.0340  -22.8010 O   0  0  0  0  0
   -0.5940   37.3070  -21.6410 O   0  0  0  0  0
    0.3850   39.4420  -20.8810 O   0  0  0  0  0
    2.6420   38.6390  -19.4940 P   0  0  0  0  0
    1.8160   39.8710  -19.4770 O   0  0  0  0  0
    3.0490   38.3140  -17.9720 O   0  0  0  0  0
    1.6860   37.3340  -20.1550 N   0  0  0  0  0
    5.4600   38.3280  -20.5020 P   0  0  0  0  0
    5.3980   37.0240  -21.2670 O   0  0  0  0  0
    6.1230   38.3390  -19.1440 O   0  0  0  0  0
    3.9530   38.9850  -20.4140 O   0  0  0  0  0
    6.2730   39.3550  -21.4490 O   0  0  0  0  0
    6.0450   39.2770  -22.8650 C   0  0  0  0  0
    6.9600   40.1790  -23.6990 C   0  0  0  0  0
    8.2100   40.4550  -23.0540 O   0  0  0  0  0
    7.3080   39.4600  -24.9910 C   0  0  0  0  0
    7.2700   40.4170  -26.0550 O   0  0  0  0  0
    8.7140   38.9170  -24.7820 C   0  0  0  0  0
    9.4540   38.8950  -26.0030 O   0  0  0  0  0
    9.3110   39.9010  -23.7930 C   0  0  0  0  0
   10.3210   39.3590  -22.8370 N   0  0  0  0  0
   10.0650   38.9730  -21.5690 C   0  0  0  0  0
   11.1960   38.5690  -20.9360 N   0  0  0  0  0
   12.2090   38.7030  -21.8080 C   0  0  0  0  0
   13.6700   38.4640  -21.7820 C   0  0  0  0  0
   14.2710   37.9850  -20.6700 N   0  0  0  0  0
   14.3800   38.7390  -22.9010 N   0  0  0  0  0
   13.7930   39.2170  -24.0180 C   0  0  0  0  0
   12.4680   39.4650  -24.1100 N   0  0  0  0  0
   11.6350   39.2340  -23.0570 C   0  0  0  0  0
    2.3790   38.4742  -22.6410 H   0  0  0  0  0
    1.2107   39.9083  -20.7313 H   0  0  0  0  0
    3.5864   37.5189  -17.9485 H   0  0  0  0  0
    1.7061   36.3622  -19.8456 H   0  0  0  0  0
    4.9527   37.1670  -22.1054 H   0  0  0  0  0
    5.0208   39.6041  -23.0443 H   0  0  0  0  0
    6.2451   38.2489  -23.1668 H   0  0  0  0  0
    6.4191   41.1126  -23.8535 H   0  0  0  0  0
    6.6205   38.6525  -25.2427 H   0  0  0  0  0
    7.4875   39.9823  -26.8828 H   0  0  0  0  0
    8.7269   37.8864  -24.4273 H   0  0  0  0  0
   10.3336   38.5482  -25.8366 H   0  0  0  0  0
    9.8727   40.6292  -24.3781 H   0  0  0  0  0
    9.0757   38.9843  -21.1115 H   0  0  0  0  0
   13.7173   37.7843  -19.8372 H   0  0  0  0  0
   15.2782   37.8242  -20.6637 H   0  0  0  0  0
   14.4185   39.4127  -24.8889 H   0  0  0  0  0
  1  2  1  0  0  0
  1  3  2  0  0  0
  1  4  1  0  0  0
  8  1  1  0  0  0
  5  6  2  0  0  0
  5  7  1  0  0  0
  5  8  1  0  0  0
 12  5  1  0  0  0
  9 10  1  0  0  0
  9 11  2  0  0  0
  9 12  1  0  0  0
  9 13  1  0  0  0
 13 14  1  0  0  0
 14 15  1  0  0  0
 15 16  1  0  0  0
 15 17  1  0  0  0
 16 21  1  0  0  0
 17 18  1  0  0  0
 17 19  1  0  0  0
 19 20  1  0  0  0
 19 21  1  0  0  0
 21 22  1  0  0  0
 22 23  4  0  0  0
 22 31  4  0  0  0
 23 24  4  0  0  0
 24 25  4  0  0  0
 25 26  4  0  0  0
 25 31  4  0  0  0
 26 27  1  0  0  0
 26 28  4  0  0  0
 28 29  4  0  0  0
 29 30  4  0  0  0
 30 31  4  0  0  0
  2 32  1  0  0  0
  4 33  1  0  0  0
  7 34  1  0  0  0
  8 35  1  0  0  0
 10 36  1  0  0  0
 14 37  1  0  0  0
 14 38  1  0  0  0
 15 39  1  0  0  0
 17 40  1  0  0  0
 18 41  1  0  0  0
 19 42  1  0  0  0
 20 43  1  0  0  0
 21 44  1  0  0  0
 23 45  1  0  0  0
 27 46  1  0  0  0
 27 47  1  0  0  0
 29 48  1  0  0  0
M  END
$$$$
