### 
### Created by X-TOOL on Mon Sep 10 21:13:18 2018
### 

@<TRIPOS>MOLECULE
4ocv_ligand
   44    46     1     0     0
SMALL
GAST_HUCK


@<TRIPOS>ATOM
      1 PG          0.6960   37.9760  -21.4290 P.3       1 ANP         0.1803
      2 O1G         1.5410   38.0340  -22.8010 O.co2     1 ANP        -0.5454
      3 O2G        -0.5940   37.3070  -21.6410 O.co2     1 ANP        -0.5454
      4 O3G         0.3850   39.4420  -20.8810 O.co2     1 ANP        -0.5454
      5 PB          2.6420   38.6390  -19.4940 P.3       1 ANP         0.2543
      6 O1B         1.8160   39.8710  -19.4770 O.co2     1 ANP        -0.6257
      7 O2B         3.0490   38.3140  -17.9720 O.co2     1 ANP        -0.6257
      8 N3B         1.6860   37.3340  -20.1550 N.am      1 ANP        -0.1803
      9 PA          5.4600   38.3280  -20.5020 P.3       1 ANP         0.2949
     10 O1A         5.3980   37.0240  -21.2670 O.co2     1 ANP        -0.6129
     11 O2A         6.1230   38.3390  -19.1440 O.co2     1 ANP        -0.6129
     12 O3A         3.9530   38.9850  -20.4140 O.3       1 ANP        -0.1431
     13 O5'         6.2730   39.3550  -21.4490 O.3       1 ANP        -0.2478
     14 C5'         6.0450   39.2770  -22.8650 C.3       1 ANP         0.1128
     15 C4'         6.9600   40.1790  -23.6990 C.3       1 ANP         0.1189
     16 O4'         8.2100   40.4550  -23.0540 O.3       1 ANP        -0.3364
     17 C3'         7.3080   39.4600  -24.9910 C.3       1 ANP         0.1149
     18 O3'         7.2700   40.4170  -26.0550 O.3       1 ANP        -0.3864
     19 C2'         8.7140   38.9170  -24.7820 C.3       1 ANP         0.1385
     20 O2'         9.4540   38.8950  -26.0030 O.3       1 ANP        -0.3836
     21 C1'         9.3110   39.9010  -23.7930 C.3       1 ANP         0.2010
     22 N9         10.3210   39.3590  -22.8370 N.pl3     1 ANP        -0.1919
     23 C8         10.0650   38.9730  -21.5690 C.2       1 ANP         0.1123
     24 N7         11.1960   38.5690  -20.9360 N.2       1 ANP        -0.2958
     25 C5         12.2090   38.7030  -21.8080 C.ar      1 ANP         0.1045
     26 C6         13.6700   38.4640  -21.7820 C.ar      1 ANP         0.1298
     27 N6         14.2710   37.9850  -20.6700 N.pl3     1 ANP        -0.3152
     28 N1         14.3800   38.7390  -22.9010 N.ar      1 ANP        -0.2698
     29 C2         13.7930   39.2170  -24.0180 C.ar      1 ANP         0.0533
     30 N3         12.4680   39.4650  -24.1100 N.ar      1 ANP        -0.2714
     31 C4         11.6350   39.2340  -23.0570 C.ar      1 ANP         0.1613
     32 H           1.7057   36.3813  -19.8517 H         1 ANP         0.2132
     33 H           5.0023   39.5660  -23.0630 H         1 ANP         0.0648
     34 H           6.2038   38.2361  -23.1832 H         1 ANP         0.0648
     35 H           6.4374   41.1231  -23.9122 H         1 ANP         0.0651
     36 H           6.6029   38.6407  -25.1949 H         1 ANP         0.0648
     37 H           7.4853   39.9868  -26.8742 H         1 ANP         0.2100
     38 H           8.6841   37.9024  -24.3580 H         1 ANP         0.0676
     39 H           9.0078   38.3408  -26.6325 H         1 ANP         0.2101
     40 H           9.8016   40.6999  -24.3683 H         1 ANP         0.0996
     41 H           9.0767   38.9843  -21.1119 H         1 ANP         0.1349
     42 H          15.2881   37.8227  -20.6636 H         1 ANP         0.1820
     43 H          13.7118   37.7823  -19.8291 H         1 ANP         0.1820
     44 H          14.4151   39.4116  -24.8842 H         1 ANP         0.0996
@<TRIPOS>BOND
     1    1    2 ar 
     2    1    3 ar 
     3    1    4 ar 
     4    8    1 am 
     5    5    6 ar 
     6    5    7 ar 
     7    5    8 1  
     8   12    5 1  
     9    9   10 ar 
    10    9   11 ar 
    11    9   12 1  
    12    9   13 1  
    13   13   14 1  
    14   14   15 1  
    15   15   16 1  
    16   15   17 1  
    17   16   21 1  
    18   17   18 1  
    19   17   19 1  
    20   19   20 1  
    21   19   21 1  
    22   21   22 1  
    23   22   23 1  
    24   22   31 1  
    25   23   24 2  
    26   24   25 1  
    27   25   26 ar 
    28   25   31 ar 
    29   26   27 1  
    30   26   28 ar 
    31   28   29 ar 
    32   29   30 ar 
    33   30   31 ar 
    34    8   32 1  
    35   14   33 1  
    36   14   34 1  
    37   15   35 1  
    38   17   36 1  
    39   18   37 1  
    40   19   38 1  
    41   20   39 1  
    42   21   40 1  
    43   23   41 1  
    44   27   42 1  
    45   27   43 1  
    46   29   44 1  
@<TRIPOS>SUBSTRUCTURE
     1 ANP         1

