2wks_ligand
  -I-interpret- 

 42 44  0  0  0  0  0  0  0  0999 V2000
    4.4270   16.6490  -22.2010 C   0  0  0  0  0
    5.5080   17.4540  -22.3560 C   0  0  0  0  0
    6.3960   17.8980  -21.3630 C   0  0  0  0  0
    7.4810   18.7230  -21.6680 C   0  0  0  0  0
    7.6940   19.1210  -23.0030 C   0  0  0  0  0
    6.8260   18.6940  -24.0240 C   0  0  0  0  0
    5.7410   17.8600  -23.6970 C   0  0  0  0  0
    4.4930   17.1500  -24.6080 S   0  0  0  0  0
    3.7560   16.3770  -23.3240 C   0  0  0  0  0
    2.6380   15.5770  -23.3920 C   0  0  0  0  0
    2.1990   14.9690  -22.1750 O   0  0  0  0  0
    2.2160   13.6070  -22.0680 C   0  0  0  0  0
    1.9630   12.7360  -23.1440 C   0  0  0  0  0
    1.9390   11.3320  -23.0720 C   0  0  0  0  0
    2.7450   10.8030  -24.2630 C   0  0  0  0  0
    2.2780   11.1000  -25.4020 O   0  0  0  0  0
    3.7770   10.1190  -24.0370 O   0  0  0  0  0
    0.5990   10.8530  -23.2140 O   0  0  0  0  0
    2.4760   10.8050  -21.7300 C   0  0  0  0  0
    1.8910   11.6280  -20.5700 C   0  0  0  0  0
    2.2870   11.0580  -19.3390 O   0  0  0  0  0
    2.4150   13.0650  -20.6540 C   0  0  0  0  0
    1.7410   13.9390  -19.7390 O   0  0  0  0  0
    8.4010   19.1550  -20.5190 C   0  0  0  0  0
    4.1276   16.2528  -21.2307 H   0  0  0  0  0
    6.2347   17.5915  -20.3295 H   0  0  0  0  0
    8.5388   19.7654  -23.2464 H   0  0  0  0  0
    6.9917   19.0052  -25.0554 H   0  0  0  0  0
    2.9010   14.7545  -24.0572 H   0  0  0  0  0
    1.8244   16.2296  -23.7086 H   0  0  0  0  0
    1.7690   13.1885  -24.1165 H   0  0  0  0  0
    1.4845   11.6293  -25.2932 H   0  0  0  0  0
    0.5960    9.8944  -23.1632 H   0  0  0  0  0
    3.5625   10.8920  -21.7194 H   0  0  0  0  0
    2.1846    9.7613  -21.6120 H   0  0  0  0  0
    0.8031   11.6285  -20.6372 H   0  0  0  0  0
    1.9208   11.5733  -18.6165 H   0  0  0  0  0
    3.4728   13.0353  -20.3928 H   0  0  0  0  0
    1.8558   13.6129  -18.8434 H   0  0  0  0  0
    7.8218   19.7085  -19.7799 H   0  0  0  0  0
    8.8375   18.2716  -20.0530 H   0  0  0  0  0
    9.1951   19.7908  -20.9105 H   0  0  0  0  0
  1  2  4  0  0  0
  1  9  4  0  0  0
  2  3  4  0  0  0
  2  7  4  0  0  0
  3  4  4  0  0  0
  4  5  4  0  0  0
  4 24  1  0  0  0
  5  6  4  0  0  0
  6  7  4  0  0  0
  7  8  4  0  0  0
  8  9  4  0  0  0
  9 10  1  0  0  0
 10 11  1  0  0  0
 11 12  1  0  0  0
 12 13  2  0  0  0
 12 22  1  0  0  0
 13 14  1  0  0  0
 14 15  1  0  0  0
 14 18  1  0  0  0
 14 19  1  0  0  0
 15 16  1  0  0  0
 15 17  2  0  0  0
 19 20  1  0  0  0
 20 21  1  0  0  0
 20 22  1  0  0  0
 22 23  1  0  0  0
  1 25  1  0  0  0
  3 26  1  0  0  0
  5 27  1  0  0  0
  6 28  1  0  0  0
 10 29  1  0  0  0
 10 30  1  0  0  0
 13 31  1  0  0  0
 16 32  1  0  0  0
 18 33  1  0  0  0
 19 34  1  0  0  0
 19 35  1  0  0  0
 20 36  1  0  0  0
 21 37  1  0  0  0
 22 38  1  0  0  0
 23 39  1  0  0  0
 24 40  1  0  0  0
 24 41  1  0  0  0
 24 42  1  0  0  0
M  END
$$$$
