3kb7_ligand
  -I-interpret- 

 62 66  0  0  0  0  0  0  0  0999 V2000
   42.3370  -12.3940   17.6890 N   0  0  0  0  0
   43.6170  -12.8200   17.5630 C   0  0  0  0  0
   44.0040  -13.4420   16.4160 N   0  0  0  0  0
   41.4510  -12.6200   16.6960 C   0  0  0  0  0
   41.8400  -13.2620   15.5050 C   0  0  0  0  0
   43.1620  -13.6280   15.3640 C   0  0  0  0  0
   41.1010  -15.0100   13.9670 C   0  0  0  0  0
   40.8660  -13.5510   14.3700 C   0  0  0  0  0
   42.5280  -14.9780   13.4060 C   0  0  0  0  0
   43.6300  -14.4550   14.2270 C   0  0  0  0  0
   44.8250  -14.9220   13.8770 N   0  0  0  0  0
   44.6610  -15.8160   12.7820 N   0  0  0  0  0
   43.3190  -15.9150   12.5700 C   0  0  0  0  0
   42.6180  -16.7060   11.5010 C   0  0  0  0  0
   43.2440  -17.7910   11.0530 N   0  0  0  0  0
   41.5080  -16.4190   11.0700 O   0  0  0  0  0
   46.2210  -14.6910   14.3180 C   0  0  0  0  0
   44.5070  -12.6200   18.5800 N   0  0  0  0  0
   45.7920  -13.0980   18.5740 C   0  0  0  0  0
   46.1720  -14.3020   17.9810 C   0  0  0  0  0
   47.5020  -14.7130   18.0040 C   0  0  0  0  0
   48.4430  -13.9000   18.6230 C   0  0  0  0  0
   48.0830  -12.6980   19.2020 C   0  0  0  0  0
   46.7550  -12.3100   19.1800 C   0  0  0  0  0
   46.3880  -11.1280   19.7710 O   0  0  0  0  0
   47.3570  -10.4700   20.5950 C   0  0  0  0  0
   47.9580  -15.9180   17.3980 N   0  0  0  0  0
   47.2130  -17.1310   17.7040 C   0  0  0  0  0
   47.5160  -18.2510   16.7120 C   0  0  0  0  0
   48.9450  -18.3110   16.4530 N   0  3  0  0  0
   49.6950  -17.0990   16.1700 C   0  0  0  0  0
   49.4160  -16.0330   17.2300 C   0  0  0  0  0
   49.3770  -19.5100   15.7420 C   0  0  0  0  0
   40.4163  -12.2998   16.8184 H   0  0  0  0  0
   40.3688  -15.3759   13.2472 H   0  0  0  0  0
   40.9862  -15.7050   14.7988 H   0  0  0  0  0
   41.0327  -12.8789   13.5282 H   0  0  0  0  0
   39.8352  -13.3917   14.6864 H   0  0  0  0  0
   42.7996  -18.3830   10.3513 H   0  0  0  0  0
   44.1684  -18.0309   11.4113 H   0  0  0  0  0
   46.4764  -13.6409   14.1763 H   0  0  0  0  0
   46.3151  -14.9501   15.3726 H   0  0  0  0  0
   46.8946  -15.3128   13.7283 H   0  0  0  0  0
   44.1976  -12.0840   19.3908 H   0  0  0  0  0
   45.4216  -14.9261   17.4957 H   0  0  0  0  0
   49.4857  -14.2163   18.6526 H   0  0  0  0  0
   48.8356  -12.0636   19.6701 H   0  0  0  0  0
   47.6396  -11.1276   21.4171 H   0  0  0  0  0
   48.2380  -10.2326   19.9987 H   0  0  0  0  0
   46.9284   -9.5507   20.9942 H   0  0  0  0  0
   46.1489  -16.9021   17.6463 H   0  0  0  0  0
   47.5031  -17.4682   18.6991 H   0  0  0  0  0
   46.9897  -18.0553   15.7778 H   0  0  0  0  0
   47.1870  -19.2015   17.1321 H   0  0  0  0  0
   49.2712  -18.4136   17.4140 H   0  0  0  0  0
   49.3919  -16.7158   15.1956 H   0  0  0  0  0
   50.7596  -17.3331   16.1764 H   0  0  0  0  0
   49.8800  -16.3153   18.1751 H   0  0  0  0  0
   49.8327  -15.0759   16.9162 H   0  0  0  0  0
   49.1217  -20.3915   16.3302 H   0  0  0  0  0
   48.8750  -19.5586   14.7757 H   0  0  0  0  0
   50.4558  -19.4724   15.5909 H   0  0  0  0  0
  1  2  4  0  0  0
  1  4  4  0  0  0
  2  3  4  0  0  0
  2 18  1  0  0  0
  3  6  4  0  0  0
  4  5  4  0  0  0
  5  6  4  0  0  0
  5  8  1  0  0  0
  6 10  1  0  0  0
  8  7  1  0  0  0
  7  9  1  0  0  0
  9 10  4  0  0  0
  9 13  4  0  0  0
 10 11  4  0  0  0
 11 12  4  0  0  0
 11 17  1  0  0  0
 12 13  4  0  0  0
 13 14  1  0  0  0
 14 15  1  0  0  0
 14 16  2  0  0  0
 18 19  1  0  0  0
 19 20  4  0  0  0
 19 24  4  0  0  0
 20 21  4  0  0  0
 21 22  4  0  0  0
 21 27  1  0  0  0
 22 23  4  0  0  0
 23 24  4  0  0  0
 24 25  1  0  0  0
 25 26  1  0  0  0
 27 28  1  0  0  0
 27 32  1  0  0  0
 28 29  1  0  0  0
 29 30  1  0  0  0
 30 31  1  0  0  0
 30 33  1  0  0  0
 31 32  1  0  0  0
  4 34  1  0  0  0
  7 35  1  0  0  0
  7 36  1  0  0  0
  8 37  1  0  0  0
  8 38  1  0  0  0
 15 39  1  0  0  0
 15 40  1  0  0  0
 17 41  1  0  0  0
 17 42  1  0  0  0
 17 43  1  0  0  0
 18 44  1  0  0  0
 20 45  1  0  0  0
 22 46  1  0  0  0
 23 47  1  0  0  0
 26 48  1  0  0  0
 26 49  1  0  0  0
 26 50  1  0  0  0
 28 51  1  0  0  0
 28 52  1  0  0  0
 29 53  1  0  0  0
 29 54  1  0  0  0
 30 55  1  0  0  0
 31 56  1  0  0  0
 31 57  1  0  0  0
 32 58  1  0  0  0
 32 59  1  0  0  0
 33 60  1  0  0  0
 33 61  1  0  0  0
 33 62  1  0  0  0
M  END
$$$$
