3hqh_ligand
  -I-interpret- 

109108  0  0  0  0  0  0  0  0999 V2000
  -26.0350   16.9980  -10.5380 N   0  3  0  0  0
  -26.0650   17.0170   -9.0440 C   0  0  0  0  0
  -25.7430   18.4150   -8.5060 C   0  0  0  0  0
  -25.3400   19.3030   -9.2640 O   0  0  0  0  0
  -25.0610   15.9990   -8.4960 C   0  0  0  0  0
  -25.9210   18.6040   -7.1980 N   0  0  0  0  0
  -25.6460   19.8950   -6.5640 C   0  0  0  0  0
  -24.2250   19.9600   -6.0250 C   0  0  0  0  0
  -23.7930   19.0740   -5.2850 O   0  0  0  0  0
  -26.6190   20.1620   -5.4050 C   0  0  0  0  0
  -27.9600   20.2520   -5.8490 O   0  0  0  0  0
  -23.5070   21.0220   -6.3780 N   0  0  0  0  0
  -22.1380   21.1900   -5.9060 C   0  0  0  0  0
  -22.1300   21.7170   -4.4730 C   0  0  0  0  0
  -23.1040   22.3240   -4.0130 O   0  0  0  0  0
  -21.3800   22.1530   -6.8130 C   0  0  0  0  0
  -21.0300   21.4620   -3.7720 N   0  0  0  0  0
  -20.8510   21.9270   -2.4050 C   0  0  0  0  0
  -19.4290   22.4680   -2.2980 C   0  0  0  0  0
  -18.5900   22.2100   -3.1690 O   0  0  0  0  0
  -21.0770   20.7830   -1.4000 C   0  0  0  0  0
  -20.0430   19.6710   -1.5260 C   0  0  0  0  0
  -18.9290   19.8220   -0.9780 O   0  0  0  0  0
  -20.3430   18.6450   -2.1790 O   0  0  0  0  0
  -19.1630   23.2190   -1.2370 N   0  0  0  0  0
  -17.8510   23.8080   -1.0230 C   0  0  0  0  0
  -17.3470   23.3820    0.3450 C   0  0  0  0  0
  -18.1450   23.1660    1.2660 O   0  0  0  0  0
  -17.9540   25.3360   -1.0810 C   0  0  0  0  0
  -16.6800   25.9480   -0.9930 O   0  0  0  0  0
  -16.0270   23.2620    0.4770 N   0  0  0  0  0
  -15.4260   22.8750    1.7460 C   0  0  0  0  0
  -15.4670   24.0370    2.7280 C   0  0  0  0  0
  -15.1660   23.8520    3.9060 O   0  0  0  0  0
  -13.9410   22.4500    1.5890 C   0  0  0  0  0
  -13.1870   23.5340    1.0270 O   0  0  0  0  0
  -13.8220   21.2370    0.6910 C   0  0  0  0  0
  -15.8270   25.2290    2.2470 N   0  0  0  0  0
  -15.8990   26.4190    3.1080 C   0  0  0  0  0
  -17.2310   27.1760    2.9750 C   0  0  0  0  0
  -17.8810   27.1470    1.9300 O   0  0  0  0  0
  -14.7610   27.4370    2.8000 C   0  0  0  0  0
  -14.9070   27.9110    1.4490 O   0  0  0  0  0
  -13.3600   26.8030    3.0170 C   0  0  0  0  0
  -17.6150   27.8670    4.0450 N   0  0  0  0  0
  -18.8570   28.6250    4.0660 C   0  0  0  0  0
  -18.5990   30.0670    3.6400 C   0  0  0  0  0
  -17.7850   30.7620    4.2470 O   0  0  0  0  0
  -19.4580   28.5990    5.4750 C   0  0  0  0  0
  -19.8620   27.2170    5.9740 C   0  0  0  0  0
  -20.4270   27.2790    7.3810 C   0  0  0  0  0
  -21.6660   27.1500    7.5290 O   0  0  0  0  0
  -19.6270   27.4790    8.3310 O   0  0  0  0  0
  -19.2830   30.5080    2.5860 N   0  0  0  0  0
  -19.1150   31.8710    2.1010 C   0  0  0  0  0
  -17.7790   32.1790    1.4410 C   0  0  0  0  0
  -16.8920   31.2900    1.4070 O   0  0  0  0  0
  -26.7049   17.6772  -10.8990 H   0  0  0  0  0
  -25.0978   17.2382  -10.8611 H   0  0  0  0  0
  -26.2819   16.0657  -10.8700 H   0  0  0  0  0
  -27.0693   16.7507   -8.7145 H   0  0  0  0  0
  -24.0546   16.2798   -8.8066 H   0  0  0  0  0
  -25.1163   15.9859   -7.4075 H   0  0  0  0  0
  -25.2999   15.0093   -8.8852 H   0  0  0  0  0
  -26.2571   17.8300   -6.6249 H   0  0  0  0  0
  -25.7752   20.6543   -7.3353 H   0  0  0  0  0
  -26.3479   21.1119   -4.9442 H   0  0  0  0  0
  -26.5476   19.3322   -4.7018 H   0  0  0  0  0
  -28.5341   20.4187   -5.0979 H   0  0  0  0  0
  -23.9196   21.7285   -6.9871 H   0  0  0  0  0
  -21.6453   20.2180   -5.9284 H   0  0  0  0  0
  -21.3609   21.7555   -7.8277 H   0  0  0  0  0
  -21.8794   23.1219   -6.8103 H   0  0  0  0  0
  -20.3597   22.2677   -6.4471 H   0  0  0  0  0
  -20.2839   20.9204   -4.2084 H   0  0  0  0  0
  -21.5778   22.7038   -2.1674 H   0  0  0  0  0
  -22.0571   20.3510   -1.6019 H   0  0  0  0  0
  -20.9966   21.2005   -0.3964 H   0  0  0  0  0
  -21.2388   18.7305   -2.5135 H   0  0  0  0  0
  -19.8997   23.3879   -0.5521 H   0  0  0  0  0
  -17.1613   23.4712   -1.7969 H   0  0  0  0  0
  -18.5569   25.6728   -0.2377 H   0  0  0  0  0
  -18.4050   25.6149   -2.0333 H   0  0  0  0  0
  -16.7811   26.9019   -1.0323 H   0  0  0  0  0
  -15.4254   23.4447   -0.3262 H   0  0  0  0  0
  -16.0056   22.0279    2.1128 H   0  0  0  0  0
  -13.5483   22.1961    2.5736 H   0  0  0  0  0
  -12.2695   23.2683    0.9312 H   0  0  0  0  0
  -14.3815   20.4086    1.1255 H   0  0  0  0  0
  -14.2266   21.4739   -0.2930 H   0  0  0  0  0
  -12.7725   20.9582    0.5963 H   0  0  0  0  0
  -16.0580   25.3167    1.2574 H   0  0  0  0  0
  -15.7982   26.0273    4.1202 H   0  0  0  0  0
  -14.8414   28.2772    3.4897 H   0  0  0  0  0
  -14.2076   28.5391    1.2541 H   0  0  0  0  0
  -13.2652   26.4804    4.0538 H   0  0  0  0  0
  -13.2450   25.9440    2.3559 H   0  0  0  0  0
  -12.5899   27.5412    2.7930 H   0  0  0  0  0
  -17.0217   27.8654    4.8747 H   0  0  0  0  0
  -19.5600   28.1707    3.3678 H   0  0  0  0  0
  -20.3662   29.2008    5.4421 H   0  0  0  0  0
  -18.6884   28.9672    6.1534 H   0  0  0  0  0
  -18.9771   26.5806    5.9843 H   0  0  0  0  0
  -20.6300   26.8203    5.3100 H   0  0  0  0  0
  -18.7333   27.5455    7.9867 H   0  0  0  0  0
  -19.9339   29.8823    2.1115 H   0  0  0  0  0
  -19.1835   32.5192    2.9746 H   0  0  0  0  0
  -19.8778   32.0222    1.3372 H   0  0  0  0  0
  -17.5937   33.1597    1.0028 H   0  0  0  0  0
  1  2  1  0  0  0
  2  3  1  0  0  0
  2  5  1  0  0  0
  3  4  2  0  0  0
  3  6  1  0  0  0
  6  7  1  0  0  0
  7  8  1  0  0  0
  7 10  1  0  0  0
  8  9  2  0  0  0
  8 12  1  0  0  0
 10 11  1  0  0  0
 12 13  1  0  0  0
 13 14  1  0  0  0
 13 16  1  0  0  0
 14 15  2  0  0  0
 14 17  1  0  0  0
 17 18  1  0  0  0
 18 19  1  0  0  0
 18 21  1  0  0  0
 19 20  2  0  0  0
 19 25  1  0  0  0
 21 22  1  0  0  0
 22 23  2  0  0  0
 22 24  1  0  0  0
 25 26  1  0  0  0
 26 27  1  0  0  0
 26 29  1  0  0  0
 27 28  2  0  0  0
 27 31  1  0  0  0
 29 30  1  0  0  0
 31 32  1  0  0  0
 32 33  1  0  0  0
 32 35  1  0  0  0
 33 34  2  0  0  0
 33 38  1  0  0  0
 35 36  1  0  0  0
 35 37  1  0  0  0
 38 39  1  0  0  0
 39 40  1  0  0  0
 39 42  1  0  0  0
 40 41  2  0  0  0
 40 45  1  0  0  0
 42 43  1  0  0  0
 42 44  1  0  0  0
 45 46  1  0  0  0
 46 47  1  0  0  0
 46 49  1  0  0  0
 47 48  2  0  0  0
 47 54  1  0  0  0
 49 50  1  0  0  0
 50 51  1  0  0  0
 51 52  2  0  0  0
 51 53  1  0  0  0
 54 55  1  0  0  0
 55 56  1  0  0  0
 56 57  2  0  0  0
  1 58  1  0  0  0
  1 59  1  0  0  0
  1 60  1  0  0  0
  2 61  1  0  0  0
  5 62  1  0  0  0
  5 63  1  0  0  0
  5 64  1  0  0  0
  6 65  1  0  0  0
  7 66  1  0  0  0
 10 67  1  0  0  0
 10 68  1  0  0  0
 11 69  1  0  0  0
 12 70  1  0  0  0
 13 71  1  0  0  0
 16 72  1  0  0  0
 16 73  1  0  0  0
 16 74  1  0  0  0
 17 75  1  0  0  0
 18 76  1  0  0  0
 21 77  1  0  0  0
 21 78  1  0  0  0
 24 79  1  0  0  0
 25 80  1  0  0  0
 26 81  1  0  0  0
 29 82  1  0  0  0
 29 83  1  0  0  0
 30 84  1  0  0  0
 31 85  1  0  0  0
 32 86  1  0  0  0
 35 87  1  0  0  0
 36 88  1  0  0  0
 37 89  1  0  0  0
 37 90  1  0  0  0
 37 91  1  0  0  0
 38 92  1  0  0  0
 39 93  1  0  0  0
 42 94  1  0  0  0
 43 95  1  0  0  0
 44 96  1  0  0  0
 44 97  1  0  0  0
 44 98  1  0  0  0
 45 99  1  0  0  0
 46100  1  0  0  0
 49101  1  0  0  0
 49102  1  0  0  0
 50103  1  0  0  0
 50104  1  0  0  0
 53105  1  0  0  0
 54106  1  0  0  0
 55107  1  0  0  0
 55108  1  0  0  0
 56109  1  0  0  0
M  END
$$$$
