### 
### Created by X-TOOL on Mon Sep 10 21:13:02 2018
### 

@<TRIPOS>MOLECULE
3hqh_ligand
  107   106     1     0     0
SMALL
GAST_HUCK


@<TRIPOS>ATOM
      1 N         -26.0350   16.9980  -10.5380 N.4       1 ALA         0.2377
      2 CA        -26.0650   17.0170   -9.0440 C.3       1 ALA         0.0621
      3 C         -25.7430   18.4150   -8.5060 C.2       1 ALA         0.2265
      4 O         -25.3400   19.3030   -9.2640 O.2       1 ALA        -0.3907
      5 CB        -25.0610   15.9990   -8.4960 C.3       1 ALA        -0.0040
      6 N         -25.9210   18.6040   -7.1980 N.am      1 SER        -0.2589
      7 CA        -25.6460   19.8950   -6.5640 C.3       1 SER         0.1540
      8 C         -24.2250   19.9600   -6.0250 C.2       1 SER         0.2062
      9 O         -23.7930   19.0740   -5.2850 O.2       1 SER        -0.3943
     10 CB        -26.6190   20.1620   -5.4050 C.3       1 SER         0.0843
     11 OG        -27.9600   20.2520   -5.8490 O.3       1 SER        -0.3903
     12 N         -23.5070   21.0220   -6.3780 N.am      1 ALA        -0.2639
     13 CA        -22.1380   21.1900   -5.9060 C.3       1 ALA         0.1282
     14 C         -22.1300   21.7170   -4.4730 C.2       1 ALA         0.2037
     15 O         -23.1040   22.3240   -4.0130 O.2       1 ALA        -0.3944
     16 CB        -21.3800   22.1530   -6.8130 C.3       1 ALA        -0.0244
     17 N         -21.0300   21.4620   -3.7720 N.am      1 ASP        -0.2622
     18 CA        -20.8510   21.9270   -2.4050 C.3       1 ASP         0.1423
     19 C         -19.4290   22.4680   -2.2980 C.2       1 ASP         0.2057
     20 O         -18.5900   22.2100   -3.1690 O.2       1 ASP        -0.3943
     21 CB        -21.0770   20.7830   -1.4000 C.3       1 ASP         0.0406
     22 CG        -20.0430   19.6710   -1.5260 C.2       1 ASP         0.0393
     23 OD1       -18.9290   19.8220   -0.9780 O.co2     1 ASP        -0.5688
     24 OD2       -20.3430   18.6450   -2.1790 O.co2     1 ASP        -0.5688
     25 N         -19.1630   23.2190   -1.2370 N.am      1 SER        -0.2615
     26 CA        -17.8510   23.8080   -1.0230 C.3       1 SER         0.1539
     27 C         -17.3470   23.3820    0.3450 C.2       1 SER         0.2063
     28 O         -18.1450   23.1660    1.2660 O.2       1 SER        -0.3943
     29 CB        -17.9540   25.3360   -1.0810 C.3       1 SER         0.0843
     30 OG        -16.6800   25.9480   -0.9930 O.3       1 SER        -0.3903
     31 N         -16.0270   23.2620    0.4770 N.am      1 THR        -0.2613
     32 CA        -15.4260   22.8750    1.7460 C.3       1 THR         0.1565
     33 C         -15.4670   24.0370    2.7280 C.2       1 THR         0.2065
     34 O         -15.1660   23.8520    3.9060 O.2       1 THR        -0.3943
     35 CB        -13.9410   22.4500    1.5890 C.3       1 THR         0.0924
     36 OG1       -13.1870   23.5340    1.0270 O.3       1 THR        -0.3874
     37 CG2       -13.8220   21.2370    0.6910 C.3       1 THR        -0.0346
     38 N         -15.8270   25.2290    2.2470 N.am      1 THR        -0.2613
     39 CA        -15.8990   26.4190    3.1080 C.3       1 THR         0.1565
     40 C         -17.2310   27.1760    2.9750 C.2       1 THR         0.2065
     41 O         -17.8810   27.1470    1.9300 O.2       1 THR        -0.3943
     42 CB        -14.7610   27.4370    2.8000 C.3       1 THR         0.0924
     43 OG1       -14.9070   27.9110    1.4490 O.3       1 THR        -0.3874
     44 CG2       -13.3600   26.8030    3.0170 C.3       1 THR        -0.0346
     45 N         -17.6150   27.8670    4.0450 N.am      1 GLU        -0.2635
     46 CA        -18.8570   28.6250    4.0660 C.3       1 GLU         0.1325
     47 C         -18.5990   30.0670    3.6400 C.2       1 GLU         0.2039
     48 O         -17.7850   30.7620    4.2470 O.2       1 GLU        -0.3944
     49 CB        -19.4580   28.5990    5.4750 C.3       1 GLU        -0.0008
     50 CG        -19.8620   27.2170    5.9740 C.3       1 GLU         0.0044
     51 CD        -20.4270   27.2790    7.3810 C.2       1 GLU         0.0350
     52 OE1       -21.6660   27.1500    7.5290 O.co2     1 GLU        -0.5690
     53 OE2       -19.6270   27.4790    8.3310 O.co2     1 GLU        -0.5690
     54 N         -19.2830   30.5080    2.5860 N.am      1 GLY        -0.2677
     55 CA        -19.1150   31.8710    2.1010 C.3       1 GLY         0.1018
     56 C         -17.7790   32.1790    1.4410 C.2       1 GLY         0.1214
     57 O         -16.8920   31.2900    1.4070 O.2       1 GLY        -0.3728
     58 H1        -26.2495   16.0695  -10.8666 H         1 ALA         0.2015
     59 H2        -25.1174   17.2643  -10.8591 H         1 ALA         0.2015
     60 H3        -26.7179   17.6472  -10.8961 H         1 ALA         0.2015
     61 H4        -27.0743   16.7364   -8.7087 H         1 ALA         0.1095
     62 H5        -25.0854   16.0154   -7.3964 H         1 ALA         0.0310
     63 H6        -24.0500   16.2571   -8.8441 H         1 ALA         0.0310
     64 H7        -25.3263   14.9932   -8.8537 H         1 ALA         0.0310
     65 H8        -26.2505   17.8452   -6.6361 H         1 SER         0.1885
     66 H9        -25.7725   20.6829   -7.3210 H         1 SER         0.0823
     67 H10       -26.3414   21.1090   -4.9192 H         1 SER         0.0606
     68 H11       -26.5399   19.3401   -4.6783 H         1 SER         0.0606
     69 H12       -28.5281   20.4170   -5.1057 H         1 SER         0.2097
     70 H13       -23.9115   21.7147   -6.9752 H         1 ALA         0.1883
     71 H14       -21.6350   20.2120   -5.9272 H         1 ALA         0.0797
     72 H15       -20.3501   22.2696   -6.4448 H         1 ALA         0.0277
     73 H16       -21.8830   23.1313   -6.8111 H         1 ALA         0.0277
     74 H17       -21.3600   21.7529   -7.8375 H         1 ALA         0.0277
     75 H18       -20.2985   20.9310   -4.1998 H         1 ASP         0.1884
     76 H19       -21.5692   22.7327   -2.1931 H         1 ASP         0.0819
     77 H20       -22.0754   20.3553   -1.5736 H         1 ASP         0.0478
     78 H21       -21.0267   21.1954   -0.3815 H         1 ASP         0.0478
     79 H22       -19.8853   23.3846   -0.5655 H         1 SER         0.1884
     80 H23       -17.1560   23.4575   -1.8002 H         1 SER         0.0823
     81 H24       -18.5758   25.6840   -0.2430 H         1 SER         0.0606
     82 H25       -18.4245   25.6263   -2.0320 H         1 SER         0.0606
     83 H26       -16.1388   25.6557   -1.7170 H         1 SER         0.2097
     84 H27       -15.4372   23.4411   -0.3105 H         1 THR         0.1884
     85 H28       -15.9978   22.0301    2.1573 H         1 THR         0.0826
     86 H29       -13.5342   22.2021    2.5805 H         1 THR         0.0639
     87 H30       -13.5435   23.7582    0.1755 H         1 THR         0.2101
     88 H31       -12.7632   20.9547    0.5946 H         1 THR         0.0257
     89 H32       -14.2300   21.4748   -0.3025 H         1 THR         0.0257
     90 H33       -14.3862   20.4002    1.1284 H         1 THR         0.0257
     91 H34       -16.0534   25.3149    1.2768 H         1 THR         0.1884
     92 H35       -15.7940   26.0798    4.1491 H         1 THR         0.0826
     93 H36       -14.8609   28.2916    3.4853 H         1 THR         0.0639
     94 H37       -14.8508   27.1765    0.8491 H         1 THR         0.2101
     95 H38       -12.5819   27.5471    2.7912 H         1 THR         0.0257
     96 H39       -13.2426   25.9360    2.3503 H         1 THR         0.0257
     97 H40       -13.2631   26.4770    4.0631 H         1 THR         0.0257
     98 H41       -17.0333   27.8655    4.8584 H         1 GLU         0.1883
     99 H42       -19.5684   28.1661    3.3637 H         1 GLU         0.0801
    100 H43       -20.3532   29.2382    5.4767 H         1 GLU         0.0330
    101 H44       -18.7128   29.0098    6.1721 H         1 GLU         0.0330
    102 H45       -18.9774   26.5632    5.9722 H         1 GLU         0.0433
    103 H46       -20.6258   26.8023    5.2997 H         1 GLU         0.0433
    104 H47       -19.9212   29.8945    2.1208 H         1 GLY         0.1882
    105 H48       -19.2330   32.5510    2.9575 H         1 GLY         0.0754
    106 H49       -19.9083   32.0675    1.3648 H         1 GLY         0.0754
    107 H50       -17.5939   33.1588    1.0032 H         1 GLY         0.1370
@<TRIPOS>BOND
     1    1    2 1  
     2    2    3 1  
     3    2    5 1  
     4    3    4 2  
     5    3    6 am 
     6    6    7 1  
     7    7    8 1  
     8    7   10 1  
     9    8    9 2  
    10    8   12 am 
    11   10   11 1  
    12   12   13 1  
    13   13   14 1  
    14   13   16 1  
    15   14   15 2  
    16   14   17 am 
    17   17   18 1  
    18   18   19 1  
    19   18   21 1  
    20   19   20 2  
    21   19   25 am 
    22   21   22 1  
    23   22   23 ar 
    24   22   24 ar 
    25   25   26 1  
    26   26   27 1  
    27   26   29 1  
    28   27   28 2  
    29   27   31 am 
    30   29   30 1  
    31   31   32 1  
    32   32   33 1  
    33   32   35 1  
    34   33   34 2  
    35   33   38 am 
    36   35   36 1  
    37   35   37 1  
    38   38   39 1  
    39   39   40 1  
    40   39   42 1  
    41   40   41 2  
    42   40   45 am 
    43   42   43 1  
    44   42   44 1  
    45   45   46 1  
    46   46   47 1  
    47   46   49 1  
    48   47   48 2  
    49   47   54 am 
    50   49   50 1  
    51   50   51 1  
    52   51   52 ar 
    53   51   53 ar 
    54   54   55 1  
    55   55   56 1  
    56   56   57 2  
    57    1   58 1  
    58    1   59 1  
    59    1   60 1  
    60    2   61 1  
    61    5   62 1  
    62    5   63 1  
    63    5   64 1  
    64    6   65 1  
    65    7   66 1  
    66   10   67 1  
    67   10   68 1  
    68   11   69 1  
    69   12   70 1  
    70   13   71 1  
    71   16   72 1  
    72   16   73 1  
    73   16   74 1  
    74   17   75 1  
    75   18   76 1  
    76   21   77 1  
    77   21   78 1  
    78   25   79 1  
    79   26   80 1  
    80   29   81 1  
    81   29   82 1  
    82   30   83 1  
    83   31   84 1  
    84   32   85 1  
    85   35   86 1  
    86   36   87 1  
    87   37   88 1  
    88   37   89 1  
    89   37   90 1  
    90   38   91 1  
    91   39   92 1  
    92   42   93 1  
    93   43   94 1  
    94   44   95 1  
    95   44   96 1  
    96   44   97 1  
    97   45   98 1  
    98   46   99 1  
    99   49  100 1  
   100   49  101 1  
   101   50  102 1  
   102   50  103 1  
   103   54  104 1  
   104   55  105 1  
   105   55  106 1  
   106   56  107 1  
@<TRIPOS>SUBSTRUCTURE
     1 ALA         1

