### 
### Created by X-TOOL on Mon Sep 10 21:12:59 2018
### 

@<TRIPOS>MOLECULE
2p1c_ligand
   46    46     1     0     0
SMALL
GAST_HUCK


@<TRIPOS>ATOM
      1 C2         70.2990   36.9170    0.6930 C.3       1 GG3        -0.0267
      2 C6         71.4470   37.7870   -1.2770 C.3       1 GG3        -0.0320
      3 C7         70.8280   35.8090    1.6510 C.3       1 GG3         0.0479
      4 C8         71.4490   34.6920    0.7790 C.3       1 GG3         0.2095
      5 O16        71.2690   32.7360    2.7170 O.co2     1 GG3        -0.5594
      6 P14        70.8370   33.0770    1.3150 P.3       1 GG3         0.1101
      7 O17        71.3170   32.1430    0.2630 O.co2     1 GG3        -0.5594
      8 O15        69.3140   33.2720    1.2510 O.co2     1 GG3        -0.5594
      9 P9         73.2990   34.7380    0.8190 P.3       1 GG3         0.1101
     10 O11        73.6200   34.3700    2.2510 O.co2     1 GG3        -0.5594
     11 O10        73.8220   33.6220   -0.0860 O.co2     1 GG3        -0.5594
     12 O12        73.6200   36.1430    0.3890 O.co2     1 GG3        -0.5594
     13 O13        70.9320   34.8000   -0.5820 O.3       1 GG3        -0.3593
     14 N13        71.3710   37.8260    0.2190 N.4       1 GG3         0.2332
     15 C21        71.1500   39.1790    0.7560 C.3       1 GG3        -0.0431
     16 C22        70.7410   38.8750   -2.0820 C.3       1 GG3        -0.0107
     17 C26        71.0090   38.5320   -3.5370 C.3       1 GG3        -0.0385
     18 C27        71.2980   39.8110   -4.2670 C.3       1 GG3        -0.0190
     19 C28        71.5740   39.6100   -5.7500 C.ar      1 GG3        -0.0430
     20 C33        71.8720   40.7690   -6.5220 C.ar      1 GG3        -0.0603
     21 C32        72.1240   40.6580   -7.9130 C.ar      1 GG3        -0.0686
     22 C31        72.0840   39.3800   -8.5300 C.ar      1 GG3        -0.0687
     23 C30        71.7990   38.2190   -7.7700 C.ar      1 GG3        -0.0686
     24 C29        71.5500   38.3180   -6.3830 C.ar      1 GG3        -0.0603
     25 H1         69.5439   37.5124    1.2271 H         1 GG3         0.0816
     26 H2         69.8354   36.4348   -0.1802 H         1 GG3         0.0816
     27 H3         71.0233   36.8234   -1.5964 H         1 GG3         0.0814
     28 H4         72.5126   37.8265   -1.5469 H         1 GG3         0.0814
     29 H5         69.9983   35.4014    2.2472 H         1 GG3         0.0375
     30 H6         71.5914   36.2278    2.3232 H         1 GG3         0.0375
     31 H7         71.2738   34.0858   -1.1070 H         1 GG3         0.2133
     32 H8         72.2519   37.4936    0.5790 H         1 GG3         0.2030
     33 H9         71.1048   39.1347    1.8542 H         1 GG3         0.0777
     34 H10        70.2021   39.5781    0.3658 H         1 GG3         0.0777
     35 H11        71.9780   39.8350    0.4493 H         1 GG3         0.0777
     36 H12        71.1533   39.8649   -1.8370 H         1 GG3         0.0318
     37 H13        69.6604   38.8668   -1.8767 H         1 GG3         0.0318
     38 H14        70.1260   38.0434   -3.9745 H         1 GG3         0.0289
     39 H15        71.8747   37.8571   -3.6085 H         1 GG3         0.0289
     40 H16        72.1798   40.2827   -3.8088 H         1 GG3         0.0426
     41 H17        70.4292   40.4772   -4.1610 H         1 GG3         0.0426
     42 H18        71.9064   41.7412   -6.0437 H         1 GG3         0.0557
     43 H19        72.3454   41.5417   -8.5005 H         1 GG3         0.0599
     44 H20        72.2735   39.2917   -9.5937 H         1 GG3         0.0559
     45 H21        71.7719   37.2500   -8.2551 H         1 GG3         0.0599
     46 H22        71.3425   37.4278   -5.8002 H         1 GG3         0.0557
@<TRIPOS>BOND
     1    1    3 1  
     2    1   14 1  
     3   14    2 1  
     4    2   16 1  
     5    3    4 1  
     6    4    6 1  
     7    4    9 1  
     8    4   13 1  
     9    6    5 ar 
    10    6    7 ar 
    11    6    8 ar 
    12    9   10 ar 
    13    9   11 ar 
    14    9   12 ar 
    15   14   15 1  
    16   16   17 1  
    17   17   18 1  
    18   18   19 1  
    19   19   20 ar 
    20   19   24 ar 
    21   20   21 ar 
    22   21   22 ar 
    23   22   23 ar 
    24   23   24 ar 
    25    1   25 1  
    26    1   26 1  
    27    2   27 1  
    28    2   28 1  
    29    3   29 1  
    30    3   30 1  
    31   13   31 1  
    32   14   32 1  
    33   15   33 1  
    34   15   34 1  
    35   15   35 1  
    36   16   36 1  
    37   16   37 1  
    38   17   38 1  
    39   17   39 1  
    40   18   40 1  
    41   18   41 1  
    42   20   42 1  
    43   21   43 1  
    44   22   44 1  
    45   23   45 1  
    46   24   46 1  
@<TRIPOS>SUBSTRUCTURE
     1 GG3         1

