2p1c_ligand
  -I-interpret- 

 50 50  0  0  0  0  0  0  0  0999 V2000
   70.2990   36.9170    0.6930 C   0  0  0  0  0
   71.4470   37.7870   -1.2770 C   0  0  0  0  0
   70.8280   35.8090    1.6510 C   0  0  0  0  0
   71.4490   34.6920    0.7790 C   0  0  0  0  0
   71.2690   32.7360    2.7170 O   0  0  0  0  0
   70.8370   33.0770    1.3150 P   0  0  0  0  0
   71.3170   32.1430    0.2630 O   0  0  0  0  0
   69.3140   33.2720    1.2510 O   0  0  0  0  0
   73.2990   34.7380    0.8190 P   0  0  0  0  0
   73.6200   34.3700    2.2510 O   0  0  0  0  0
   73.8220   33.6220   -0.0860 O   0  0  0  0  0
   73.6200   36.1430    0.3890 O   0  0  0  0  0
   70.9320   34.8000   -0.5820 O   0  0  0  0  0
   71.3710   37.8260    0.2190 N   0  3  0  0  0
   71.1500   39.1790    0.7560 C   0  0  0  0  0
   70.7410   38.8750   -2.0820 C   0  0  0  0  0
   71.0090   38.5320   -3.5370 C   0  0  0  0  0
   71.2980   39.8110   -4.2670 C   0  0  0  0  0
   71.5740   39.6100   -5.7500 C   0  0  0  0  0
   71.8720   40.7690   -6.5220 C   0  0  0  0  0
   72.1240   40.6580   -7.9130 C   0  0  0  0  0
   72.0840   39.3800   -8.5300 C   0  0  0  0  0
   71.7990   38.2190   -7.7700 C   0  0  0  0  0
   71.5500   38.3180   -6.3830 C   0  0  0  0  0
   69.5727   37.5153    1.2431 H   0  0  0  0  0
   69.8673   36.4262   -0.1793 H   0  0  0  0  0
   70.9481   36.8600   -1.5596 H   0  0  0  0  0
   72.5053   37.9088   -1.5078 H   0  0  0  0  0
   70.0140   35.4099    2.2562 H   0  0  0  0  0
   71.5748   36.2195    2.3307 H   0  0  0  0  0
   70.9161   33.3880    3.3269 H   0  0  0  0  0
   69.0409   33.8792    1.9426 H   0  0  0  0  0
   73.3734   33.4556    2.4082 H   0  0  0  0  0
   73.5643   32.7709    0.2758 H   0  0  0  0  0
   69.9726   34.7725   -0.5618 H   0  0  0  0  0
   72.2790   37.5167    0.5659 H   0  0  0  0  0
   71.9710   39.8280    0.4514 H   0  0  0  0  0
   70.2106   39.5733    0.3686 H   0  0  0  0  0
   71.1054   39.1338    1.8441 H   0  0  0  0  0
   71.1126   39.8678   -1.8281 H   0  0  0  0  0
   69.6730   38.9053   -1.8664 H   0  0  0  0  0
   70.1422   38.0358   -3.9736 H   0  0  0  0  0
   71.8582   37.8531   -3.6145 H   0  0  0  0  0
   72.1917   40.2488   -3.8224 H   0  0  0  0  0
   70.4165   40.4461   -4.1796 H   0  0  0  0  0
   71.9066   41.7466   -6.0411 H   0  0  0  0  0
   72.3466   41.5466   -8.5037 H   0  0  0  0  0
   72.2746   39.2912   -9.5995 H   0  0  0  0  0
   71.7717   37.2446   -8.2578 H   0  0  0  0  0
   71.3414   37.4229   -5.7970 H   0  0  0  0  0
  1  3  1  0  0  0
  1 14  1  0  0  0
 14  2  1  0  0  0
  2 16  1  0  0  0
  3  4  1  0  0  0
  4  6  1  0  0  0
  4  9  1  0  0  0
  4 13  1  0  0  0
  6  5  1  0  0  0
  6  7  2  0  0  0
  6  8  1  0  0  0
  9 10  1  0  0  0
  9 11  1  0  0  0
  9 12  2  0  0  0
 14 15  1  0  0  0
 16 17  1  0  0  0
 17 18  1  0  0  0
 18 19  1  0  0  0
 19 20  4  0  0  0
 19 24  4  0  0  0
 20 21  4  0  0  0
 21 22  4  0  0  0
 22 23  4  0  0  0
 23 24  4  0  0  0
  1 25  1  0  0  0
  1 26  1  0  0  0
  2 27  1  0  0  0
  2 28  1  0  0  0
  3 29  1  0  0  0
  3 30  1  0  0  0
  5 31  1  0  0  0
  8 32  1  0  0  0
 10 33  1  0  0  0
 11 34  1  0  0  0
 13 35  1  0  0  0
 14 36  1  0  0  0
 15 37  1  0  0  0
 15 38  1  0  0  0
 15 39  1  0  0  0
 16 40  1  0  0  0
 16 41  1  0  0  0
 17 42  1  0  0  0
 17 43  1  0  0  0
 18 44  1  0  0  0
 18 45  1  0  0  0
 20 46  1  0  0  0
 21 47  1  0  0  0
 22 48  1  0  0  0
 23 49  1  0  0  0
 24 50  1  0  0  0
M  END
$$$$
