1dth_ligand
  -I-interpret- 

 63 64  0  0  0  0  0  0  0  0999 V2000
    2.3740   20.6560   -1.5010 C   0  0  0  0  0
    1.4140   21.4250   -0.8440 C   0  0  0  0  0
    1.7120   22.7420   -0.4570 C   0  0  0  0  0
    2.9660   23.2830   -0.7290 C   0  0  0  0  0
    3.9240   22.5100   -1.3840 C   0  0  0  0  0
    3.6270   21.1950   -1.7730 C   0  0  0  0  0
    3.2990   24.6910   -0.2760 C   0  0  0  0  0
    4.0160   24.6010    1.0720 C   0  0  0  0  0
    4.7520   25.8210    1.6620 C   0  0  0  0  0
    5.3100   25.7360    2.7580 O   0  0  0  0  0
    4.8310   26.9170    0.8930 N   0  0  0  0  0
    5.5300   28.0650    1.4470 C   0  0  0  0  0
    3.0650   24.1100    2.0520 N   0  0  0  0  0
    2.0360   24.8390    2.5270 C   0  0  0  0  0
    1.6630   25.8920    1.9890 O   0  0  0  0  0
    1.1870   24.0170    3.5230 C   0  0  0  0  0
    0.3100   23.1220    2.5980 C   0  0  0  0  0
   -0.9920   23.7080    1.9890 C   0  0  0  0  0
   -2.0500   24.4930    2.7870 C   0  0  0  0  0
   -1.6830   22.3680    1.6670 C   0  0  0  0  0
    0.7920   24.7450    4.8560 C   0  0  0  0  0
    0.3100   23.6760    5.8560 C   0  0  0  0  0
    0.8630   23.8970    7.5670 S   0  0  0  0  0
   -0.2370   22.9720    8.5430 C   0  0  0  0  0
   -0.3220   21.2450    8.4400 S   0  0  0  0  0
   -1.5540   21.2200    9.6350 C   0  0  0  0  0
   -1.9180   22.4830   10.1190 C   0  0  0  0  0
   -1.1300   23.5310    9.4650 C   0  0  0  0  0
   -0.2630   25.9070    4.8400 C   0  0  0  0  0
   -1.4080   25.7970    5.1360 O   0  0  0  0  0
    0.3130   27.0680    4.4810 N   0  0  0  0  0
   -0.0950   28.0490    4.4010 O   0  0  0  0  0
    2.1427   19.6339   -1.8010 H   0  0  0  0  0
    0.4316   21.0038   -0.6306 H   0  0  0  0  0
    0.9606   23.3414    0.0570 H   0  0  0  0  0
    4.9079   22.9291   -1.5947 H   0  0  0  0  0
    4.3780   20.5961   -2.2882 H   0  0  0  0  0
    2.3865   25.2789   -0.1770 H   0  0  0  0  0
    3.9399   25.1795   -1.0099 H   0  0  0  0  0
    4.8520   23.9398    0.8438 H   0  0  0  0  0
    4.4187   26.9439   -0.0396 H   0  0  0  0  0
    5.0323   28.3847    2.3625 H   0  0  0  0  0
    6.5606   27.7885    1.6697 H   0  0  0  0  0
    5.5194   28.8795    0.7227 H   0  0  0  0  0
    3.1821   23.1588    2.4012 H   0  0  0  0  0
    1.6450   23.2904    4.1941 H   0  0  0  0  0
   -0.0243   22.3043    3.2366 H   0  0  0  0  0
    0.9448   22.9018    1.7397 H   0  0  0  0  0
   -0.6872   24.4660    1.2675 H   0  0  0  0  0
   -2.4449   23.8619    3.5831 H   0  0  0  0  0
   -1.5910   25.3818    3.2201 H   0  0  0  0  0
   -2.8602   24.7890    2.1206 H   0  0  0  0  0
   -1.0636   21.7985    0.9741 H   0  0  0  0  0
   -1.8176   21.7997    2.5873 H   0  0  0  0  0
   -2.6547   22.5617    1.2127 H   0  0  0  0  0
    1.7111   25.2680    5.1201 H   0  0  0  0  0
    0.7246   22.7265    5.5173 H   0  0  0  0  0
   -0.7782   23.7364    5.8726 H   0  0  0  0  0
   -2.0150   20.2975    9.9880 H   0  0  0  0  0
   -2.6811   22.6614   10.8766 H   0  0  0  0  0
   -1.2258   24.5976    9.6681 H   0  0  0  0  0
    1.3033   26.9979    4.2468 H   0  0  0  0  0
    0.5910   28.6575    4.1169 H   0  0  0  0  0
  1  6  4  0  0  0
  1  2  4  0  0  0
  2  3  4  0  0  0
  3  4  4  0  0  0
  4  7  1  0  0  0
  4  5  4  0  0  0
  5  6  4  0  0  0
  7  8  1  0  0  0
  8 13  1  0  0  0
  8  9  1  0  0  0
  9 11  1  0  0  0
  9 10  2  0  0  0
 11 12  1  0  0  0
 13 14  1  0  0  0
 14 16  1  0  0  0
 14 15  2  0  0  0
 16 21  1  0  0  0
 16 17  1  0  0  0
 17 18  1  0  0  0
 18 20  1  0  0  0
 18 19  1  0  0  0
 21 29  1  0  0  0
 21 22  1  0  0  0
 22 23  1  0  0  0
 23 24  1  0  0  0
 24 28  4  0  0  0
 24 25  4  0  0  0
 25 26  4  0  0  0
 26 27  4  0  0  0
 27 28  4  0  0  0
 29 31  1  0  0  0
 29 30  2  0  0  0
 31 32  1  0  0  0
  1 33  1  0  0  0
  2 34  1  0  0  0
  3 35  1  0  0  0
  5 36  1  0  0  0
  6 37  1  0  0  0
  7 38  1  0  0  0
  7 39  1  0  0  0
  8 40  1  0  0  0
 11 41  1  0  0  0
 12 42  1  0  0  0
 12 43  1  0  0  0
 12 44  1  0  0  0
 13 45  1  0  0  0
 16 46  1  0  0  0
 17 47  1  0  0  0
 17 48  1  0  0  0
 18 49  1  0  0  0
 19 50  1  0  0  0
 19 51  1  0  0  0
 19 52  1  0  0  0
 20 53  1  0  0  0
 20 54  1  0  0  0
 20 55  1  0  0  0
 21 56  1  0  0  0
 22 57  1  0  0  0
 22 58  1  0  0  0
 26 59  1  0  0  0
 27 60  1  0  0  0
 28 61  1  0  0  0
 31 62  1  0  0  0
 32 63  1  0  0  0
M  END
$$$$
