6cd5_ligand
  -I-interpret- 

 92 98  0  0  0  0  0  0  0  0999 V2000
    5.6750    7.4770    0.6440 C   0  0  0  0  0
    4.5020    6.6220    1.1140 C   0  0  0  0  0
    3.6340    6.3230   -0.1070 C   0  0  0  0  0
    4.3140    6.9630   -1.3110 C   0  0  0  0  0
    5.2730    7.9890   -0.7290 C   0  0  0  0  0
    6.4400    8.1400   -1.5890 N   0  0  0  0  0
    7.6580    8.6000   -1.1030 C   0  0  0  0  0
    7.6440    9.7310   -0.3030 C   0  0  0  0  0
    8.8300   10.2580    0.1860 C   0  0  0  0  0
   10.0510    9.6800   -0.1330 C   0  0  0  0  0
   10.1170    8.5580   -0.9480 C   0  0  0  0  0
    8.9630    7.9920   -1.4720 C   0  0  0  0  0
    9.1280    6.7730   -2.3320 C   0  0  0  0  0
   10.1030    6.0790   -2.0940 O   0  0  0  0  0
    8.3020    6.4150   -3.3170 N   0  0  0  0  0
    8.4350    5.1300   -3.9860 C   0  0  0  0  0
    7.2700    7.2280   -3.8050 C   0  0  0  0  0
    7.0510    7.2580   -5.1750 C   0  0  0  0  0
    6.0700    8.0100   -5.6850 N   0  0  0  0  0
    6.3440    8.0310   -2.9690 C   0  0  0  0  0
    5.3960    8.7700   -3.5700 N   0  0  0  0  0
    5.2480    8.7490   -4.9060 C   0  0  0  0  0
    4.2860    9.4940   -5.4910 N   0  0  0  0  0
    3.0600    9.7440   -4.9740 C   0  0  0  0  0
    1.9530    9.9560   -5.9300 C   0  0  0  0  0
    0.6730   10.2240   -5.4590 C   0  0  0  0  0
    2.2240    9.8750   -7.2680 O   0  0  0  0  0
    1.1960   10.0950   -8.2290 C   0  0  0  0  0
    2.7900    9.8340   -3.6130 C   0  0  0  0  0
    1.4870   10.1060   -3.1850 C   0  0  0  0  0
    0.4370   10.2970   -4.0880 C   0  0  0  0  0
   -0.9580   10.5900   -3.5960 C   0  0  0  0  0
   -1.1180   11.4490   -2.7460 O   0  0  0  0  0
   -1.9930    9.9200   -4.1080 N   0  0  0  0  0
   -3.3740   10.2530   -3.7740 C   0  0  0  0  0
   -4.0180    9.0050   -3.1800 C   0  0  0  0  0
   -1.8220    8.8320   -5.0630 C   0  0  0  0  0
   -2.4810    7.5890   -4.4730 C   0  0  0  0  0
   -3.9500    7.8320   -4.1480 C   0  0  0  0  0
   -4.5300    6.6340   -3.5180 N   0  3  0  0  0
   -4.2110    5.4370   -4.3070 C   0  0  0  0  0
   -4.7880    4.2020   -3.6250 C   0  0  0  0  0
   -6.2470    4.3290   -3.5090 N   0  3  0  0  0
   -6.7890    3.1550   -2.8120 C   0  0  0  0  0
   -6.5820    5.5430   -2.7490 C   0  0  0  0  0
   -5.9910    6.7720   -3.4330 C   0  0  0  0  0
    6.5998    6.9015    0.6027 H   0  0  0  0  0
    5.8766    8.2960    1.3344 H   0  0  0  0  0
    3.9244    7.1507    1.8722 H   0  0  0  0  0
    4.8609    5.6958    1.5628 H   0  0  0  0  0
    2.6307    6.7274    0.0270 H   0  0  0  0  0
    3.5315    5.2474   -0.2509 H   0  0  0  0  0
    3.5905    7.4248   -1.9828 H   0  0  0  0  0
    4.8364    6.2234   -1.9178 H   0  0  0  0  0
    4.8038    8.9700   -0.6541 H   0  0  0  0  0
    6.6960   10.2091   -0.0566 H   0  0  0  0  0
    8.8029   11.1376    0.8292 H   0  0  0  0  0
   10.9703   10.1128    0.2616 H   0  0  0  0  0
   11.0864    8.1164   -1.1791 H   0  0  0  0  0
    9.4201    5.0624   -4.4476 H   0  0  0  0  0
    8.3182    4.3283   -3.2567 H   0  0  0  0  0
    7.6659    5.0399   -4.7532 H   0  0  0  0  0
    7.6815    6.6659   -5.8383 H   0  0  0  0  0
    4.5013    9.9034   -6.4001 H   0  0  0  0  0
   -0.1458   10.3770   -6.1621 H   0  0  0  0  0
    0.4001    9.3650   -8.0814 H   0  0  0  0  0
    0.7952   11.1012   -8.1065 H   0  0  0  0  0
    1.6088    9.9866   -9.2320 H   0  0  0  0  0
    3.5887    9.6935   -2.8847 H   0  0  0  0  0
    1.2840   10.1710   -2.1161 H   0  0  0  0  0
   -3.9144   10.5725   -4.6651 H   0  0  0  0  0
   -3.4047   11.0744   -3.0581 H   0  0  0  0  0
   -5.0656    9.2216   -2.9710 H   0  0  0  0  0
   -3.4794    8.7361   -2.2713 H   0  0  0  0  0
   -0.7628    8.6497   -5.2446 H   0  0  0  0  0
   -2.2825    9.0888   -6.0170 H   0  0  0  0  0
   -1.9627    7.3304   -3.5497 H   0  0  0  0  0
   -2.4195    6.7858   -5.2072 H   0  0  0  0  0
   -4.5115    8.0484   -5.0569 H   0  0  0  0  0
   -4.1352    6.5387   -2.5824 H   0  0  0  0  0
   -3.1287    5.3338   -4.3847 H   0  0  0  0  0
   -4.6440    5.5350   -5.3025 H   0  0  0  0  0
   -4.3556    4.1069   -2.6290 H   0  0  0  0  0
   -4.5505    3.3197   -4.2194 H   0  0  0  0  0
   -6.6528    4.3907   -4.4428 H   0  0  0  0  0
   -6.5466    2.2548   -3.3767 H   0  0  0  0  0
   -6.3498    3.0902   -1.8165 H   0  0  0  0  0
   -7.8714    3.2519   -2.7274 H   0  0  0  0  0
   -6.1685    5.4604   -1.7439 H   0  0  0  0  0
   -7.6660    5.6471   -2.7023 H   0  0  0  0  0
   -6.4054    6.8621   -4.4371 H   0  0  0  0  0
   -6.2377    7.6623   -2.8545 H   0  0  0  0  0
  1  2  1  0  0  0
  1  5  1  0  0  0
  2  3  1  0  0  0
  3  4  1  0  0  0
  4  5  1  0  0  0
  5  6  1  0  0  0
  6  7  1  0  0  0
  6 20  1  0  0  0
  7  8  4  0  0  0
  7 12  4  0  0  0
  8  9  4  0  0  0
  9 10  4  0  0  0
 10 11  4  0  0  0
 11 12  4  0  0  0
 12 13  1  0  0  0
 13 14  2  0  0  0
 13 15  1  0  0  0
 15 16  1  0  0  0
 15 17  1  0  0  0
 17 18  4  0  0  0
 17 20  4  0  0  0
 18 19  4  0  0  0
 19 22  4  0  0  0
 20 21  4  0  0  0
 21 22  4  0  0  0
 22 23  1  0  0  0
 23 24  1  0  0  0
 24 25  4  0  0  0
 24 29  4  0  0  0
 25 26  4  0  0  0
 25 27  1  0  0  0
 26 31  4  0  0  0
 27 28  1  0  0  0
 29 30  4  0  0  0
 30 31  4  0  0  0
 31 32  1  0  0  0
 32 33  2  0  0  0
 32 34  1  0  0  0
 34 35  1  0  0  0
 34 37  1  0  0  0
 35 36  1  0  0  0
 36 39  1  0  0  0
 37 38  1  0  0  0
 38 39  1  0  0  0
 39 40  1  0  0  0
 40 41  1  0  0  0
 40 46  1  0  0  0
 41 42  1  0  0  0
 42 43  1  0  0  0
 43 44  1  0  0  0
 43 45  1  0  0  0
 45 46  1  0  0  0
  1 47  1  0  0  0
  1 48  1  0  0  0
  2 49  1  0  0  0
  2 50  1  0  0  0
  3 51  1  0  0  0
  3 52  1  0  0  0
  4 53  1  0  0  0
  4 54  1  0  0  0
  5 55  1  0  0  0
  8 56  1  0  0  0
  9 57  1  0  0  0
 10 58  1  0  0  0
 11 59  1  0  0  0
 16 60  1  0  0  0
 16 61  1  0  0  0
 16 62  1  0  0  0
 18 63  1  0  0  0
 23 64  1  0  0  0
 26 65  1  0  0  0
 28 66  1  0  0  0
 28 67  1  0  0  0
 28 68  1  0  0  0
 29 69  1  0  0  0
 30 70  1  0  0  0
 35 71  1  0  0  0
 35 72  1  0  0  0
 36 73  1  0  0  0
 36 74  1  0  0  0
 37 75  1  0  0  0
 37 76  1  0  0  0
 38 77  1  0  0  0
 38 78  1  0  0  0
 39 79  1  0  0  0
 40 80  1  0  0  0
 41 81  1  0  0  0
 41 82  1  0  0  0
 42 83  1  0  0  0
 42 84  1  0  0  0
 43 85  1  0  0  0
 44 86  1  0  0  0
 44 87  1  0  0  0
 44 88  1  0  0  0
 45 89  1  0  0  0
 45 90  1  0  0  0
 46 91  1  0  0  0
 46 92  1  0  0  0
M  END
$$$$
