1i8i_ligand
  -I-interpret- 

143144  0  0  0  0  0  0  0  0999 V2000
    4.1840    8.0070   21.9610 N   0  3  0  0  0
    3.7140    8.0240   20.5780 C   0  0  0  0  0
    4.0780    6.7130   19.8670 C   0  0  0  0  0
    4.0260    5.6980   20.5780 O   0  0  0  0  0
    4.3270    9.2180   19.8710 C   0  0  0  0  0
    3.4100   10.3800   19.6200 C   0  0  0  0  0
    2.9550   10.9640   20.9080 C   0  0  0  0  0
    1.8570   11.8790   20.5000 C   0  0  0  0  0
    0.9740   12.2240   21.5920 N   0  3  0  0  0
    4.4340    6.6610   18.5620 N   0  0  0  0  0
    4.7800    5.4460   17.8170 C   0  0  0  0  0
    6.0720    4.8540   18.3490 C   0  0  0  0  0
    7.2000    4.9890   17.8790 O   0  0  0  0  0
    5.7810    4.1240   19.3890 N   0  0  0  0  0
    6.7850    3.6060   20.2850 C   0  0  0  0  0
    8.1130    4.3310   20.4410 C   0  0  0  0  0
    9.1370    4.1080   19.8120 O   0  0  0  0  0
    7.1810    2.1180   20.0240 C   0  0  0  0  0
    7.9770    1.6200   21.2480 C   0  0  0  0  0
    9.2010    1.4930   21.2470 O   0  0  0  0  0
    7.3320    1.3890   22.3910 N   0  0  0  0  0
    7.9230    5.2750   21.3190 N   0  0  0  0  0
    9.0070    5.7830   22.0980 C   0  0  0  0  0
    8.2950    5.8840   23.4430 C   0  0  0  0  0
    7.0740    6.0730   23.4070 O   0  0  0  0  0
    9.4790    7.1190   21.6000 C   0  0  0  0  0
    8.5540    8.3050   21.4160 C   0  0  0  0  0
    8.0810    9.0020   22.5220 C   0  0  0  0  0
    8.3170    8.8030   20.1290 C   0  0  0  0  0
    7.3960   10.2090   22.3620 C   0  0  0  0  0
    7.6470   10.0180   19.9630 C   0  0  0  0  0
    7.1990   10.7200   21.0900 C   0  0  0  0  0
    6.6460   11.9790   20.9780 O   0  0  0  0  0
    8.8720    5.6840   24.6300 N   0  0  0  0  0
    8.1100    5.9120   25.8240 C   0  0  0  0  0
    8.6090    7.2090   26.4610 C   0  0  0  0  0
    9.8000    7.5400   26.2980 O   0  0  0  0  0
    8.1940    4.6260   26.7940 C   0  0  0  0  0
    8.6630    3.3910   26.0150 C   0  0  0  0  0
    8.9990    4.8930   27.9880 C   0  0  0  0  0
    7.7530    8.0640   27.0780 N   0  0  0  0  0
    8.3350    9.1590   27.8330 C   0  0  0  0  0
    8.0400    8.9310   29.2810 C   0  0  0  0  0
    8.9070    9.2810   30.0890 O   0  0  0  0  0
    7.8870   10.6520   27.3610 C   0  0  0  0  0
    7.0200   10.4900   26.1430 C   0  0  0  0  0
    7.3950   11.5300   28.5210 C   0  0  0  0  0
    6.9150    8.3250   29.6840 N   0  0  0  0  0
    6.7530    8.0500   31.1150 C   0  0  0  0  0
    7.0350    6.5780   31.3870 C   0  0  0  0  0
    6.5360    5.6790   30.7030 O   0  0  0  0  0
    5.3290    8.4620   31.5630 C   0  0  0  0  0
    5.2200    9.8390   31.1950 O   0  0  0  0  0
    5.0880    8.4220   33.0560 C   0  0  0  0  0
    7.9670    6.3250   32.2900 N   0  0  0  0  0
    8.2540    4.9720   32.7050 C   0  0  0  0  0
    7.2050    4.5090   33.7170 C   0  0  0  0  0
    7.3790    4.6560   34.9320 O   0  0  0  0  0
    9.6620    4.9190   33.3140 C   0  0  0  0  0
   10.7340    5.1690   32.2600 C   0  0  0  0  0
   10.6630    4.5700   31.1820 O   0  0  0  0  0
   11.6260    5.9830   32.5100 O   0  0  0  0  0
    6.1950    3.8300   33.1420 N   0  0  0  0  0
    4.9410    3.2760   33.6840 C   0  0  0  0  0
    4.0120    4.4740   33.7300 C   0  0  0  0  0
    3.9910    5.2030   34.7270 O   0  0  0  0  0
    5.0680    2.6860   35.0870 C   0  0  0  0  0
    6.2350    1.7390   35.0740 C   0  0  0  0  0
    7.3740    2.0120   35.6870 N   0  0  0  0  0
    6.3560    0.5580   34.3900 C   0  0  0  0  0
    8.2010    1.0430   35.4040 C   0  0  0  0  0
    7.5860    0.1750   34.6270 N   0  0  0  0  0
    3.4070    4.7270   32.6870 O   0  0  0  0  0
    3.7779    7.2075   22.4470 H   0  0  0  0  0
    5.2012    7.9325   21.9723 H   0  0  0  0  0
    3.8999    8.8692   22.4260 H   0  0  0  0  0
    2.6278    8.1126   20.5582 H   0  0  0  0  0
    4.6441    8.8623   18.8907 H   0  0  0  0  0
    5.1161    9.5880   20.5256 H   0  0  0  0  0
    2.5417   10.0339   19.0593 H   0  0  0  0  0
    3.9464   11.1412   19.0535 H   0  0  0  0  0
    3.7543   11.4792   21.4406 H   0  0  0  0  0
    2.6270   10.2063   21.6196 H   0  0  0  0  0
    1.2635   11.3682   19.7417 H   0  0  0  0  0
    2.3108   12.8008   20.1360 H   0  0  0  0  0
    0.2444   12.8508   21.2527 H   0  0  0  0  0
    0.5485   11.3752   21.9647 H   0  0  0  0  0
    1.5085   12.6884   22.3261 H   0  0  0  0  0
    4.4643    7.5440   18.0523 H   0  0  0  0  0
    4.9102    5.6981   16.7646 H   0  0  0  0  0
    3.9789    4.7161   17.9336 H   0  0  0  0  0
    4.8015    3.9101   19.5769 H   0  0  0  0  0
    6.2117    3.7617   21.1989 H   0  0  0  0  0
    7.7872    2.0406   19.1214 H   0  0  0  0  0
    6.2888    1.5088   19.8796 H   0  0  0  0  0
    7.8531    1.1174   23.2247 H   0  0  0  0  0
    6.3172    1.4838   22.4321 H   0  0  0  0  0
    6.9865    5.6567   21.4519 H   0  0  0  0  0
    9.9174    5.1836   22.0931 H   0  0  0  0  0
    9.8099    6.9024   20.5843 H   0  0  0  0  0
   10.1560    7.4520   22.3867 H   0  0  0  0  0
    8.2461    8.6032   23.5229 H   0  0  0  0  0
    8.6550    8.2432   19.2570 H   0  0  0  0  0
    7.0189   10.7452   23.2329 H   0  0  0  0  0
    7.4740   10.4170   18.9635 H   0  0  0  0  0
    6.5648   12.2102   20.0498 H   0  0  0  0  0
    9.8418    5.3732   24.6873 H   0  0  0  0  0
    7.0492    6.0377   25.6073 H   0  0  0  0  0
    7.1910    4.4084   27.1611 H   0  0  0  0  0
    7.9583    3.1813   25.2103 H   0  0  0  0  0
    9.6504    3.5816   25.5945 H   0  0  0  0  0
    8.7125    2.5354   26.6885 H   0  0  0  0  0
   10.0120    5.1621   27.6889 H   0  0  0  0  0
    8.5538    5.7151   28.5484 H   0  0  0  0  0
    9.0282    3.9999   28.6122 H   0  0  0  0  0
    6.7424    7.9418   27.0136 H   0  0  0  0  0
    9.4074    9.1467   27.6383 H   0  0  0  0  0
    8.7297   11.2655   27.0423 H   0  0  0  0  0
    7.5887    9.9927   25.3573 H   0  0  0  0  0
    6.1470    9.8889   26.3973 H   0  0  0  0  0
    6.6980   11.4714   25.7946 H   0  0  0  0  0
    6.5314   11.0590   28.9905 H   0  0  0  0  0
    8.1934   11.6413   29.2547 H   0  0  0  0  0
    7.1123   12.5106   28.1382 H   0  0  0  0  0
    6.1918    8.0625   29.0143 H   0  0  0  0  0
    7.4657    8.6358   31.6955 H   0  0  0  0  0
    4.6219    7.7685   31.1079 H   0  0  0  0  0
    4.3533   10.1680   31.4443 H   0  0  0  0  0
    5.2483    7.4077   33.4216 H   0  0  0  0  0
    5.7798    9.1022   33.5528 H   0  0  0  0  0
    4.0628    8.7273   33.2656 H   0  0  0  0  0
    8.4916    7.0977   32.7000 H   0  0  0  0  0
    8.2176    4.3032   31.8451 H   0  0  0  0  0
    9.8184    3.9271   33.7381 H   0  0  0  0  0
    9.7387    5.6944   34.0762 H   0  0  0  0  0
    9.9006    3.9867   31.1909 H   0  0  0  0  0
    6.3211    3.6683   32.1428 H   0  0  0  0  0
    4.5990    2.4464   33.0652 H   0  0  0  0  0
    4.5298    4.8125   35.4190 H   0  0  0  0  0
    4.1538    2.1611   35.3643 H   0  0  0  0  0
    5.2264    3.4766   35.8204 H   0  0  0  0  0
    5.6016    0.0529   33.7868 H   0  0  0  0  0
    9.2307    0.9648   35.7529 H   0  0  0  0  0
  1  2  1  0  0  0
  2  3  1  0  0  0
  2  5  1  0  0  0
  3  4  2  0  0  0
  3 10  1  0  0  0
  5  6  1  0  0  0
  6  7  1  0  0  0
  7  8  1  0  0  0
  8  9  1  0  0  0
 10 11  1  0  0  0
 11 12  1  0  0  0
 12 13  2  0  0  0
 12 14  1  0  0  0
 14 15  1  0  0  0
 15 16  1  0  0  0
 15 18  1  0  0  0
 16 17  2  0  0  0
 16 22  1  0  0  0
 18 19  1  0  0  0
 19 20  2  0  0  0
 19 21  1  0  0  0
 22 23  1  0  0  0
 23 24  1  0  0  0
 23 26  1  0  0  0
 24 25  2  0  0  0
 24 34  1  0  0  0
 26 27  1  0  0  0
 27 28  4  0  0  0
 27 29  4  0  0  0
 28 30  4  0  0  0
 29 31  4  0  0  0
 30 32  4  0  0  0
 31 32  4  0  0  0
 32 33  1  0  0  0
 34 35  1  0  0  0
 35 36  1  0  0  0
 35 38  1  0  0  0
 36 37  2  0  0  0
 36 41  1  0  0  0
 38 39  1  0  0  0
 38 40  1  0  0  0
 41 42  1  0  0  0
 42 43  1  0  0  0
 42 45  1  0  0  0
 43 44  2  0  0  0
 43 48  1  0  0  0
 45 46  1  0  0  0
 45 47  1  0  0  0
 48 49  1  0  0  0
 49 50  1  0  0  0
 49 52  1  0  0  0
 50 51  2  0  0  0
 50 55  1  0  0  0
 52 53  1  0  0  0
 52 54  1  0  0  0
 55 56  1  0  0  0
 56 57  1  0  0  0
 56 59  1  0  0  0
 57 58  2  0  0  0
 57 63  1  0  0  0
 59 60  1  0  0  0
 60 61  1  0  0  0
 60 62  2  0  0  0
 63 64  1  0  0  0
 64 65  1  0  0  0
 64 67  1  0  0  0
 65 66  1  0  0  0
 65 73  2  0  0  0
 67 68  1  0  0  0
 68 69  4  0  0  0
 68 70  4  0  0  0
 69 71  4  0  0  0
 70 72  4  0  0  0
 71 72  4  0  0  0
  1 74  1  0  0  0
  1 75  1  0  0  0
  1 76  1  0  0  0
  2 77  1  0  0  0
  5 78  1  0  0  0
  5 79  1  0  0  0
  6 80  1  0  0  0
  6 81  1  0  0  0
  7 82  1  0  0  0
  7 83  1  0  0  0
  8 84  1  0  0  0
  8 85  1  0  0  0
  9 86  1  0  0  0
  9 87  1  0  0  0
  9 88  1  0  0  0
 10 89  1  0  0  0
 11 90  1  0  0  0
 11 91  1  0  0  0
 14 92  1  0  0  0
 15 93  1  0  0  0
 18 94  1  0  0  0
 18 95  1  0  0  0
 21 96  1  0  0  0
 21 97  1  0  0  0
 22 98  1  0  0  0
 23 99  1  0  0  0
 26100  1  0  0  0
 26101  1  0  0  0
 28102  1  0  0  0
 29103  1  0  0  0
 30104  1  0  0  0
 31105  1  0  0  0
 33106  1  0  0  0
 34107  1  0  0  0
 35108  1  0  0  0
 38109  1  0  0  0
 39110  1  0  0  0
 39111  1  0  0  0
 39112  1  0  0  0
 40113  1  0  0  0
 40114  1  0  0  0
 40115  1  0  0  0
 41116  1  0  0  0
 42117  1  0  0  0
 45118  1  0  0  0
 46119  1  0  0  0
 46120  1  0  0  0
 46121  1  0  0  0
 47122  1  0  0  0
 47123  1  0  0  0
 47124  1  0  0  0
 48125  1  0  0  0
 49126  1  0  0  0
 52127  1  0  0  0
 53128  1  0  0  0
 54129  1  0  0  0
 54130  1  0  0  0
 54131  1  0  0  0
 55132  1  0  0  0
 56133  1  0  0  0
 59134  1  0  0  0
 59135  1  0  0  0
 61136  1  0  0  0
 63137  1  0  0  0
 64138  1  0  0  0
 66139  1  0  0  0
 67140  1  0  0  0
 67141  1  0  0  0
 70142  1  0  0  0
 71143  1  0  0  0
M  END
$$$$
