### 
### Created by X-TOOL on Mon Sep 10 21:12:48 2018
### 

@<TRIPOS>MOLECULE
1i8i_ligand
  142   143     1     0     0
SMALL
GAST_HUCK


@<TRIPOS>ATOM
      1 N           4.1840    8.0070   21.9610 N.4       1 LYS         0.2379
      2 CA          3.7140    8.0240   20.5780 C.3       1 LYS         0.0650
      3 C           4.0780    6.7130   19.8670 C.2       1 LYS         0.2265
      4 O           4.0260    5.6980   20.5780 O.2       1 LYS        -0.3907
      5 CB          4.3270    9.2180   19.8710 C.3       1 LYS         0.0080
      6 CG          3.4100   10.3800   19.6200 C.3       1 LYS        -0.0410
      7 CD          2.9550   10.9640   20.9080 C.3       1 LYS        -0.0123
      8 CE          1.8570   11.8790   20.5000 C.3       1 LYS        -0.0354
      9 NZ          0.9740   12.2240   21.5920 N.4       1 LYS         0.2185
     10 N           4.4340    6.6610   18.5620 N.am      1 GLY        -0.2637
     11 CA          4.7800    5.4460   17.8170 C.3       1 GLY         0.1202
     12 C           6.0720    4.8540   18.3490 C.2       1 GLY         0.2009
     13 O           7.2000    4.9890   17.8790 O.2       1 GLY        -0.3947
     14 N           5.7810    4.1240   19.3890 N.am      1 ASN        -0.2618
     15 CA          6.7850    3.6060   20.2850 C.3       1 ASN         0.1476
     16 C           8.1130    4.3310   20.4410 C.2       1 ASN         0.2064
     17 O           9.1370    4.1080   19.8120 O.2       1 ASN        -0.3942
     18 CB          7.1810    2.1180   20.0240 C.3       1 ASN         0.0773
     19 CG          7.9770    1.6200   21.2480 C.2       1 ASN         0.1780
     20 OD1         9.2010    1.4930   21.2470 O.2       1 ASN        -0.3970
     21 ND2         7.3320    1.3890   22.3910 N.am      1 ASN        -0.3007
     22 N           7.9230    5.2750   21.3190 N.am      1 TYR        -0.2620
     23 CA          9.0070    5.7830   22.0980 C.3       1 TYR         0.1390
     24 C           8.2950    5.8840   23.4430 C.2       1 TYR         0.2057
     25 O           7.0740    6.0730   23.4070 O.2       1 TYR        -0.3942
     26 CB          9.4790    7.1190   21.6000 C.3       1 TYR         0.0163
     27 CG          8.5540    8.3050   21.4160 C.ar      1 TYR        -0.0493
     28 CD1         8.0810    9.0020   22.5220 C.ar      1 TYR        -0.0685
     29 CD2         8.3170    8.8030   20.1290 C.ar      1 TYR        -0.0685
     30 CE1         7.3960   10.2090   22.3620 C.ar      1 TYR        -0.0398
     31 CE2         7.6470   10.0180   19.9630 C.ar      1 TYR        -0.0398
     32 CZ          7.1990   10.7200   21.0900 C.ar      1 TYR         0.0805
     33 OH          6.6460   11.9790   20.9780 O.3       1 TYR        -0.3376
     34 N           8.8720    5.6840   24.6300 N.am      1 VAL        -0.2633
     35 CA          8.1100    5.9120   25.8240 C.3       1 VAL         0.1333
     36 C           8.6090    7.2090   26.4610 C.2       1 VAL         0.2042
     37 O           9.8000    7.5400   26.2980 O.2       1 VAL        -0.3944
     38 CB          8.1940    4.6260   26.7940 C.3       1 VAL        -0.0063
     39 CG1         8.6630    3.3910   26.0150 C.3       1 VAL        -0.0584
     40 CG2         8.9990    4.8930   27.9880 C.3       1 VAL        -0.0584
     41 N           7.7530    8.0640   27.0780 N.am      1 VAL        -0.2635
     42 CA          8.3350    9.1590   27.8330 C.3       1 VAL         0.1333
     43 C           8.0400    8.9310   29.2810 C.2       1 VAL         0.2042
     44 O           8.9070    9.2810   30.0890 O.2       1 VAL        -0.3944
     45 CB          7.8870   10.6520   27.3610 C.3       1 VAL        -0.0063
     46 CG1         7.0200   10.4900   26.1430 C.3       1 VAL        -0.0584
     47 CG2         7.3950   11.5300   28.5210 C.3       1 VAL        -0.0584
     48 N           6.9150    8.3250   29.6840 N.am      1 THR        -0.2613
     49 CA          6.7530    8.0500   31.1150 C.3       1 THR         0.1565
     50 C           7.0350    6.5780   31.3870 C.2       1 THR         0.2066
     51 O           6.5360    5.6790   30.7030 O.2       1 THR        -0.3943
     52 CB          5.3290    8.4620   31.5630 C.3       1 THR         0.0924
     53 OG1         5.2200    9.8390   31.1950 O.3       1 THR        -0.3874
     54 CG2         5.0880    8.4220   33.0560 C.3       1 THR        -0.0346
     55 N           7.9670    6.3250   32.2900 N.am      1 ASP        -0.2621
     56 CA          8.2540    4.9720   32.7050 C.3       1 ASP         0.1423
     57 C           7.2050    4.5090   33.7170 C.2       1 ASP         0.2052
     58 O           7.3790    4.6560   34.9320 O.2       1 ASP        -0.3943
     59 CB          9.6620    4.9190   33.3140 C.3       1 ASP         0.0406
     60 CG         10.7340    5.1690   32.2600 C.2       1 ASP         0.0393
     61 OD1        10.6630    4.5700   31.1820 O.co2     1 ASP        -0.5688
     62 OD2        11.6260    5.9830   32.5100 O.co2     1 ASP        -0.5688
     63 N           6.1950    3.8300   33.1420 N.am      1 HIS        -0.2676
     64 CA          4.9410    3.2760   33.6840 C.3       1 HIS         0.1056
     65 C           4.0120    4.4740   33.7300 C.2       1 HIS         0.0621
     66 O           3.9910    5.2030   34.7270 O.co2     1 HIS        -0.5664
     67 CB          5.0680    2.6860   35.0870 C.3       1 HIS         0.0372
     68 CG          6.2350    1.7390   35.0740 C.2       1 HIS         0.0555
     69 ND1         7.3740    2.0120   35.6870 N.pl3     1 HIS        -0.2623
     70 CD2         6.3560    0.5580   34.3900 C.2       1 HIS        -0.0276
     71 CE1         8.2010    1.0430   35.4040 C.2       1 HIS         0.0875
     72 NE2         7.5860    0.1750   34.6270 N.2       1 HIS        -0.3437
     73 OXT         3.4070    4.7270   32.6870 O.co2     1 HIS        -0.5664
     74 H1          3.9362    8.8744   22.4107 H         1 LYS         0.2015
     75 H2          5.1858    7.8959   21.9741 H         1 LYS         0.2015
     76 H3          3.7543    7.2390   22.4525 H         1 LYS         0.2015
     77 H4          2.6193    8.1312   20.5734 H         1 LYS         0.1098
     78 H5          4.7069    8.8736   18.8979 H         1 LYS         0.0346
     79 H6          5.1653    9.5782   20.4853 H         1 LYS         0.0346
     80 H7          2.5355   10.0356   19.0485 H         1 LYS         0.0270
     81 H8          3.9462   11.1476   19.0427 H         1 LYS         0.0270
     82 H9          3.7685   11.5189   21.3983 H         1 LYS         0.0317
     83 H10         2.5841   10.1815   21.5863 H         1 LYS         0.0317
     84 H11         1.2658   11.3881   19.7129 H         1 LYS         0.0813
     85 H12         2.3007   12.8037   20.1025 H         1 LYS         0.0813
     86 H13         0.2525   12.8435   21.2578 H         1 LYS         0.1994
     87 H14         1.5011   12.6831   22.3182 H         1 LYS         0.1994
     88 H15         0.5528   11.3859   21.9612 H         1 LYS         0.1994
     89 H16         4.4637    7.5267   18.0623 H         1 GLY         0.1882
     90 H17         4.9060    5.6958   16.7532 H         1 GLY         0.0763
     91 H18         3.9705    4.7094   17.9274 H         1 GLY         0.0763
     92 H19         4.8207    3.9143   19.5733 H         1 ASN         0.1885
     93 H20         6.3041    3.6425   21.2736 H         1 ASN         0.0826
     94 H21         7.8036    2.0496   19.1198 H         1 ASN         0.0551
     95 H22         6.2756    1.5073   19.8929 H         1 ASN         0.0551
     96 H23         7.8351    1.0659   23.1926 H         1 ASN         0.1814
     97 H24         6.3449    1.5387   22.4472 H         1 ASN         0.1814
     98 H25         7.0048    5.6492   21.4493 H         1 TYR         0.1885
     99 H26         9.8559    5.0843   22.1318 H         1 TYR         0.0821
    100 H27         9.9321    6.9325   20.6152 H         1 TYR         0.0453
    101 H28        10.2566    7.4478   22.3051 H         1 TYR         0.0453
    102 H29         8.2452    8.6054   23.5174 H         1 TYR         0.0530
    103 H30         8.6531    8.2462   19.2618 H         1 TYR         0.0530
    104 H31         7.0210   10.7422   23.2281 H         1 TYR         0.0525
    105 H32         7.4750   10.4148   18.9690 H         1 TYR         0.0525
    106 H33         5.8741   11.9366   20.4257 H         1 TYR         0.2458
    107 H34         9.8228    5.3793   24.6862 H         1 VAL         0.1883
    108 H35         7.0541    6.0522   25.5493 H         1 VAL         0.0802
    109 H36         7.1723    4.4154   27.1430 H         1 VAL         0.0343
    110 H37         8.7134    2.5268   26.6937 H         1 VAL         0.0234
    111 H38         9.6595    3.5821   25.5901 H         1 VAL         0.0234
    112 H39         7.9526    3.1783   25.2026 H         1 VAL         0.0234
    113 H40         8.6121    5.7872   28.4986 H         1 VAL         0.0234
    114 H41        10.0455    5.0624   27.6944 H         1 VAL         0.0234
    115 H42         8.9440    4.0300   28.6679 H         1 VAL         0.0234
    116 H43         6.7622    7.9442   27.0148 H         1 VAL         0.1883
    117 H44         9.4251    9.1031   27.6966 H         1 VAL         0.0802
    118 H45         8.7977   11.1567   27.0063 H         1 VAL         0.0343
    119 H46         6.6944   11.4798   25.7905 H         1 VAL         0.0234
    120 H47         6.1385    9.8836   26.3984 H         1 VAL         0.0234
    121 H48         7.5928    9.9883   25.3492 H         1 VAL         0.0234
    122 H49         8.1490   11.5356   29.3220 H         1 VAL         0.0234
    123 H50         6.4490   11.1262   28.9108 H         1 VAL         0.0234
    124 H51         7.2348   12.5570   28.1612 H         1 VAL         0.0234
    125 H52         6.2060    8.0676   29.0274 H         1 THR         0.1884
    126 H53         7.4814    8.6522   31.6778 H         1 THR         0.0826
    127 H54         4.5808    7.8401   31.0498 H         1 THR         0.0639
    128 H55         5.3344    9.9246   30.2558 H         1 THR         0.2101
    129 H56         4.0537    8.7300   33.2688 H         1 THR         0.0257
    130 H57         5.7856    9.1081   33.5586 H         1 THR         0.0257
    131 H58         5.2494    7.3988   33.4262 H         1 THR         0.0257
    132 H59         8.4813    7.0826   32.6919 H         1 ASP         0.1884
    133 H60         8.2187    4.3093   31.8277 H         1 ASP         0.0819
    134 H61         9.8223    3.9258   33.7588 H         1 ASP         0.0478
    135 H62         9.7428    5.6884   34.0960 H         1 ASP         0.0478
    136 H63         6.3186    3.6715   32.1624 H         1 HIS         0.1877
    137 H64         4.5510    2.5013   33.0074 H         1 HIS         0.0750
    138 H65         4.1478    2.1446   35.3516 H         1 HIS         0.0484
    139 H66         5.2440    3.4891   35.8178 H         1 HIS         0.0484
    140 H67         7.5713    2.8335   36.2761 H         1 HIS         0.2386
    141 H68         5.6023    0.0534   33.7874 H         1 HIS         0.0324
    142 H69         9.2297    0.9648   35.7526 H         1 HIS         0.1149
@<TRIPOS>BOND
     1    1    2 1  
     2    2    3 1  
     3    2    5 1  
     4    3    4 2  
     5    3   10 am 
     6    5    6 1  
     7    6    7 1  
     8    7    8 1  
     9    8    9 1  
    10   10   11 1  
    11   11   12 1  
    12   12   13 2  
    13   12   14 am 
    14   14   15 1  
    15   15   16 1  
    16   15   18 1  
    17   16   17 2  
    18   16   22 am 
    19   18   19 1  
    20   19   20 2  
    21   19   21 am 
    22   22   23 1  
    23   23   24 1  
    24   23   26 1  
    25   24   25 2  
    26   24   34 am 
    27   26   27 1  
    28   27   28 ar 
    29   27   29 ar 
    30   28   30 ar 
    31   29   31 ar 
    32   30   32 ar 
    33   31   32 ar 
    34   32   33 1  
    35   34   35 1  
    36   35   36 1  
    37   35   38 1  
    38   36   37 2  
    39   36   41 am 
    40   38   39 1  
    41   38   40 1  
    42   41   42 1  
    43   42   43 1  
    44   42   45 1  
    45   43   44 2  
    46   43   48 am 
    47   45   46 1  
    48   45   47 1  
    49   48   49 1  
    50   49   50 1  
    51   49   52 1  
    52   50   51 2  
    53   50   55 am 
    54   52   53 1  
    55   52   54 1  
    56   55   56 1  
    57   56   57 1  
    58   56   59 1  
    59   57   58 2  
    60   57   63 am 
    61   59   60 1  
    62   60   61 ar 
    63   60   62 ar 
    64   63   64 1  
    65   64   65 1  
    66   64   67 1  
    67   65   66 ar 
    68   65   73 ar 
    69   67   68 1  
    70   68   69 1  
    71   68   70 2  
    72   69   71 1  
    73   70   72 1  
    74   71   72 2  
    75    1   74 1  
    76    1   75 1  
    77    1   76 1  
    78    2   77 1  
    79    5   78 1  
    80    5   79 1  
    81    6   80 1  
    82    6   81 1  
    83    7   82 1  
    84    7   83 1  
    85    8   84 1  
    86    8   85 1  
    87    9   86 1  
    88    9   87 1  
    89    9   88 1  
    90   10   89 1  
    91   11   90 1  
    92   11   91 1  
    93   14   92 1  
    94   15   93 1  
    95   18   94 1  
    96   18   95 1  
    97   21   96 1  
    98   21   97 1  
    99   22   98 1  
   100   23   99 1  
   101   26  100 1  
   102   26  101 1  
   103   28  102 1  
   104   29  103 1  
   105   30  104 1  
   106   31  105 1  
   107   33  106 1  
   108   34  107 1  
   109   35  108 1  
   110   38  109 1  
   111   39  110 1  
   112   39  111 1  
   113   39  112 1  
   114   40  113 1  
   115   40  114 1  
   116   40  115 1  
   117   41  116 1  
   118   42  117 1  
   119   45  118 1  
   120   46  119 1  
   121   46  120 1  
   122   46  121 1  
   123   47  122 1  
   124   47  123 1  
   125   47  124 1  
   126   48  125 1  
   127   49  126 1  
   128   52  127 1  
   129   53  128 1  
   130   54  129 1  
   131   54  130 1  
   132   54  131 1  
   133   55  132 1  
   134   56  133 1  
   135   59  134 1  
   136   59  135 1  
   137   63  136 1  
   138   64  137 1  
   139   67  138 1  
   140   67  139 1  
   141   69  140 1  
   142   70  141 1  
   143   71  142 1  
@<TRIPOS>SUBSTRUCTURE
     1 LYS         1

