5m56_ligand
  -I-interpret- 

 33 35  0  0  0  0  0  0  0  0999 V2000
   16.0810    3.4990   43.3380 C   0  0  0  0  0
   12.6100   -1.2910   47.9990 C   0  0  0  0  0
   14.3740   -1.4570   46.3690 C   0  0  0  0  0
   15.1180    1.8170   44.9760 C   0  0  0  0  0
   13.3260    2.1450   46.5880 C   0  0  0  0  0
   13.3930    0.7070   46.8340 C   0  0  0  0  0
   18.8590    4.2790   40.2770 O   0  0  0  0  0
   12.4350    2.9390   47.2630 O   0  0  0  0  0
   19.9890    2.4880   40.8080 O   0  0  0  0  0
   14.1940    4.0440   45.3670 O   0  0  0  0  0
   11.5640   -2.0440   49.1440 Cl  0  0  0  0  0
   15.5260   -2.3930   45.4830 Cl  0  0  0  0  0
   18.0160    1.6470   42.6090 C   0  0  0  0  0
   17.0280    3.8260   42.3780 C   0  0  0  0  0
   17.0730    1.3270   43.5690 C   0  0  0  0  0
   13.5340   -2.0640   47.2910 C   0  0  0  0  0
   12.5280    0.0860   47.7830 C   0  0  0  0  0
   15.1140    0.5300   45.2460 O   0  0  0  0  0
   19.0020    3.2450   40.9810 C   0  0  0  0  0
   17.9920    2.9010   42.0160 C   0  0  0  0  0
   16.1050    2.2480   43.9410 C   0  0  0  0  0
   14.2290    2.6920   45.6220 C   0  0  0  0  0
   14.2890   -0.0470   46.1490 C   0  0  0  0  0
   15.3176    4.2245   43.6191 H   0  0  0  0  0
   12.5592    2.8052   46.9933 H   0  0  0  0  0
   18.0575    4.7365   40.5415 H   0  0  0  0  0
   11.9175    2.3980   47.8640 H   0  0  0  0  0
   13.5185    4.4539   45.9122 H   0  0  0  0  0
   18.7734    0.9183   42.3201 H   0  0  0  0  0
   17.0128    4.8101   41.9095 H   0  0  0  0  0
   17.0908    0.3428   44.0371 H   0  0  0  0  0
   13.5944   -3.1387   47.4624 H   0  0  0  0  0
   11.8054    0.6844   48.3378 H   0  0  0  0  0
 14  1  4  0  0  0
  1 21  4  0  0  0
  2 11  1  0  0  0
 16  2  4  0  0  0
 17  2  4  0  0  0
  3 12  1  0  0  0
  3 16  4  0  0  0
 23  3  4  0  0  0
  4 18  1  0  0  0
 21  4  1  0  0  0
  4 22  2  0  0  0
  5  6  1  0  0  0
  5  8  1  0  0  0
 22  5  1  0  0  0
  6 17  4  0  0  0
 23  6  4  0  0  0
 19  7  1  0  0  0
 19  9  2  0  0  0
 22 10  1  0  0  0
 13 15  4  0  0  0
 20 13  4  0  0  0
 20 14  4  0  0  0
 15 21  4  0  0  0
 18 23  1  0  0  0
 19 20  1  0  0  0
  1 24  1  0  0  0
  5 25  1  0  0  0
  7 26  1  0  0  0
  8 27  1  0  0  0
 10 28  1  0  0  0
 13 29  1  0  0  0
 14 30  1  0  0  0
 15 31  1  0  0  0
 16 32  1  0  0  0
 17 33  1  0  0  0
M  END
$$$$
