6aro_ligand
  -I-interpret- 

 39 41  0  0  0  0  0  0  0  0999 V2000
   22.2270   72.2930  127.3850 C   0  0  0  0  0
   20.8230   75.9320  133.7870 C   0  0  0  0  0
   21.1810   77.1530  134.2980 C   0  0  0  0  0
   22.1030   77.9650  133.6110 C   0  0  0  0  0
   24.0440   77.8030  130.5240 C   0  0  0  0  0
   23.5680   78.2710  131.7010 C   0  0  0  0  0
   22.6430   77.5080  132.4180 C   0  0  0  0  0
   22.2550   76.2670  131.9320 C   0  0  0  0  0
   22.7650   75.7680  130.7520 C   0  0  0  0  0
   23.6430   76.5430  130.0330 C   0  0  0  0  0
   22.3190   74.5060  130.3210 O   0  0  0  0  0
   22.4910   74.1280  128.9640 C   0  0  0  0  0
   22.1910   72.6740  128.8330 C   0  0  0  0  0
   21.2590   73.1690  126.5950 C   0  0  0  0  0
   21.6230   74.6170  126.8510 C   0  0  0  0  0
   21.5580   74.8960  128.2250 O   0  0  0  0  0
   20.7170   75.6280  126.0860 C   0  0  0  0  0
   19.4360   75.7230  126.6850 O   0  0  0  0  0
   19.9220   72.8780  127.0200 O   0  0  0  0  0
   21.8850   70.8970  127.2770 O   0  0  0  0  0
   23.1950   71.8950  129.5190 O   0  0  0  0  0
   21.3660   75.4900  132.6090 N   0  0  0  0  0
   23.2225   72.4487  126.9692 H   0  0  0  0  0
   20.1035   75.3104  134.3200 H   0  0  0  0  0
   20.7504   77.4958  135.2388 H   0  0  0  0  0
   22.3883   78.9382  134.0105 H   0  0  0  0  0
   24.7456   78.4068  129.9485 H   0  0  0  0  0
   23.9030   79.2341  132.0861 H   0  0  0  0  0
   24.0308   76.1828  129.0801 H   0  0  0  0  0
   23.5058   74.3008  128.6055 H   0  0  0  0  0
   21.2088   72.4801  129.2639 H   0  0  0  0  0
   21.3227   72.9744  125.5244 H   0  0  0  0  0
   22.6391   74.7438  126.4775 H   0  0  0  0  0
   20.5965   75.2801  125.0601 H   0  0  0  0  0
   21.1889   76.6101  126.1161 H   0  0  0  0  0
   18.9005   76.3509  126.1946 H   0  0  0  0  0
   19.7251   71.9551  126.8436 H   0  0  0  0  0
   21.9031   70.6348  126.3537 H   0  0  0  0  0
   22.9915   70.9613  129.4278 H   0  0  0  0  0
 13  1  1  0  0  0
  1 14  1  0  0  0
  1 20  1  0  0  0
  2  3  4  0  0  0
 22  2  4  0  0  0
  4  3  4  0  0  0
  7  4  4  0  0  0
  5  6  4  0  0  0
 10  5  4  0  0  0
  7  6  4  0  0  0
  8  7  4  0  0  0
  9  8  4  0  0  0
  8 22  4  0  0  0
  9 10  4  0  0  0
 11  9  1  0  0  0
 12 11  1  0  0  0
 12 13  1  0  0  0
 12 16  1  0  0  0
 13 21  1  0  0  0
 14 15  1  0  0  0
 14 19  1  0  0  0
 15 16  1  0  0  0
 15 17  1  0  0  0
 17 18  1  0  0  0
  1 23  1  0  0  0
  2 24  1  0  0  0
  3 25  1  0  0  0
  4 26  1  0  0  0
  5 27  1  0  0  0
  6 28  1  0  0  0
 10 29  1  0  0  0
 12 30  1  0  0  0
 13 31  1  0  0  0
 14 32  1  0  0  0
 15 33  1  0  0  0
 17 34  1  0  0  0
 17 35  1  0  0  0
 18 36  1  0  0  0
 19 37  1  0  0  0
 20 38  1  0  0  0
 21 39  1  0  0  0
M  END
$$$$
