2vgo_ligand
  -I-interpret- 

 55 59  0  0  0  0  0  0  0  0999 V2000
    7.4330    0.4430    2.4390 C   0  0  0  0  0
    6.2010    1.2800    2.0640 C   0  0  0  0  0
    5.0300    1.0330    3.0310 C   0  0  0  0  0
    5.5070    0.4120    4.3540 C   0  0  0  0  0
    6.8000    1.0790    4.8350 C   0  0  0  0  0
    7.9550    0.8340    3.8350 C   0  0  0  0  0
    8.7770    2.0490    3.7300 N   0  0  0  0  0
    9.9290    2.1840    4.4000 C   0  0  0  0  0
   10.8870    1.2450    4.3620 N   0  0  0  0  0
   10.0780    3.2980    5.1130 C   0  0  0  0  0
    9.2900    4.3510    5.3070 N   0  0  0  0  0
    9.9270    5.1930    6.1150 C   0  0  0  0  0
   11.1070    4.6580    6.4190 N   0  0  0  0  0
   11.2040    3.4870    5.8020 C   0  0  0  0  0
   12.1770    2.5600    5.7730 N   0  0  0  0  0
   12.0290    1.4300    5.0480 C   0  0  0  0  0
   13.0270    0.5220    5.0650 N   0  0  0  0  0
   13.2180   -0.4310    4.1230 C   0  0  0  0  0
   14.5080   -0.9480    4.0140 C   0  0  0  0  0
   14.8090   -1.9400    3.0920 C   0  0  0  0  0
   12.2140   -0.9380    3.2900 C   0  0  0  0  0
   12.5110   -1.9290    2.3510 C   0  0  0  0  0
   13.8110   -2.4370    2.2540 C   0  0  0  0  0
   14.1310   -3.3890    1.3550 N   0  0  0  0  0
   13.4760   -4.7300    1.3930 C   0  0  0  0  0
   14.4290   -5.8380    0.9340 C   0  0  0  0  0
   15.1330   -5.4230   -0.2650 O   0  0  0  0  0
   16.0110   -4.3030   -0.0030 C   0  0  0  0  0
   15.1600   -3.0750    0.3180 C   0  0  0  0  0
    8.2187    0.6256    1.7059 H   0  0  0  0  0
    7.1524   -0.6102    2.4507 H   0  0  0  0  0
    5.8842    0.9948    1.0608 H   0  0  0  0  0
    6.4730    2.3342    2.1160 H   0  0  0  0  0
    4.3338    0.3406    2.5577 H   0  0  0  0  0
    4.5584    1.9907    3.2513 H   0  0  0  0  0
    5.6978   -0.6493    4.1948 H   0  0  0  0  0
    4.7346    0.5586    5.1090 H   0  0  0  0  0
    7.0759    0.6525    5.7994 H   0  0  0  0  0
    6.6302    2.1526    4.9172 H   0  0  0  0  0
    8.5529    0.0039    4.2111 H   0  0  0  0  0
    8.4608    2.8107    3.1298 H   0  0  0  0  0
    9.5491    6.1530    6.4667 H   0  0  0  0  0
   13.6848    0.5563    5.8438 H   0  0  0  0  0
   15.2944   -0.5660    4.6649 H   0  0  0  0  0
   15.8243   -2.3305    3.0226 H   0  0  0  0  0
   11.1959   -0.5580    3.3742 H   0  0  0  0  0
   11.7286   -2.3070    1.6929 H   0  0  0  0  0
   12.6188   -4.7131    0.7200 H   0  0  0  0  0
   13.1769   -4.9375    2.4204 H   0  0  0  0  0
   13.8540   -6.7385    0.7183 H   0  0  0  0  0
   15.1532   -6.0376    1.7238 H   0  0  0  0  0
   16.6292   -4.1054   -0.8787 H   0  0  0  0  0
   16.6612   -4.5328    0.8411 H   0  0  0  0  0
   15.8118   -2.2895    0.7004 H   0  0  0  0  0
   14.6518   -2.7556   -0.5918 H   0  0  0  0  0
  1  2  1  0  0  0
  1  6  1  0  0  0
  2  3  1  0  0  0
  3  4  1  0  0  0
  4  5  1  0  0  0
  5  6  1  0  0  0
  6  7  1  0  0  0
  7  8  1  0  0  0
  8  9  4  0  0  0
  8 10  4  0  0  0
  9 16  4  0  0  0
 10 11  4  0  0  0
 10 14  4  0  0  0
 11 12  4  0  0  0
 12 13  4  0  0  0
 13 14  4  0  0  0
 14 15  4  0  0  0
 15 16  4  0  0  0
 16 17  1  0  0  0
 17 18  1  0  0  0
 18 19  4  0  0  0
 18 21  4  0  0  0
 19 20  4  0  0  0
 20 23  4  0  0  0
 21 22  4  0  0  0
 22 23  4  0  0  0
 23 24  1  0  0  0
 24 25  1  0  0  0
 24 29  1  0  0  0
 25 26  1  0  0  0
 26 27  1  0  0  0
 27 28  1  0  0  0
 28 29  1  0  0  0
  1 30  1  0  0  0
  1 31  1  0  0  0
  2 32  1  0  0  0
  2 33  1  0  0  0
  3 34  1  0  0  0
  3 35  1  0  0  0
  4 36  1  0  0  0
  4 37  1  0  0  0
  5 38  1  0  0  0
  5 39  1  0  0  0
  6 40  1  0  0  0
  7 41  1  0  0  0
 12 42  1  0  0  0
 17 43  1  0  0  0
 19 44  1  0  0  0
 20 45  1  0  0  0
 21 46  1  0  0  0
 22 47  1  0  0  0
 25 48  1  0  0  0
 25 49  1  0  0  0
 26 50  1  0  0  0
 26 51  1  0  0  0
 28 52  1  0  0  0
 28 53  1  0  0  0
 29 54  1  0  0  0
 29 55  1  0  0  0
M  END
$$$$
