5czm_ligand
  -I-interpret- 

 87 90  0  0  0  0  0  0  0  0999 V2000
    9.8790   26.5400    4.2230 O   0  0  0  0  0
    6.5890   22.7060    5.5780 N   0  0  0  0  0
    7.7880   22.9780    4.8790 O   0  0  0  0  0
    8.9620   26.7190    3.4490 C   0  0  0  0  0
    8.5640   25.6850    2.4530 C   0  0  0  0  0
    8.7000   24.3060    3.0730 C   0  0  0  0  0
    6.2230   24.2270    3.9950 C   0  0  0  0  0
    5.6840   23.4690    5.0290 C   0  0  0  0  0
    4.2860   23.4060    5.5160 C   0  0  0  0  0
    3.3110   24.1070    4.8180 C   0  0  0  0  0
    1.9910   24.0550    5.2280 C   0  0  0  0  0
    1.6560   23.2960    6.3370 C   0  0  0  0  0
    2.6210   22.5690    7.0350 C   0  0  0  0  0
    3.9460   22.6200    6.6180 C   0  0  0  0  0
    7.5240   23.9100    3.9210 C   0  0  0  0  0
   -2.3200   20.6160    8.2370 Cl  0  0  0  0  0
   -1.6430   22.0740    7.6060 C   0  0  0  0  0
   -0.3050   22.0850    7.2480 C   0  0  0  0  0
   -2.4400   23.2000    7.4630 C   0  0  0  0  0
   -1.8890   24.3590    6.9490 C   0  0  0  0  0
   -0.5480   24.3750    6.5880 C   0  0  0  0  0
    0.2410   23.2480    6.7480 C   0  0  0  0  0
    9.5730   25.8040    1.3360 C   0  0  0  0  0
    9.1570   24.9780   -0.2150 P   0  0  0  0  0
    9.4580   23.4820   -0.1250 O   0  0  0  0  0
    7.7170   25.2610   -0.5280 O   0  0  0  0  0
   10.2280   25.7470   -1.4220 C   0  0  0  0  0
    9.7170   26.3680   -2.5550 C   0  0  0  0  0
   10.5900   26.9560   -3.4670 C   0  0  0  0  0
   11.9580   26.9140   -3.2270 C   0  0  0  0  0
   13.1640   27.7060   -4.4450 Br  0  0  0  0  0
   12.4690   26.3000   -2.0970 C   0  0  0  0  0
   11.5980   25.7100   -1.1950 C   0  0  0  0  0
    8.2620   27.8410    3.4040 N   0  0  0  0  0
    8.5920   28.9390    4.2890 C   0  0  0  0  0
    7.8460   28.9770    5.5840 C   0  0  0  0  0
    6.7020   28.5890    5.6920 O   0  0  0  0  0
    8.3450   30.2500    3.5450 C   0  0  0  0  0
    9.2930   30.4400    2.3700 C   0  0  0  0  0
    9.1940   31.8140    1.7480 C   0  0  0  0  0
    8.5230   31.9950    0.7440 O   0  0  0  0  0
    9.8800   32.7570    2.3880 O   0  0  0  0  0
    8.5050   29.5040    6.6000 N   0  0  0  0  0
    7.9060   29.6400    7.9020 C   0  0  0  0  0
    6.8060   30.6700    7.8980 C   0  0  0  0  0
    5.7890   30.4880    8.5560 O   0  0  0  0  0
    9.0200   30.0950    8.8240 C   0  0  0  0  0
    8.6280   30.1740   10.2830 C   0  0  0  0  0
    9.8930   30.3660   11.0800 C   0  0  0  0  0
   10.3700   31.4800   11.2040 O   0  0  0  0  0
   10.5050   29.3090   11.6170 O   0  0  0  0  0
    7.0000   31.7630    7.1580 N   0  0  0  0  0
    7.5367   25.8209    2.1150 H   0  0  0  0  0
    9.5781   24.3227    3.7186 H   0  0  0  0  0
    8.7725   23.5864    2.2576 H   0  0  0  0  0
    5.6908   24.9408    3.3662 H   0  0  0  0  0
    3.5866   24.6993    3.9454 H   0  0  0  0  0
    1.2230   24.6052    4.6844 H   0  0  0  0  0
    2.3386   21.9670    7.8987 H   0  0  0  0  0
    4.7117   22.0519    7.1463 H   0  0  0  0  0
    0.3059   21.1893    7.3597 H   0  0  0  0  0
   -3.4903   23.1714    7.7530 H   0  0  0  0  0
   -2.5016   25.2524    6.8281 H   0  0  0  0  0
   -0.1118   25.2842    6.1743 H   0  0  0  0  0
   10.4830   25.3259    1.6985 H   0  0  0  0  0
    9.6425   26.8666    1.1034 H   0  0  0  0  0
   10.3881   23.3554    0.0762 H   0  0  0  0  0
    8.6413   26.3948   -2.7287 H   0  0  0  0  0
   10.2035   27.4449   -4.3613 H   0  0  0  0  0
   13.5441   26.2807   -1.9185 H   0  0  0  0  0
   11.9887   25.2158   -0.3055 H   0  0  0  0  0
    7.4888   27.9328    2.7451 H   0  0  0  0  0
    9.6370   28.7913    4.5617 H   0  0  0  0  0
    8.5077   31.0698    4.2447 H   0  0  0  0  0
    7.3269   30.2296    3.1561 H   0  0  0  0  0
    9.0260   29.7096    1.6063 H   0  0  0  0  0
   10.3105   30.3157    2.7406 H   0  0  0  0  0
   10.3248   32.3693    3.1453 H   0  0  0  0  0
    9.4634   29.8230    6.4585 H   0  0  0  0  0
    7.4597   28.6974    8.2188 H   0  0  0  0  0
    9.3027   31.1007    8.5131 H   0  0  0  0  0
    9.8207   29.3595    8.7466 H   0  0  0  0  0
    8.1171   29.2618   10.5912 H   0  0  0  0  0
    7.9418   31.0043   10.4497 H   0  0  0  0  0
    9.9985   28.5162   11.4260 H   0  0  0  0  0
    6.2850   32.4897    7.1244 H   0  0  0  0  0
    7.8633   31.8720    6.6258 H   0  0  0  0  0
  4  1  2  0  0  0
  2  3  4  0  0  0
  8  2  4  0  0  0
 15  3  4  0  0  0
  5  4  1  0  0  0
  4 34  1  0  0  0
  6  5  1  0  0  0
  5 23  1  0  0  0
 15  6  1  0  0  0
  8  7  4  0  0  0
  7 15  4  0  0  0
  9  8  1  0  0  0
 10  9  4  0  0  0
 14  9  4  0  0  0
 11 10  4  0  0  0
 12 11  4  0  0  0
 12 13  4  0  0  0
 22 12  1  0  0  0
 13 14  4  0  0  0
 17 16  1  0  0  0
 18 17  4  0  0  0
 17 19  4  0  0  0
 18 22  4  0  0  0
 19 20  4  0  0  0
 20 21  4  0  0  0
 21 22  4  0  0  0
 23 24  1  0  0  0
 24 25  1  0  0  0
 24 26  2  0  0  0
 24 27  1  0  0  0
 27 28  4  0  0  0
 27 33  4  0  0  0
 28 29  4  0  0  0
 29 30  4  0  0  0
 30 31  1  0  0  0
 30 32  4  0  0  0
 32 33  4  0  0  0
 34 35  1  0  0  0
 35 36  1  0  0  0
 35 38  1  0  0  0
 36 37  2  0  0  0
 36 43  1  0  0  0
 38 39  1  0  0  0
 39 40  1  0  0  0
 40 41  2  0  0  0
 40 42  1  0  0  0
 43 44  1  0  0  0
 44 45  1  0  0  0
 44 47  1  0  0  0
 45 46  2  0  0  0
 45 52  1  0  0  0
 47 48  1  0  0  0
 48 49  1  0  0  0
 49 50  2  0  0  0
 49 51  1  0  0  0
  5 53  1  0  0  0
  6 54  1  0  0  0
  6 55  1  0  0  0
  7 56  1  0  0  0
 10 57  1  0  0  0
 11 58  1  0  0  0
 13 59  1  0  0  0
 14 60  1  0  0  0
 18 61  1  0  0  0
 19 62  1  0  0  0
 20 63  1  0  0  0
 21 64  1  0  0  0
 23 65  1  0  0  0
 23 66  1  0  0  0
 25 67  1  0  0  0
 28 68  1  0  0  0
 29 69  1  0  0  0
 32 70  1  0  0  0
 33 71  1  0  0  0
 34 72  1  0  0  0
 35 73  1  0  0  0
 38 74  1  0  0  0
 38 75  1  0  0  0
 39 76  1  0  0  0
 39 77  1  0  0  0
 42 78  1  0  0  0
 43 79  1  0  0  0
 44 80  1  0  0  0
 47 81  1  0  0  0
 47 82  1  0  0  0
 48 83  1  0  0  0
 48 84  1  0  0  0
 51 85  1  0  0  0
 52 86  1  0  0  0
 52 87  1  0  0  0
M  END
$$$$
