1bv7_ligand
  -I-interpret- 

 92 98  0  0  0  0  0  0  0  0999 V2000
   -8.2430   14.2270   27.8650 O   0  0  0  0  0
  -11.6970   18.6910   28.8770 O   0  0  0  0  0
  -10.1040   19.4920   26.7500 O   0  0  0  0  0
   -9.6530   15.5740   28.9000 N   0  0  0  0  0
   -8.6860   16.0930   26.7920 N   0  0  0  0  0
   -8.8590   15.2820   27.8520 C   0  0  0  0  0
   -9.4210   14.8150   30.1350 C   0  0  0  0  0
  -10.8120   16.4720   28.8620 C   0  0  0  0  0
  -10.5490   17.9400   28.5430 C   0  0  0  0  0
  -10.1940   18.1360   27.0840 C   0  0  0  0  0
   -8.8130   17.5770   26.8230 C   0  0  0  0  0
   -8.1030   15.4680   25.5980 C   0  0  0  0  0
  -11.9110   15.7320   28.0640 C   0  0  0  0  0
  -12.4430   14.5300   28.8380 C   0  0  0  0  0
  -12.0720   13.2140   28.4610 C   0  0  0  0  0
  -12.5160   12.1090   29.2130 C   0  0  0  0  0
  -13.3410   12.3170   30.3340 C   0  0  0  0  0
  -13.7300   13.6240   30.7140 C   0  0  0  0  0
  -13.2800   14.7330   29.9690 C   0  0  0  0  0
   -7.6910   18.2320   27.6940 C   0  0  0  0  0
   -6.2560   17.9800   27.2390 C   0  0  0  0  0
   -5.4580   17.0400   27.9170 C   0  0  0  0  0
   -4.1510   16.7630   27.4770 C   0  0  0  0  0
   -3.6460   17.4290   26.3490 C   0  0  0  0  0
   -4.4350   18.3700   25.6670 C   0  0  0  0  0
   -5.7400   18.6580   26.1110 C   0  0  0  0  0
   -9.3280   15.5970   31.4190 C   0  0  0  0  0
   -9.9950   15.1080   32.5500 C   0  0  0  0  0
   -9.8980   15.7970   33.7780 C   0  0  0  0  0
   -9.1240   16.9690   33.8790 C   0  0  0  0  0
   -8.4510   17.4570   32.7470 C   0  0  0  0  0
   -8.5610   16.7810   31.5190 C   0  0  0  0  0
  -10.6520   15.3130   34.9700 C   0  0  0  0  0
  -10.9690   16.0140   35.9200 O   0  0  0  0  0
  -10.9160   14.0010   34.9010 N   0  0  0  0  0
  -11.5460   11.8700   36.0350 N   0  0  0  0  0
  -11.5190   13.2150   35.9800 C   0  0  0  0  0
  -12.2450   11.4030   37.1210 C   0  0  0  0  0
  -12.3500   13.8740   37.2850 S   0  0  0  0  0
  -12.7900   12.3930   37.9650 C   0  0  0  0  0
   -8.7890   15.7540   24.3020 C   0  0  0  0  0
   -7.9950   16.1060   23.2160 C   0  0  0  0  0
   -8.6020   16.4550   21.9900 C   0  0  0  0  0
  -10.0140   16.4370   21.8470 C   0  0  0  0  0
  -10.8150   16.0590   22.9410 C   0  0  0  0  0
  -10.2000   15.7140   24.1620 C   0  0  0  0  0
   -7.7440   16.8520   20.8400 C   0  0  0  0  0
   -8.1120   17.6140   19.9660 O   0  0  0  0  0
   -6.5180   16.3180   20.8490 N   0  0  0  0  0
   -4.3330   16.0730   19.6910 N   0  0  0  0  0
   -5.5610   16.6020   19.7850 C   0  0  0  0  0
   -3.6950   16.4540   18.5390 C   0  0  0  0  0
   -5.9000   17.5780   18.4480 S   0  0  0  0  0
   -4.4200   17.3140   17.6890 C   0  0  0  0  0
  -11.9080   18.5557   29.8037 H   0  0  0  0  0
  -10.9548   19.9129   26.8934 H   0  0  0  0  0
   -8.4495   14.3370   30.0095 H   0  0  0  0  0
  -10.2876   14.1636   30.2483 H   0  0  0  0  0
  -11.1763   16.6572   29.8725 H   0  0  0  0  0
   -9.6968   18.2818   29.1304 H   0  0  0  0  0
  -10.9740   17.6426   26.5042 H   0  0  0  0  0
   -8.6517   17.8804   25.7886 H   0  0  0  0  0
   -8.1778   14.3914   25.7508 H   0  0  0  0  0
   -7.0950   15.8720   25.5044 H   0  0  0  0  0
  -11.4811   15.3787   27.1267 H   0  0  0  0  0
  -12.7352   16.4226   27.8858 H   0  0  0  0  0
  -11.4410   13.0572   27.5861 H   0  0  0  0  0
  -12.2223   11.0986   28.9284 H   0  0  0  0  0
  -13.6844   11.4620   30.9163 H   0  0  0  0  0
  -14.3754   13.7724   31.5798 H   0  0  0  0  0
  -13.5727   15.7421   30.2590 H   0  0  0  0  0
   -7.7786   17.7913   28.6871 H   0  0  0  0  0
   -7.8463   19.3091   27.6328 H   0  0  0  0  0
   -5.8558   16.5225   28.7900 H   0  0  0  0  0
   -3.5351   16.0369   28.0077 H   0  0  0  0  0
   -2.6357   17.2146   26.0004 H   0  0  0  0  0
   -4.0354   18.8795   24.7902 H   0  0  0  0  0
   -6.3472   19.3976   25.5892 H   0  0  0  0  0
  -10.5883   14.1962   32.4816 H   0  0  0  0  0
   -9.0476   17.4947   34.8308 H   0  0  0  0  0
   -7.8438   18.3592   32.8204 H   0  0  0  0  0
   -8.0517   17.1721   30.6382 H   0  0  0  0  0
  -10.6803   13.5152   34.0357 H   0  0  0  0  0
  -12.3703   10.3382   37.3176 H   0  0  0  0  0
  -13.3753   12.2343   38.8707 H   0  0  0  0  0
   -6.9092   16.1124   23.3108 H   0  0  0  0  0
  -10.4741   16.7135   20.8983 H   0  0  0  0  0
  -11.9005   16.0332   22.8452 H   0  0  0  0  0
  -10.8165   15.4128   25.0089 H   0  0  0  0  0
   -6.2468   15.7005   21.6142 H   0  0  0  0  0
   -2.6889   16.1130   18.2951 H   0  0  0  0  0
   -4.0898   17.7245   16.7348 H   0  0  0  0  0
  1  6  2  0  0  0
  6  4  1  0  0  0
  6  5  1  0  0  0
  5 11  1  0  0  0
  5 12  1  0  0  0
 12 41  1  0  0  0
 41 46  4  0  0  0
 41 42  4  0  0  0
 42 43  4  0  0  0
 43 47  1  0  0  0
 43 44  4  0  0  0
 44 45  4  0  0  0
 45 46  4  0  0  0
 47 49  1  0  0  0
 47 48  2  0  0  0
 49 51  1  0  0  0
 51 50  4  0  0  0
 51 53  4  0  0  0
 53 54  4  0  0  0
 54 52  4  0  0  0
 52 50  4  0  0  0
 11 20  1  0  0  0
 11 10  1  0  0  0
 10  3  1  0  0  0
 10  9  1  0  0  0
  9  2  1  0  0  0
  9  8  1  0  0  0
  8  4  1  0  0  0
  8 13  1  0  0  0
 13 14  1  0  0  0
 14 19  4  0  0  0
 14 15  4  0  0  0
 15 16  4  0  0  0
 16 17  4  0  0  0
 17 18  4  0  0  0
 18 19  4  0  0  0
  4  7  1  0  0  0
  7 27  1  0  0  0
 27 32  4  0  0  0
 27 28  4  0  0  0
 28 29  4  0  0  0
 29 33  1  0  0  0
 29 30  4  0  0  0
 30 31  4  0  0  0
 31 32  4  0  0  0
 33 35  1  0  0  0
 33 34  2  0  0  0
 35 37  1  0  0  0
 37 36  4  0  0  0
 37 39  4  0  0  0
 39 40  4  0  0  0
 40 38  4  0  0  0
 38 36  4  0  0  0
 20 21  1  0  0  0
 21 26  4  0  0  0
 21 22  4  0  0  0
 22 23  4  0  0  0
 23 24  4  0  0  0
 24 25  4  0  0  0
 25 26  4  0  0  0
  2 55  1  0  0  0
  3 56  1  0  0  0
  7 57  1  0  0  0
  7 58  1  0  0  0
  8 59  1  0  0  0
  9 60  1  0  0  0
 10 61  1  0  0  0
 11 62  1  0  0  0
 12 63  1  0  0  0
 12 64  1  0  0  0
 13 65  1  0  0  0
 13 66  1  0  0  0
 15 67  1  0  0  0
 16 68  1  0  0  0
 17 69  1  0  0  0
 18 70  1  0  0  0
 19 71  1  0  0  0
 20 72  1  0  0  0
 20 73  1  0  0  0
 22 74  1  0  0  0
 23 75  1  0  0  0
 24 76  1  0  0  0
 25 77  1  0  0  0
 26 78  1  0  0  0
 28 79  1  0  0  0
 30 80  1  0  0  0
 31 81  1  0  0  0
 32 82  1  0  0  0
 35 83  1  0  0  0
 38 84  1  0  0  0
 40 85  1  0  0  0
 42 86  1  0  0  0
 44 87  1  0  0  0
 45 88  1  0  0  0
 46 89  1  0  0  0
 49 90  1  0  0  0
 52 91  1  0  0  0
 54 92  1  0  0  0
M  END
$$$$
