### 
### Created by X-TOOL on Wed Jan  1 15:39:37 2020
### 

@<TRIPOS>MOLECULE
6b5o_ligand
  117   118     1     0     0
SMALL
GAST_HUCK


@<TRIPOS>ATOM
      1 N         -29.4540   -3.9240   48.2570 N.4       1 ASN         0.2377
      2 CA        -30.1100   -5.1850   47.8050 C.3       1 ASN         0.0623
      3 C         -30.4990   -5.0910   46.3280 C.2       1 ASN         0.2289
      4 O         -30.4540   -4.0080   45.7420 O.2       1 ASN        -0.3905
      5 CB        -31.3340   -5.4910   48.6670 C.3       1 ASN        -0.0040
      6 N         -30.8720   -6.2270   45.7150 N.am      1 PRO        -0.2471
      7 CA        -31.1190   -6.2240   44.2680 C.3       1 PRO         0.1339
      8 C         -32.5850   -6.1430   43.8620 C.2       1 PRO         0.2042
      9 O         -33.3860   -7.0100   44.2270 O.2       1 PRO        -0.3944
     10 CB        -30.5110   -7.5630   43.8160 C.3       1 PRO        -0.0104
     11 CG        -30.0320   -8.2700   45.0860 C.3       1 PRO        -0.0281
     12 CD        -30.7530   -7.6050   46.2070 C.3       1 PRO         0.0371
     13 N         -32.9390   -5.1040   43.0990 N.am      1 ASN        -0.2616
     14 CA        -34.1360   -5.1640   42.2640 C.3       1 ASN         0.1476
     15 C         -34.0110   -6.3170   41.2740 C.2       1 ASN         0.2062
     16 O         -34.8040   -7.2700   41.2960 O.2       1 ASN        -0.3942
     17 CB        -34.3270   -3.8340   41.5280 C.3       1 ASN         0.0773
     18 CG        -34.7160   -2.6940   42.4570 C.2       1 ASN         0.1780
     19 OD1       -35.5340   -2.8640   43.3600 O.2       1 ASN        -0.3970
     20 ND2       -34.1270   -1.5180   42.2320 N.am      1 ASN        -0.3007
     21 N         -33.0240   -6.2280   40.3930 N.am      1 ALA        -0.2639
     22 CA        -32.4190   -7.3920   39.7320 C.3       1 ALA         0.1282
     23 C         -33.4380   -7.9680   38.7460 C.2       1 ALA         0.2037
     24 O         -34.1640   -7.2080   38.0930 O.2       1 ALA        -0.3944
     25 CB        -31.9070   -8.3770   40.7970 C.3       1 ALA        -0.0244
     26 N         -33.5210   -9.2860   38.6370 N.am      1 ASN        -0.2616
     27 CA        -34.1820  -10.0770   37.6030 C.3       1 ASN         0.1478
     28 C         -34.8320  -11.2400   38.3450 C.2       1 ASN         0.2088
     29 O         -34.1190  -12.1310   38.8260 O.2       1 ASN        -0.3940
     30 CB        -33.1510  -10.5510   36.5710 C.3       1 ASN         0.0773
     31 CG        -33.6960  -11.5660   35.5800 C.2       1 ASN         0.1780
     32 OD1       -34.7810  -12.1270   35.7510 O.2       1 ASN        -0.3970
     33 ND2       -32.9100  -11.8250   34.5320 N.am      1 ASN        -0.3007
     34 N         -36.1700  -11.2590   38.4970 N.am      1 PRO        -0.2497
     35 CA        -36.8240  -12.3290   39.2730 C.3       1 PRO         0.1338
     36 C         -36.2940  -13.7280   38.9840 C.2       1 PRO         0.2042
     37 O         -36.3960  -14.6230   39.8300 O.2       1 PRO        -0.3944
     38 CB        -38.2960  -12.2010   38.8610 C.3       1 PRO        -0.0104
     39 CG        -38.4610  -10.7420   38.5140 C.3       1 PRO        -0.0281
     40 CD        -37.1340  -10.2720   37.9800 C.3       1 PRO         0.0369
     41 N         -35.7240  -13.9250   37.7940 N.am      1 ASN        -0.2616
     42 CA        -35.2180  -15.2310   37.3880 C.3       1 ASN         0.1476
     43 C         -33.9060  -15.6030   38.0700 C.2       1 ASN         0.2062
     44 O         -33.6150  -16.7960   38.2060 O.2       1 ASN        -0.3942
     45 CB        -35.0470  -15.2580   35.8700 C.3       1 ASN         0.0773
     46 CG        -36.3510  -14.9970   35.1340 C.2       1 ASN         0.1780
     47 OD1       -37.4360  -15.1900   35.6830 O.2       1 ASN        -0.3970
     48 ND2       -36.2490  -14.5550   33.8840 N.am      1 ASN        -0.3007
     49 N         -33.1090  -14.6250   38.4960 N.am      1 ALA        -0.2639
     50 CA        -31.9220  -14.8980   39.3060 C.3       1 ALA         0.1282
     51 C         -32.3860  -15.0690   40.7480 C.2       1 ALA         0.2032
     52 O         -32.6730  -14.0880   41.4370 O.2       1 ALA        -0.3944
     53 CB        -30.8980  -13.7770   39.1670 C.3       1 ALA        -0.0244
     54 N         -32.4460  -16.3230   41.2000 N.am      1 ASN        -0.2674
     55 CA        -33.1180  -16.7210   42.4480 C.3       1 ASN         0.1110
     56 C         -33.4020  -15.5720   43.4160 C.2       1 ASN         0.0624
     57 O         -34.4940  -15.0040   43.4150 O.co2     1 ASN        -0.5665
     58 CB        -32.2850  -17.7800   43.1730 C.3       1 ASN         0.0718
     59 CG        -30.8830  -17.3020   43.4850 C.2       1 ASN         0.1774
     60 OD1       -30.6430  -16.1070   43.6600 O.2       1 ASN        -0.3971
     61 ND2       -29.9440  -18.2360   43.5540 N.am      1 ASN        -0.3007
     62 OXT       -32.5440  -15.1950   44.2130 O.co2     1 ASN        -0.5665
     63 H1        -29.2055   -4.0049   49.2305 H         1 ASN         0.2015
     64 H2        -30.0906   -3.1519   48.1358 H         1 ASN         0.2015
     65 H3        -28.6226   -3.7631   47.7103 H         1 ASN         0.2015
     66 H4        -29.3911   -6.0094   47.9208 H         1 ASN         0.1095
     67 H5        -31.8037   -6.4229   48.3192 H         1 ASN         0.0310
     68 H6        -32.0553   -4.6645   48.5861 H         1 ASN         0.0310
     69 H7        -31.0242   -5.6060   49.7162 H         1 ASN         0.0310
     70 H8        -30.5871   -5.3804   43.8039 H         1 PRO         0.0802
     71 H9        -29.6642   -7.3864   43.1365 H         1 PRO         0.0313
     72 H10       -31.2706   -8.1725   43.3047 H         1 PRO         0.0313
     73 H11       -28.9448   -8.1525   45.2047 H         1 PRO         0.0287
     74 H12       -30.2833   -9.3402   45.0484 H         1 PRO         0.0287
     75 H13       -31.7418   -8.0580   46.3714 H         1 PRO         0.0524
     76 H14       -30.1703   -7.6482   47.1390 H         1 PRO         0.0524
     77 H15       -32.3779   -4.2762   43.0999 H         1 ASN         0.1885
     78 H16       -35.0114   -5.3412   42.9060 H         1 ASN         0.0826
     79 H17       -35.1197   -3.9598   40.7758 H         1 ASN         0.0551
     80 H18       -33.3838   -3.5717   41.0265 H         1 ASN         0.0551
     81 H19       -34.3433   -0.7316   42.8106 H         1 ASN         0.1814
     82 H20       -33.4693   -1.4231   41.4847 H         1 ASN         0.1814
     83 H21       -32.6726   -5.3196   40.1664 H         1 ALA         0.1883
     84 H22       -31.5479   -7.0553   39.1507 H         1 ALA         0.0797
     85 H23       -31.4539   -9.2488   40.3024 H         1 ALA         0.0277
     86 H24       -32.7474   -8.7075   41.4250 H         1 ALA         0.0277
     87 H25       -31.1536   -7.8791   41.4250 H         1 ALA         0.0277
     88 H26       -33.0703   -9.8093   39.3602 H         1 ASN         0.1885
     89 H27       -34.9516   -9.4786   37.0936 H         1 ASN         0.0826
     90 H28       -32.3080  -11.0096   37.1086 H         1 ASN         0.0551
     91 H29       -32.7947   -9.6749   36.0093 H         1 ASN         0.0551
     92 H30       -33.2027  -12.4827   33.8379 H         1 ASN         0.1814
     93 H31       -32.0287  -11.3613   34.4413 H         1 ASN         0.1814
     94 H32       -36.7075  -12.1328   40.3491 H         1 PRO         0.0802
     95 H33       -38.9591  -12.4810   39.6928 H         1 PRO         0.0313
     96 H34       -38.5132  -12.8357   37.9892 H         1 PRO         0.0313
     97 H35       -38.7336  -10.1673   39.4114 H         1 PRO         0.0287
     98 H36       -39.2421  -10.6201   37.7492 H         1 PRO         0.0287
     99 H37       -37.1354  -10.2663   36.8800 H         1 PRO         0.0524
    100 H38       -36.8983   -9.2639   38.3516 H         1 PRO         0.0524
    101 H39       -35.6413  -13.1545   37.1619 H         1 ASN         0.1885
    102 H40       -35.9674  -15.9859   37.6682 H         1 ASN         0.0826
    103 H41       -34.6671  -16.2473   35.5751 H         1 ASN         0.0551
    104 H42       -34.3189  -14.4851   35.5829 H         1 ASN         0.0551
    105 H43       -37.0741  -14.3662   33.3515 H         1 ASN         0.1814
    106 H44       -35.3472  -14.4114   33.4765 H         1 ASN         0.1814
    107 H45       -33.3277  -13.6792   38.2559 H         1 ALA         0.1883
    108 H46       -31.4578  -15.8350   38.9647 H         1 ALA         0.0797
    109 H47       -30.0172  -14.0064   39.7846 H         1 ALA         0.0277
    110 H48       -31.3442  -12.8291   39.5024 H         1 ALA         0.0277
    111 H49       -30.5938  -13.6867   38.1138 H         1 ALA         0.0277
    112 H50       -32.0065  -17.0381   40.6564 H         1 ASN         0.1877
    113 H51       -34.0846  -17.1671   42.1710 H         1 ASN         0.0752
    114 H52       -32.2190  -18.6740   42.5356 H         1 ASN         0.0544
    115 H53       -32.7875  -18.0387   44.1167 H         1 ASN         0.0544
    116 H54       -28.9987  -17.9806   43.7569 H         1 ASN         0.1814
    117 H55       -30.1813  -19.1957   43.4031 H         1 ASN         0.1814
@<TRIPOS>BOND
     1    1    2 1  
     2    2    3 1  
     3    2    5 1  
     4    3    4 2  
     5    3    6 am 
     6    6    7 1  
     7    6   12 1  
     8    7    8 1  
     9    7   10 1  
    10    8    9 2  
    11    8   13 am 
    12   10   11 1  
    13   11   12 1  
    14   13   14 1  
    15   14   15 1  
    16   14   17 1  
    17   15   16 2  
    18   15   21 am 
    19   17   18 1  
    20   18   19 2  
    21   18   20 am 
    22   21   22 1  
    23   22   23 1  
    24   22   25 1  
    25   23   24 2  
    26   23   26 am 
    27   26   27 1  
    28   27   28 1  
    29   27   30 1  
    30   28   29 2  
    31   28   34 am 
    32   30   31 1  
    33   31   32 2  
    34   31   33 am 
    35   34   35 1  
    36   34   40 1  
    37   35   36 1  
    38   35   38 1  
    39   36   37 2  
    40   36   41 am 
    41   38   39 1  
    42   39   40 1  
    43   41   42 1  
    44   42   43 1  
    45   42   45 1  
    46   43   44 2  
    47   43   49 am 
    48   45   46 1  
    49   46   47 2  
    50   46   48 am 
    51   49   50 1  
    52   50   51 1  
    53   50   53 1  
    54   51   52 2  
    55   51   54 am 
    56   54   55 1  
    57   55   56 1  
    58   55   58 1  
    59   56   57 ar 
    60   56   62 ar 
    61   58   59 1  
    62   59   60 2  
    63   59   61 am 
    64    1   63 1  
    65    1   64 1  
    66    1   65 1  
    67    2   66 1  
    68    5   67 1  
    69    5   68 1  
    70    5   69 1  
    71    7   70 1  
    72   10   71 1  
    73   10   72 1  
    74   11   73 1  
    75   11   74 1  
    76   12   75 1  
    77   12   76 1  
    78   13   77 1  
    79   14   78 1  
    80   17   79 1  
    81   17   80 1  
    82   20   81 1  
    83   20   82 1  
    84   21   83 1  
    85   22   84 1  
    86   25   85 1  
    87   25   86 1  
    88   25   87 1  
    89   26   88 1  
    90   27   89 1  
    91   30   90 1  
    92   30   91 1  
    93   33   92 1  
    94   33   93 1  
    95   35   94 1  
    96   38   95 1  
    97   38   96 1  
    98   39   97 1  
    99   39   98 1  
   100   40   99 1  
   101   40  100 1  
   102   41  101 1  
   103   42  102 1  
   104   45  103 1  
   105   45  104 1  
   106   48  105 1  
   107   48  106 1  
   108   49  107 1  
   109   50  108 1  
   110   53  109 1  
   111   53  110 1  
   112   53  111 1  
   113   54  112 1  
   114   55  113 1  
   115   58  114 1  
   116   58  115 1  
   117   61  116 1  
   118   61  117 1  
@<TRIPOS>SUBSTRUCTURE
     1 ASN         1

