6b5o_ligand
  -I-interpret- 

118119  0  0  0  0  0  0  0  0999 V2000
  -29.4540   -3.9240   48.2570 N   0  3  0  0  0
  -30.1100   -5.1850   47.8050 C   0  0  0  0  0
  -30.4990   -5.0910   46.3280 C   0  0  0  0  0
  -30.4540   -4.0080   45.7420 O   0  0  0  0  0
  -31.3340   -5.4910   48.6670 C   0  0  0  0  0
  -30.8720   -6.2270   45.7150 N   0  0  0  0  0
  -31.1190   -6.2240   44.2680 C   0  0  0  0  0
  -32.5850   -6.1430   43.8620 C   0  0  0  0  0
  -33.3860   -7.0100   44.2270 O   0  0  0  0  0
  -30.5110   -7.5630   43.8160 C   0  0  0  0  0
  -30.0320   -8.2700   45.0860 C   0  0  0  0  0
  -30.7530   -7.6050   46.2070 C   0  0  0  0  0
  -32.9390   -5.1040   43.0990 N   0  0  0  0  0
  -34.1360   -5.1640   42.2640 C   0  0  0  0  0
  -34.0110   -6.3170   41.2740 C   0  0  0  0  0
  -34.8040   -7.2700   41.2960 O   0  0  0  0  0
  -34.3270   -3.8340   41.5280 C   0  0  0  0  0
  -34.7160   -2.6940   42.4570 C   0  0  0  0  0
  -35.5340   -2.8640   43.3600 O   0  0  0  0  0
  -34.1270   -1.5180   42.2320 N   0  0  0  0  0
  -33.0240   -6.2280   40.3930 N   0  0  0  0  0
  -32.4190   -7.3920   39.7320 C   0  0  0  0  0
  -33.4380   -7.9680   38.7460 C   0  0  0  0  0
  -34.1640   -7.2080   38.0930 O   0  0  0  0  0
  -31.9070   -8.3770   40.7970 C   0  0  0  0  0
  -33.5210   -9.2860   38.6370 N   0  0  0  0  0
  -34.1820  -10.0770   37.6030 C   0  0  0  0  0
  -34.8320  -11.2400   38.3450 C   0  0  0  0  0
  -34.1190  -12.1310   38.8260 O   0  0  0  0  0
  -33.1510  -10.5510   36.5710 C   0  0  0  0  0
  -33.6960  -11.5660   35.5800 C   0  0  0  0  0
  -34.7810  -12.1270   35.7510 O   0  0  0  0  0
  -32.9100  -11.8250   34.5320 N   0  0  0  0  0
  -36.1700  -11.2590   38.4970 N   0  0  0  0  0
  -36.8240  -12.3290   39.2730 C   0  0  0  0  0
  -36.2940  -13.7280   38.9840 C   0  0  0  0  0
  -36.3960  -14.6230   39.8300 O   0  0  0  0  0
  -38.2960  -12.2010   38.8610 C   0  0  0  0  0
  -38.4610  -10.7420   38.5140 C   0  0  0  0  0
  -37.1340  -10.2720   37.9800 C   0  0  0  0  0
  -35.7240  -13.9250   37.7940 N   0  0  0  0  0
  -35.2180  -15.2310   37.3880 C   0  0  0  0  0
  -33.9060  -15.6030   38.0700 C   0  0  0  0  0
  -33.6150  -16.7960   38.2060 O   0  0  0  0  0
  -35.0470  -15.2580   35.8700 C   0  0  0  0  0
  -36.3510  -14.9970   35.1340 C   0  0  0  0  0
  -37.4360  -15.1900   35.6830 O   0  0  0  0  0
  -36.2490  -14.5550   33.8840 N   0  0  0  0  0
  -33.1090  -14.6250   38.4960 N   0  0  0  0  0
  -31.9220  -14.8980   39.3060 C   0  0  0  0  0
  -32.3860  -15.0690   40.7480 C   0  0  0  0  0
  -32.6730  -14.0880   41.4370 O   0  0  0  0  0
  -30.8980  -13.7770   39.1670 C   0  0  0  0  0
  -32.4460  -16.3230   41.2000 N   0  0  0  0  0
  -33.1180  -16.7210   42.4480 C   0  0  0  0  0
  -33.4020  -15.5720   43.4160 C   0  0  0  0  0
  -34.4940  -15.0040   43.4150 O   0  0  0  0  0
  -32.2850  -17.7800   43.1730 C   0  0  0  0  0
  -30.8830  -17.3020   43.4850 C   0  0  0  0  0
  -30.6430  -16.1070   43.6600 O   0  0  0  0  0
  -29.9440  -18.2360   43.5540 N   0  0  0  0  0
  -32.5440  -15.1950   44.2130 O   0  0  0  0  0
  -28.6405   -3.7364   47.6710 H   0  0  0  0  0
  -30.1155   -3.1515   48.1799 H   0  0  0  0  0
  -29.1589   -4.0249   49.2282 H   0  0  0  0  0
  -29.3980   -6.0025   47.9184 H   0  0  0  0  0
  -32.0701   -4.6963   48.5457 H   0  0  0  0  0
  -31.7682   -6.4409   48.3551 H   0  0  0  0  0
  -31.0338   -5.5533   49.7130 H   0  0  0  0  0
  -30.6866   -5.3360   43.8069 H   0  0  0  0  0
  -29.6858   -7.4036   43.1219 H   0  0  0  0  0
  -31.2466   -8.1675   43.2853 H   0  0  0  0  0
  -28.9512   -8.1915   45.2036 H   0  0  0  0  0
  -30.2440   -9.3387   45.0526 H   0  0  0  0  0
  -31.7131   -8.0664   46.4381 H   0  0  0  0  0
  -30.2321   -7.6802   47.1615 H   0  0  0  0  0
  -32.3667   -4.2597   43.0999 H   0  0  0  0  0
  -35.0101   -5.3363   42.8920 H   0  0  0  0  0
  -35.1334   -3.9655   40.8066 H   0  0  0  0  0
  -33.3777   -3.5731   41.0601 H   0  0  0  0  0
  -34.3497   -0.7152   42.8205 H   0  0  0  0  0
  -33.4541   -1.4219   41.4715 H   0  0  0  0  0
  -32.6656   -5.3014   40.1618 H   0  0  0  0  0
  -31.5400   -7.1274   39.1443 H   0  0  0  0  0
  -31.1606   -7.8824   41.4186 H   0  0  0  0  0
  -32.7406   -8.7037   41.4186 H   0  0  0  0  0
  -31.4583   -9.2404   40.3057 H   0  0  0  0  0
  -33.0613   -9.8197   39.3747 H   0  0  0  0  0
  -34.9283   -9.5110   37.0455 H   0  0  0  0  0
  -32.3417  -11.0340   37.1186 H   0  0  0  0  0
  -32.8367   -9.6768   36.0008 H   0  0  0  0  0
  -33.1998  -12.5102   33.8342 H   0  0  0  0  0
  -32.0199  -11.3377   34.4293 H   0  0  0  0  0
  -36.6414  -12.2106   40.3410 H   0  0  0  0  0
  -38.9731  -12.5126   39.6563 H   0  0  0  0  0
  -38.5457  -12.8525   38.0236 H   0  0  0  0  0
  -38.7534  -10.1647   39.3911 H   0  0  0  0  0
  -39.2485  -10.6055   37.7728 H   0  0  0  0  0
  -37.1237  -10.2163   36.8915 H   0  0  0  0  0
  -36.8968   -9.2572   38.2995 H   0  0  0  0  0
  -35.6397  -13.1391   37.1493 H   0  0  0  0  0
  -35.9511  -15.9741   37.7020 H   0  0  0  0  0
  -34.6941  -16.2501   35.5884 H   0  0  0  0  0
  -34.3428  -14.4723   35.5964 H   0  0  0  0  0
  -37.0906  -14.3620   33.3410 H   0  0  0  0  0
  -35.3291  -14.4089   33.4682 H   0  0  0  0  0
  -33.3321  -13.6603   38.2511 H   0  0  0  0  0
  -31.4235  -15.8066   38.9682 H   0  0  0  0  0
  -30.5975  -13.6886   38.1230 H   0  0  0  0  0
  -31.3413  -12.8384   39.4996 H   0  0  0  0  0
  -30.0257  -14.0054   39.7794 H   0  0  0  0  0
  -31.9977  -17.0524   40.6455 H   0  0  0  0  0
  -34.0872  -17.1130   42.1397 H   0  0  0  0  0
  -35.0588  -15.4000   42.7474 H   0  0  0  0  0
  -32.2062  -18.6499   42.5210 H   0  0  0  0  0
  -32.7799  -18.0087   44.1168 H   0  0  0  0  0
  -28.9794  -17.9753   43.7588 H   0  0  0  0  0
  -30.1864  -19.2151   43.4023 H   0  0  0  0  0
  1  2  1  0  0  0
  2  3  1  0  0  0
  2  5  1  0  0  0
  3  4  2  0  0  0
  3  6  1  0  0  0
  6  7  1  0  0  0
  6 12  1  0  0  0
  7  8  1  0  0  0
  7 10  1  0  0  0
  8  9  2  0  0  0
  8 13  1  0  0  0
 10 11  1  0  0  0
 11 12  1  0  0  0
 13 14  1  0  0  0
 14 15  1  0  0  0
 14 17  1  0  0  0
 15 16  2  0  0  0
 15 21  1  0  0  0
 17 18  1  0  0  0
 18 19  2  0  0  0
 18 20  1  0  0  0
 21 22  1  0  0  0
 22 23  1  0  0  0
 22 25  1  0  0  0
 23 24  2  0  0  0
 23 26  1  0  0  0
 26 27  1  0  0  0
 27 28  1  0  0  0
 27 30  1  0  0  0
 28 29  2  0  0  0
 28 34  1  0  0  0
 30 31  1  0  0  0
 31 32  2  0  0  0
 31 33  1  0  0  0
 34 35  1  0  0  0
 34 40  1  0  0  0
 35 36  1  0  0  0
 35 38  1  0  0  0
 36 37  2  0  0  0
 36 41  1  0  0  0
 38 39  1  0  0  0
 39 40  1  0  0  0
 41 42  1  0  0  0
 42 43  1  0  0  0
 42 45  1  0  0  0
 43 44  2  0  0  0
 43 49  1  0  0  0
 45 46  1  0  0  0
 46 47  2  0  0  0
 46 48  1  0  0  0
 49 50  1  0  0  0
 50 51  1  0  0  0
 50 53  1  0  0  0
 51 52  2  0  0  0
 51 54  1  0  0  0
 54 55  1  0  0  0
 55 56  1  0  0  0
 55 58  1  0  0  0
 56 57  1  0  0  0
 56 62  2  0  0  0
 58 59  1  0  0  0
 59 60  2  0  0  0
 59 61  1  0  0  0
  1 63  1  0  0  0
  1 64  1  0  0  0
  1 65  1  0  0  0
  2 66  1  0  0  0
  5 67  1  0  0  0
  5 68  1  0  0  0
  5 69  1  0  0  0
  7 70  1  0  0  0
 10 71  1  0  0  0
 10 72  1  0  0  0
 11 73  1  0  0  0
 11 74  1  0  0  0
 12 75  1  0  0  0
 12 76  1  0  0  0
 13 77  1  0  0  0
 14 78  1  0  0  0
 17 79  1  0  0  0
 17 80  1  0  0  0
 20 81  1  0  0  0
 20 82  1  0  0  0
 21 83  1  0  0  0
 22 84  1  0  0  0
 25 85  1  0  0  0
 25 86  1  0  0  0
 25 87  1  0  0  0
 26 88  1  0  0  0
 27 89  1  0  0  0
 30 90  1  0  0  0
 30 91  1  0  0  0
 33 92  1  0  0  0
 33 93  1  0  0  0
 35 94  1  0  0  0
 38 95  1  0  0  0
 38 96  1  0  0  0
 39 97  1  0  0  0
 39 98  1  0  0  0
 40 99  1  0  0  0
 40100  1  0  0  0
 41101  1  0  0  0
 42102  1  0  0  0
 45103  1  0  0  0
 45104  1  0  0  0
 48105  1  0  0  0
 48106  1  0  0  0
 49107  1  0  0  0
 50108  1  0  0  0
 53109  1  0  0  0
 53110  1  0  0  0
 53111  1  0  0  0
 54112  1  0  0  0
 55113  1  0  0  0
 57114  1  0  0  0
 58115  1  0  0  0
 58116  1  0  0  0
 61117  1  0  0  0
 61118  1  0  0  0
M  END
$$$$
