6b27_ligand
  -I-interpret- 

162165  0  0  0  0  0  0  0  0999 V2000
   27.2060   52.6160   27.0060 N   0  3  0  0  0
   26.3180   52.0130   25.9780 C   0  0  0  0  0
   24.8360   52.1130   26.3810 C   0  0  0  0  0
   24.4260   51.4800   27.3100 O   0  0  0  0  0
   26.7100   50.5560   25.7140 C   0  0  0  0  0
   26.0710   50.0000   24.4630 C   0  0  0  0  0
   26.9300   48.9750   23.7310 C   0  0  0  0  0
   28.2150   49.0690   23.6430 O   0  0  0  0  0
   26.2740   48.0590   23.2150 O   0  0  0  0  0
   24.0470   52.9410   25.6850 N   0  0  0  0  0
   22.6590   53.1920   26.0440 C   0  0  0  0  0
   21.8290   51.9210   25.9340 C   0  0  0  0  0
   22.2130   50.9870   25.2250 O   0  0  0  0  0
   22.1770   54.1770   24.9830 C   0  0  0  0  0
   23.4200   54.7430   24.3880 C   0  0  0  0  0
   24.4090   53.6410   24.4340 C   0  0  0  0  0
   20.7560   51.8660   26.6960 N   0  0  0  0  0
   19.7580   50.8250   26.4790 C   0  0  0  0  0
   19.1040   50.8990   25.0690 C   0  0  0  0  0
   18.7270   51.9520   24.6310 O   0  0  0  0  0
   18.6440   50.9510   27.5550 C   0  0  0  0  0
   17.7980   49.6810   27.7160 C   0  0  0  0  0
   16.7440   49.7500   28.8310 C   0  0  0  0  0
   16.2130   50.8530   29.1540 O   0  0  0  0  0
   16.4110   48.6610   29.3420 O   0  0  0  0  0
   18.9170   49.7380   24.4360 N   0  0  0  0  0
   18.1330   49.6280   23.1780 C   0  0  0  0  0
   16.7140   50.0060   23.5870 C   0  0  0  0  0
   16.2570   49.6050   24.6800 O   0  0  0  0  0
   18.1690   48.2330   22.6290 C   0  0  0  0  0
   19.5910   47.9050   22.1360 C   0  0  0  0  0
   17.1790   48.0270   21.5240 C   0  0  0  0  0
   19.7470   46.4480   21.8820 C   0  0  0  0  0
   16.0720   50.8220   22.7740 N   0  0  0  0  0
   14.7770   51.3380   23.2100 C   0  0  0  0  0
   13.7440   50.2420   23.4520 C   0  0  0  0  0
   13.7220   49.2240   22.7240 O   0  0  0  0  0
   14.3290   52.2010   22.0280 C   0  0  0  0  0
   15.6270   52.6090   21.2900 C   0  0  0  0  0
   16.4870   51.4090   21.4700 C   0  0  0  0  0
   12.9570   50.4890   24.5180 N   0  0  0  0  0
   11.8470   49.5790   24.9020 C   0  0  0  0  0
   10.6630   49.8220   24.0670 C   0  0  0  0  0
    9.8330   48.9180   23.8820 O   0  0  0  0  0
   11.4740   49.6970   26.3530 C   0  0  0  0  0
   12.5500   49.5120   27.3890 C   0  0  0  0  0
   11.9420   49.6530   28.7620 C   0  0  0  0  0
   13.1960   48.1400   27.2050 C   0  0  0  0  0
   10.6100   51.0160   23.4720 N   0  0  0  0  0
    9.5850   51.3580   22.5630 C   0  0  0  0  0
    9.5480   50.5450   21.3030 C   0  0  0  0  0
   10.5840   50.0770   20.8000 O   0  0  0  0  0
    9.5480   52.8830   22.2640 C   0  0  0  0  0
   10.6220   53.2780   21.4230 O   0  0  0  0  0
    8.3480   50.3790   20.7190 N   0  0  0  0  0
    8.2500   49.5510   19.5100 C   0  0  0  0  0
    8.9520   50.0430   18.2730 C   0  0  0  0  0
    9.0370   51.2290   18.0570 O   0  0  0  0  0
    6.7460   49.5310   19.1880 C   0  0  0  0  0
    6.1110   49.8190   20.4540 C   0  0  0  0  0
    7.0030   50.7320   21.2150 C   0  0  0  0  0
    9.3960   49.1180   17.4270 N   0  0  0  0  0
   10.0040   49.5020   16.1660 C   0  0  0  0  0
    8.8670   50.0380   15.3330 C   0  0  0  0  0
    7.7480   49.6220   15.5930 O   0  0  0  0  0
   10.6310   48.3320   15.4540 C   0  0  0  0  0
   12.0810   48.0760   15.8580 C   0  0  0  0  0
   12.2490   46.6380   15.9960 C   0  0  0  0  0
   13.5840   46.1840   16.2780 N   0  0  0  0  0
   14.0450   45.8250   17.4800 C   0  0  0  0  0
   13.3310   45.9530   18.6290 N   0  0  0  0  0
   15.2290   45.2550   17.5250 N   0  0  0  0  0
    9.1470   50.9340   14.3500 N   0  0  0  0  0
    8.1700   51.5120   13.4210 C   0  0  0  0  0
    7.5100   50.5070   12.5000 C   0  0  0  0  0
    8.2300   49.8880   11.7640 O   0  0  0  0  0
    9.0190   52.5120   12.6130 C   0  0  0  0  0
   10.0590   52.9670   13.5870 C   0  0  0  0  0
   10.4140   51.7080   14.3170 C   0  0  0  0  0
    6.3150   50.4030   12.5740 O   0  0  0  0  0
   26.9290   53.5844   27.1671 H   0  0  0  0  0
   27.1247   52.0887   27.8754 H   0  0  0  0  0
   28.1716   52.5873   26.6786 H   0  0  0  0  0
   26.4473   52.5801   25.0561 H   0  0  0  0  0
   26.3685   49.9583   26.5591 H   0  0  0  0  0
   27.7915   50.5180   25.5836 H   0  0  0  0  0
   25.9137   50.8359   23.7814 H   0  0  0  0  0
   25.1532   49.4958   24.7654 H   0  0  0  0  0
   28.5105   49.8514   24.1144 H   0  0  0  0  0
   22.5658   53.5571   27.0668 H   0  0  0  0  0
   21.5444   54.9544   25.4116 H   0  0  0  0  0
   21.5558   53.6892   24.2318 H   0  0  0  0  0
   23.7668   55.6179   24.9378 H   0  0  0  0  0
   23.2549   55.0930   23.3690 H   0  0  0  0  0
   24.3715   52.9956   23.5564 H   0  0  0  0  0
   25.4410   53.9916   24.4232 H   0  0  0  0  0
   20.6230   52.5523   27.4387 H   0  0  0  0  0
   20.2729   49.8671   26.5528 H   0  0  0  0  0
   17.9747   51.7515   27.2399 H   0  0  0  0  0
   19.1329   51.1410   28.5105 H   0  0  0  0  0
   18.4830   48.8740   27.9761 H   0  0  0  0  0
   17.2601   49.5369   26.7790 H   0  0  0  0  0
   16.6132   51.5610   28.6440 H   0  0  0  0  0
   19.3287   48.8928   24.8317 H   0  0  0  0  0
   18.5320   50.2677   22.3908 H   0  0  0  0  0
   17.8908   47.5560   23.4367 H   0  0  0  0  0
   20.3040   48.2033   22.9046 H   0  0  0  0  0
   19.7699   48.4425   21.2047 H   0  0  0  0  0
   16.1731   48.2152   21.8993 H   0  0  0  0  0
   17.3986   48.7157   20.7081 H   0  0  0  0  0
   17.2474   47.0007   21.1632 H   0  0  0  0  0
   19.5617   45.8978   22.8045 H   0  0  0  0  0
   19.0326   46.1347   21.1208 H   0  0  0  0  0
   20.7607   46.2474   21.5352 H   0  0  0  0  0
   14.8637   51.8666   24.1593 H   0  0  0  0  0
   13.7714   53.0754   22.3636 H   0  0  0  0  0
   13.6535   51.6539   21.3704 H   0  0  0  0  0
   16.0757   53.5204   21.6851 H   0  0  0  0  0
   15.4621   52.8644   20.2432 H   0  0  0  0  0
   16.3625   50.6992   20.6522 H   0  0  0  0  0
   17.5455   51.6690   21.4652 H   0  0  0  0  0
   13.1284   51.3247   25.0772 H   0  0  0  0  0
   12.2107   48.5647   24.7377 H   0  0  0  0  0
   10.7649   48.8886   26.5314 H   0  0  0  0  0
   11.1333   50.7250   26.4767 H   0  0  0  0  0
   13.3240   50.2711   27.2759 H   0  0  0  0  0
   11.5015   50.6449   28.8628 H   0  0  0  0  0
   11.1694   48.8957   28.8954 H   0  0  0  0  0
   12.7172   49.5199   29.5166 H   0  0  0  0  0
   12.4387   47.3647   27.3215 H   0  0  0  0  0
   13.6328   48.0762   26.2084 H   0  0  0  0  0
   13.9758   48.0036   27.9543 H   0  0  0  0  0
   11.3337   51.7038   23.6809 H   0  0  0  0  0
    8.6682   51.0916   23.0889 H   0  0  0  0  0
    9.6346   53.4209   23.2081 H   0  0  0  0  0
    8.6112   53.1113   21.7557 H   0  0  0  0  0
   10.5683   54.2225   21.2595 H   0  0  0  0  0
    8.7319   48.5997   19.7355 H   0  0  0  0  0
    6.4257   48.5748   18.7743 H   0  0  0  0  0
    6.4794   50.2558   18.4188 H   0  0  0  0  0
    5.9483   48.8975   21.0130 H   0  0  0  0  0
    5.1406   50.2880   20.2916 H   0  0  0  0  0
    6.7600   51.7832   21.0603 H   0  0  0  0  0
    6.9073   50.6110   22.2940 H   0  0  0  0  0
    9.3086   48.1303   17.6662 H   0  0  0  0  0
   10.8023   50.2256   16.3310 H   0  0  0  0  0
   10.6238   48.5565   14.3874 H   0  0  0  0  0
   10.0568   47.4436   15.7170 H   0  0  0  0  0
   12.8498   48.8327   16.0144 H   0  0  0  0  0
   11.4133   45.9460   15.8919 H   0  0  0  0  0
   14.2344   46.1315   15.4940 H   0  0  0  0  0
   13.7152   45.6093   19.5092 H   0  0  0  0  0
   12.4109   46.3928   18.6113 H   0  0  0  0  0
   15.7552   45.1036   16.6644 H   0  0  0  0  0
    7.3295   51.9515   13.9580 H   0  0  0  0  0
    8.4260   53.3392   12.2229 H   0  0  0  0  0
    9.4548   52.0607   11.7216 H   0  0  0  0  0
    9.6993   53.7525   14.2516 H   0  0  0  0  0
   10.9183   53.4291   13.1010 H   0  0  0  0  0
   11.2171   51.1601   13.8241 H   0  0  0  0  0
   10.7992   51.9079   15.3169 H   0  0  0  0  0
    5.9827   51.0099   13.2395 H   0  0  0  0  0
  1  2  1  0  0  0
  2  3  1  0  0  0
  2  5  1  0  0  0
  3  4  2  0  0  0
  3 10  1  0  0  0
  5  6  1  0  0  0
  6  7  1  0  0  0
  7  8  1  0  0  0
  7  9  2  0  0  0
 10 11  1  0  0  0
 10 16  1  0  0  0
 11 12  1  0  0  0
 11 14  1  0  0  0
 12 13  2  0  0  0
 12 17  1  0  0  0
 14 15  1  0  0  0
 15 16  1  0  0  0
 17 18  1  0  0  0
 18 19  1  0  0  0
 18 21  1  0  0  0
 19 20  2  0  0  0
 19 26  1  0  0  0
 21 22  1  0  0  0
 22 23  1  0  0  0
 23 24  1  0  0  0
 23 25  2  0  0  0
 26 27  1  0  0  0
 27 28  1  0  0  0
 27 30  1  0  0  0
 28 29  2  0  0  0
 28 34  1  0  0  0
 30 31  1  0  0  0
 30 32  1  0  0  0
 31 33  1  0  0  0
 34 35  1  0  0  0
 34 40  1  0  0  0
 35 36  1  0  0  0
 35 38  1  0  0  0
 36 37  2  0  0  0
 36 41  1  0  0  0
 38 39  1  0  0  0
 39 40  1  0  0  0
 41 42  1  0  0  0
 42 43  1  0  0  0
 42 45  1  0  0  0
 43 44  2  0  0  0
 43 49  1  0  0  0
 45 46  1  0  0  0
 46 47  1  0  0  0
 46 48  1  0  0  0
 49 50  1  0  0  0
 50 51  1  0  0  0
 50 53  1  0  0  0
 51 52  2  0  0  0
 51 55  1  0  0  0
 53 54  1  0  0  0
 55 56  1  0  0  0
 55 61  1  0  0  0
 56 57  1  0  0  0
 56 59  1  0  0  0
 57 58  2  0  0  0
 57 62  1  0  0  0
 59 60  1  0  0  0
 60 61  1  0  0  0
 62 63  1  0  0  0
 63 64  1  0  0  0
 63 66  1  0  0  0
 64 65  2  0  0  0
 64 73  1  0  0  0
 66 67  1  0  0  0
 67 68  2  0  0  0
 68 69  1  0  0  0
 69 70  1  0  0  0
 70 71  1  0  0  0
 70 72  2  0  0  0
 73 74  1  0  0  0
 73 79  1  0  0  0
 74 75  1  0  0  0
 74 77  1  0  0  0
 75 76  2  0  0  0
 75 80  1  0  0  0
 77 78  1  0  0  0
 78 79  1  0  0  0
  1 81  1  0  0  0
  1 82  1  0  0  0
  1 83  1  0  0  0
  2 84  1  0  0  0
  5 85  1  0  0  0
  5 86  1  0  0  0
  6 87  1  0  0  0
  6 88  1  0  0  0
  8 89  1  0  0  0
 11 90  1  0  0  0
 14 91  1  0  0  0
 14 92  1  0  0  0
 15 93  1  0  0  0
 15 94  1  0  0  0
 16 95  1  0  0  0
 16 96  1  0  0  0
 17 97  1  0  0  0
 18 98  1  0  0  0
 21 99  1  0  0  0
 21100  1  0  0  0
 22101  1  0  0  0
 22102  1  0  0  0
 24103  1  0  0  0
 26104  1  0  0  0
 27105  1  0  0  0
 30106  1  0  0  0
 31107  1  0  0  0
 31108  1  0  0  0
 32109  1  0  0  0
 32110  1  0  0  0
 32111  1  0  0  0
 33112  1  0  0  0
 33113  1  0  0  0
 33114  1  0  0  0
 35115  1  0  0  0
 38116  1  0  0  0
 38117  1  0  0  0
 39118  1  0  0  0
 39119  1  0  0  0
 40120  1  0  0  0
 40121  1  0  0  0
 41122  1  0  0  0
 42123  1  0  0  0
 45124  1  0  0  0
 45125  1  0  0  0
 46126  1  0  0  0
 47127  1  0  0  0
 47128  1  0  0  0
 47129  1  0  0  0
 48130  1  0  0  0
 48131  1  0  0  0
 48132  1  0  0  0
 49133  1  0  0  0
 50134  1  0  0  0
 53135  1  0  0  0
 53136  1  0  0  0
 54137  1  0  0  0
 56138  1  0  0  0
 59139  1  0  0  0
 59140  1  0  0  0
 60141  1  0  0  0
 60142  1  0  0  0
 61143  1  0  0  0
 61144  1  0  0  0
 62145  1  0  0  0
 63146  1  0  0  0
 66147  1  0  0  0
 66148  1  0  0  0
 67149  1  0  0  0
 68150  1  0  0  0
 69151  1  0  0  0
 71152  1  0  0  0
 71153  1  0  0  0
 72154  1  0  0  0
 74155  1  0  0  0
 77156  1  0  0  0
 77157  1  0  0  0
 78158  1  0  0  0
 78159  1  0  0  0
 79160  1  0  0  0
 79161  1  0  0  0
 80162  1  0  0  0
M  END
$$$$
