3bea_ligand
  -I-interpret- 

 70 75  0  0  0  0  0  0  0  0999 V2000
   -0.5690   33.6610    5.6790 C   0  0  0  0  0
    0.3430   33.7460    6.8970 C   0  0  0  0  0
    1.4550   32.6540    6.8310 C   0  0  0  0  0
    2.9600   34.1300    8.1160 C   0  0  0  0  0
    1.8420   35.2100    8.1720 C   0  0  0  0  0
    2.4490   36.6100    8.2460 C   0  0  0  0  0
    3.2600   31.7420    8.2360 C   0  0  0  0  0
    3.7950   30.9080    7.1950 C   0  0  0  0  0
    4.7320   29.8660    7.4770 C   0  0  0  0  0
    5.1830   29.6120    8.8070 C   0  0  0  0  0
    4.6570   30.4290    9.8370 C   0  0  0  0  0
    3.7230   31.4650    9.5610 C   0  0  0  0  0
    6.6290   27.4980    8.5580 C   0  0  0  0  0
    7.8760   25.5360    8.5080 C   0  0  0  0  0
    7.5860   25.3150    7.1600 C   0  0  0  0  0
    8.0990   24.1450    6.4060 C   0  0  0  0  0
    7.7150   24.0200    4.9530 C   0  0  0  0  0
    6.9250   25.0020    4.4450 C   0  0  0  0  0
    5.6200   27.0930    4.4410 C   0  0  0  0  0
    4.2130   27.2460    4.6980 C   0  0  0  0  0
    3.4350   28.2240    3.9970 C   0  0  0  0  0
    4.0690   29.0400    3.0390 C   0  0  0  0  0
    3.4660   30.1210    2.1920 C   0  0  0  0  0
    4.5360   30.2890    1.0980 C   0  0  0  0  0
    5.8870   29.8780    1.7150 C   0  0  0  0  0
    5.4500   28.9040    2.7670 C   0  0  0  0  0
    6.2340   27.9480    3.4500 C   0  0  0  0  0
    6.7710   26.2820    6.5430 C   0  0  0  0  0
    8.1400   22.9190    4.0410 C   0  0  0  0  0
    2.3280   32.7860    8.0300 N   0  0  0  0  0
    7.4100   26.6090    9.2130 N   0  0  0  0  0
    6.4280   26.1280    5.1340 N   0  0  0  0  0
    6.3090   27.3510    7.2530 N   0  0  0  0  0
    6.0860   28.6030    9.1810 N   0  0  0  0  0
    0.9400   35.1250    6.9740 N   0  3  0  0  0
    8.9490   21.9600    4.5810 N   0  0  0  0  0
    8.8120   23.3170    6.9720 O   0  0  0  0  0
    7.8000   22.8600    2.8600 O   0  0  0  0  0
   -1.3650   34.3999    5.7705 H   0  0  0  0  0
    0.0111   33.8596    4.7778 H   0  0  0  0  0
   -1.0030   32.6628    5.6206 H   0  0  0  0  0
   -0.2405   33.5626    7.7992 H   0  0  0  0  0
    2.0480   32.7846    5.9258 H   0  0  0  0  0
    0.9999   31.6637    6.8124 H   0  0  0  0  0
    3.5761   34.1907    9.0131 H   0  0  0  0  0
    3.5904   34.2972    7.2427 H   0  0  0  0  0
    1.2528   35.0209    9.0693 H   0  0  0  0  0
    3.0237   36.8038    7.3403 H   0  0  0  0  0
    1.6505   37.3465    8.3357 H   0  0  0  0  0
    3.1043   36.6750    9.1146 H   0  0  0  0  0
    3.4785   31.0741    6.1653 H   0  0  0  0  0
    5.1100   29.2526    6.6591 H   0  0  0  0  0
    4.9756   30.2598   10.8656 H   0  0  0  0  0
    3.3470   32.0687   10.3870 H   0  0  0  0  0
    8.5078   24.8138    9.0250 H   0  0  0  0  0
    6.6462   24.9100    3.3953 H   0  0  0  0  0
    3.7307   26.6075    5.4381 H   0  0  0  0  0
    2.3701   28.3349    4.2015 H   0  0  0  0  0
    3.2565   31.0389    2.7412 H   0  0  0  0  0
    2.4797   29.8697    1.8019 H   0  0  0  0  0
    4.5709   31.3216    0.7506 H   0  0  0  0  0
    4.3031   29.6661    0.2344 H   0  0  0  0  0
    6.4608   30.7172    2.1082 H   0  0  0  0  0
    6.5865   29.4565    0.9932 H   0  0  0  0  0
    7.2977   27.8553    3.2308 H   0  0  0  0  0
    6.4187   28.7132   10.1389 H   0  0  0  0  0
    0.1941   35.8155    7.0588 H   0  0  0  0  0
    1.4781   35.3116    6.1278 H   0  0  0  0  0
    9.2771   21.1855    4.0040 H   0  0  0  0  0
    9.2250   22.0184    5.5612 H   0  0  0  0  0
  2  1  1  0  0  0
  3  2  1  0  0  0
  2 35  1  0  0  0
 30  3  1  0  0  0
  4  5  1  0  0  0
 30  4  1  0  0  0
  5  6  1  0  0  0
  5 35  1  0  0  0
  8  7  4  0  0  0
 12  7  4  0  0  0
  7 30  1  0  0  0
  9  8  4  0  0  0
 10  9  4  0  0  0
 10 11  4  0  0  0
 34 10  1  0  0  0
 11 12  4  0  0  0
 31 13  4  0  0  0
 13 33  4  0  0  0
 13 34  1  0  0  0
 15 14  4  0  0  0
 14 31  4  0  0  0
 16 15  1  0  0  0
 15 28  4  0  0  0
 17 16  1  0  0  0
 16 37  2  0  0  0
 18 17  2  0  0  0
 17 29  1  0  0  0
 32 18  1  0  0  0
 19 20  4  0  0  0
 19 27  4  0  0  0
 19 32  1  0  0  0
 20 21  4  0  0  0
 21 22  4  0  0  0
 22 23  1  0  0  0
 22 26  4  0  0  0
 23 24  1  0  0  0
 24 25  1  0  0  0
 25 26  1  0  0  0
 26 27  4  0  0  0
 28 32  1  0  0  0
 28 33  4  0  0  0
 29 36  1  0  0  0
 29 38  2  0  0  0
  1 39  1  0  0  0
  1 40  1  0  0  0
  1 41  1  0  0  0
  2 42  1  0  0  0
  3 43  1  0  0  0
  3 44  1  0  0  0
  4 45  1  0  0  0
  4 46  1  0  0  0
  5 47  1  0  0  0
  6 48  1  0  0  0
  6 49  1  0  0  0
  6 50  1  0  0  0
  8 51  1  0  0  0
  9 52  1  0  0  0
 11 53  1  0  0  0
 12 54  1  0  0  0
 14 55  1  0  0  0
 18 56  1  0  0  0
 20 57  1  0  0  0
 21 58  1  0  0  0
 23 59  1  0  0  0
 23 60  1  0  0  0
 24 61  1  0  0  0
 24 62  1  0  0  0
 25 63  1  0  0  0
 25 64  1  0  0  0
 27 65  1  0  0  0
 34 66  1  0  0  0
 35 67  1  0  0  0
 35 68  1  0  0  0
 36 69  1  0  0  0
 36 70  1  0  0  0
M  END
$$$$
