1h9l_ligand
  -I-interpret- 

 68 68  0  0  0  0  0  0  0  0999 V2000
  -18.1450   17.2080   39.9100 N   0  3  0  0  0
  -16.8940   17.9720   40.2010 C   0  0  0  0  0
  -15.9740   18.0850   38.9800 C   0  0  0  0  0
  -15.5660   17.0770   38.3840 O   0  0  0  0  0
  -16.1710   17.3430   41.4090 C   0  0  0  0  0
  -16.5310   15.8550   41.5420 C   0  0  0  0  0
  -14.6750   17.5680   41.3400 C   0  0  0  0  0
  -15.5870   19.3140   38.6350 N   0  0  0  0  0
  -14.6860   19.5360   37.4760 C   0  0  0  0  0
  -13.2570   20.1560   37.7230 C   0  0  0  0  0
  -13.1150   21.3740   37.9040 O   0  0  0  0  0
  -15.3990   20.3200   36.3740 C   0  0  0  0  0
  -14.4990   20.7110   35.2090 C   0  0  0  0  0
  -14.7440   19.9170   33.9140 C   0  0  0  0  0
  -15.5440   18.9750   33.9040 O   0  0  0  0  0
  -14.1300   20.2580   32.8760 O   0  0  0  0  0
  -12.1940   19.3450   37.7020 N   0  0  0  0  0
  -10.8220   19.8720   37.8990 C   0  0  0  0  0
  -10.5120   21.0310   36.9790 C   0  0  0  0  0
  -10.5100   20.8810   35.7480 O   0  0  0  0  0
   -9.9220   18.6880   37.5430 C   0  0  0  0  0
  -10.7660   17.5060   37.8500 C   0  0  0  0  0
  -12.1840   17.8880   37.4880 C   0  0  0  0  0
  -10.2280   22.1890   37.5620 N   0  0  0  0  0
   -9.9110   23.3100   36.7180 C   0  0  0  0  0
   -8.5890   23.9230   36.9780 C   0  0  0  0  0
   -8.5840   25.0770   36.6040 O   0  0  0  0  0
  -10.8380   24.4810   36.8810 C   0  0  0  0  0
  -10.9380   24.9450   38.3340 C   0  0  0  0  0
  -12.2030   24.2120   36.2790 C   0  0  0  0  0
  -10.5470   26.4140   38.4910 C   0  0  0  0  0
  -18.6199   17.6273   39.1106 H   0  0  0  0  0
  -17.9083   16.2391   39.6965 H   0  0  0  0  0
  -18.7576   17.2380   40.7250 H   0  0  0  0  0
  -17.1746   18.9948   40.4524 H   0  0  0  0  0
  -16.5175   17.8443   42.3127 H   0  0  0  0  0
  -16.1464   15.3110   40.6793 H   0  0  0  0  0
  -16.0863   15.4549   42.4532 H   0  0  0  0  0
  -17.6147   15.7474   41.5875 H   0  0  0  0  0
  -14.2093   17.1871   42.2489 H   0  0  0  0  0
  -14.2694   17.0431   40.4750 H   0  0  0  0  0
  -14.4733   18.6351   41.2465 H   0  0  0  0  0
  -15.9153   20.1140   39.1760 H   0  0  0  0  0
  -14.4595   18.5109   37.1827 H   0  0  0  0  0
  -15.7678   21.2431   36.8212 H   0  0  0  0  0
  -16.1826   19.6761   35.9748 H   0  0  0  0  0
  -13.4736   20.5071   35.5174 H   0  0  0  0  0
  -14.7068   21.7572   34.9843 H   0  0  0  0  0
  -13.5572   21.0024   33.0744 H   0  0  0  0  0
  -10.6851   20.2496   38.9123 H   0  0  0  0  0
   -8.9872   18.6906   38.1036 H   0  0  0  0  0
   -9.5956   18.7094   36.5032 H   0  0  0  0  0
  -10.6908   17.2346   38.9030 H   0  0  0  0  0
  -10.4390   16.6342   37.2833 H   0  0  0  0  0
  -12.4523   17.6069   36.4696 H   0  0  0  0  0
  -12.9301   17.3660   38.0871 H   0  0  0  0  0
  -10.2343   22.2813   38.5778 H   0  0  0  0  0
   -9.9739   22.8425   35.7354 H   0  0  0  0  0
   -7.7434   23.4120   37.4383 H   0  0  0  0  0
  -10.3979   25.3052   36.3197 H   0  0  0  0  0
  -10.2543   24.3433   38.9328 H   0  0  0  0  0
  -11.9719   24.8298   38.6593 H   0  0  0  0  0
  -12.0951   24.0079   35.2137 H   0  0  0  0  0
  -12.6525   23.3498   36.7717 H   0  0  0  0  0
  -12.8395   25.0855   36.4203 H   0  0  0  0  0
   -9.5185   26.5525   38.1577 H   0  0  0  0  0
  -11.2121   27.0321   37.8880 H   0  0  0  0  0
  -10.6325   26.7014   39.5389 H   0  0  0  0  0
  1  2  1  0  0  0
  2  3  1  0  0  0
  2  5  1  0  0  0
  3  4  2  0  0  0
  3  8  1  0  0  0
  5  6  1  0  0  0
  5  7  1  0  0  0
  8  9  1  0  0  0
  9 10  1  0  0  0
  9 12  1  0  0  0
 10 11  2  0  0  0
 10 17  1  0  0  0
 12 13  1  0  0  0
 13 14  1  0  0  0
 14 15  2  0  0  0
 14 16  1  0  0  0
 17 18  1  0  0  0
 17 23  1  0  0  0
 18 19  1  0  0  0
 18 21  1  0  0  0
 19 20  2  0  0  0
 19 24  1  0  0  0
 21 22  1  0  0  0
 22 23  1  0  0  0
 24 25  1  0  0  0
 25 26  1  0  0  0
 25 28  1  0  0  0
 26 27  2  0  0  0
 28 29  1  0  0  0
 28 30  1  0  0  0
 29 31  1  0  0  0
  1 32  1  0  0  0
  1 33  1  0  0  0
  1 34  1  0  0  0
  2 35  1  0  0  0
  5 36  1  0  0  0
  6 37  1  0  0  0
  6 38  1  0  0  0
  6 39  1  0  0  0
  7 40  1  0  0  0
  7 41  1  0  0  0
  7 42  1  0  0  0
  8 43  1  0  0  0
  9 44  1  0  0  0
 12 45  1  0  0  0
 12 46  1  0  0  0
 13 47  1  0  0  0
 13 48  1  0  0  0
 16 49  1  0  0  0
 18 50  1  0  0  0
 21 51  1  0  0  0
 21 52  1  0  0  0
 22 53  1  0  0  0
 22 54  1  0  0  0
 23 55  1  0  0  0
 23 56  1  0  0  0
 24 57  1  0  0  0
 25 58  1  0  0  0
 26 59  1  0  0  0
 28 60  1  0  0  0
 29 61  1  0  0  0
 29 62  1  0  0  0
 30 63  1  0  0  0
 30 64  1  0  0  0
 30 65  1  0  0  0
 31 66  1  0  0  0
 31 67  1  0  0  0
 31 68  1  0  0  0
M  END
$$$$
