2z52_ligand
  -I-interpret- 

 49 48  0  0  0  0  0  0  0  0999 V2000
   30.5070   45.1590   18.8040 C   0  0  0  0  0
   30.1740   45.6580   17.3980 C   0  0  0  0  0
   28.7710   45.2040   16.9890 C   0  0  0  0  0
   28.3940   45.8500   15.6580 C   0  0  0  0  0
   27.0100   45.4380   15.1480 C   0  0  0  0  0
   26.7480   46.1520   13.8190 C   0  0  0  0  0
   27.7310   45.6930   12.7370 C   0  0  0  0  0
   27.4890   46.3650   11.3820 C   0  0  0  0  0
   28.3660   45.7450   10.2880 C   0  0  0  0  0
   27.9240   46.1580    8.8790 C   0  0  0  0  0
   28.7590   45.4530    7.8040 C   0  0  0  0  0
   28.4110   45.8610    6.3660 C   0  0  0  0  0
   29.3800   44.7850    5.1900 P   0  0  0  0  0
   28.6950   43.3370    5.1960 O   0  0  0  0  0
   29.1670   45.4160    3.7270 O   0  0  0  0  0
   30.8140   44.7260    5.5570 O   0  0  0  0  0
   26.5820   45.7000    6.0290 P   0  0  0  0  0
   26.4440   45.9390    4.4430 O   0  0  0  0  0
   26.2250   44.1530    6.2900 O   0  0  0  0  0
   25.7640   46.6660    6.7880 O   0  0  0  0  0
   28.7420   47.2240    6.0940 O   0  0  0  0  0
   29.7826   45.5614   19.5120 H   0  0  0  0  0
   30.4668   44.0699   18.8206 H   0  0  0  0  0
   31.5083   45.4911   19.0784 H   0  0  0  0  0
   30.8989   45.2478   16.6948 H   0  0  0  0  0
   30.2110   46.7473   17.3899 H   0  0  0  0  0
   28.0549   45.5042   17.7540 H   0  0  0  0  0
   28.7569   44.1193   16.8829 H   0  0  0  0  0
   29.1254   45.5253   14.9179 H   0  0  0  0  0
   28.3785   46.9291   15.8108 H   0  0  0  0  0
   26.2478   45.7162   15.8758 H   0  0  0  0  0
   26.9736   44.3583   15.0032 H   0  0  0  0  0
   26.8744   47.2240   13.9703 H   0  0  0  0  0
   25.7358   45.9148   13.4914 H   0  0  0  0  0
   27.5986   44.6194   12.6028 H   0  0  0  0  0
   28.7349   45.9618   13.0657 H   0  0  0  0  0
   27.7392   47.4223   11.4695 H   0  0  0  0  0
   26.4431   46.2267   11.1081 H   0  0  0  0  0
   28.2821   44.6608   10.3631 H   0  0  0  0  0
   29.3876   46.0948   10.4367 H   0  0  0  0  0
   28.0608   47.2343    8.7741 H   0  0  0  0  0
   26.8793   45.8766    8.7467 H   0  0  0  0  0
   28.5593   44.3850    7.8917 H   0  0  0  0  0
   29.7996   45.7299    7.9732 H   0  0  0  0  0
   27.7699   43.4209    4.9536 H   0  0  0  0  0
   28.2292   45.4387    3.5230 H   0  0  0  0  0
   26.9852   45.2984    3.9757 H   0  0  0  0  0
   26.8018   43.5987    5.7593 H   0  0  0  0  0
   29.6786   47.3624    6.2526 H   0  0  0  0  0
  1  2  1  0  0  0
  2  3  1  0  0  0
  3  4  1  0  0  0
  4  5  1  0  0  0
  5  6  1  0  0  0
  6  7  1  0  0  0
  7  8  1  0  0  0
  8  9  1  0  0  0
  9 10  1  0  0  0
 10 11  1  0  0  0
 11 12  1  0  0  0
 12 13  1  0  0  0
 12 17  1  0  0  0
 12 21  1  0  0  0
 13 14  1  0  0  0
 13 15  1  0  0  0
 13 16  2  0  0  0
 17 18  1  0  0  0
 17 19  1  0  0  0
 17 20  2  0  0  0
  1 22  1  0  0  0
  1 23  1  0  0  0
  1 24  1  0  0  0
  2 25  1  0  0  0
  2 26  1  0  0  0
  3 27  1  0  0  0
  3 28  1  0  0  0
  4 29  1  0  0  0
  4 30  1  0  0  0
  5 31  1  0  0  0
  5 32  1  0  0  0
  6 33  1  0  0  0
  6 34  1  0  0  0
  7 35  1  0  0  0
  7 36  1  0  0  0
  8 37  1  0  0  0
  8 38  1  0  0  0
  9 39  1  0  0  0
  9 40  1  0  0  0
 10 41  1  0  0  0
 10 42  1  0  0  0
 11 43  1  0  0  0
 11 44  1  0  0  0
 14 45  1  0  0  0
 15 46  1  0  0  0
 18 47  1  0  0  0
 19 48  1  0  0  0
 21 49  1  0  0  0
M  END
$$$$
