### 
### Created by X-TOOL on Mon Sep 10 21:12:57 2018
### 

@<TRIPOS>MOLECULE
2z52_ligand
   45    44     1     0     0
SMALL
GAST_HUCK


@<TRIPOS>ATOM
      1 CAA        30.5070   45.1590   18.8040 C.3       1 H23        -0.0653
      2 CAI        30.1740   45.6580   17.3980 C.3       1 H23        -0.0559
      3 CAJ        28.7710   45.2040   16.9890 C.3       1 H23        -0.0533
      4 CAK        28.3940   45.8500   15.6580 C.3       1 H23        -0.0531
      5 CAL        27.0100   45.4380   15.1480 C.3       1 H23        -0.0531
      6 CAM        26.7480   46.1520   13.8190 C.3       1 H23        -0.0531
      7 CAN        27.7310   45.6930   12.7370 C.3       1 H23        -0.0531
      8 CAO        27.4890   46.3650   11.3820 C.3       1 H23        -0.0531
      9 CAP        28.3660   45.7450   10.2880 C.3       1 H23        -0.0529
     10 CAQ        27.9240   46.1580    8.8790 C.3       1 H23        -0.0477
     11 CAR        28.7590   45.4530    7.8040 C.3       1 H23         0.0077
     12 CAS        28.4110   45.8610    6.3660 C.3       1 H23         0.2047
     13 PAT        29.3800   44.7850    5.1900 P.3       1 H23         0.1098
     14 OAE        28.6950   43.3370    5.1960 O.co2     1 H23        -0.5594
     15 OAF        29.1670   45.4160    3.7270 O.co2     1 H23        -0.5594
     16 OAB        30.8140   44.7260    5.5570 O.co2     1 H23        -0.5594
     17 PAU        26.5820   45.7000    6.0290 P.3       1 H23         0.1098
     18 OAG        26.4440   45.9390    4.4430 O.co2     1 H23        -0.5594
     19 OAH        26.2250   44.1530    6.2900 O.co2     1 H23        -0.5594
     20 OAC        25.7640   46.6660    6.7880 O.co2     1 H23        -0.5594
     21 OAD        28.7420   47.2240    6.0940 O.3       1 H23        -0.3594
     22 H1         31.5173   45.4936   19.0821 H         1 H23         0.0230
     23 H2         30.4668   44.0599   18.8221 H         1 H23         0.0230
     24 H3         29.7766   45.5645   19.5196 H         1 H23         0.0230
     25 H4         30.9080   45.2524   16.6862 H         1 H23         0.0263
     26 H5         30.2178   46.7570   17.3836 H         1 H23         0.0263
     27 H6         28.0482   45.5066   17.7610 H         1 H23         0.0265
     28 H7         28.7566   44.1093   16.8821 H         1 H23         0.0265
     29 H8         29.1425   45.5598   14.9060 H         1 H23         0.0265
     30 H9         28.4068   46.9425   15.7855 H         1 H23         0.0265
     31 H10        26.2432   45.7272   15.8817 H         1 H23         0.0265
     32 H11        26.9799   44.3490   14.9960 H         1 H23         0.0265
     33 H12        26.8587   47.2364   13.9669 H         1 H23         0.0265
     34 H13        25.7225   45.9297   13.4889 H         1 H23         0.0265
     35 H14        27.6303   44.6049   12.6112 H         1 H23         0.0265
     36 H15        28.7526   45.9308   13.0683 H         1 H23         0.0265
     37 H16        27.7248   47.4361   11.4660 H         1 H23         0.0265
     38 H17        26.4314   46.2430   11.1053 H         1 H23         0.0265
     39 H18        28.3095   44.6494   10.3688 H         1 H23         0.0265
     40 H19        29.4053   46.0709   10.4417 H         1 H23         0.0265
     41 H20        28.0447   47.2459    8.7701 H         1 H23         0.0267
     42 H21        26.8656   45.8910    8.7428 H         1 H23         0.0267
     43 H22        28.6022   44.3687    7.9020 H         1 H23         0.0322
     44 H23        29.8188   45.6878    7.9818 H         1 H23         0.0322
     45 H24        28.5132   47.4310    5.1955 H         1 H23         0.2133
@<TRIPOS>BOND
     1    1    2 1  
     2    2    3 1  
     3    3    4 1  
     4    4    5 1  
     5    5    6 1  
     6    6    7 1  
     7    7    8 1  
     8    8    9 1  
     9    9   10 1  
    10   10   11 1  
    11   11   12 1  
    12   12   13 1  
    13   12   17 1  
    14   12   21 1  
    15   13   14 ar 
    16   13   15 ar 
    17   13   16 ar 
    18   17   18 ar 
    19   17   19 ar 
    20   17   20 ar 
    21    1   22 1  
    22    1   23 1  
    23    1   24 1  
    24    2   25 1  
    25    2   26 1  
    26    3   27 1  
    27    3   28 1  
    28    4   29 1  
    29    4   30 1  
    30    5   31 1  
    31    5   32 1  
    32    6   33 1  
    33    6   34 1  
    34    7   35 1  
    35    7   36 1  
    36    8   37 1  
    37    8   38 1  
    38    9   39 1  
    39    9   40 1  
    40   10   41 1  
    41   10   42 1  
    42   11   43 1  
    43   11   44 1  
    44   21   45 1  
@<TRIPOS>SUBSTRUCTURE
     1 H23         1

