3bu8_ligand
  -I-interpret- 

248249  0  0  0  0  0  0  0  0999 V2000
  -11.3250   23.4420  -16.7590 N   0  3  0  0  0
  -12.5460   23.0510  -17.5170 C   0  0  0  0  0
  -13.8010   22.9080  -16.6630 C   0  0  0  0  0
  -14.1180   21.8170  -16.1890 O   0  0  0  0  0
  -12.3200   21.7270  -18.2580 C   0  0  0  0  0
  -11.2750   21.8340  -19.2080 O   0  0  0  0  0
  -14.5100   24.0030  -16.4340 N   0  0  0  0  0
  -15.7550   23.8800  -15.7060 C   0  0  0  0  0
  -16.6980   23.6150  -16.8910 C   0  0  0  0  0
  -17.7080   24.2930  -17.0660 O   0  0  0  0  0
  -16.0970   25.1930  -14.9730 C   0  0  0  0  0
  -15.2700   25.4390  -13.7150 C   0  0  0  0  0
  -14.9820   26.7420  -13.2960 C   0  0  0  0  0
  -14.7890   24.3730  -12.9510 C   0  0  0  0  0
  -14.2280   26.9800  -12.1390 C   0  0  0  0  0
  -14.0320   24.6000  -11.7900 C   0  0  0  0  0
  -13.7520   25.9050  -11.3860 C   0  0  0  0  0
  -16.3340   22.6230  -17.7110 N   0  0  0  0  0
  -17.1070   22.2820  -18.9010 C   0  0  0  0  0
  -18.5230   21.7670  -18.6660 C   0  0  0  0  0
  -18.7510   20.8190  -17.9080 O   0  0  0  0  0
  -16.3440   21.2890  -19.8070 C   0  0  0  0  0
  -16.1600   19.9020  -19.1780 C   0  0  0  0  0
  -15.4420   19.7410  -18.1930 O   0  0  0  0  0
  -16.8060   18.8950  -19.7650 N   0  0  0  0  0
  -19.4650   22.4160  -19.3440 N   0  0  0  0  0
  -20.8760   22.0770  -19.2710 C   0  0  0  0  0
  -21.2350   20.9990  -20.2880 C   0  0  0  0  0
  -22.0670   20.1340  -20.0200 O   0  0  0  0  0
  -21.7280   23.3100  -19.5620 C   0  0  0  0  0
  -21.3930   24.5750  -18.7810 C   0  0  0  0  0
  -22.3580   25.6860  -19.1790 C   0  0  0  0  0
  -21.4720   24.2910  -17.2920 C   0  0  0  0  0
  -20.6050   21.0630  -21.4570 N   0  0  0  0  0
  -20.8790   20.1100  -22.5210 C   0  0  0  0  0
  -19.8330   19.0100  -22.5710 C   0  0  0  0  0
  -18.7520   19.1360  -22.0000 O   0  0  0  0  0
  -20.9450   20.8360  -23.8830 C   0  0  0  0  0
  -20.1510   17.9070  -23.2560 N   0  0  0  0  0
  -19.2220   16.7800  -23.3770 C   0  0  0  0  0
  -17.9290   17.2070  -24.0740 C   0  0  0  0  0
  -17.9270   18.1580  -24.8570 O   0  0  0  0  0
  -20.0080   15.7730  -24.2170 C   0  0  0  0  0
  -21.4350   16.0940  -23.8910 C   0  0  0  0  0
  -21.4460   17.5930  -23.8840 C   0  0  0  0  0
  -16.8370   16.5070  -23.7890 N   0  0  0  0  0
  -15.5620   16.8050  -24.4270 C   0  0  0  0  0
  -15.4630   15.9690  -25.7030 C   0  0  0  0  0
  -14.7720   16.3430  -26.6510 O   0  0  0  0  0
  -14.4010   16.4450  -23.5040 C   0  0  0  0  0
  -14.2920   17.1880  -22.1710 C   0  0  0  0  0
  -13.1790   16.5550  -21.3370 C   0  0  0  0  0
  -14.0190   18.6700  -22.4170 C   0  0  0  0  0
  -16.1580   14.8360  -25.7120 N   0  0  0  0  0
  -16.1360   13.9510  -26.8620 C   0  0  0  0  0
  -16.9260   12.6790  -26.6140 C   0  0  0  0  0
  -17.8190   12.6530  -25.7630 O   0  0  0  0  0
  -16.5980   11.6150  -27.3420 N   0  0  0  0  0
  -17.3150   10.3550  -27.1850 C   0  0  0  0  0
  -16.5700    9.3090  -26.3720 C   0  0  0  0  0
  -15.3430    9.3280  -26.2630 O   0  0  0  0  0
  -17.6520    9.7480  -28.5500 C   0  0  0  0  0
  -16.4780    9.0430  -29.2190 C   0  0  0  0  0
  -16.8630    8.4580  -30.5740 C   0  0  0  0  0
  -15.7380    8.5120  -31.5030 N   0  0  0  0  0
  -15.8200    8.2420  -32.8030 C   0  0  0  0  0
  -16.9820    7.8910  -33.3390 N   0  0  0  0  0
  -14.7400    8.3460  -33.5710 N   0  0  0  0  0
  -17.3480    8.3930  -25.8110 N   0  0  0  0  0
  -16.8440    7.2810  -25.0190 C   0  0  0  0  0
  -17.0540    6.0270  -25.8580 C   0  0  0  0  0
  -17.9250    6.0020  -26.7290 O   0  0  0  0  0
  -17.6620    7.1380  -23.7380 C   0  0  0  0  0
  -16.9040    7.3960  -22.4730 C   0  0  0  0  0
  -17.7470    7.0650  -21.2590 C   0  0  0  0  0
  -18.4870    5.8220  -21.4560 N   0  0  0  0  0
  -18.1020    4.6240  -21.0270 C   0  0  0  0  0
  -16.9680    4.4820  -20.3560 N   0  0  0  0  0
  -18.8560    3.5600  -21.2790 N   0  0  0  0  0
  -16.2650    4.9890  -25.6110 N   0  0  0  0  0
  -16.4690    3.7570  -26.3510 C   0  0  0  0  0
  -17.3820    2.9070  -25.4810 C   0  0  0  0  0
  -16.9720    2.4340  -24.4170 O   0  0  0  0  0
  -15.1570    3.0040  -26.5900 C   0  0  0  0  0
  -15.1870    2.1180  -27.8410 C   0  0  0  0  0
  -16.4970    1.3300  -27.9810 C   0  0  0  0  0
  -16.7850    0.9780  -29.3740 N   0  0  0  0  0
  -17.5590    1.6920  -30.1920 C   0  0  0  0  0
  -18.1430    2.8070  -29.7640 N   0  0  0  0  0
  -17.7380    1.3000  -31.4490 N   0  0  0  0  0
  -18.6280    2.7410  -25.9150 N   0  0  0  0  0
  -19.5840    1.9250  -25.1740 C   0  0  0  0  0
  -18.9740    0.5250  -25.1380 C   0  0  0  0  0
  -18.1210    0.2100  -25.9660 O   0  0  0  0  0
  -20.9450    1.8630  -25.9010 C   0  0  0  0  0
  -21.5120    3.2580  -26.0620 C   0  0  0  0  0
  -20.7750    1.2080  -27.2670 C   0  0  0  0  0
  -19.3840   -0.3110  -24.1890 N   0  0  0  0  0
  -18.8320   -1.6580  -24.1200 C   0  0  0  0  0
  -19.9240   -2.7210  -24.1860 C   0  0  0  0  0
  -19.6690   -3.9170  -24.0270 O   0  0  0  0  0
  -17.9420   -1.8130  -22.8700 C   0  0  0  0  0
  -18.5270   -1.3300  -21.5510 C   0  0  0  0  0
  -19.4590   -2.3530  -20.9250 C   0  0  0  0  0
  -19.2680   -2.7800  -19.7800 O   0  0  0  0  0
  -20.4770   -2.7550  -21.6780 N   0  0  0  0  0
  -21.1380   -2.2550  -24.4660 N   0  0  0  0  0
  -22.3400   -3.0860  -24.6010 C   0  0  0  0  0
  -22.2040   -4.5360  -25.0730 C   0  0  0  0  0
  -22.1760   -5.4910  -24.2890 O   0  0  0  0  0
  -23.3190   -2.4150  -25.5710 C   0  0  0  0  0
  -23.6750   -1.1210  -25.1350 O   0  0  0  0  0
  -22.1870   -4.6540  -26.3950 N   0  0  0  0  0
  -22.1250   -5.9090  -27.1280 C   0  0  0  0  0
  -22.2290   -5.4480  -28.5850 C   0  0  0  0  0
  -23.3170   -5.5760  -29.1910 O   0  0  0  0  0
  -23.3230   -6.8040  -26.7460 C   0  0  0  0  0
  -23.8260   -7.7520  -27.8450 C   0  0  0  0  0
  -23.0390   -9.0400  -27.9520 C   0  0  0  0  0
  -21.8290   -9.0700  -27.7180 O   0  0  0  0  0
  -23.7250  -10.1160  -28.3290 N   0  0  0  0  0
  -21.1753   -4.9177  -29.1994 O   0  0  0  0  0
  -10.5362   23.5151  -17.4016 H   0  0  0  0  0
  -11.4811   24.3427  -16.3065 H   0  0  0  0  0
  -11.1245   22.7350  -16.0516 H   0  0  0  0  0
  -12.7167   23.8737  -18.2113 H   0  0  0  0  0
  -13.2382   21.4651  -18.7837 H   0  0  0  0  0
  -12.0454   20.9658  -17.5278 H   0  0  0  0  0
  -11.1603   20.9907  -19.6522 H   0  0  0  0  0
  -14.1860   24.9124  -16.7632 H   0  0  0  0  0
  -15.7797   23.1266  -14.9187 H   0  0  0  0  0
  -17.1404   25.1274  -14.6648 H   0  0  0  0  0
  -15.8862   26.0109  -15.6620 H   0  0  0  0  0
  -15.3501   27.5862  -13.8790 H   0  0  0  0  0
  -15.0043   23.3502  -13.2604 H   0  0  0  0  0
  -14.0136   28.0023  -11.8276 H   0  0  0  0  0
  -13.6637   23.7570  -11.2053 H   0  0  0  0  0
  -13.1640   26.0850  -10.4861 H   0  0  0  0  0
  -15.4913   22.0891  -17.4984 H   0  0  0  0  0
  -17.2293   23.2455  -19.3958 H   0  0  0  0  0
  -15.3511   21.7029  -19.9826 H   0  0  0  0  0
  -16.9296   21.1603  -20.7173 H   0  0  0  0  0
  -16.7143   17.9476  -19.3984 H   0  0  0  0  0
  -17.3921   19.0717  -20.5809 H   0  0  0  0  0
  -19.1830   23.1903  -19.9452 H   0  0  0  0  0
  -21.0729   21.7068  -18.2649 H   0  0  0  0  0
  -22.7465   23.0441  -19.2792 H   0  0  0  0  0
  -21.5574   23.5514  -20.6111 H   0  0  0  0  0
  -20.3784   24.8984  -19.0135 H   0  0  0  0  0
  -22.2644   25.8814  -20.2473 H   0  0  0  0  0
  -23.3786   25.3773  -18.9528 H   0  0  0  0  0
  -22.1185   26.5909  -18.6205 H   0  0  0  0  0
  -22.4808   23.9650  -17.0386 H   0  0  0  0  0
  -20.7600   23.5068  -17.0347 H   0  0  0  0  0
  -21.2318   25.1980  -16.7372 H   0  0  0  0  0
  -19.9138   21.7971  -21.6112 H   0  0  0  0  0
  -21.8428   19.6469  -22.3096 H   0  0  0  0  0
  -21.7395   21.5818  -23.8576 H   0  0  0  0  0
  -19.9912   21.3259  -24.0787 H   0  0  0  0  0
  -21.1507   20.1107  -24.6703 H   0  0  0  0  0
  -18.9066   16.3742  -22.4158 H   0  0  0  0  0
  -19.7467   14.7399  -23.9878 H   0  0  0  0  0
  -19.7917   15.8547  -25.2822 H   0  0  0  0  0
  -22.1392   15.6683  -24.6058 H   0  0  0  0  0
  -21.7607   15.6633  -22.9442 H   0  0  0  0  0
  -21.5606   18.0281  -24.8768 H   0  0  0  0  0
  -22.2976   18.0155  -23.3508 H   0  0  0  0  0
  -16.8922   15.7469  -23.1110 H   0  0  0  0  0
  -15.5081   17.8703  -24.6515 H   0  0  0  0  0
  -13.4985   16.7057  -24.0568 H   0  0  0  0  0
  -14.5520   15.3979  -23.2417 H   0  0  0  0  0
  -15.2315   17.1085  -21.6241 H   0  0  0  0  0
  -13.4144   15.5063  -21.1554 H   0  0  0  0  0
  -12.2352   16.6285  -21.8773 H   0  0  0  0  0
  -13.0962   17.0802  -20.3855 H   0  0  0  0  0
  -13.0836   18.7796  -22.9658 H   0  0  0  0  0
  -14.8356   19.0968  -22.9993 H   0  0  0  0  0
  -13.9436   19.1878  -21.4608 H   0  0  0  0  0
  -16.7165   14.5842  -24.8965 H   0  0  0  0  0
  -15.1002   13.6761  -27.0614 H   0  0  0  0  0
  -16.5879   14.4747  -27.7044 H   0  0  0  0  0
  -15.8366   11.6813  -28.0175 H   0  0  0  0  0
  -18.2187   10.6165  -26.6345 H   0  0  0  0  0
  -17.9536   10.5667  -29.2034 H   0  0  0  0  0
  -18.4299    9.0015  -28.3897 H   0  0  0  0  0
  -16.1567    8.2260  -28.5729 H   0  0  0  0  0
  -15.6845    9.7738  -29.3753 H   0  0  0  0  0
  -17.6866    9.0409  -30.9864 H   0  0  0  0  0
  -17.1544    7.4167  -30.4364 H   0  0  0  0  0
  -14.8260    8.7750  -31.1294 H   0  0  0  0  0
  -17.8151    7.8277  -32.7539 H   0  0  0  0  0
  -14.8051    8.1561  -34.5710 H   0  0  0  0  0
  -13.8462    8.6157  -33.1603 H   0  0  0  0  0
  -18.3564    8.4724  -25.9421 H   0  0  0  0  0
  -15.7977    7.4377  -24.7565 H   0  0  0  0  0
  -18.0032    6.1036  -23.6957 H   0  0  0  0  0
  -18.4567    7.8824  -23.7867 H   0  0  0  0  0
  -16.6352    8.4517  -22.4352 H   0  0  0  0  0
  -16.0143    6.7664  -22.4635 H   0  0  0  0  0
  -18.4600    7.8737  -21.0985 H   0  0  0  0  0
  -17.0882    6.9461  -20.3988 H   0  0  0  0  0
  -19.3701    5.8771  -21.9634 H   0  0  0  0  0
  -16.3831    5.2955  -20.1651 H   0  0  0  0  0
  -18.5615    2.6383  -20.9564 H   0  0  0  0  0
  -19.7296    3.6646  -21.7951 H   0  0  0  0  0
  -15.5259    5.0559  -24.9113 H   0  0  0  0  0
  -16.8901    3.9712  -27.3333 H   0  0  0  0  0
  -14.9875    2.3555  -25.7304 H   0  0  0  0  0
  -14.3714    3.7464  -26.7303 H   0  0  0  0  0
  -14.3720    1.3988  -27.7601 H   0  0  0  0  0
  -15.0932    2.7669  -28.7118 H   0  0  0  0  0
  -17.3103    1.9562  -27.6143 H   0  0  0  0  0
  -16.3996    0.4061  -27.4109 H   0  0  0  0  0
  -16.3634    0.1262  -29.7442 H   0  0  0  0  0
  -18.7235    3.3548  -30.3991 H   0  0  0  0  0
  -18.0105    3.1147  -28.8006 H   0  0  0  0  0
  -17.2832    0.4525  -31.7886 H   0  0  0  0  0
  -18.9207    3.1923  -26.7816 H   0  0  0  0  0
  -19.7640    2.3380  -24.1815 H   0  0  0  0  0
  -21.6375    1.2678  -25.3058 H   0  0  0  0  0
  -21.6506    3.7081  -25.0790 H   0  0  0  0  0
  -20.8204    3.8647  -26.6466 H   0  0  0  0  0
  -22.4716    3.2017  -26.5759 H   0  0  0  0  0
  -20.0744    1.7920  -27.8639 H   0  0  0  0  0
  -20.3894    0.1966  -27.1381 H   0  0  0  0  0
  -21.7400    1.1687  -27.7723 H   0  0  0  0  0
  -20.0836   -0.0102  -23.5105 H   0  0  0  0  0
  -18.2021   -1.8124  -24.9961 H   0  0  0  0  0
  -17.0604   -1.1980  -23.0508 H   0  0  0  0  0
  -17.7755   -2.8836  -22.7507 H   0  0  0  0  0
  -19.1013   -0.4246  -21.7471 H   0  0  0  0  0
  -17.7029   -1.1553  -20.8593 H   0  0  0  0  0
  -21.1386   -3.4421  -21.3166 H   0  0  0  0  0
  -20.5970   -2.3765  -22.6176 H   0  0  0  0  0
  -21.2408   -1.2486  -24.5961 H   0  0  0  0  0
  -22.6688   -3.1555  -23.5641 H   0  0  0  0  0
  -24.2228   -3.0220  -25.6239 H   0  0  0  0  0
  -22.8364   -2.3304  -26.5447 H   0  0  0  0  0
  -24.2870   -0.7301  -25.7629 H   0  0  0  0  0
  -22.2201   -3.7937  -26.9420 H   0  0  0  0  0
  -21.2303   -6.4981  -26.9264 H   0  0  0  0  0
  -24.1496   -6.1312  -26.5177 H   0  0  0  0  0
  -22.9855   -7.4362  -25.9247 H   0  0  0  0  0
  -23.7227   -7.2293  -28.7959 H   0  0  0  0  0
  -24.8531   -8.0196  -27.5969 H   0  0  0  0  0
  -23.2500  -11.0124  -28.4349 H   0  0  0  0  0
  -24.7259  -10.0444  -28.5121 H   0  0  0  0  0
  -20.4310   -4.8949  -28.5935 H   0  0  0  0  0
  2  1  1  0  0  0
  2  5  1  0  0  0
  3  2  1  0  0  0
  3  4  2  0  0  0
  5  6  1  0  0  0
  8  7  1  0  0  0
  8 11  1  0  0  0
  9  8  1  0  0  0
  9 10  2  0  0  0
 11 12  1  0  0  0
 12 13  4  0  0  0
 12 14  4  0  0  0
 14 16  4  0  0  0
 16 17  4  0  0  0
 15 17  4  0  0  0
 13 15  4  0  0  0
  7  3  1  0  0  0
 19 18  1  0  0  0
 19 22  1  0  0  0
 20 19  1  0  0  0
 20 21  2  0  0  0
 22 23  1  0  0  0
 23 25  1  0  0  0
 23 24  2  0  0  0
 18  9  1  0  0  0
 27 26  1  0  0  0
 27 30  1  0  0  0
 28 27  1  0  0  0
 28 29  2  0  0  0
 30 31  1  0  0  0
 31 32  1  0  0  0
 31 33  1  0  0  0
 26 20  1  0  0  0
 35 34  1  0  0  0
 35 38  1  0  0  0
 36 35  1  0  0  0
 36 37  2  0  0  0
 34 28  1  0  0  0
 41 40  1  0  0  0
 40 43  1  0  0  0
 40 39  1  0  0  0
 39 45  1  0  0  0
 45 44  1  0  0  0
 43 44  1  0  0  0
 41 42  2  0  0  0
 39 36  1  0  0  0
 47 46  1  0  0  0
 47 50  1  0  0  0
 48 47  1  0  0  0
 48 49  2  0  0  0
 50 51  1  0  0  0
 51 52  1  0  0  0
 51 53  1  0  0  0
 46 41  1  0  0  0
 55 54  1  0  0  0
 56 55  1  0  0  0
 56 57  2  0  0  0
 54 48  1  0  0  0
 59 58  1  0  0  0
 59 62  1  0  0  0
 60 59  1  0  0  0
 60 61  2  0  0  0
 62 63  1  0  0  0
 63 64  1  0  0  0
 64 65  1  0  0  0
 65 66  1  0  0  0
 66 68  1  0  0  0
 66 67  2  0  0  0
 58 56  1  0  0  0
 70 69  1  0  0  0
 70 73  1  0  0  0
 71 70  1  0  0  0
 71 72  2  0  0  0
 73 74  1  0  0  0
 74 75  1  0  0  0
 75 76  1  0  0  0
 76 77  1  0  0  0
 77 79  1  0  0  0
 77 78  2  0  0  0
 69 60  1  0  0  0
 81 80  1  0  0  0
 81 84  1  0  0  0
 82 81  1  0  0  0
 82 83  2  0  0  0
 84 85  1  0  0  0
 85 86  1  0  0  0
 86 87  1  0  0  0
 87 88  1  0  0  0
 88 90  2  0  0  0
 88 89  1  0  0  0
 80 71  1  0  0  0
 92 91  1  0  0  0
 92 95  1  0  0  0
 93 92  1  0  0  0
 93 94  2  0  0  0
 95 97  1  0  0  0
 95 96  1  0  0  0
 91 82  1  0  0  0
 99 98  1  0  0  0
 99102  1  0  0  0
100 99  1  0  0  0
100101  2  0  0  0
102103  1  0  0  0
103104  1  0  0  0
104106  1  0  0  0
104105  2  0  0  0
 98 93  1  0  0  0
108107  1  0  0  0
108111  1  0  0  0
109108  1  0  0  0
109110  2  0  0  0
111112  1  0  0  0
107100  1  0  0  0
113114  1  0  0  0
114117  1  0  0  0
114115  1  0  0  0
115116  2  0  0  0
117118  1  0  0  0
118119  1  0  0  0
119121  1  0  0  0
119120  2  0  0  0
109113  1  0  0  0
115122  1  0  0  0
  1123  1  0  0  0
  1124  1  0  0  0
  1125  1  0  0  0
  2126  1  0  0  0
  5127  1  0  0  0
  5128  1  0  0  0
  6129  1  0  0  0
  7130  1  0  0  0
  8131  1  0  0  0
 11132  1  0  0  0
 11133  1  0  0  0
 13134  1  0  0  0
 14135  1  0  0  0
 15136  1  0  0  0
 16137  1  0  0  0
 17138  1  0  0  0
 18139  1  0  0  0
 19140  1  0  0  0
 22141  1  0  0  0
 22142  1  0  0  0
 25143  1  0  0  0
 25144  1  0  0  0
 26145  1  0  0  0
 27146  1  0  0  0
 30147  1  0  0  0
 30148  1  0  0  0
 31149  1  0  0  0
 32150  1  0  0  0
 32151  1  0  0  0
 32152  1  0  0  0
 33153  1  0  0  0
 33154  1  0  0  0
 33155  1  0  0  0
 34156  1  0  0  0
 35157  1  0  0  0
 38158  1  0  0  0
 38159  1  0  0  0
 38160  1  0  0  0
 40161  1  0  0  0
 43162  1  0  0  0
 43163  1  0  0  0
 44164  1  0  0  0
 44165  1  0  0  0
 45166  1  0  0  0
 45167  1  0  0  0
 46168  1  0  0  0
 47169  1  0  0  0
 50170  1  0  0  0
 50171  1  0  0  0
 51172  1  0  0  0
 52173  1  0  0  0
 52174  1  0  0  0
 52175  1  0  0  0
 53176  1  0  0  0
 53177  1  0  0  0
 53178  1  0  0  0
 54179  1  0  0  0
 55180  1  0  0  0
 55181  1  0  0  0
 58182  1  0  0  0
 59183  1  0  0  0
 62184  1  0  0  0
 62185  1  0  0  0
 63186  1  0  0  0
 63187  1  0  0  0
 64188  1  0  0  0
 64189  1  0  0  0
 65190  1  0  0  0
 67191  1  0  0  0
 68192  1  0  0  0
 68193  1  0  0  0
 69194  1  0  0  0
 70195  1  0  0  0
 73196  1  0  0  0
 73197  1  0  0  0
 74198  1  0  0  0
 74199  1  0  0  0
 75200  1  0  0  0
 75201  1  0  0  0
 76202  1  0  0  0
 78203  1  0  0  0
 79204  1  0  0  0
 79205  1  0  0  0
 80206  1  0  0  0
 81207  1  0  0  0
 84208  1  0  0  0
 84209  1  0  0  0
 85210  1  0  0  0
 85211  1  0  0  0
 86212  1  0  0  0
 86213  1  0  0  0
 87214  1  0  0  0
 89215  1  0  0  0
 89216  1  0  0  0
 90217  1  0  0  0
 91218  1  0  0  0
 92219  1  0  0  0
 95220  1  0  0  0
 96221  1  0  0  0
 96222  1  0  0  0
 96223  1  0  0  0
 97224  1  0  0  0
 97225  1  0  0  0
 97226  1  0  0  0
 98227  1  0  0  0
 99228  1  0  0  0
102229  1  0  0  0
102230  1  0  0  0
103231  1  0  0  0
103232  1  0  0  0
106233  1  0  0  0
106234  1  0  0  0
107235  1  0  0  0
108236  1  0  0  0
111237  1  0  0  0
111238  1  0  0  0
112239  1  0  0  0
113240  1  0  0  0
114241  1  0  0  0
117242  1  0  0  0
117243  1  0  0  0
118244  1  0  0  0
118245  1  0  0  0
121246  1  0  0  0
121247  1  0  0  0
122248  1  0  0  0
M  END
$$$$
