### 
### Created by X-TOOL on Mon Sep 10 21:12:59 2018
### 

@<TRIPOS>MOLECULE
3bu8_ligand
  251   252     1     0     0
SMALL
GAST_HUCK


@<TRIPOS>ATOM
      1 N         -11.3250   23.4420  -16.7590 N.4       1 SER         0.2396
      2 CA        -12.5460   23.0510  -17.5170 C.3       1 SER         0.0885
      3 C         -13.8010   22.9080  -16.6630 C.2       1 SER         0.2291
      4 O         -14.1180   21.8170  -16.1890 O.2       1 SER        -0.3906
      5 CB        -12.3200   21.7270  -18.2580 C.3       1 SER         0.1041
      6 OG        -11.2750   21.8340  -19.2080 O.3       1 SER        -0.3870
      7 N         -14.5100   24.0030  -16.4340 N.am      1 PHE        -0.2592
      8 CA        -15.7550   23.8800  -15.7060 C.3       1 PHE         0.1406
      9 C         -16.6980   23.6150  -16.8910 C.2       1 PHE         0.2061
     10 O         -17.7080   24.2930  -17.0660 O.2       1 PHE        -0.3942
     11 CB        -16.0970   25.1930  -14.9730 C.3       1 PHE         0.0214
     12 CG        -15.2700   25.4390  -13.7150 C.ar      1 PHE        -0.0386
     13 CD1       -14.9820   26.7420  -13.2960 C.ar      1 PHE        -0.0601
     14 CD2       -14.7890   24.3730  -12.9510 C.ar      1 PHE        -0.0601
     15 CE1       -14.2280   26.9800  -12.1390 C.ar      1 PHE        -0.0686
     16 CE2       -14.0320   24.6000  -11.7900 C.ar      1 PHE        -0.0686
     17 CZ        -13.7520   25.9050  -11.3860 C.ar      1 PHE        -0.0687
     18 N         -16.3340   22.6230  -17.7110 N.am      1 ASN        -0.2615
     19 CA        -17.1070   22.2820  -18.9010 C.3       1 ASN         0.1476
     20 C         -18.5230   21.7670  -18.6660 C.2       1 ASN         0.2063
     21 O         -18.7510   20.8190  -17.9080 O.2       1 ASN        -0.3942
     22 CB        -16.3440   21.2890  -19.8070 C.3       1 ASN         0.0773
     23 CG        -16.1600   19.9020  -19.1780 C.2       1 ASN         0.1780
     24 OD1       -15.4420   19.7410  -18.1930 O.2       1 ASN        -0.3970
     25 ND2       -16.8060   18.8950  -19.7650 N.am      1 ASN        -0.3007
     26 N         -19.4650   22.4160  -19.3440 N.am      1 LEU        -0.2636
     27 CA        -20.8760   22.0770  -19.2710 C.3       1 LEU         0.1312
     28 C         -21.2350   20.9990  -20.2880 C.2       1 LEU         0.2039
     29 O         -22.0670   20.1340  -20.0200 O.2       1 LEU        -0.3944
     30 CB        -21.7280   23.3100  -19.5620 C.3       1 LEU        -0.0101
     31 CG        -21.3930   24.5750  -18.7810 C.3       1 LEU        -0.0425
     32 CD1       -22.3580   25.6860  -19.1790 C.3       1 LEU        -0.0625
     33 CD2       -21.4720   24.2910  -17.2920 C.3       1 LEU        -0.0625
     34 N         -20.6050   21.0630  -21.4570 N.am      1 ALA        -0.2640
     35 CA        -20.8790   20.1100  -22.5210 C.3       1 ALA         0.1284
     36 C         -19.8330   19.0100  -22.5710 C.2       1 ALA         0.2061
     37 O         -18.7520   19.1360  -22.0000 O.2       1 ALA        -0.3942
     38 CB        -20.9450   20.8360  -23.8830 C.3       1 ALA        -0.0244
     39 N         -20.1510   17.9070  -23.2560 N.am      1 PRO        -0.2498
     40 CA        -19.2220   16.7800  -23.3770 C.3       1 PRO         0.1338
     41 C         -17.9290   17.2070  -24.0740 C.2       1 PRO         0.2041
     42 O         -17.9270   18.1580  -24.8570 O.2       1 PRO        -0.3944
     43 CB        -20.0080   15.7730  -24.2170 C.3       1 PRO        -0.0104
     44 CG        -21.4350   16.0940  -23.8910 C.3       1 PRO        -0.0281
     45 CD        -21.4460   17.5930  -23.8840 C.3       1 PRO         0.0369
     46 N         -16.8370   16.5070  -23.7890 N.am      1 LEU        -0.2637
     47 CA        -15.5620   16.8050  -24.4270 C.3       1 LEU         0.1312
     48 C         -15.4630   15.9690  -25.7030 C.2       1 LEU         0.2037
     49 O         -14.7720   16.3430  -26.6510 O.2       1 LEU        -0.3944
     50 CB        -14.4010   16.4450  -23.5040 C.3       1 LEU        -0.0101
     51 CG        -14.2920   17.1880  -22.1710 C.3       1 LEU        -0.0425
     52 CD1       -13.1790   16.5550  -21.3370 C.3       1 LEU        -0.0625
     53 CD2       -14.0190   18.6700  -22.4170 C.3       1 LEU        -0.0625
     54 N         -16.1580   14.8360  -25.7120 N.am      1 GLY        -0.2664
     55 CA        -16.1360   13.9510  -26.8620 C.3       1 GLY         0.1201
     56 C         -16.9260   12.6790  -26.6140 C.2       1 GLY         0.2007
     57 O         -17.8190   12.6530  -25.7630 O.2       1 GLY        -0.3947
     58 N         -16.5980   11.6150  -27.3420 N.am      1 ARG        -0.2640
     59 CA        -17.3150   10.3550  -27.1850 C.3       1 ARG         0.1311
     60 C         -16.5700    9.3090  -26.3720 C.2       1 ARG         0.2039
     61 O         -15.3430    9.3280  -26.2630 O.2       1 ARG        -0.3944
     62 CB        -17.6520    9.7480  -28.5500 C.3       1 ARG        -0.0092
     63 CG        -16.4780    9.0430  -29.2190 C.3       1 ARG        -0.0156
     64 CD        -16.8630    8.4580  -30.5740 C.3       1 ARG         0.0627
     65 NE        -15.7380    8.5120  -31.5030 N.pl3     1 ARG        -0.2723
     66 CZ        -15.8200    8.2420  -32.8030 C.cat     1 ARG         0.2882
     67 NH1       -16.9820    7.8910  -33.3390 N.pl3     1 ARG        -0.2849
     68 NH2       -14.7400    8.3460  -33.5710 N.pl3     1 ARG        -0.2849
     69 N         -17.3480    8.3930  -25.8110 N.am      1 ARG        -0.2637
     70 CA        -16.8440    7.2810  -25.0190 C.3       1 ARG         0.1311
     71 C         -17.0540    6.0270  -25.8580 C.2       1 ARG         0.2039
     72 O         -17.9250    6.0020  -26.7290 O.2       1 ARG        -0.3944
     73 CB        -17.6620    7.1380  -23.7380 C.3       1 ARG        -0.0092
     74 CG        -16.9040    7.3960  -22.4730 C.3       1 ARG        -0.0156
     75 CD        -17.7470    7.0650  -21.2590 C.3       1 ARG         0.0627
     76 NE        -18.4870    5.8220  -21.4560 N.pl3     1 ARG        -0.2723
     77 CZ        -18.1020    4.6240  -21.0270 C.cat     1 ARG         0.2882
     78 NH1       -16.9680    4.4820  -20.3560 N.pl3     1 ARG        -0.2849
     79 NH2       -18.8560    3.5600  -21.2790 N.pl3     1 ARG        -0.2849
     80 N         -16.2650    4.9890  -25.6110 N.am      1 ARG        -0.2637
     81 CA        -16.4690    3.7570  -26.3510 C.3       1 ARG         0.1311
     82 C         -17.3820    2.9070  -25.4810 C.2       1 ARG         0.2039
     83 O         -16.9720    2.4340  -24.4170 O.2       1 ARG        -0.3944
     84 CB        -15.1570    3.0040  -26.5900 C.3       1 ARG        -0.0092
     85 CG        -15.1870    2.1180  -27.8410 C.3       1 ARG        -0.0156
     86 CD        -16.4970    1.3300  -27.9810 C.3       1 ARG         0.0627
     87 NE        -16.7850    0.9780  -29.3740 N.pl3     1 ARG        -0.2723
     88 CZ        -17.5590    1.6920  -30.1920 C.cat     1 ARG         0.2882
     89 NH1       -18.1430    2.8070  -29.7640 N.pl3     1 ARG        -0.2849
     90 NH2       -17.7380    1.3000  -31.4490 N.pl3     1 ARG        -0.2849
     91 N         -18.6280    2.7410  -25.9150 N.am      1 VAL        -0.2635
     92 CA        -19.5840    1.9250  -25.1740 C.3       1 VAL         0.1332
     93 C         -18.9740    0.5250  -25.1380 C.2       1 VAL         0.2042
     94 O         -18.1210    0.2100  -25.9660 O.2       1 VAL        -0.3944
     95 CB        -20.9450    1.8630  -25.9010 C.3       1 VAL        -0.0063
     96 CG1       -21.5120    3.2580  -26.0620 C.3       1 VAL        -0.0584
     97 CG2       -20.7750    1.2080  -27.2670 C.3       1 VAL        -0.0584
     98 N         -19.3840   -0.3110  -24.1890 N.am      1 GLN        -0.2636
     99 CA        -18.8320   -1.6580  -24.1200 C.3       1 GLN         0.1330
    100 C         -19.9240   -2.7210  -24.1860 C.2       1 GLN         0.2041
    101 O         -19.6690   -3.9170  -24.0270 O.2       1 GLN        -0.3944
    102 CB        -17.9420   -1.8130  -22.8700 C.3       1 GLN         0.0045
    103 CG        -18.5270   -1.3300  -21.5510 C.3       1 GLN         0.0412
    104 CD        -19.4590   -2.3530  -20.9250 C.2       1 GLN         0.1737
    105 OE1       -19.2680   -2.7800  -19.7800 O.2       1 GLN        -0.3973
    106 NE2       -20.4770   -2.7550  -21.6780 N.am      1 GLN        -0.3009
    107 N         -21.1380   -2.2550  -24.4660 N.am      1 SER        -0.2616
    108 CA        -22.3400   -3.0860  -24.6010 C.3       1 SER         0.1539
    109 C         -22.2040   -4.5360  -25.0730 C.2       1 SER         0.2063
    110 O         -22.1760   -5.4910  -24.2890 O.2       1 SER        -0.3943
    111 CB        -23.3190   -2.4150  -25.5710 C.3       1 SER         0.0843
    112 OG        -23.6750   -1.1210  -25.1350 O.3       1 SER        -0.3903
    113 N         -22.1870   -4.6540  -26.3950 N.am      1 GLN        -0.2621
    114 CA        -22.1250   -5.9090  -27.1280 C.3       1 GLN         0.1441
    115 C         -22.2290   -5.4480  -28.5850 C.2       1 GLN         0.2572
    116 O         -23.3170   -5.5760  -29.1910 O.2       1 GLN        -0.3680
    117 CB        -23.3230   -6.8040  -26.7460 C.3       1 GLN         0.0059
    118 CG        -23.8260   -7.7520  -27.8450 C.3       1 GLN         0.0413
    119 CD        -23.0390   -9.0400  -27.9520 C.2       1 GLN         0.1737
    120 OE1       -21.8290   -9.0700  -27.7180 O.2       1 GLN        -0.3973
    121 NE2       -23.7250  -10.1160  -28.3290 N.am      1 GLN        -0.3009
    122 O1        -21.1753   -4.9177  -29.1994 O.3       1 GLN        -0.2910
    123 H1        -10.5448   23.5146  -17.3931 H         1 SER         0.2016
    124 H2        -11.1258   22.7440  -16.0596 H         1 SER         0.2016
    125 H3        -11.4780   24.3321  -16.3114 H         1 SER         0.2016
    126 H4        -12.7349   23.8395  -18.2604 H         1 SER         0.1122
    127 H5        -13.2477   21.4457  -18.7778 H         1 SER         0.0640
    128 H6        -12.0591   20.9482  -17.5263 H         1 SER         0.0640
    129 H7        -11.1615   20.9995  -19.6476 H         1 SER         0.2099
    130 H8        -14.1924   24.8946  -16.7568 H         1 PHE         0.1886
    131 H9        -15.7425   23.0450  -14.9900 H         1 PHE         0.0823
    132 H10       -17.1589   25.1625  -14.6875 H         1 PHE         0.0474
    133 H11       -15.9276   26.0298  -15.6666 H         1 PHE         0.0474
    134 H12       -15.3481   27.5816  -13.8758 H         1 PHE         0.0557
    135 H13       -15.0031   23.3559  -13.2587 H         1 PHE         0.0557
    136 H14       -14.0148   27.9967  -11.8293 H         1 PHE         0.0599
    137 H15       -13.6658   23.7616  -11.2085 H         1 PHE         0.0599
    138 H16       -13.1672   26.0840  -10.4910 H         1 PHE         0.0559
    139 H17       -15.5078   22.0995  -17.5025 H         1 ASN         0.1885
    140 H18       -17.2130   23.2197  -19.4662 H         1 ASN         0.0826
    141 H19       -15.3500   21.7079  -20.0226 H         1 ASN         0.0551
    142 H20       -16.9048   21.1734  -20.7462 H         1 ASN         0.0551
    143 H21       -16.7241   17.9678  -19.3996 H         1 ASN         0.1814
    144 H22       -17.3726   19.0666  -20.5709 H         1 ASN         0.1814
    145 H23       -19.1886   23.1751  -19.9334 H         1 LEU         0.1883
    146 H24       -21.1004   21.7085  -18.2592 H         1 LEU         0.0800
    147 H25       -22.7744   23.0509  -19.3433 H         1 LEU         0.0315
    148 H26       -21.6236   23.5419  -20.6322 H         1 LEU         0.0315
    149 H27       -20.3682   24.8897  -19.0275 H         1 LEU         0.0298
    150 H28       -22.1173   26.5998  -18.6160 H         1 LEU         0.0232
    151 H29       -23.3884   25.3757  -18.9512 H         1 LEU         0.0232
    152 H30       -22.2645   25.8842  -20.2569 H         1 LEU         0.0232
    153 H31       -20.7667   23.4872  -17.0341 H         1 LEU         0.0232
    154 H32       -22.4943   23.9792  -17.0319 H         1 LEU         0.0232
    155 H33       -21.2121   25.2007  -16.7309 H         1 LEU         0.0232
    156 H34       -19.9274   21.7827  -21.6082 H         1 ALA         0.1883
    157 H35       -21.8570   19.6467  -22.3238 H         1 ALA         0.0797
    158 H36       -21.1525   20.1051  -24.6784 H         1 ALA         0.0277
    159 H37       -19.9829   21.3309  -24.0818 H         1 ALA         0.0277
    160 H38       -21.7465   21.5889  -23.8587 H         1 ALA         0.0277
    161 H39       -18.9806   16.3614  -22.3888 H         1 PRO         0.0802
    162 H40       -19.7604   14.7407  -23.9289 H         1 PRO         0.0313
    163 H41       -19.8076   15.9125  -25.2895 H         1 PRO         0.0313
    164 H42       -22.1156   15.6965  -24.6583 H         1 PRO         0.0287
    165 H43       -21.7166   15.6913  -22.9069 H         1 PRO         0.0287
    166 H44       -21.5029   17.9968  -24.9056 H         1 PRO         0.0524
    167 H45       -22.2841   17.9835  -23.2881 H         1 PRO         0.0524
    168 H46       -16.8911   15.7618  -23.1243 H         1 LEU         0.1883
    169 H47       -15.5141   17.8756  -24.6750 H         1 LEU         0.0800
    170 H48       -13.4702   16.6306  -24.0600 H         1 LEU         0.0315
    171 H49       -14.4840   15.3722  -23.2756 H         1 LEU         0.0315
    172 H50       -15.2431   17.0911  -21.6269 H         1 LEU         0.0298
    173 H51       -13.0945   17.0842  -20.3764 H         1 LEU         0.0232
    174 H52       -12.2259   16.6286  -21.8812 H         1 LEU         0.0232
    175 H53       -13.4154   15.4966  -21.1530 H         1 LEU         0.0232
    176 H54       -14.8345   19.0982  -23.0183 H         1 LEU         0.0232
    177 H55       -13.0672   18.7829  -22.9568 H         1 LEU         0.0232
    178 H56       -13.9586   19.1967  -21.4532 H         1 LEU         0.0232
    179 H57       -16.7055   14.5891  -24.9125 H         1 GLY         0.1881
    180 H58       -15.0925   13.6835  -27.0847 H         1 GLY         0.0763
    181 H59       -16.5716   14.4775  -27.7240 H         1 GLY         0.0763
    182 H60       -15.8515   11.6800  -28.0042 H         1 ARG         0.1883
    183 H61       -18.2562   10.5785  -26.6615 H         1 ARG         0.0800
    184 H62       -17.9945   10.5559  -29.2133 H         1 ARG         0.0313
    185 H63       -18.4627    9.0172  -28.4135 H         1 ARG         0.0313
    186 H64       -16.1328    8.2285  -28.5652 H         1 ARG         0.0301
    187 H65       -15.6632    9.7678  -29.3632 H         1 ARG         0.0301
    188 H66       -17.7019    9.0350  -30.9903 H         1 ARG         0.0689
    189 H67       -17.1695    7.4101  -30.4400 H         1 ARG         0.0689
    190 H68       -14.8171    8.7775  -31.1257 H         1 ARG         0.2642
    191 H69       -17.0427    7.6825  -34.3458 H         1 ARG         0.2615
    192 H70       -17.8233    7.8271  -32.7482 H         1 ARG         0.2615
    193 H71       -13.8374    8.6184  -33.1562 H         1 ARG         0.2615
    194 H72       -14.8058    8.1542  -34.5809 H         1 ARG         0.2615
    195 H73       -18.3367    8.4709  -25.9395 H         1 ARG         0.1883
    196 H74       -15.7799    7.4241  -24.7799 H         1 ARG         0.0800
    197 H75       -18.0557    6.1117  -23.6969 H         1 ARG         0.0313
    198 H76       -18.4989    7.8502  -23.7859 H         1 ARG         0.0313
    199 H77       -16.6189    8.4577  -22.4345 H         1 ARG         0.0301
    200 H78       -15.9979    6.7724  -22.4628 H         1 ARG         0.0301
    201 H79       -18.4603    7.8836  -21.0829 H         1 ARG         0.0689
    202 H80       -17.0896    6.9568  -20.3838 H         1 ARG         0.0689
    203 H81       -19.3788    5.8777  -21.9684 H         1 ARG         0.2642
    204 H82       -16.6773    3.5501  -20.0273 H         1 ARG         0.2615
    205 H83       -16.3773    5.3035  -20.1632 H         1 ARG         0.2615
    206 H84       -19.7381    3.6657  -21.8002 H         1 ARG         0.2615
    207 H85       -18.5586    2.6292  -20.9533 H         1 ARG         0.2615
    208 H86       -15.5404    5.0546  -24.9250 H         1 ARG         0.1883
    209 H87       -16.9460    3.9729  -27.3184 H         1 ARG         0.0800
    210 H88       -14.9552    2.3675  -25.7159 H         1 ARG         0.0313
    211 H89       -14.3472    3.7399  -26.7025 H         1 ARG         0.0313
    212 H90       -14.3518    1.4043  -27.7862 H         1 ARG         0.0301
    213 H91       -15.0653    2.7576  -28.7276 H         1 ARG         0.0301
    214 H92       -17.3230    1.9440  -27.5928 H         1 ARG         0.0689
    215 H93       -16.4188    0.4050  -27.3908 H         1 ARG         0.0689
    216 H94       -16.3593    0.1178  -29.7479 H         1 ARG         0.2642
    217 H95       -18.7395    3.3534  -30.4016 H         1 ARG         0.2615
    218 H96       -17.9989    3.1245  -28.7948 H         1 ARG         0.2615
    219 H97       -17.2890    0.4373  -31.7883 H         1 ARG         0.2615
    220 H98       -18.3257    1.8588  -32.0840 H         1 ARG         0.2615
    221 H99       -18.9150    3.1835  -26.7646 H         1 VAL         0.1883
    222 H100      -19.7225    2.3205  -24.1570 H         1 VAL         0.0802
    223 H101      -21.6433    1.2613  -25.3008 H         1 VAL         0.0343
    224 H102      -22.4805    3.2025  -26.5805 H         1 VAL         0.0234
    225 H103      -20.8150    3.8713  -26.6519 H         1 VAL         0.0234
    226 H104      -21.6524    3.7134  -25.0706 H         1 VAL         0.0234
    227 H105      -20.3630    0.1961  -27.1397 H         1 VAL         0.0234
    228 H106      -20.0870    1.8096  -27.8791 H         1 VAL         0.0234
    229 H107      -21.7523    1.1456  -27.7679 H         1 VAL         0.0234
    230 H108      -20.0699   -0.0161  -23.5238 H         1 GLN         0.1883
    231 H109      -18.1891   -1.7978  -25.0015 H         1 GLN         0.0801
    232 H110      -17.0143   -1.2498  -23.0493 H         1 GLN         0.0337
    233 H111      -17.7065   -2.8817  -22.7588 H         1 GLN         0.0337
    234 H112      -19.0902   -0.4026  -21.7322 H         1 GLN         0.0504
    235 H113      -17.7027   -1.1277  -20.8513 H         1 GLN         0.0504
    236 H114      -21.1265   -3.4274  -21.3231 H         1 GLN         0.1814
    237 H115      -20.5938   -2.3852  -22.5997 H         1 GLN         0.1814
    238 H116      -21.2388   -1.2683  -24.5936 H         1 SER         0.1884
    239 H117      -22.7998   -3.1205  -23.6023 H         1 SER         0.0823
    240 H118      -24.2280   -3.0301  -25.6437 H         1 SER         0.0606
    241 H119      -22.8462   -2.3408  -26.5614 H         1 SER         0.0606
    242 H120      -24.0885   -1.1782  -24.2816 H         1 SER         0.2097
    243 H121      -22.2195   -3.8106  -26.9313 H         1 GLN         0.1885
    244 H122      -21.1816   -6.4428  -26.9407 H         1 GLN         0.0818
    245 H123      -24.1573   -6.1470  -26.4592 H         1 GLN         0.0338
    246 H124      -23.0249   -7.4165  -25.8823 H         1 GLN         0.0338
    247 H125      -23.7641   -7.2274  -28.8098 H         1 GLN         0.0505
    248 H126      -24.8752   -8.0041  -27.6313 H         1 GLN         0.0505
    249 H127      -23.2622  -10.9980  -28.4186 H         1 GLN         0.1814
    250 H128      -24.7033  -10.0427  -28.5228 H         1 GLN         0.1814
    251 H129      -20.4388   -4.8951  -28.5998 H         1 GLN         0.2540
@<TRIPOS>BOND
     1    2    1 1  
     2    2    5 1  
     3    3    2 1  
     4    3    4 2  
     5    5    6 1  
     6    8    7 1  
     7    8   11 1  
     8    9    8 1  
     9    9   10 2  
    10   11   12 1  
    11   12   13 ar 
    12   12   14 ar 
    13   14   16 ar 
    14   16   17 ar 
    15   15   17 ar 
    16   13   15 ar 
    17    7    3 am 
    18   19   18 1  
    19   19   22 1  
    20   20   19 1  
    21   20   21 2  
    22   22   23 1  
    23   23   25 am 
    24   23   24 2  
    25   18    9 am 
    26   27   26 1  
    27   27   30 1  
    28   28   27 1  
    29   28   29 2  
    30   30   31 1  
    31   31   32 1  
    32   31   33 1  
    33   26   20 am 
    34   35   34 1  
    35   35   38 1  
    36   36   35 1  
    37   36   37 2  
    38   34   28 am 
    39   41   40 1  
    40   40   43 1  
    41   40   39 1  
    42   39   45 1  
    43   45   44 1  
    44   43   44 1  
    45   41   42 2  
    46   39   36 am 
    47   47   46 1  
    48   47   50 1  
    49   48   47 1  
    50   48   49 2  
    51   50   51 1  
    52   51   52 1  
    53   51   53 1  
    54   46   41 am 
    55   55   54 1  
    56   56   55 1  
    57   56   57 2  
    58   54   48 am 
    59   59   58 1  
    60   59   62 1  
    61   60   59 1  
    62   60   61 2  
    63   62   63 1  
    64   63   64 1  
    65   64   65 1  
    66   65   66 ar 
    67   66   68 ar 
    68   66   67 ar 
    69   58   56 am 
    70   70   69 1  
    71   70   73 1  
    72   71   70 1  
    73   71   72 2  
    74   73   74 1  
    75   74   75 1  
    76   75   76 1  
    77   76   77 ar 
    78   77   79 ar 
    79   77   78 ar 
    80   69   60 am 
    81   81   80 1  
    82   81   84 1  
    83   82   81 1  
    84   82   83 2  
    85   84   85 1  
    86   85   86 1  
    87   86   87 1  
    88   87   88 ar 
    89   88   90 ar 
    90   88   89 ar 
    91   80   71 am 
    92   92   91 1  
    93   92   95 1  
    94   93   92 1  
    95   93   94 2  
    96   95   97 1  
    97   95   96 1  
    98   91   82 am 
    99   99   98 1  
   100   99  102 1  
   101  100   99 1  
   102  100  101 2  
   103  102  103 1  
   104  103  104 1  
   105  104  106 am 
   106  104  105 2  
   107   98   93 am 
   108  108  107 1  
   109  108  111 1  
   110  109  108 1  
   111  109  110 2  
   112  111  112 1  
   113  107  100 am 
   114  113  114 1  
   115  114  117 1  
   116  114  115 1  
   117  115  116 2  
   118  117  118 1  
   119  118  119 1  
   120  119  121 am 
   121  119  120 2  
   122  109  113 am 
   123  115  122 1  
   124    1  123 1  
   125    1  124 1  
   126    1  125 1  
   127    2  126 1  
   128    5  127 1  
   129    5  128 1  
   130    6  129 1  
   131    7  130 1  
   132    8  131 1  
   133   11  132 1  
   134   11  133 1  
   135   13  134 1  
   136   14  135 1  
   137   15  136 1  
   138   16  137 1  
   139   17  138 1  
   140   18  139 1  
   141   19  140 1  
   142   22  141 1  
   143   22  142 1  
   144   25  143 1  
   145   25  144 1  
   146   26  145 1  
   147   27  146 1  
   148   30  147 1  
   149   30  148 1  
   150   31  149 1  
   151   32  150 1  
   152   32  151 1  
   153   32  152 1  
   154   33  153 1  
   155   33  154 1  
   156   33  155 1  
   157   34  156 1  
   158   35  157 1  
   159   38  158 1  
   160   38  159 1  
   161   38  160 1  
   162   40  161 1  
   163   43  162 1  
   164   43  163 1  
   165   44  164 1  
   166   44  165 1  
   167   45  166 1  
   168   45  167 1  
   169   46  168 1  
   170   47  169 1  
   171   50  170 1  
   172   50  171 1  
   173   51  172 1  
   174   52  173 1  
   175   52  174 1  
   176   52  175 1  
   177   53  176 1  
   178   53  177 1  
   179   53  178 1  
   180   54  179 1  
   181   55  180 1  
   182   55  181 1  
   183   58  182 1  
   184   59  183 1  
   185   62  184 1  
   186   62  185 1  
   187   63  186 1  
   188   63  187 1  
   189   64  188 1  
   190   64  189 1  
   191   65  190 1  
   192   67  191 1  
   193   67  192 1  
   194   68  193 1  
   195   68  194 1  
   196   69  195 1  
   197   70  196 1  
   198   73  197 1  
   199   73  198 1  
   200   74  199 1  
   201   74  200 1  
   202   75  201 1  
   203   75  202 1  
   204   76  203 1  
   205   78  204 1  
   206   78  205 1  
   207   79  206 1  
   208   79  207 1  
   209   80  208 1  
   210   81  209 1  
   211   84  210 1  
   212   84  211 1  
   213   85  212 1  
   214   85  213 1  
   215   86  214 1  
   216   86  215 1  
   217   87  216 1  
   218   89  217 1  
   219   89  218 1  
   220   90  219 1  
   221   90  220 1  
   222   91  221 1  
   223   92  222 1  
   224   95  223 1  
   225   96  224 1  
   226   96  225 1  
   227   96  226 1  
   228   97  227 1  
   229   97  228 1  
   230   97  229 1  
   231   98  230 1  
   232   99  231 1  
   233  102  232 1  
   234  102  233 1  
   235  103  234 1  
   236  103  235 1  
   237  106  236 1  
   238  106  237 1  
   239  107  238 1  
   240  108  239 1  
   241  111  240 1  
   242  111  241 1  
   243  112  242 1  
   244  113  243 1  
   245  114  244 1  
   246  117  245 1  
   247  117  246 1  
   248  118  247 1  
   249  118  248 1  
   250  121  249 1  
   251  121  250 1  
   252  122  251 1  
@<TRIPOS>SUBSTRUCTURE
     1 SER         1

