5ops_ligand
  -I-interpret- 

 26 28  0  0  0  0  0  0  0  0999 V2000
    4.1170   -7.7690   17.4780 C   0  0  0  0  0
    4.1400   -6.6160   18.2710 C   0  0  0  0  0
    4.6620   -5.4260   17.8010 C   0  0  0  0  0
    5.0950   -5.3490   16.4800 C   0  0  0  0  0
    5.0530   -6.4880   15.6850 C   0  0  0  0  0
    4.5510   -7.6810   16.1600 C   0  0  0  0  0
    4.6760   -4.2230   18.6140 C   0  0  0  0  0
    3.5130   -3.9350   19.2790 C   0  0  0  0  0
    3.4030   -2.7710   20.0190 C   0  0  0  0  0
    4.4250   -1.9290   20.0810 N   0  0  0  0  0
    5.7090   -3.3140   18.6800 C   0  0  0  0  0
    5.5460   -2.1730   19.4380 C   0  0  0  0  0
    6.6460   -1.4590   19.3640 N   0  0  0  0  0
    7.5170   -2.0940   18.5890 C   0  0  0  0  0
    6.9710   -3.2170   18.1750 C   0  0  0  0  0
    7.5990   -4.1170   17.3060 C   0  0  0  0  0
    8.1030   -4.8820   16.6360 N   0  0  0  0  0
    5.4920   -6.3810   14.4210 O   0  0  0  0  0
    3.7659   -8.7170   17.8855 H   0  0  0  0  0
    3.7368   -6.6577   19.2828 H   0  0  0  0  0
    5.4626   -4.4065   16.0742 H   0  0  0  0  0
    4.4946   -8.5508   15.5056 H   0  0  0  0  0
    2.6713   -4.6255   19.2248 H   0  0  0  0  0
    2.4778   -2.5468   20.5499 H   0  0  0  0  0
    8.5179   -1.7433   18.3376 H   0  0  0  0  0
    5.4105   -7.2309   13.9821 H   0  0  0  0  0
  1  2  4  0  0  0
  1  6  4  0  0  0
  2  3  4  0  0  0
  3  4  4  0  0  0
  3  7  1  0  0  0
  4  5  4  0  0  0
  5  6  4  0  0  0
  5 18  1  0  0  0
  7  8  4  0  0  0
  7 11  4  0  0  0
  8  9  4  0  0  0
  9 10  4  0  0  0
 10 12  4  0  0  0
 11 12  4  0  0  0
 11 15  4  0  0  0
 12 13  4  0  0  0
 13 14  4  0  0  0
 14 15  4  0  0  0
 15 16  1  0  0  0
 16 17  3  0  0  0
  1 19  1  0  0  0
  2 20  1  0  0  0
  4 21  1  0  0  0
  6 22  1  0  0  0
  8 23  1  0  0  0
  9 24  1  0  0  0
 14 25  1  0  0  0
 18 26  1  0  0  0
M  END
$$$$
