6f08_ligand
  -I-interpret- 

146147  0  0  0  0  0  0  0  0999 V2000
   13.8810   15.0670   37.9640 N   0  3  0  0  0
   14.1020   13.5780   37.8900 C   0  0  0  0  0
   12.8650   12.8800   38.4430 C   0  0  0  0  0
   12.4100   13.2190   39.5570 O   0  0  0  0  0
   15.3160   13.1850   38.7430 C   0  0  0  0  0
   16.6810   13.3160   38.0660 C   0  0  0  0  0
   16.9530   12.1880   37.0570 C   0  0  0  0  0
   16.7460   10.8250   37.5720 N   0  0  0  0  0
   17.6310   10.0770   38.2440 C   0  0  0  0  0
   18.8490   10.5440   38.5420 N   0  0  0  0  0
   17.2840    8.8330   38.6640 N   0  0  0  0  0
   12.3150   11.9230   37.6990 N   0  0  0  0  0
   11.1940   11.1680   38.1990 C   0  0  0  0  0
   11.6790   10.0240   39.1040 C   0  0  0  0  0
   12.7710    9.4640   38.8970 O   0  0  0  0  0
   10.3730   10.6240   37.0450 C   0  0  0  0  0
    9.6480   11.6910   36.2800 C   0  0  0  0  0
    8.5320   11.1160   35.4510 C   0  0  0  0  0
    7.8620   12.1350   34.6320 N   0  0  0  0  0
    8.2260   12.5070   33.4250 C   0  0  0  0  0
    9.3030   11.9630   32.8330 N   0  0  0  0  0
    7.5170   13.4270   32.7940 N   0  0  0  0  0
   10.8340    9.6230   40.0890 N   0  0  0  0  0
   11.1570    8.4450   40.8880 C   0  0  0  0  0
   10.6760    7.2070   40.1550 C   0  0  0  0  0
    9.8920    7.3170   39.1980 O   0  0  0  0  0
   10.3520    8.6720   42.1650 C   0  0  0  0  0
    9.1540    9.3930   41.7180 C   0  0  0  0  0
    9.5220   10.1520   40.4550 C   0  0  0  0  0
   11.2080    6.0610   40.5660 N   0  0  0  0  0
   10.7560    4.7490   40.1020 C   0  0  0  0  0
    9.5720    4.2500   40.8990 C   0  0  0  0  0
    9.4740    4.5420   42.0640 O   0  0  0  0  0
   11.9170    3.7500   40.1820 C   0  0  0  0  0
   12.9940    4.0570   39.1580 C   0  0  0  0  0
   14.2670    3.2450   39.3930 C   0  0  0  0  0
   15.1080    3.5000   40.3270 O   0  0  0  0  0
   14.4260    2.3080   38.6390 O   0  0  0  0  0
    8.6040    3.5930   40.2530 N   0  0  0  0  0
    7.4580    2.9790   40.9460 C   0  0  0  0  0
    6.2500    3.6190   40.2890 C   0  0  0  0  0
    6.1760    3.2630   38.8860 O   0  0  0  0  0
    7.6210    1.4830   40.7760 C   0  0  0  0  0
    8.6230    1.0030   40.1770 O   0  0  0  0  0
    4.9420    3.8550   38.0730 P   0  0  0  0  0
    5.1900    3.4260   36.5940 O   0  0  0  0  0
    3.6810    3.2000   38.6280 O   0  0  0  0  0
    4.9510    5.3670   38.2250 O   0  0  0  0  0
    6.6790    0.7330   41.3100 N   0  0  0  0  0
    6.8020   -0.6990   41.4320 C   0  0  0  0  0
    6.7430   -1.3150   40.0420 C   0  0  0  0  0
    6.0830   -0.7680   39.1990 O   0  0  0  0  0
    5.6650   -1.2690   42.2620 C   0  0  0  0  0
    7.4140   -2.4580   39.8270 N   0  0  0  0  0
    7.1820   -3.2130   38.5770 C   0  0  0  0  0
    5.8870   -4.0070   38.6670 C   0  0  0  0  0
    5.3400   -4.1720   39.7620 O   0  0  0  0  0
    8.4120   -4.1660   38.4840 C   0  0  0  0  0
    8.9910   -4.2530   39.8710 C   0  0  0  0  0
    8.5470   -3.0010   40.6220 C   0  0  0  0  0
    5.3920   -4.5090   37.5440 N   0  0  0  0  0
    4.1870   -5.3620   37.5500 C   0  0  0  0  0
    4.4300   -6.8150   38.0660 C   0  0  0  0  0
    3.9250   -7.7720   37.4850 O   0  0  0  0  0
    3.5680   -5.3680   36.1580 C   0  0  0  0  0
    5.1870   -6.9580   39.1700 N   0  0  0  0  0
    5.4870   -8.2350   39.8760 C   0  0  0  0  0
    5.9680   -9.3890   38.9930 C   0  0  0  0  0
    6.3930   -9.1880   37.8570 O   0  0  0  0  0
    4.2740   -8.6940   40.7110 C   0  0  0  0  0
    4.5810   -9.0160   42.1780 C   0  0  0  0  0
    4.6380   -7.7730   43.0630 C   0  0  0  0  0
    3.8170   -7.6660   43.9990 O   0  0  0  0  0
    5.4930   -6.8930   42.8160 O   0  0  0  0  0
    5.9440  -10.5510   39.3940 O   0  0  0  0  0
   13.0729   15.3183   37.3946 H   0  0  0  0  0
   13.7126   15.3368   38.9332 H   0  0  0  0  0
   14.7084   15.5501   37.6142 H   0  0  0  0  0
   14.2808   13.2851   36.8554 H   0  0  0  0  0
   15.1930   12.1288   38.9825 H   0  0  0  0  0
   15.3282   13.8688   39.5918 H   0  0  0  0  0
   17.4456   13.2636   38.8411 H   0  0  0  0  0
   16.6965   14.2614   37.5237 H   0  0  0  0  0
   18.0046   12.2621   36.7800 H   0  0  0  0  0
   16.2475   12.3238   36.2373 H   0  0  0  0  0
   15.8324   10.4057   37.3990 H   0  0  0  0  0
   19.1181   11.4856   38.2566 H   0  0  0  0  0
   17.9476    8.2712   39.1973 H   0  0  0  0  0
   16.3598    8.4605   38.4461 H   0  0  0  0  0
   12.6886   11.7232   36.7711 H   0  0  0  0  0
   10.5627   11.8297   38.7921 H   0  0  0  0  0
    9.6244    9.9500   37.4615 H   0  0  0  0  0
   11.0587   10.1316   36.3554 H   0  0  0  0  0
   10.3578   12.1785   35.6117 H   0  0  0  0  0
    9.2199   12.3956   36.9930 H   0  0  0  0  0
    7.7934   10.6885   36.1291 H   0  0  0  0  0
    8.9592   10.3708   34.7800 H   0  0  0  0  0
    7.0443   12.5931   35.0344 H   0  0  0  0  0
    9.5742   12.2600   31.8956 H   0  0  0  0  0
    9.8492   11.2532   33.3211 H   0  0  0  0  0
    6.6994   13.8384   33.2441 H   0  0  0  0  0
   12.2206    8.3056   41.0817 H   0  0  0  0  0
   10.9150    9.2352   42.9093 H   0  0  0  0  0
   10.1038    7.7355   42.6645 H   0  0  0  0  0
    8.8134   10.0820   42.4909 H   0  0  0  0  0
    8.3409    8.6947   41.5196 H   0  0  0  0  0
    8.7866   10.0132   39.6625 H   0  0  0  0  0
    9.5428   11.2301   40.6141 H   0  0  0  0  0
   11.9720    6.0978   41.2408 H   0  0  0  0  0
   10.4294    4.8468   39.0667 H   0  0  0  0  0
   11.5261    2.7527   39.9805 H   0  0  0  0  0
   12.3594    3.8168   41.1759 H   0  0  0  0  0
   13.2473    5.1139   39.2405 H   0  0  0  0  0
   12.6063    3.7998   38.1723 H   0  0  0  0  0
   14.8164    4.2726   40.8165 H   0  0  0  0  0
    8.6610    3.5133   39.2377 H   0  0  0  0  0
    7.3638    3.1367   42.0204 H   0  0  0  0  0
    6.3384    4.7022   40.3719 H   0  0  0  0  0
    5.3491    3.2634   40.7891 H   0  0  0  0  0
    5.1780    2.4680   36.5336 H   0  0  0  0  0
    3.7341    2.2496   38.5034 H   0  0  0  0  0
    5.8291    1.1825   41.6506 H   0  0  0  0  0
    7.7482   -0.9295   41.9216 H   0  0  0  0  0
    5.6874   -0.8276   43.2584 H   0  0  0  0  0
    4.7144   -1.0369   41.7817 H   0  0  0  0  0
    5.7800   -2.3501   42.3395 H   0  0  0  0  0
    7.0838   -2.5690   37.7031 H   0  0  0  0  0
    9.1486   -3.7847   37.7768 H   0  0  0  0  0
    8.1163   -5.1507   38.1220 H   0  0  0  0  0
   10.0787   -4.3121   39.8308 H   0  0  0  0  0
    8.6397   -5.1512   40.3789 H   0  0  0  0  0
    8.2503   -3.2277   41.6460 H   0  0  0  0  0
    9.3572   -2.2781   40.7172 H   0  0  0  0  0
    5.8530   -4.3017   36.6581 H   0  0  0  0  0
    3.4944   -4.9248   38.2692 H   0  0  0  0  0
    3.2943   -4.3505   35.8791 H   0  0  0  0  0
    4.2903   -5.7605   35.4422 H   0  0  0  0  0
    2.6780   -5.9973   36.1602 H   0  0  0  0  0
    5.5950   -6.1090   39.5613 H   0  0  0  0  0
    6.3342   -7.9906   40.5168 H   0  0  0  0  0
    3.9098   -9.6153   40.2564 H   0  0  0  0  0
    3.5627   -7.8681   40.7126 H   0  0  0  0  0
    5.5595   -9.4948   42.2149 H   0  0  0  0  0
    3.7801   -9.6535   42.5524 H   0  0  0  0  0
    6.0226   -7.1653   42.0630 H   0  0  0  0  0
    5.5939  -10.5728   40.2876 H   0  0  0  0  0
  1  2  1  0  0  0
  2  3  1  0  0  0
  2  5  1  0  0  0
  3  4  2  0  0  0
  3 12  1  0  0  0
  5  6  1  0  0  0
  6  7  1  0  0  0
  7  8  1  0  0  0
  8  9  1  0  0  0
  9 10  2  0  0  0
  9 11  1  0  0  0
 12 13  1  0  0  0
 13 14  1  0  0  0
 13 16  1  0  0  0
 14 15  2  0  0  0
 14 23  1  0  0  0
 16 17  1  0  0  0
 17 18  1  0  0  0
 18 19  1  0  0  0
 19 20  1  0  0  0
 20 21  1  0  0  0
 20 22  2  0  0  0
 23 24  1  0  0  0
 23 29  1  0  0  0
 24 25  1  0  0  0
 24 27  1  0  0  0
 25 26  2  0  0  0
 25 30  1  0  0  0
 27 28  1  0  0  0
 28 29  1  0  0  0
 30 31  1  0  0  0
 31 32  1  0  0  0
 31 34  1  0  0  0
 32 33  2  0  0  0
 32 39  1  0  0  0
 34 35  1  0  0  0
 35 36  1  0  0  0
 36 37  1  0  0  0
 36 38  2  0  0  0
 39 40  1  0  0  0
 40 41  1  0  0  0
 40 43  1  0  0  0
 41 42  1  0  0  0
 42 45  1  0  0  0
 43 44  2  0  0  0
 43 49  1  0  0  0
 45 46  1  0  0  0
 45 47  1  0  0  0
 45 48  2  0  0  0
 49 50  1  0  0  0
 50 51  1  0  0  0
 50 53  1  0  0  0
 51 52  2  0  0  0
 51 54  1  0  0  0
 54 55  1  0  0  0
 54 60  1  0  0  0
 55 56  1  0  0  0
 55 58  1  0  0  0
 56 57  2  0  0  0
 56 61  1  0  0  0
 58 59  1  0  0  0
 59 60  1  0  0  0
 61 62  1  0  0  0
 62 63  1  0  0  0
 62 65  1  0  0  0
 63 64  2  0  0  0
 63 66  1  0  0  0
 66 67  1  0  0  0
 67 68  1  0  0  0
 67 70  1  0  0  0
 68 69  2  0  0  0
 68 75  1  0  0  0
 70 71  1  0  0  0
 71 72  1  0  0  0
 72 73  2  0  0  0
 72 74  1  0  0  0
  1 76  1  0  0  0
  1 77  1  0  0  0
  1 78  1  0  0  0
  2 79  1  0  0  0
  5 80  1  0  0  0
  5 81  1  0  0  0
  6 82  1  0  0  0
  6 83  1  0  0  0
  7 84  1  0  0  0
  7 85  1  0  0  0
  8 86  1  0  0  0
 10 87  1  0  0  0
 11 88  1  0  0  0
 11 89  1  0  0  0
 12 90  1  0  0  0
 13 91  1  0  0  0
 16 92  1  0  0  0
 16 93  1  0  0  0
 17 94  1  0  0  0
 17 95  1  0  0  0
 18 96  1  0  0  0
 18 97  1  0  0  0
 19 98  1  0  0  0
 21 99  1  0  0  0
 21100  1  0  0  0
 22101  1  0  0  0
 24102  1  0  0  0
 27103  1  0  0  0
 27104  1  0  0  0
 28105  1  0  0  0
 28106  1  0  0  0
 29107  1  0  0  0
 29108  1  0  0  0
 30109  1  0  0  0
 31110  1  0  0  0
 34111  1  0  0  0
 34112  1  0  0  0
 35113  1  0  0  0
 35114  1  0  0  0
 37115  1  0  0  0
 39116  1  0  0  0
 40117  1  0  0  0
 41118  1  0  0  0
 41119  1  0  0  0
 46120  1  0  0  0
 47121  1  0  0  0
 49122  1  0  0  0
 50123  1  0  0  0
 53124  1  0  0  0
 53125  1  0  0  0
 53126  1  0  0  0
 55127  1  0  0  0
 58128  1  0  0  0
 58129  1  0  0  0
 59130  1  0  0  0
 59131  1  0  0  0
 60132  1  0  0  0
 60133  1  0  0  0
 61134  1  0  0  0
 62135  1  0  0  0
 65136  1  0  0  0
 65137  1  0  0  0
 65138  1  0  0  0
 66139  1  0  0  0
 67140  1  0  0  0
 70141  1  0  0  0
 70142  1  0  0  0
 71143  1  0  0  0
 71144  1  0  0  0
 74145  1  0  0  0
 75146  1  0  0  0
M  END
$$$$
