### 
### Created by X-TOOL on Wed Jan  1 15:39:38 2020
### 

@<TRIPOS>MOLECULE
6f08_ligand
  143   144     1     0     0
SMALL
GAST_HUCK


@<TRIPOS>ATOM
      1 N          13.8810   15.0670   37.9640 N.4       1 ARG         0.2379
      2 CA         14.1020   13.5780   37.8900 C.3       1 ARG         0.0651
      3 C          12.8650   12.8800   38.4430 C.2       1 ARG         0.2267
      4 O          12.4100   13.2190   39.5570 O.2       1 ARG        -0.3907
      5 CB         15.3160   13.1850   38.7430 C.3       1 ARG         0.0110
      6 CG         16.6810   13.3160   38.0660 C.3       1 ARG        -0.0125
      7 CD         16.9530   12.1880   37.0570 C.3       1 ARG         0.0629
      8 NE         16.7460   10.8250   37.5720 N.pl3     1 ARG        -0.2723
      9 CZ         17.6310   10.0770   38.2440 C.cat     1 ARG         0.2882
     10 NH1        18.8490   10.5440   38.5420 N.pl3     1 ARG        -0.2849
     11 NH2        17.2840    8.8330   38.6640 N.pl3     1 ARG        -0.2849
     12 N          12.3150   11.9230   37.6990 N.am      1 ARG        -0.2610
     13 CA         11.1940   11.1680   38.1990 C.3       1 ARG         0.1314
     14 C          11.6790   10.0240   39.1040 C.2       1 ARG         0.2064
     15 O          12.7710    9.4640   38.8970 O.2       1 ARG        -0.3942
     16 CB         10.3730   10.6240   37.0450 C.3       1 ARG        -0.0092
     17 CG          9.6480   11.6910   36.2800 C.3       1 ARG        -0.0156
     18 CD          8.5320   11.1160   35.4510 C.3       1 ARG         0.0627
     19 NE          7.8620   12.1350   34.6320 N.pl3     1 ARG        -0.2723
     20 CZ          8.2260   12.5070   33.4250 C.cat     1 ARG         0.2882
     21 NH1         9.3030   11.9630   32.8330 N.pl3     1 ARG        -0.2849
     22 NH2         7.5170   13.4270   32.7940 N.pl3     1 ARG        -0.2849
     23 N          10.8340    9.6230   40.0890 N.am      1 PRO        -0.2498
     24 CA         11.1570    8.4450   40.8880 C.3       1 PRO         0.1338
     25 C          10.6760    7.2070   40.1550 C.2       1 PRO         0.2041
     26 O           9.8920    7.3170   39.1980 O.2       1 PRO        -0.3944
     27 CB         10.3520    8.6720   42.1650 C.3       1 PRO        -0.0104
     28 CG          9.1540    9.3930   41.7180 C.3       1 PRO        -0.0281
     29 CD          9.5220   10.1520   40.4550 C.3       1 PRO         0.0369
     30 N          11.2080    6.0610   40.5660 N.am      1 GLU        -0.2636
     31 CA         10.7560    4.7490   40.1020 C.3       1 GLU         0.1325
     32 C           9.5720    4.2500   40.8990 C.2       1 GLU         0.2041
     33 O           9.4740    4.5420   42.0640 O.2       1 GLU        -0.3944
     34 CB         11.9170    3.7500   40.1820 C.3       1 GLU        -0.0008
     35 CG         12.9940    4.0570   39.1580 C.3       1 GLU         0.0044
     36 CD         14.2670    3.2450   39.3930 C.2       1 GLU         0.0350
     37 OE1        15.1080    3.5000   40.3270 O.co2     1 GLU        -0.5690
     38 OE2        14.4260    2.3080   38.6390 O.co2     1 GLU        -0.5690
     39 N           8.6040    3.5930   40.2530 N.am      1 SEP        -0.2613
     40 CA          7.4580    2.9790   40.9460 C.3       1 SEP         0.1586
     41 CB          6.2500    3.6190   40.2890 C.3       1 SEP         0.1184
     42 OG          6.1760    3.2630   38.8860 O.3       1 SEP        -0.2714
     43 C           7.6210    1.4830   40.7760 C.2       1 SEP         0.2065
     44 O           8.6230    1.0030   40.1770 O.2       1 SEP        -0.3943
     45 P           4.9420    3.8550   38.0730 P.3       1 SEP         0.2010
     46 O1P         5.1900    3.4260   36.5940 O.co2     1 SEP        -0.5537
     47 O2P         3.6810    3.2000   38.6280 O.co2     1 SEP        -0.5537
     48 O3P         4.9510    5.3670   38.2250 O.co2     1 SEP        -0.5537
     49 N           6.6790    0.7330   41.3100 N.am      1 ALA        -0.2639
     50 CA          6.8020   -0.6990   41.4320 C.3       1 ALA         0.1284
     51 C           6.7430   -1.3150   40.0420 C.2       1 ALA         0.2061
     52 O           6.0830   -0.7680   39.1990 O.2       1 ALA        -0.3942
     53 CB          5.6650   -1.2690   42.2620 C.3       1 ALA        -0.0244
     54 N           7.4140   -2.4580   39.8270 N.am      1 PRO        -0.2498
     55 CA          7.1820   -3.2130   38.5770 C.3       1 PRO         0.1338
     56 C           5.8870   -4.0070   38.6670 C.2       1 PRO         0.2041
     57 O           5.3400   -4.1720   39.7620 O.2       1 PRO        -0.3944
     58 CB          8.4120   -4.1660   38.4840 C.3       1 PRO        -0.0104
     59 CG          8.9910   -4.2530   39.8710 C.3       1 PRO        -0.0281
     60 CD          8.5470   -3.0010   40.6220 C.3       1 PRO         0.0369
     61 N           5.3920   -4.5090   37.5440 N.am      1 ALA        -0.2640
     62 CA          4.1870   -5.3620   37.5500 C.3       1 ALA         0.1282
     63 C           4.4300   -6.8150   38.0660 C.2       1 ALA         0.2031
     64 O           3.9250   -7.7720   37.4850 O.2       1 ALA        -0.3944
     65 CB          3.5680   -5.3680   36.1580 C.3       1 ALA        -0.0244
     66 N           5.1870   -6.9580   39.1700 N.am      1 GLU        -0.2694
     67 CA          5.4870   -8.2350   39.8760 C.3       1 GLU         0.0959
     68 C           5.9680   -9.3890   38.9930 C.2       1 GLU         0.0602
     69 O           6.3930   -9.1880   37.8570 O.co2     1 GLU        -0.5666
     70 CB          4.2740   -8.6940   40.7110 C.3       1 GLU        -0.0064
     71 CG          4.5810   -9.0160   42.1780 C.3       1 GLU         0.0038
     72 CD          4.6380   -7.7730   43.0630 C.2       1 GLU         0.0350
     73 OE1         3.8170   -7.6660   43.9990 O.co2     1 GLU        -0.5690
     74 OE2         5.4930   -6.8930   42.8160 O.co2     1 GLU        -0.5690
     75 OXT         5.9440  -10.5510   39.3940 O.co2     1 GLU        -0.5666
     76 H1         14.6909   15.5453   37.6016 H         1 ARG         0.2015
     77 H2         13.7326   15.3374   38.9236 H         1 ARG         0.2015
     78 H3         13.0718   15.3142   37.4162 H         1 ARG         0.2015
     79 H4         14.2693   13.2772   36.8452 H         1 ARG         0.1098
     80 H5         15.1895   12.1349   39.0451 H         1 ARG         0.0347
     81 H6         15.3208   13.8257   39.6371 H         1 ARG         0.0347
     82 H7         17.4618   13.2914   38.8404 H         1 ARG         0.0302
     83 H8         16.7202   14.2792   37.5362 H         1 ARG         0.0302
     84 H9         17.9987   12.2718   36.7261 H         1 ARG         0.0689
     85 H10        16.2834   12.3321   36.1963 H         1 ARG         0.0689
     86 H11        15.8234   10.4016   37.3973 H         1 ARG         0.2642
     87 H12        19.5149    9.9527   39.0596 H         1 ARG         0.2615
     88 H13        19.1207   11.4948   38.2538 H         1 ARG         0.2615
     89 H14        16.3507    8.4568   38.4440 H         1 ARG         0.2615
     90 H15        17.9541    8.2657   39.2025 H         1 ARG         0.2615
     91 H16        12.6812   11.7272   36.7893 H         1 ARG         0.1884
     92 H17        10.5578   11.8387   38.7952 H         1 ARG         0.0800
     93 H18         9.6320    9.9169   37.4461 H         1 ARG         0.0313
     94 H19        11.0473   10.0961   36.3546 H         1 ARG         0.0313
     95 H20        10.3608   12.2005   35.6149 H         1 ARG         0.0301
     96 H21         9.2270   12.4168   36.9913 H         1 ARG         0.0301
     97 H22         7.7908   10.6598   36.1237 H         1 ARG         0.0689
     98 H23         8.9471   10.3447   34.7856 H         1 ARG         0.0689
     99 H24         7.0363   12.5976   35.0384 H         1 ARG         0.2642
    100 H25         9.5774   12.2635   31.8868 H         1 ARG         0.2615
    101 H26         9.8540   11.2456   33.3255 H         1 ARG         0.2615
    102 H27         6.6919   13.8430   33.2489 H         1 ARG         0.2615
    103 H28         7.7897   13.7278   31.8474 H         1 ARG         0.2615
    104 H29        12.2344    8.3715   41.0970 H         1 PRO         0.0802
    105 H30        10.9245    9.2766   42.8838 H         1 PRO         0.0313
    106 H31        10.0786    7.7126   42.6285 H         1 PRO         0.0313
    107 H32         8.8269   10.0971   42.4973 H         1 PRO         0.0287
    108 H33         8.3442    8.6798   41.5049 H         1 PRO         0.0287
    109 H34         8.7883    9.9619   39.6578 H         1 PRO         0.0524
    110 H35         9.5780   11.2328   40.6517 H         1 PRO         0.0524
    111 H36        11.9570    6.0970   41.2275 H         1 GLU         0.1883
    112 H37        10.4459    4.8421   39.0507 H         1 GLU         0.0801
    113 H38        11.5290    2.7372   39.9983 H         1 GLU         0.0330
    114 H39        12.3586    3.7966   41.1884 H         1 GLU         0.0330
    115 H40        13.2417    5.1272   39.2153 H         1 GLU         0.0433
    116 H41        12.6058    3.8236   38.1556 H         1 GLU         0.0433
    117 H42         8.6599    3.5149   39.2576 H         1 SEP         0.1884
    118 H43         7.4579    3.2182   42.0197 H         1 SEP         0.0827
    119 H44         6.3277    4.7125   40.3796 H         1 SEP         0.0662
    120 H45         5.3379    3.2728   40.7971 H         1 SEP         0.0662
    121 H46         5.8458    1.1737   41.6440 H         1 ALA         0.1883
    122 H47         7.7624   -0.9442   41.9090 H         1 ALA         0.0797
    123 H48         5.7799   -2.3601   42.3410 H         1 ALA         0.0277
    124 H49         4.7050   -1.0355   41.7783 H         1 ALA         0.0277
    125 H50         5.6865   -0.8243   43.2679 H         1 ALA         0.0277
    126 H51         7.1416   -2.5375   37.7098 H         1 PRO         0.0802
    127 H52         9.1575   -3.7574   37.7860 H         1 PRO         0.0313
    128 H53         8.0959   -5.1622   38.1410 H         1 PRO         0.0313
    129 H54        10.0891   -4.2926   39.8197 H         1 PRO         0.0287
    130 H55         8.6150   -5.1521   40.3811 H         1 PRO         0.0287
    131 H56         8.2177   -3.2570   41.6398 H         1 PRO         0.0524
    132 H57         9.3676   -2.2704   40.6749 H         1 PRO         0.0524
    133 H58         5.8440   -4.3057   36.6755 H         1 ALA         0.1883
    134 H59         3.4642   -4.8977   38.2370 H         1 ALA         0.0797
    135 H60         2.6697   -6.0028   36.1590 H         1 ALA         0.0277
    136 H61         4.2960   -5.7640   35.4347 H         1 ALA         0.0277
    137 H62         3.2913   -4.3416   35.8753 H         1 ALA         0.0277
    138 H63         5.5870   -6.1256   39.5536 H         1 GLU         0.1875
    139 H64         6.3065   -8.0150   40.5760 H         1 GLU         0.0727
    140 H65         3.8602   -9.5992   40.2425 H         1 GLU         0.0323
    141 H66         3.5211   -7.8924   40.6881 H         1 GLU         0.0323
    142 H67         5.5538   -9.5269   42.2285 H         1 GLU         0.0432
    143 H68         3.7957   -9.6838   42.5620 H         1 GLU         0.0432
@<TRIPOS>BOND
     1    1    2 1  
     2    2    3 1  
     3    2    5 1  
     4    3    4 2  
     5    3   12 am 
     6    5    6 1  
     7    6    7 1  
     8    7    8 1  
     9    8    9 ar 
    10    9   10 ar 
    11    9   11 ar 
    12   12   13 1  
    13   13   14 1  
    14   13   16 1  
    15   14   15 2  
    16   14   23 am 
    17   16   17 1  
    18   17   18 1  
    19   18   19 1  
    20   19   20 ar 
    21   20   21 ar 
    22   20   22 ar 
    23   23   24 1  
    24   23   29 1  
    25   24   25 1  
    26   24   27 1  
    27   25   26 2  
    28   25   30 am 
    29   27   28 1  
    30   28   29 1  
    31   30   31 1  
    32   31   32 1  
    33   31   34 1  
    34   32   33 2  
    35   32   39 am 
    36   34   35 1  
    37   35   36 1  
    38   36   37 ar 
    39   36   38 ar 
    40   39   40 1  
    41   40   41 1  
    42   40   43 1  
    43   41   42 1  
    44   42   45 1  
    45   43   44 2  
    46   43   49 am 
    47   45   46 ar 
    48   45   47 ar 
    49   45   48 ar 
    50   49   50 1  
    51   50   51 1  
    52   50   53 1  
    53   51   52 2  
    54   51   54 am 
    55   54   55 1  
    56   54   60 1  
    57   55   56 1  
    58   55   58 1  
    59   56   57 2  
    60   56   61 am 
    61   58   59 1  
    62   59   60 1  
    63   61   62 1  
    64   62   63 1  
    65   62   65 1  
    66   63   64 2  
    67   63   66 am 
    68   66   67 1  
    69   67   68 1  
    70   67   70 1  
    71   68   69 ar 
    72   68   75 ar 
    73   70   71 1  
    74   71   72 1  
    75   72   73 ar 
    76   72   74 ar 
    77    1   76 1  
    78    1   77 1  
    79    1   78 1  
    80    2   79 1  
    81    5   80 1  
    82    5   81 1  
    83    6   82 1  
    84    6   83 1  
    85    7   84 1  
    86    7   85 1  
    87    8   86 1  
    88   10   87 1  
    89   10   88 1  
    90   11   89 1  
    91   11   90 1  
    92   12   91 1  
    93   13   92 1  
    94   16   93 1  
    95   16   94 1  
    96   17   95 1  
    97   17   96 1  
    98   18   97 1  
    99   18   98 1  
   100   19   99 1  
   101   21  100 1  
   102   21  101 1  
   103   22  102 1  
   104   22  103 1  
   105   24  104 1  
   106   27  105 1  
   107   27  106 1  
   108   28  107 1  
   109   28  108 1  
   110   29  109 1  
   111   29  110 1  
   112   30  111 1  
   113   31  112 1  
   114   34  113 1  
   115   34  114 1  
   116   35  115 1  
   117   35  116 1  
   118   39  117 1  
   119   40  118 1  
   120   41  119 1  
   121   41  120 1  
   122   49  121 1  
   123   50  122 1  
   124   53  123 1  
   125   53  124 1  
   126   53  125 1  
   127   55  126 1  
   128   58  127 1  
   129   58  128 1  
   130   59  129 1  
   131   59  130 1  
   132   60  131 1  
   133   60  132 1  
   134   61  133 1  
   135   62  134 1  
   136   65  135 1  
   137   65  136 1  
   138   65  137 1  
   139   66  138 1  
   140   67  139 1  
   141   70  140 1  
   142   70  141 1  
   143   71  142 1  
   144   71  143 1  
@<TRIPOS>SUBSTRUCTURE
     1 ARG         1

