3qw5_ligand
  -I-interpret- 

 78 78  0  0  0  0  0  0  0  0999 V2000
   27.6380   27.5060   52.9170 N   0  3  0  0  0
   27.5490   26.0210   52.9390 C   0  0  0  0  0
   26.5170   25.5690   53.9700 C   0  0  0  0  0
   26.3290   26.2110   55.0020 O   0  0  0  0  0
   28.9140   25.4070   53.2840 C   0  0  0  0  0
   30.0330   25.7970   52.3260 C   0  0  0  0  0
   31.2680   24.9320   52.5370 C   0  0  0  0  0
   32.3250   25.2120   51.5640 N   0  0  0  0  0
   33.1760   26.2320   51.6460 C   0  0  0  0  0
   33.1040   27.0800   52.6620 N   0  0  0  0  0
   34.1040   26.4020   50.7100 N   0  0  0  0  0
   25.8530   24.4590   53.6690 N   0  0  0  0  0
   24.8320   23.8850   54.5350 C   0  0  0  0  0
   25.3960   23.2960   55.8210 C   0  0  0  0  0
   24.7730   23.3950   56.8750 O   0  0  0  0  0
   24.0750   22.7970   53.7740 C   0  0  0  0  0
   23.0340   23.2860   52.7890 C   0  0  0  0  0
   21.7110   23.4860   53.4980 C   0  0  0  0  0
   21.4170   22.3480   54.3680 N   0  0  0  0  0
   20.2500   22.1310   54.9640 C   0  0  0  0  0
   19.2440   22.9740   54.7870 N   0  0  0  0  0
   20.0910   21.0670   55.7400 N   0  0  0  0  0
   26.5690   22.6800   55.7200 N   0  0  0  0  0
   27.1840   22.0790   56.8910 C   0  0  0  0  0
   26.6120   20.7000   57.2150 C   0  0  0  0  0
   25.9370   20.0980   56.3480 O   0  0  0  0  0
   26.8590   20.2010   58.4350 N   0  0  0  0  0
   26.3640   18.8770   58.8290 C   0  0  0  0  0
   24.8540   18.8270   59.0820 C   0  0  0  0  0
   24.2610   17.7440   58.8590 O   0  0  0  0  0
   27.0990   18.3740   60.0640 C   0  0  0  0  0
   28.5820   18.2000   59.8580 C   0  0  0  0  0
   29.4670   19.2160   60.1960 C   0  0  0  0  0
   29.0880   17.0380   59.2880 C   0  0  0  0  0
   30.8400   19.0790   59.9670 C   0  0  0  0  0
   30.4510   16.8880   59.0530 C   0  0  0  0  0
   31.3320   17.9130   59.3940 C   0  0  0  0  0
   24.1870   19.9460   59.5490 N   0  0  0  0  0
   26.7244   27.8968   52.6867 H   0  0  0  0  0
   27.9311   27.8415   53.8346 H   0  0  0  0  0
   28.3193   27.7942   52.2147 H   0  0  0  0  0
   27.2438   25.6826   51.9488 H   0  0  0  0  0
   28.8038   24.3241   53.2267 H   0  0  0  0  0
   29.1925   25.7752   54.2714 H   0  0  0  0  0
   30.3018   26.8369   52.5113 H   0  0  0  0  0
   29.6804   25.6553   51.3044 H   0  0  0  0  0
   30.9714   23.8898   52.4191 H   0  0  0  0  0
   31.6616   25.1464   53.5306 H   0  0  0  0  0
   32.4157   24.5814   50.7675 H   0  0  0  0  0
   32.3949   26.9519   53.3839 H   0  0  0  0  0
   34.7572   27.1827   50.7753 H   0  0  0  0  0
   34.1630   25.7518   49.9263 H   0  0  0  0  0
   26.0678   23.9866   52.7909 H   0  0  0  0  0
   24.1664   24.6992   54.8215 H   0  0  0  0  0
   23.5403   22.2124   54.5227 H   0  0  0  0  0
   24.8191   22.2537   53.1916 H   0  0  0  0  0
   22.9108   22.5463   51.9980 H   0  0  0  0  0
   23.3602   24.2337   52.3607 H   0  0  0  0  0
   20.9205   23.5747   52.7528 H   0  0  0  0  0
   21.7683   24.3895   54.1051 H   0  0  0  0  0
   22.1629   21.6712   54.5290 H   0  0  0  0  0
   19.3639   23.7933   54.1913 H   0  0  0  0  0
   19.1955   20.8996   56.1988 H   0  0  0  0  0
   20.8642   20.4162   55.8779 H   0  0  0  0  0
   27.0396   22.6289   54.8165 H   0  0  0  0  0
   26.9895   22.7306   57.7429 H   0  0  0  0  0
   28.2481   21.9604   56.6865 H   0  0  0  0  0
   27.4007   20.7517   59.1011 H   0  0  0  0  0
   26.5635   18.2275   57.9767 H   0  0  0  0  0
   26.6875   17.3956   60.3121 H   0  0  0  0  0
   26.9642   19.1181   60.8490 H   0  0  0  0  0
   29.0861   20.1328   60.6460 H   0  0  0  0  0
   28.4059   16.2309   59.0207 H   0  0  0  0  0
   31.5222   19.8850   60.2374 H   0  0  0  0  0
   30.8295   15.9703   58.6029 H   0  0  0  0  0
   32.4008   17.8003   59.2121 H   0  0  0  0  0
   23.1826   19.9057   59.7223 H   0  0  0  0  0
   24.6997   20.8110   59.7199 H   0  0  0  0  0
  1  2  1  0  0  0
  2  3  1  0  0  0
  2  5  1  0  0  0
  3  4  2  0  0  0
  3 12  1  0  0  0
  5  6  1  0  0  0
  6  7  1  0  0  0
  7  8  1  0  0  0
  8  9  1  0  0  0
  9 10  2  0  0  0
  9 11  1  0  0  0
 12 13  1  0  0  0
 13 14  1  0  0  0
 13 16  1  0  0  0
 14 15  2  0  0  0
 14 23  1  0  0  0
 16 17  1  0  0  0
 17 18  1  0  0  0
 18 19  1  0  0  0
 19 20  1  0  0  0
 20 21  2  0  0  0
 20 22  1  0  0  0
 23 24  1  0  0  0
 24 25  1  0  0  0
 25 26  2  0  0  0
 25 27  1  0  0  0
 27 28  1  0  0  0
 28 29  1  0  0  0
 28 31  1  0  0  0
 29 30  2  0  0  0
 29 38  1  0  0  0
 31 32  1  0  0  0
 32 33  4  0  0  0
 32 34  4  0  0  0
 33 35  4  0  0  0
 34 36  4  0  0  0
 35 37  4  0  0  0
 36 37  4  0  0  0
  1 39  1  0  0  0
  1 40  1  0  0  0
  1 41  1  0  0  0
  2 42  1  0  0  0
  5 43  1  0  0  0
  5 44  1  0  0  0
  6 45  1  0  0  0
  6 46  1  0  0  0
  7 47  1  0  0  0
  7 48  1  0  0  0
  8 49  1  0  0  0
 10 50  1  0  0  0
 11 51  1  0  0  0
 11 52  1  0  0  0
 12 53  1  0  0  0
 13 54  1  0  0  0
 16 55  1  0  0  0
 16 56  1  0  0  0
 17 57  1  0  0  0
 17 58  1  0  0  0
 18 59  1  0  0  0
 18 60  1  0  0  0
 19 61  1  0  0  0
 21 62  1  0  0  0
 22 63  1  0  0  0
 22 64  1  0  0  0
 23 65  1  0  0  0
 24 66  1  0  0  0
 24 67  1  0  0  0
 27 68  1  0  0  0
 28 69  1  0  0  0
 31 70  1  0  0  0
 31 71  1  0  0  0
 33 72  1  0  0  0
 34 73  1  0  0  0
 35 74  1  0  0  0
 36 75  1  0  0  0
 37 76  1  0  0  0
 38 77  1  0  0  0
 38 78  1  0  0  0
M  END
$$$$
