5lpl_ligand
  -I-interpret- 

 48 50  0  0  0  0  0  0  0  0999 V2000
   99.1870  -34.5490   21.2640 N   0  0  0  0  0
  101.3040  -40.4680   19.1230 C   0  0  0  0  0
  102.4940  -40.0490   19.6880 C   0  0  0  0  0
  102.4620  -39.3770   20.8850 C   0  0  0  0  0
  101.2720  -39.1300   21.5360 C   0  0  0  0  0
  100.0680  -39.5610   20.9790 C   0  0  0  0  0
   98.9010  -36.8980   21.5410 C   0  0  0  0  0
   98.7270  -35.7160   24.7630 C   0  0  0  0  0
   99.0530  -33.5790   23.2640 C   0  0  0  0  0
   98.2380  -32.4910   25.4630 C   0  0  0  0  0
   99.5230  -31.3610   23.8530 O   0  0  0  0  0
   98.9880  -32.4230   24.1690 C   0  0  0  0  0
   99.4800  -32.0830   21.1380 C   0  0  0  0  0
   99.2270  -33.3440   21.9030 C   0  0  0  0  0
   99.9890  -35.7770   25.5990 C   0  0  0  0  0
   98.8420  -36.9910   20.3200 O   0  0  0  0  0
   99.0360  -35.5680   22.1690 C   0  0  0  0  0
   98.7970  -39.3070   21.7730 C   0  0  0  0  0
  100.0810  -40.2290   19.7480 C   0  0  0  0  0
   98.7990  -40.6760   19.0930 C   0  0  0  0  0
   97.6510  -40.7830   20.0830 C   0  0  0  0  0
   98.9300  -35.0040   23.4520 C   0  0  0  0  0
   98.8190  -37.9670   22.3450 N   0  0  0  0  0
   97.5510  -39.5040   20.8930 C   0  0  0  0  0
   96.3870  -39.5330   21.7200 O   0  0  0  0  0
  103.9510  -38.8040   21.5890 Cl  0  0  0  0  0
  101.3223  -40.9959   18.1696 H   0  0  0  0  0
  103.4432  -40.2490   19.1909 H   0  0  0  0  0
  101.2721  -38.5973   22.4870 H   0  0  0  0  0
   97.9771  -35.1644   25.3300 H   0  0  0  0  0
   98.4219  -36.7392   24.5436 H   0  0  0  0  0
   98.9156  -32.2654   26.2865 H   0  0  0  0  0
   97.4259  -31.7641   25.4494 H   0  0  0  0  0
   97.8284  -33.4929   25.5919 H   0  0  0  0  0
  100.4508  -32.1464   20.6464 H   0  0  0  0  0
   98.6996  -31.9515   20.3885 H   0  0  0  0  0
   99.4733  -31.2359   21.8239 H   0  0  0  0  0
  100.7637  -36.3089   25.0468 H   0  0  0  0  0
  100.3275  -34.7643   25.8181 H   0  0  0  0  0
   99.7806  -36.3015   26.5315 H   0  0  0  0  0
   98.7493  -40.0308   22.5866 H   0  0  0  0  0
   98.9663  -41.6630   18.6618 H   0  0  0  0  0
   98.5281  -39.9354   18.3405 H   0  0  0  0  0
   97.8311  -41.6222   20.7548 H   0  0  0  0  0
   96.7193  -40.9394   19.5393 H   0  0  0  0  0
   98.7720  -37.8428   23.3563 H   0  0  0  0  0
   97.4819  -38.6709   20.1935 H   0  0  0  0  0
   95.6089  -39.6559   21.1713 H   0  0  0  0  0
  1 14  4  0  0  0
 17  1  4  0  0  0
  2  3  4  0  0  0
 19  2  4  0  0  0
  4  3  4  0  0  0
  5  4  4  0  0  0
  4 26  1  0  0  0
  6  5  4  0  0  0
 18  6  1  0  0  0
  6 19  4  0  0  0
  7 16  2  0  0  0
  7 17  1  0  0  0
 23  7  1  0  0  0
  8 15  1  0  0  0
 22  8  1  0  0  0
  9 12  1  0  0  0
  9 14  4  0  0  0
 22  9  4  0  0  0
 12 10  1  0  0  0
 12 11  2  0  0  0
 14 13  1  0  0  0
 17 22  4  0  0  0
 18 23  1  0  0  0
 18 24  1  0  0  0
 19 20  1  0  0  0
 20 21  1  0  0  0
 21 24  1  0  0  0
 24 25  1  0  0  0
  2 27  1  0  0  0
  3 28  1  0  0  0
  5 29  1  0  0  0
  8 30  1  0  0  0
  8 31  1  0  0  0
 10 32  1  0  0  0
 10 33  1  0  0  0
 10 34  1  0  0  0
 13 35  1  0  0  0
 13 36  1  0  0  0
 13 37  1  0  0  0
 15 38  1  0  0  0
 15 39  1  0  0  0
 15 40  1  0  0  0
 18 41  1  0  0  0
 20 42  1  0  0  0
 20 43  1  0  0  0
 21 44  1  0  0  0
 21 45  1  0  0  0
 23 46  1  0  0  0
 24 47  1  0  0  0
 25 48  1  0  0  0
M  END
$$$$
