3w2s_ligand
  -I-interpret- 

 73 77  0  0  0  0  0  0  0  0999 V2000
    7.3170    4.6510    7.2570 C   0  0  0  0  0
    6.0730    4.8240    6.6950 C   0  0  0  0  0
    5.9920    1.1650   11.2350 C   0  0  0  0  0
    7.7200    3.3840    7.6270 C   0  0  0  0  0
    6.2520    1.5790    9.9470 C   0  0  0  0  0
    8.3250   -1.4620   17.1090 C   0  0  0  0  0
    5.6160    2.4880    6.8580 C   0  0  0  0  0
    7.0150   -0.9560   10.7700 C   0  0  0  0  0
    7.0010   -1.8240   17.1680 C   0  0  0  0  0
    9.5940   -0.0680   14.0500 C   0  0  0  0  0
    8.5660   -0.9470   15.8110 C   0  0  0  0  0
    7.3830   -0.9980   15.0920 C   0  0  0  0  0
    5.2180    3.7600    6.4970 C   0  0  0  0  0
    6.3790   -0.1030   11.6520 C   0  0  0  0  0
    6.8570    2.3270    7.4250 C   0  0  0  0  0
    6.9030    0.7120    9.0860 C   0  0  0  0  0
    7.2720   -0.5470    9.4860 C   0  0  0  0  0
    7.3340   -0.5620   13.7760 C   0  0  0  0  0
    2.8990    3.1250    6.1010 C   0  0  0  0  0
   -1.9640    2.0650    4.3190 C   0  0  0  0  0
   -0.7930    1.1360    4.5380 C   0  0  0  0  0
   -1.9500    3.2040    5.3170 C   0  0  0  0  0
    0.5170    1.9020    4.4730 C   0  0  0  0  0
   -0.6270    3.9430    5.2800 C   0  0  0  0  0
    0.5200    2.9830    5.5380 C   0  0  0  0  0
    5.0420   -1.8330   15.6810 C   0  0  0  0  0
    4.1150   -0.6950   16.1030 C   0  0  0  0  0
    3.2150    1.9740   13.9120 C   0  0  0  0  0
    3.3640    1.3260   15.2570 C   0  0  0  0  0
    9.7240   -0.4730   15.3180 N   0  0  0  0  0
    8.5000   -0.0970   13.2880 N   0  0  0  0  0
    6.4460   -1.5330   15.9510 N   0  0  0  0  0
    6.1650   -0.5630   12.9540 N   0  0  0  0  0
    3.9710    3.9730    5.9170 N   0  0  0  0  0
    1.7670    3.7130    5.6040 N   0  0  0  0  0
    2.9310    1.9970    6.5960 O   0  0  0  0  0
    2.4280    1.1120   13.1130 O   0  0  0  0  0
    7.2340    1.0460    7.7850 O   0  0  0  0  0
    4.2700    0.2510   15.0550 O   0  0  0  0  0
    8.0750   -1.5550    8.3270 Cl  0  0  0  0  0
    7.9769    5.5053    7.4083 H   0  0  0  0  0
    5.7562    5.8243    6.3997 H   0  0  0  0  0
    5.4817    1.8334   11.9285 H   0  0  0  0  0
    8.7022    3.2215    8.0707 H   0  0  0  0  0
    5.9506    2.5714    9.6118 H   0  0  0  0  0
    9.0556   -1.5540   17.9127 H   0  0  0  0  0
    4.9610    1.6318    6.6969 H   0  0  0  0  0
    7.3123   -1.9532   11.0944 H   0  0  0  0  0
    6.4880   -2.2615   18.0245 H   0  0  0  0  0
   10.4922    0.3351   13.5822 H   0  0  0  0  0
   -2.8869    1.4995    4.4479 H   0  0  0  0  0
   -1.8961    2.4810    3.3138 H   0  0  0  0  0
   -0.7958    0.3745    3.7581 H   0  0  0  0  0
   -0.8854    0.6775    5.5226 H   0  0  0  0  0
   -2.0938    2.7944    6.3168 H   0  0  0  0  0
   -2.7475    3.9019    5.0621 H   0  0  0  0  0
    0.6237    2.3590    3.4892 H   0  0  0  0  0
    1.3482    1.2182    4.6452 H   0  0  0  0  0
   -0.6275    4.7125    6.0520 H   0  0  0  0  0
   -0.4989    4.3943    4.2961 H   0  0  0  0  0
    0.3982    2.4877    6.5013 H   0  0  0  0  0
    4.9282   -1.9815   14.6072 H   0  0  0  0  0
    4.7698   -2.7206   16.2522 H   0  0  0  0  0
    4.3677   -0.2859   17.0812 H   0  0  0  0  0
    3.0817   -1.0179   16.2303 H   0  0  0  0  0
    4.1913    2.1342   13.4545 H   0  0  0  0  0
    2.7369    2.9488   14.0081 H   0  0  0  0  0
    2.4063    0.9771   15.6432 H   0  0  0  0  0
    3.7347    2.0291   16.0029 H   0  0  0  0  0
    5.2528   -0.8729   13.2889 H   0  0  0  0  0
    3.8438    4.7957    5.3276 H   0  0  0  0  0
    1.8034    4.6782    5.2761 H   0  0  0  0  0
    2.3139    1.5000   12.2423 H   0  0  0  0  0
  1  2  4  0  0  0
  4  1  4  0  0  0
 13  2  4  0  0  0
  3  5  4  0  0  0
 14  3  4  0  0  0
 15  4  4  0  0  0
  5 16  4  0  0  0
  9  6  4  0  0  0
 11  6  4  0  0  0
  7 13  4  0  0  0
 15  7  4  0  0  0
 14  8  4  0  0  0
  8 17  4  0  0  0
 32  9  4  0  0  0
 30 10  4  0  0  0
 31 10  4  0  0  0
 12 11  4  0  0  0
 11 30  4  0  0  0
 12 18  4  0  0  0
 32 12  4  0  0  0
 13 34  1  0  0  0
 33 14  1  0  0  0
 38 15  1  0  0  0
 17 16  4  0  0  0
 16 38  1  0  0  0
 17 40  1  0  0  0
 18 31  4  0  0  0
 18 33  1  0  0  0
 34 19  1  0  0  0
 19 35  1  0  0  0
 19 36  2  0  0  0
 21 20  1  0  0  0
 22 20  1  0  0  0
 23 21  1  0  0  0
 24 22  1  0  0  0
 25 23  1  0  0  0
 25 24  1  0  0  0
 35 25  1  0  0  0
 27 26  1  0  0  0
 26 32  1  0  0  0
 39 27  1  0  0  0
 29 28  1  0  0  0
 28 37  1  0  0  0
 29 39  1  0  0  0
  1 41  1  0  0  0
  2 42  1  0  0  0
  3 43  1  0  0  0
  4 44  1  0  0  0
  5 45  1  0  0  0
  6 46  1  0  0  0
  7 47  1  0  0  0
  8 48  1  0  0  0
  9 49  1  0  0  0
 10 50  1  0  0  0
 20 51  1  0  0  0
 20 52  1  0  0  0
 21 53  1  0  0  0
 21 54  1  0  0  0
 22 55  1  0  0  0
 22 56  1  0  0  0
 23 57  1  0  0  0
 23 58  1  0  0  0
 24 59  1  0  0  0
 24 60  1  0  0  0
 25 61  1  0  0  0
 26 62  1  0  0  0
 26 63  1  0  0  0
 27 64  1  0  0  0
 27 65  1  0  0  0
 28 66  1  0  0  0
 28 67  1  0  0  0
 29 68  1  0  0  0
 29 69  1  0  0  0
 33 70  1  0  0  0
 34 71  1  0  0  0
 35 72  1  0  0  0
 37 73  1  0  0  0
M  END
$$$$
