3ekn_ligand
  -I-interpret- 

 69 73  0  0  0  0  0  0  0  0999 V2000
   -0.1160   19.8720   20.5510 C   0  0  0  0  0
    1.1320   19.6690   19.8980 O   0  0  0  0  0
    2.1620   19.9550   20.7960 C   0  0  0  0  0
    1.9380   20.0890   22.1500 C   0  0  0  0  0
    2.9770   20.3930   23.0060 C   0  0  0  0  0
    4.2390   20.5370   22.4590 C   0  0  0  0  0
    4.4710   20.3870   21.1080 C   0  0  0  0  0
    3.4240   20.0980   20.2550 C   0  0  0  0  0
    3.5460   19.9380   18.8540 N   0  0  0  0  0
    4.5960   20.3360   18.0130 C   0  0  0  0  0
    5.5630   21.1190   18.5050 N   0  0  0  0  0
    6.5870   21.4970   17.7270 C   0  0  0  0  0
    7.6380   22.3170   18.1720 N   0  0  0  0  0
    7.8220   22.8100   19.4740 C   0  0  0  0  0
    6.7660   23.1650   20.2890 C   0  0  0  0  0
    6.9930   23.6530   21.5570 C   0  0  0  0  0
    8.2760   23.7990   22.0410 C   0  0  0  0  0
    9.3380   23.4520   21.2340 C   0  0  0  0  0
   10.6180   23.5780   21.6590 F   0  0  0  0  0
    9.1010   22.9680   19.9660 C   0  0  0  0  0
   10.2740   22.6070   19.1560 C   0  0  0  0  0
   10.3760   22.9480   17.9880 O   0  0  0  0  0
   11.1900   21.8690   19.8610 N   0  0  0  0  0
    6.6000   21.0560   16.4150 C   0  0  0  0  0
    7.4660   21.2280   15.3050 C   0  0  0  0  0
    6.9240   20.5330   14.2520 C   0  0  0  0  0
    5.7700   19.9490   14.6840 N   0  0  0  0  0
    5.5610   20.2590   16.0010 C   0  0  0  0  0
    4.5360   19.8650   16.7570 N   0  0  0  0  0
    2.7470   20.5310   24.3950 N   0  0  0  0  0
    3.9970   20.4540   25.1270 C   0  0  0  0  0
    3.6580   20.1650   26.5660 C   0  0  0  0  0
    2.8420   21.3040   27.0630 N   0  3  0  0  0
    1.6210   21.5860   26.2310 C   0  0  0  0  0
    1.9850   21.7250   24.7590 C   0  0  0  0  0
    2.5960   21.2030   28.5410 C   0  0  0  0  0
    3.9100   21.3890   29.2750 C   0  0  0  0  0
    1.7140   22.3510   28.9620 C   0  0  0  0  0
   -0.1844   19.2108   21.4149 H   0  0  0  0  0
   -0.1886   20.9090   20.8789 H   0  0  0  0  0
   -0.9275   19.6511   19.8577 H   0  0  0  0  0
    0.9321   19.9537   22.5475 H   0  0  0  0  0
    5.0755   20.7763   23.1156 H   0  0  0  0  0
    5.4811   20.4966   20.7132 H   0  0  0  0  0
    2.7652   19.4702   18.3937 H   0  0  0  0  0
    8.3383   22.5809   17.4789 H   0  0  0  0  0
    5.7437   23.0583   19.9261 H   0  0  0  0  0
    6.1467   23.9276   22.1866 H   0  0  0  0  0
    8.4476   24.1830   23.0466 H   0  0  0  0  0
   12.0487   21.5551   19.4088 H   0  0  0  0  0
   11.0126   21.6340   20.8376 H   0  0  0  0  0
    8.3906   21.8050   15.2905 H   0  0  0  0  0
    7.3424   20.4609   13.2481 H   0  0  0  0  0
    4.5469   21.3915   25.0445 H   0  0  0  0  0
    4.6317   19.6677   24.7183 H   0  0  0  0  0
    4.5656   20.0554   27.1595 H   0  0  0  0  0
    3.1033   19.2304   26.6493 H   0  0  0  0  0
    3.3998   22.1485   26.9365 H   0  0  0  0  0
    1.1741   22.5203   26.5708 H   0  0  0  0  0
    0.9226   20.7566   26.3420 H   0  0  0  0  0
    1.0883   21.8132   24.1457 H   0  0  0  0  0
    2.5744   22.6262   24.5899 H   0  0  0  0  0
    2.1439   20.2369   28.7654 H   0  0  0  0  0
    4.6108   20.6139   28.9649 H   0  0  0  0  0
    4.3221   22.3696   29.0368 H   0  0  0  0  0
    3.7382   21.3168   30.3489 H   0  0  0  0  0
    2.2115   23.2931   28.7318 H   0  0  0  0  0
    0.7679   22.2971   28.4234 H   0  0  0  0  0
    1.5272   22.2898   30.0341 H   0  0  0  0  0
  1  2  1  0  0  0
  2  3  1  0  0  0
  3  4  4  0  0  0
  3  8  4  0  0  0
  4  5  4  0  0  0
  5  6  4  0  0  0
  5 30  1  0  0  0
  6  7  4  0  0  0
  7  8  4  0  0  0
  8  9  1  0  0  0
  9 10  1  0  0  0
 10 11  4  0  0  0
 10 29  4  0  0  0
 11 12  4  0  0  0
 12 13  1  0  0  0
 12 24  4  0  0  0
 13 14  1  0  0  0
 14 15  4  0  0  0
 14 20  4  0  0  0
 15 16  4  0  0  0
 16 17  4  0  0  0
 17 18  4  0  0  0
 18 19  1  0  0  0
 18 20  4  0  0  0
 20 21  1  0  0  0
 21 22  2  0  0  0
 21 23  1  0  0  0
 24 25  4  0  0  0
 24 28  4  0  0  0
 25 26  4  0  0  0
 26 27  4  0  0  0
 27 28  4  0  0  0
 28 29  4  0  0  0
 30 31  1  0  0  0
 30 35  1  0  0  0
 31 32  1  0  0  0
 32 33  1  0  0  0
 33 34  1  0  0  0
 33 36  1  0  0  0
 34 35  1  0  0  0
 36 37  1  0  0  0
 36 38  1  0  0  0
  1 39  1  0  0  0
  1 40  1  0  0  0
  1 41  1  0  0  0
  4 42  1  0  0  0
  6 43  1  0  0  0
  7 44  1  0  0  0
  9 45  1  0  0  0
 13 46  1  0  0  0
 15 47  1  0  0  0
 16 48  1  0  0  0
 17 49  1  0  0  0
 23 50  1  0  0  0
 23 51  1  0  0  0
 25 52  1  0  0  0
 26 53  1  0  0  0
 31 54  1  0  0  0
 31 55  1  0  0  0
 32 56  1  0  0  0
 32 57  1  0  0  0
 33 58  1  0  0  0
 34 59  1  0  0  0
 34 60  1  0  0  0
 35 61  1  0  0  0
 35 62  1  0  0  0
 36 63  1  0  0  0
 37 64  1  0  0  0
 37 65  1  0  0  0
 37 66  1  0  0  0
 38 67  1  0  0  0
 38 68  1  0  0  0
 38 69  1  0  0  0
M  END
$$$$
