4k60_ligand
  -I-interpret- 

 17 18  0  0  0  0  0  0  0  0999 V2000
   60.2820   59.6300    0.8270 O   0  0  0  0  0
   61.0290   59.9010   -0.0970 C   0  0  0  0  0
   61.7980   58.9100   -0.9320 C   0  0  0  0  0
   61.3400   61.1320   -0.5610 N   0  0  0  0  0
   62.2290   61.0790   -1.6390 C   0  0  0  0  0
   62.7940   62.0950   -2.4180 C   0  0  0  0  0
   63.6630   61.7560   -3.4410 C   0  0  0  0  0
   64.4420   63.1070   -4.5150 Br  0  0  0  0  0
   62.5570   59.7580   -1.9240 C   0  0  0  0  0
   63.4290   59.4350   -2.9380 C   0  0  0  0  0
   63.9910   60.4420   -3.7030 C   0  0  0  0  0
   61.1400   58.1949   -1.4257 H   0  0  0  0  0
   62.4643   58.2960   -0.3261 H   0  0  0  0  0
   60.9695   61.9983   -0.1704 H   0  0  0  0  0
   62.5530   63.1398   -2.2219 H   0  0  0  0  0
   63.6757   58.3922   -3.1376 H   0  0  0  0  0
   64.6870   60.1989   -4.5059 H   0  0  0  0  0
  1  2  2  0  0  0
  2  3  1  0  0  0
  2  4  1  0  0  0
  3  9  1  0  0  0
  4  5  1  0  0  0
  5  6  4  0  0  0
  5  9  4  0  0  0
  6  7  4  0  0  0
  7  8  1  0  0  0
  7 11  4  0  0  0
  9 10  4  0  0  0
 10 11  4  0  0  0
  3 12  1  0  0  0
  3 13  1  0  0  0
  4 14  1  0  0  0
  6 15  1  0  0  0
 10 16  1  0  0  0
 11 17  1  0  0  0
M  END
$$$$
