3vhu_ligand
  -I-interpret- 

 61 65  0  0  0  0  0  0  0  0999 V2000
   20.4060   11.1410   -0.7490 C   0  0  0  0  0
   17.3590   13.2880   -0.1940 C   0  0  0  0  0
   18.7590   12.9370   -0.6750 C   0  0  0  0  0
   18.3130   16.2810    2.1040 C   0  0  0  0  0
   19.6550   12.9910    0.5530 C   0  0  0  0  0
   16.9060   16.5190    2.6230 C   0  0  0  0  0
   17.3460   14.6820    0.4020 C   0  0  0  0  0
   20.9110   12.2480    0.1590 C   0  0  0  0  0
   18.9730   11.4990   -1.1290 C   0  0  0  0  0
   19.1930   13.8800   -1.8060 C   0  0  0  0  0
   18.6600   17.3230    1.0510 C   0  0  0  0  0
   16.8240   17.8240    3.3910 C   0  0  0  0  0
   17.9430   10.5560   -0.5400 C   0  0  0  0  0
   16.9540   10.3230   -1.6410 C   0  0  0  0  0
   17.6710   10.8220   -2.8470 C   0  0  0  0  0
   21.5980   13.1350    4.7090 C   0  0  0  0  0
   21.5090   12.0230    5.7000 C   0  0  0  0  0
   17.8070   17.8040    4.5130 C   0  0  0  0  0
   19.1280   17.1700    4.3110 C   0  0  0  0  0
   19.3290   16.4630    3.1890 C   0  0  0  0  0
   20.6780   15.8510    2.9930 C   0  0  0  0  0
   20.6810   14.4600    2.3750 C   0  0  0  0  0
   19.7570   14.3820    1.1650 C   0  0  0  0  0
   18.3460   14.8470    1.5510 C   0  0  0  0  0
   17.2450   10.7610   -3.9800 O   0  0  0  0  0
   18.8750   11.3500   -2.5300 O   0  0  0  0  0
   22.5820   13.8560    4.6720 O   0  0  0  0  0
   17.5680   18.3570    5.5730 O   0  0  0  0  0
   20.1680   13.3110    3.6740 S   0  0  0  0  0
   20.4421   10.1774   -0.2409 H   0  0  0  0  0
   21.0315   11.0540   -1.6374 H   0  0  0  0  0
   17.0525   12.5709    0.5675 H   0  0  0  0  0
   16.6718   13.2544   -1.0394 H   0  0  0  0  0
   19.2492   12.4836    1.4282 H   0  0  0  0  0
   16.6371   15.7017    3.2922 H   0  0  0  0  0
   16.2239   16.5691    1.7743 H   0  0  0  0  0
   16.3479   14.8652    0.7998 H   0  0  0  0  0
   17.6234   15.3836   -0.3847 H   0  0  0  0  0
   21.6369   12.8928   -0.3364 H   0  0  0  0  0
   21.4534   11.8622    1.0222 H   0  0  0  0  0
   20.2468   13.7150   -2.0307 H   0  0  0  0  0
   18.5949   13.6788   -2.6947 H   0  0  0  0  0
   19.0445   14.9134   -1.4928 H   0  0  0  0  0
   18.6005   18.3178    1.4926 H   0  0  0  0  0
   19.6717   17.1460    0.6861 H   0  0  0  0  0
   17.9555   17.2491    0.2226 H   0  0  0  0  0
   15.8179   17.9468    3.7919 H   0  0  0  0  0
   17.0530   18.6538    2.7224 H   0  0  0  0  0
   17.4686   10.9789    0.3456 H   0  0  0  0  0
   18.3961    9.6244   -0.2010 H   0  0  0  0  0
   16.0059   10.8336   -1.4720 H   0  0  0  0  0
   16.6577    9.2777   -1.7283 H   0  0  0  0  0
   22.3330   11.3278    5.5391 H   0  0  0  0  0
   21.5683   12.4315    6.7088 H   0  0  0  0  0
   20.5609   11.5003    5.5734 H   0  0  0  0  0
   19.9179   17.2746    5.0548 H   0  0  0  0  0
   21.1216   15.7521    3.9837 H   0  0  0  0  0
   21.2163   16.4996    2.3018 H   0  0  0  0  0
   21.6750   14.2065    2.0065 H   0  0  0  0  0
   20.2009   15.0350    0.4136 H   0  0  0  0  0
   18.0364   14.1873    2.3616 H   0  0  0  0  0
  8  1  1  0  0  0
  1  9  1  0  0  0
  3  2  1  0  0  0
  2  7  1  0  0  0
  5  3  1  0  0  0
  3  9  1  0  0  0
  3 10  1  0  0  0
  4  6  1  0  0  0
  4 11  1  0  0  0
 20  4  1  0  0  0
  4 24  1  0  0  0
  5  8  1  0  0  0
 23  5  1  0  0  0
  6 12  1  0  0  0
 24  7  1  0  0  0
  9 13  1  0  0  0
  9 26  1  0  0  0
 18 12  1  0  0  0
 13 14  1  0  0  0
 15 14  1  0  0  0
 15 25  2  0  0  0
 26 15  1  0  0  0
 16 17  1  0  0  0
 16 27  2  0  0  0
 29 16  1  0  0  0
 19 18  1  0  0  0
 18 28  2  0  0  0
 20 19  2  0  0  0
 21 20  1  0  0  0
 22 21  1  0  0  0
 22 23  1  0  0  0
 22 29  1  0  0  0
 23 24  1  0  0  0
  1 30  1  0  0  0
  1 31  1  0  0  0
  2 32  1  0  0  0
  2 33  1  0  0  0
  5 34  1  0  0  0
  6 35  1  0  0  0
  6 36  1  0  0  0
  7 37  1  0  0  0
  7 38  1  0  0  0
  8 39  1  0  0  0
  8 40  1  0  0  0
 10 41  1  0  0  0
 10 42  1  0  0  0
 10 43  1  0  0  0
 11 44  1  0  0  0
 11 45  1  0  0  0
 11 46  1  0  0  0
 12 47  1  0  0  0
 12 48  1  0  0  0
 13 49  1  0  0  0
 13 50  1  0  0  0
 14 51  1  0  0  0
 14 52  1  0  0  0
 17 53  1  0  0  0
 17 54  1  0  0  0
 17 55  1  0  0  0
 19 56  1  0  0  0
 21 57  1  0  0  0
 21 58  1  0  0  0
 22 59  1  0  0  0
 23 60  1  0  0  0
 24 61  1  0  0  0
M  END
$$$$
