3gy7_ligand
  -I-interpret- 

 17 17  0  0  0  0  0  0  0  0999 V2000
   -1.8340   14.0880   16.4010 C   0  0  0  0  0
   -1.2040   13.4690   17.4820 C   0  0  0  0  0
   -0.8720   14.1820   18.6280 C   0  0  0  0  0
   -1.1670   15.5370   18.7190 C   0  0  0  0  0
   -1.7900   16.1650   17.6420 C   0  0  0  0  0
   -2.1330   15.4490   16.4910 C   0  0  0  0  0
   -2.1740   13.3630   15.2370 C   0  0  0  0  0
   -2.9450   13.8830   14.3060 N   0  0  0  0  0
   -1.7370   12.1440   15.0050 N   0  0  0  0  0
   -0.9679   12.4063   17.4263 H   0  0  0  0  0
   -0.3786   13.6766   19.4582 H   0  0  0  0  0
   -0.9152   16.0995   19.6181 H   0  0  0  0  0
   -2.0132   17.2304   17.6978 H   0  0  0  0  0
   -2.6336   15.9531   15.6643 H   0  0  0  0  0
   -3.1685   13.3442   13.4693 H   0  0  0  0  0
   -3.3191   14.8249   14.4211 H   0  0  0  0  0
   -2.0005   11.6628   14.1451 H   0  0  0  0  0
  1  2  4  0  0  0
  1  6  4  0  0  0
  1  7  1  0  0  0
  2  3  4  0  0  0
  3  4  4  0  0  0
  4  5  4  0  0  0
  5  6  4  0  0  0
  7  8  1  0  0  0
  7  9  2  0  0  0
  2 10  1  0  0  0
  3 11  1  0  0  0
  4 12  1  0  0  0
  5 13  1  0  0  0
  6 14  1  0  0  0
  8 15  1  0  0  0
  8 16  1  0  0  0
  9 17  1  0  0  0
M  END
$$$$
