2xb9_ligand
  -I-interpret- 

 40 41  0  0  0  0  0  0  0  0999 V2000
  -25.7840   50.9720   20.0910 C   0  0  0  0  0
  -25.3440   49.6590   19.7320 O   0  0  0  0  0
  -25.3320   49.3550   18.3840 C   0  0  0  0  0
  -24.5500   48.3120   17.9120 C   0  0  0  0  0
  -24.5360   47.9630   16.5560 C   0  0  0  0  0
  -26.0870   50.0560   17.4450 C   0  0  0  0  0
  -26.0610   49.7220   16.0790 C   0  0  0  0  0
  -25.2670   48.6720   15.5990 C   0  0  0  0  0
  -25.2710   48.2810   14.0750 C   0  0  0  0  0
  -24.1480   48.7800   13.2100 C   0  0  0  0  0
  -22.9400   48.0570   13.6940 C   0  0  0  0  0
  -23.0620   47.1330   14.5070 O   0  0  0  0  0
  -21.6050   48.4160   12.9860 C   0  0  0  0  0
  -20.4790   47.7140   13.5780 O   0  0  0  0  0
  -21.8160   48.1050   11.4780 C   0  0  0  0  0
  -20.6560   48.4410   10.7520 O   0  0  0  0  0
  -23.0350   48.8630   10.9140 C   0  0  0  0  0
  -24.3000   48.4620   11.6770 C   0  0  0  0  0
  -25.4730   49.2550   11.1380 C   0  0  0  0  0
  -25.3330   50.4930   10.9930 O   0  0  0  0  0
  -26.5090   48.6050   10.9410 O   0  0  0  0  0
  -24.5540   47.0660   11.3660 O   0  0  0  0  0
  -25.1326   51.7119   19.6259 H   0  0  0  0  0
  -26.8072   51.1182   19.7449 H   0  0  0  0  0
  -25.7463   51.0828   21.1747 H   0  0  0  0  0
  -23.9318   47.7507   18.6126 H   0  0  0  0  0
  -23.9357   47.1111   16.2367 H   0  0  0  0  0
  -26.7132   50.8838   17.7777 H   0  0  0  0  0
  -26.6716   50.2921   15.3788 H   0  0  0  0  0
  -26.1731   48.7347   13.6645 H   0  0  0  0  0
  -25.1862   47.1944   14.0571 H   0  0  0  0  0
  -24.1134   49.8666   13.2887 H   0  0  0  0  0
  -21.3513   49.4689   13.1093 H   0  0  0  0  0
  -19.6729   47.9586   13.1175 H   0  0  0  0  0
  -22.0096   47.0372   11.3754 H   0  0  0  0  0
  -20.7941   48.2461    9.8222 H   0  0  0  0  0
  -23.1571   48.6121    9.8603 H   0  0  0  0  0
  -22.8736   49.9352   11.0258 H   0  0  0  0  0
  -24.4315   50.7398   11.2120 H   0  0  0  0  0
  -24.6329   46.9604   10.4151 H   0  0  0  0  0
  1  2  1  0  0  0
  2  3  1  0  0  0
  3  4  4  0  0  0
  3  6  4  0  0  0
  4  5  4  0  0  0
  5  8  4  0  0  0
  6  7  4  0  0  0
  7  8  4  0  0  0
  8  9  1  0  0  0
  9 10  1  0  0  0
 10 11  1  0  0  0
 10 18  1  0  0  0
 11 12  2  0  0  0
 11 13  1  0  0  0
 13 14  1  0  0  0
 13 15  1  0  0  0
 15 16  1  0  0  0
 15 17  1  0  0  0
 17 18  1  0  0  0
 18 19  1  0  0  0
 18 22  1  0  0  0
 19 20  1  0  0  0
 19 21  2  0  0  0
  1 23  1  0  0  0
  1 24  1  0  0  0
  1 25  1  0  0  0
  4 26  1  0  0  0
  5 27  1  0  0  0
  6 28  1  0  0  0
  7 29  1  0  0  0
  9 30  1  0  0  0
  9 31  1  0  0  0
 10 32  1  0  0  0
 13 33  1  0  0  0
 14 34  1  0  0  0
 15 35  1  0  0  0
 16 36  1  0  0  0
 17 37  1  0  0  0
 17 38  1  0  0  0
 20 39  1  0  0  0
 22 40  1  0  0  0
M  END
$$$$
