1w2g_ligand
  -I-interpret- 

 31 32  0  0  0  0  0  0  0  0999 V2000
   32.3410   25.9330   88.8560 O   0  0  0  0  0
   31.3360   26.4800   88.0450 C   0  0  0  0  0
   30.4990   25.3810   87.2800 C   0  0  0  0  0
   31.0250   24.7760   86.0910 O   0  0  0  0  0
   29.9540   24.0800   87.9600 C   0  0  0  0  0
   28.6030   23.5750   87.5180 O   0  0  0  0  0
   31.2300   23.2260   87.7370 C   0  0  0  0  0
   31.4830   23.4560   86.2720 C   0  0  0  0  0
   32.8910   23.4430   85.7840 N   0  0  0  0  0
   33.2270   22.7100   84.6780 C   0  0  0  0  0
   32.3140   22.0590   84.0860 O   0  0  0  0  0
   34.4820   22.6590   84.2020 N   0  0  0  0  0
   35.4540   23.3400   84.8190 C   0  0  0  0  0
   36.6730   23.2750   84.3390 O   0  0  0  0  0
   35.1570   24.1140   85.9680 C   0  0  0  0  0
   36.2310   24.9020   86.6990 C   0  0  0  0  0
   33.8320   24.1490   86.4420 C   0  0  0  0  0
   32.8168   26.6415   89.2957 H   0  0  0  0  0
   31.8172   27.1119   87.2986 H   0  0  0  0  0
   30.6514   27.0318   88.6892 H   0  0  0  0  0
   29.7388   26.1522   87.1559 H   0  0  0  0  0
   29.6265   24.1448   88.9976 H   0  0  0  0  0
   27.9326   24.2276   87.7333 H   0  0  0  0  0
   31.1075   22.1758   88.0020 H   0  0  0  0  0
   32.0656   23.5096   88.3768 H   0  0  0  0  0
   31.0079   22.6403   85.7271 H   0  0  0  0  0
   34.6930   22.1031   83.3732 H   0  0  0  0  0
   35.9700   25.9603   86.6943 H   0  0  0  0  0
   36.3024   24.5486   87.7277 H   0  0  0  0  0
   37.1884   24.7604   86.1976 H   0  0  0  0  0
   33.5722   24.7352   87.3234 H   0  0  0  0  0
  1  2  1  0  0  0
  2  3  1  0  0  0
  3  4  1  0  0  0
  3  5  1  0  0  0
  4  8  1  0  0  0
  5  6  1  0  0  0
  5  7  1  0  0  0
  7  8  1  0  0  0
  8  9  1  0  0  0
  9 10  1  0  0  0
  9 17  1  0  0  0
 10 11  2  0  0  0
 10 12  1  0  0  0
 12 13  1  0  0  0
 13 14  2  0  0  0
 13 15  1  0  0  0
 15 16  1  0  0  0
 15 17  2  0  0  0
  1 18  1  0  0  0
  2 19  1  0  0  0
  2 20  1  0  0  0
  3 21  1  0  0  0
  5 22  1  0  0  0
  6 23  1  0  0  0
  7 24  1  0  0  0
  7 25  1  0  0  0
  8 26  1  0  0  0
 12 27  1  0  0  0
 16 28  1  0  0  0
 16 29  1  0  0  0
 16 30  1  0  0  0
 17 31  1  0  0  0
M  END
$$$$
