### 
### Created by X-TOOL on Mon Sep 10 21:13:11 2018
### 

@<TRIPOS>MOLECULE
3v6r_ligand
   66    69     1     0     0
SMALL
GAST_HUCK


@<TRIPOS>ATOM
      1 C01        21.0160  -17.6440  -27.5670 C.ar      1 CQQ         0.0248
      2 N02        20.5660  -18.9120  -27.4930 N.ar      1 CQQ        -0.2920
      3 C03        19.3900  -19.1900  -26.9220 C.ar      1 CQQ         0.0142
      4 C04        18.5840  -18.1580  -26.4210 C.ar      1 CQQ        -0.0301
      5 C05        19.0170  -16.8320  -26.4810 C.ar      1 CQQ        -0.0291
      6 C06        20.2470  -16.5710  -27.0830 C.ar      1 CQQ         0.0316
      7 C07        20.7730  -15.1850  -27.1360 C.ar      1 CQQ         0.0624
      8 N08        21.9590  -14.9460  -27.7510 N.ar      1 CQQ        -0.2450
      9 C09        20.0990  -14.1480  -26.4950 C.ar      1 CQQ        -0.0151
     10 C10        20.6750  -12.8820  -26.5240 C.ar      1 CQQ         0.0149
     11 N11        21.8490  -12.6910  -27.1540 N.ar      1 CQQ        -0.2511
     12 C12        22.5210  -13.7070  -27.7580 C.ar      1 CQQ         0.2108
     13 N13        23.7770  -13.4280  -28.3680 N.pl3     1 CQQ        -0.2448
     14 C14        24.5120  -14.5360  -28.8850 C.ar      1 CQQ         0.0515
     15 C15        24.3960  -15.8260  -28.3460 C.ar      1 CQQ        -0.0193
     16 C16        25.3980  -14.3440  -29.9590 C.ar      1 CQQ        -0.0534
     17 C17        26.1180  -15.4300  -30.4800 C.ar      1 CQQ        -0.0844
     18 C18        25.9580  -16.7190  -29.9390 C.ar      1 CQQ        -0.0526
     19 C19        25.0560  -16.9270  -28.8970 C.ar      1 CQQ         0.0556
     20 N20        24.8450  -18.2030  -28.3250 N.am      1 CQQ        -0.2380
     21 C21        24.9450  -19.2450  -29.2130 C.2       1 CQQ         0.2207
     22 O22        24.1810  -19.3350  -30.1640 O.2       1 CQQ        -0.3804
     23 C23        26.0030  -20.2850  -28.9840 C.ar      1 CQQ         0.0399
     24 C24        25.6470  -21.5410  -28.4840 C.ar      1 CQQ        -0.0550
     25 C25        26.6250  -22.5150  -28.2650 C.ar      1 CQQ        -0.0350
     26 C26        27.3470  -19.9890  -29.2290 C.ar      1 CQQ        -0.0550
     27 C27        28.3240  -20.9650  -29.0060 C.ar      1 CQQ        -0.0350
     28 C28        27.9770  -22.2320  -28.5180 C.ar      1 CQQ         0.0719
     29 N29        29.0100  -23.1810  -28.3150 N.am      1 CQQ        -0.2306
     30 C30        28.5680  -24.3680  -27.7630 C.2       1 CQQ         0.2054
     31 O31        28.5680  -25.3880  -28.4340 O.2       1 CQQ        -0.3839
     32 C32        28.0870  -24.4020  -26.3330 C.3       1 CQQ         0.0417
     33 C33        29.2470  -24.5290  -25.3560 C.3       1 CQQ        -0.0542
     34 C34        28.9280  -25.7530  -24.4910 C.3       1 CQQ        -0.1117
     35 N35        29.1250  -25.5700  -23.0440 N.4       1 CQQ         0.3987
     36 C36        27.8800  -25.9290  -22.3220 C.3       1 CQQ        -0.1260
     37 C37        30.2610  -26.4260  -22.6350 C.3       1 CQQ        -0.1260
     38 H          21.9925  -17.4468  -28.0095 H         1 CQQ         0.0864
     39 H          19.0557  -20.2246  -26.8454 H         1 CQQ         0.0847
     40 H          17.6141  -18.3921  -25.9823 H         1 CQQ         0.0718
     41 H          18.4112  -16.0247  -26.0693 H         1 CQQ         0.0773
     42 H          19.1506  -14.3229  -25.9870 H         1 CQQ         0.0678
     43 H          20.1756  -12.0447  -26.0365 H         1 CQQ         0.0894
     44 H          24.1363  -12.4756  -28.4326 H         1 CQQ         0.2175
     45 H          23.7691  -15.9744  -27.4667 H         1 CQQ         0.0412
     46 H          25.5261  -13.3501  -30.3879 H         1 CQQ         0.0413
     47 H          26.8066  -15.2738  -31.3103 H         1 CQQ         0.0550
     48 H          26.5382  -17.5530  -30.3339 H         1 CQQ         0.0411
     49 H          24.6361  -18.3377  -27.3358 H         1 CQQ         0.2245
     50 H          24.6024  -21.7615  -28.2641 H         1 CQQ         0.0629
     51 H          26.3369  -23.4993  -27.8959 H         1 CQQ         0.0517
     52 H          27.6325  -19.0018  -29.5923 H         1 CQQ         0.0629
     53 H          29.3693  -20.7369  -29.2146 H         1 CQQ         0.0517
     54 H          29.9859  -23.0046  -28.5535 H         1 CQQ         0.2281
     55 H          27.4353  -25.2668  -26.2088 H         1 CQQ         0.0507
     56 H          27.5605  -23.4708  -26.1240 H         1 CQQ         0.0507
     57 H          29.3557  -23.6304  -24.7488 H         1 CQQ         0.0270
     58 H          30.1960  -24.6480  -25.8788 H         1 CQQ         0.0270
     59 H          29.6133  -26.5416  -24.8017 H         1 CQQ         0.0018
     60 H          27.8699  -25.9706  -24.6366 H         1 CQQ         0.0018
     61 H          27.0669  -25.2872  -22.6611 H         1 CQQ        -0.0019
     62 H          27.6312  -26.9706  -22.5251 H         1 CQQ        -0.0019
     63 H          28.0302  -25.7921  -21.2511 H         1 CQQ        -0.0019
     64 H          30.0287  -27.4672  -22.8586 H         1 CQQ        -0.0019
     65 H          31.1552  -26.1264  -23.1816 H         1 CQQ        -0.0019
     66 H          30.4328  -26.3126  -21.5646 H         1 CQQ        -0.0019
@<TRIPOS>BOND
     1    1    2 ar 
     2    1    6 ar 
     3    2    3 ar 
     4    3    4 ar 
     5    4    5 ar 
     6    5    6 ar 
     7    6    7 1  
     8    7    8 ar 
     9    7    9 ar 
    10    8   12 ar 
    11    9   10 ar 
    12   10   11 ar 
    13   11   12 ar 
    14   12   13 1  
    15   13   14 1  
    16   14   15 ar 
    17   14   16 ar 
    18   15   19 ar 
    19   16   17 ar 
    20   17   18 ar 
    21   18   19 ar 
    22   19   20 1  
    23   20   21 am 
    24   21   22 2  
    25   21   23 1  
    26   23   24 ar 
    27   23   26 ar 
    28   24   25 ar 
    29   25   28 ar 
    30   26   27 ar 
    31   27   28 ar 
    32   28   29 1  
    33   29   30 am 
    34   30   31 2  
    35   30   32 1  
    36   32   33 1  
    37   33   34 1  
    38   34   35 1  
    39   35   36 1  
    40   35   37 1  
    41    1   38 1  
    42    3   39 1  
    43    4   40 1  
    44    5   41 1  
    45    9   42 1  
    46   10   43 1  
    47   13   44 1  
    48   15   45 1  
    49   16   46 1  
    50   17   47 1  
    51   18   48 1  
    52   20   49 1  
    53   24   50 1  
    54   25   51 1  
    55   26   52 1  
    56   27   53 1  
    57   29   54 1  
    58   32   55 1  
    59   32   56 1  
    60   33   57 1  
    61   33   58 1  
    62   34   59 1  
    63   34   60 1  
    64   36   61 1  
    65   36   62 1  
    66   36   63 1  
    67   37   64 1  
    68   37   65 1  
    69   37   66 1  
@<TRIPOS>SUBSTRUCTURE
     1 CQQ         1

