3v6r_ligand
  -I-interpret- 

 67 70  0  0  0  0  0  0  0  0999 V2000
   21.0160  -17.6440  -27.5670 C   0  0  0  0  0
   20.5660  -18.9120  -27.4930 N   0  0  0  0  0
   19.3900  -19.1900  -26.9220 C   0  0  0  0  0
   18.5840  -18.1580  -26.4210 C   0  0  0  0  0
   19.0170  -16.8320  -26.4810 C   0  0  0  0  0
   20.2470  -16.5710  -27.0830 C   0  0  0  0  0
   20.7730  -15.1850  -27.1360 C   0  0  0  0  0
   21.9590  -14.9460  -27.7510 N   0  0  0  0  0
   20.0990  -14.1480  -26.4950 C   0  0  0  0  0
   20.6750  -12.8820  -26.5240 C   0  0  0  0  0
   21.8490  -12.6910  -27.1540 N   0  0  0  0  0
   22.5210  -13.7070  -27.7580 C   0  0  0  0  0
   23.7770  -13.4280  -28.3680 N   0  0  0  0  0
   24.5120  -14.5360  -28.8850 C   0  0  0  0  0
   24.3960  -15.8260  -28.3460 C   0  0  0  0  0
   25.3980  -14.3440  -29.9590 C   0  0  0  0  0
   26.1180  -15.4300  -30.4800 C   0  0  0  0  0
   25.9580  -16.7190  -29.9390 C   0  0  0  0  0
   25.0560  -16.9270  -28.8970 C   0  0  0  0  0
   24.8450  -18.2030  -28.3250 N   0  0  0  0  0
   24.9450  -19.2450  -29.2130 C   0  0  0  0  0
   24.1810  -19.3350  -30.1640 O   0  0  0  0  0
   26.0030  -20.2850  -28.9840 C   0  0  0  0  0
   25.6470  -21.5410  -28.4840 C   0  0  0  0  0
   26.6250  -22.5150  -28.2650 C   0  0  0  0  0
   27.3470  -19.9890  -29.2290 C   0  0  0  0  0
   28.3240  -20.9650  -29.0060 C   0  0  0  0  0
   27.9770  -22.2320  -28.5180 C   0  0  0  0  0
   29.0100  -23.1810  -28.3150 N   0  0  0  0  0
   28.5680  -24.3680  -27.7630 C   0  0  0  0  0
   28.5680  -25.3880  -28.4340 O   0  0  0  0  0
   28.0870  -24.4020  -26.3330 C   0  0  0  0  0
   29.2470  -24.5290  -25.3560 C   0  0  0  0  0
   28.9280  -25.7530  -24.4910 C   0  0  0  0  0
   29.1250  -25.5700  -23.0440 N   0  3  0  0  0
   27.8800  -25.9290  -22.3220 C   0  0  0  0  0
   30.2610  -26.4260  -22.6350 C   0  0  0  0  0
   21.9925  -17.4468  -28.0095 H   0  0  0  0  0
   19.0557  -20.2246  -26.8454 H   0  0  0  0  0
   17.6141  -18.3921  -25.9823 H   0  0  0  0  0
   18.4112  -16.0247  -26.0693 H   0  0  0  0  0
   19.1506  -14.3229  -25.9870 H   0  0  0  0  0
   20.1756  -12.0447  -26.0365 H   0  0  0  0  0
   24.1363  -12.4756  -28.4326 H   0  0  0  0  0
   23.7691  -15.9744  -27.4667 H   0  0  0  0  0
   25.5261  -13.3501  -30.3879 H   0  0  0  0  0
   26.8066  -15.2738  -31.3103 H   0  0  0  0  0
   26.5382  -17.5530  -30.3339 H   0  0  0  0  0
   24.6361  -18.3377  -27.3358 H   0  0  0  0  0
   24.6024  -21.7615  -28.2641 H   0  0  0  0  0
   26.3369  -23.4993  -27.8959 H   0  0  0  0  0
   27.6325  -19.0018  -29.5923 H   0  0  0  0  0
   29.3693  -20.7369  -29.2146 H   0  0  0  0  0
   29.9859  -23.0046  -28.5535 H   0  0  0  0  0
   27.4353  -25.2668  -26.2088 H   0  0  0  0  0
   27.5605  -23.4708  -26.1240 H   0  0  0  0  0
   29.3557  -23.6304  -24.7488 H   0  0  0  0  0
   30.1960  -24.6480  -25.8788 H   0  0  0  0  0
   29.6133  -26.5416  -24.8017 H   0  0  0  0  0
   27.8699  -25.9706  -24.6366 H   0  0  0  0  0
   29.3365  -24.5982  -22.8176 H   0  0  0  0  0
   27.0669  -25.2872  -22.6611 H   0  0  0  0  0
   27.6312  -26.9706  -22.5251 H   0  0  0  0  0
   28.0302  -25.7921  -21.2511 H   0  0  0  0  0
   30.0287  -27.4672  -22.8586 H   0  0  0  0  0
   31.1552  -26.1264  -23.1816 H   0  0  0  0  0
   30.4328  -26.3126  -21.5646 H   0  0  0  0  0
  1  2  4  0  0  0
  1  6  4  0  0  0
  2  3  4  0  0  0
  3  4  4  0  0  0
  4  5  4  0  0  0
  5  6  4  0  0  0
  6  7  1  0  0  0
  7  8  4  0  0  0
  7  9  4  0  0  0
  8 12  4  0  0  0
  9 10  4  0  0  0
 10 11  4  0  0  0
 11 12  4  0  0  0
 12 13  1  0  0  0
 13 14  1  0  0  0
 14 15  4  0  0  0
 14 16  4  0  0  0
 15 19  4  0  0  0
 16 17  4  0  0  0
 17 18  4  0  0  0
 18 19  4  0  0  0
 19 20  1  0  0  0
 20 21  1  0  0  0
 21 22  2  0  0  0
 21 23  1  0  0  0
 23 24  4  0  0  0
 23 26  4  0  0  0
 24 25  4  0  0  0
 25 28  4  0  0  0
 26 27  4  0  0  0
 27 28  4  0  0  0
 28 29  1  0  0  0
 29 30  1  0  0  0
 30 31  2  0  0  0
 30 32  1  0  0  0
 32 33  1  0  0  0
 33 34  1  0  0  0
 34 35  1  0  0  0
 35 36  1  0  0  0
 35 37  1  0  0  0
  1 38  1  0  0  0
  3 39  1  0  0  0
  4 40  1  0  0  0
  5 41  1  0  0  0
  9 42  1  0  0  0
 10 43  1  0  0  0
 13 44  1  0  0  0
 15 45  1  0  0  0
 16 46  1  0  0  0
 17 47  1  0  0  0
 18 48  1  0  0  0
 20 49  1  0  0  0
 24 50  1  0  0  0
 25 51  1  0  0  0
 26 52  1  0  0  0
 27 53  1  0  0  0
 29 54  1  0  0  0
 32 55  1  0  0  0
 32 56  1  0  0  0
 33 57  1  0  0  0
 33 58  1  0  0  0
 34 59  1  0  0  0
 34 60  1  0  0  0
 35 61  1  0  0  0
 36 62  1  0  0  0
 36 63  1  0  0  0
 36 64  1  0  0  0
 37 65  1  0  0  0
 37 66  1  0  0  0
 37 67  1  0  0  0
M  END
$$$$
