2x38_ligand
  -I-interpret- 

 49 53  0  0  0  0  0  0  0  0999 V2000
   -3.0010   -1.7860   23.8780 C   0  0  0  0  0
   -3.8720   -3.0510   23.7680 C   0  0  0  0  0
   -3.5140   -4.1750   24.5140 C   0  0  0  0  0
   -4.2960   -5.3330   24.4490 C   0  0  0  0  0
   -5.4300   -5.3810   23.6320 C   0  0  0  0  0
   -5.7890   -4.2660   22.8820 C   0  0  0  0  0
   -5.0150   -3.1000   22.9630 C   0  0  0  0  0
   -5.4420   -2.0210   22.1710 N   0  0  0  0  0
   -4.9080   -1.8500   20.8650 C   0  0  0  0  0
   -4.0480   -2.6120   20.4640 O   0  0  0  0  0
   -5.3280   -0.8080   20.0480 C   0  0  0  0  0
   -4.8110   -0.5850   18.7490 C   0  0  0  0  0
   -3.7190   -1.4610   18.0980 C   0  0  0  0  0
   -5.2970    0.4850   18.0000 C   0  0  0  0  0
   -6.2830    1.3100   18.5130 C   0  0  0  0  0
   -6.8010    1.0900   19.7920 C   0  0  0  0  0
   -6.3180    0.0300   20.5690 C   0  0  0  0  0
   -6.8210   -0.1710   21.8020 N   0  0  0  0  0
   -6.4410   -1.1600   22.6090 C   0  0  0  0  0
   -7.0830   -1.3080   24.0190 C   0  0  0  0  0
   -7.4530    0.0430   24.4880 N   0  0  0  0  0
   -8.6750    0.6050   24.3880 C   0  0  0  0  0
   -8.5940    1.8480   24.8910 N   0  0  0  0  0
   -7.3340    2.0300   25.3100 C   0  0  0  0  0
   -6.6040    0.8810   25.0440 C   0  0  0  0  0
   -5.3090    0.8030   25.3620 N   0  0  0  0  0
   -4.6940    1.8320   25.9330 C   0  0  0  0  0
   -5.3710    2.9540   26.2090 N   0  0  0  0  0
   -6.6830    3.0820   25.9120 C   0  0  0  0  0
   -7.3590    4.2060   26.1890 N   0  0  0  0  0
   -2.9912   -1.4420   24.9122 H   0  0  0  0  0
   -1.9841   -2.0179   23.5612 H   0  0  0  0  0
   -3.4132   -1.0058   23.2381 H   0  0  0  0  0
   -2.6264   -4.1505   25.1463 H   0  0  0  0  0
   -4.0190   -6.2057   25.0404 H   0  0  0  0  0
   -6.0306   -6.2893   23.5831 H   0  0  0  0  0
   -6.6661   -4.2986   22.2357 H   0  0  0  0  0
   -2.8169   -1.4287   18.7090 H   0  0  0  0  0
   -4.0743   -2.4890   18.0265 H   0  0  0  0  0
   -3.4975   -1.0816   17.1005 H   0  0  0  0  0
   -4.8979    0.6735   17.0034 H   0  0  0  0  0
   -6.6589    2.1391   17.9136 H   0  0  0  0  0
   -7.5805    1.7430   20.1845 H   0  0  0  0  0
   -6.3779   -1.7696   24.7103 H   0  0  0  0  0
   -7.9647   -1.9469   23.9692 H   0  0  0  0  0
   -9.5672    0.1354   23.9738 H   0  0  0  0  0
   -3.6341    1.7632   26.1780 H   0  0  0  0  0
   -8.3489    4.2769   25.9536 H   0  0  0  0  0
   -6.8834    4.9903   26.6352 H   0  0  0  0  0
  1  2  1  0  0  0
  2  3  4  0  0  0
  2  7  4  0  0  0
  3  4  4  0  0  0
  4  5  4  0  0  0
  5  6  4  0  0  0
  6  7  4  0  0  0
  7  8  1  0  0  0
  8  9  1  0  0  0
  8 19  1  0  0  0
  9 10  2  0  0  0
  9 11  1  0  0  0
 11 12  4  0  0  0
 11 17  4  0  0  0
 12 13  1  0  0  0
 12 14  4  0  0  0
 14 15  4  0  0  0
 15 16  4  0  0  0
 16 17  4  0  0  0
 17 18  1  0  0  0
 18 19  2  0  0  0
 19 20  1  0  0  0
 20 21  1  0  0  0
 21 22  4  0  0  0
 21 25  4  0  0  0
 22 23  4  0  0  0
 23 24  4  0  0  0
 24 25  4  0  0  0
 24 29  4  0  0  0
 25 26  4  0  0  0
 26 27  4  0  0  0
 27 28  4  0  0  0
 28 29  4  0  0  0
 29 30  1  0  0  0
  1 31  1  0  0  0
  1 32  1  0  0  0
  1 33  1  0  0  0
  3 34  1  0  0  0
  4 35  1  0  0  0
  5 36  1  0  0  0
  6 37  1  0  0  0
 13 38  1  0  0  0
 13 39  1  0  0  0
 13 40  1  0  0  0
 14 41  1  0  0  0
 15 42  1  0  0  0
 16 43  1  0  0  0
 20 44  1  0  0  0
 20 45  1  0  0  0
 22 46  1  0  0  0
 27 47  1  0  0  0
 30 48  1  0  0  0
 30 49  1  0  0  0
M  END
$$$$
