4lg6_ligand
  -I-interpret- 

191194  0  0  0  0  0  0  0  0999 V2000
   26.6390   -2.2310   12.7540 N   0  3  0  0  0
   25.8800   -1.1240   12.0860 C   0  0  0  0  0
   24.6750   -0.7060   12.9380 C   0  0  0  0  0
   24.1440   -1.5020   13.7520 O   0  0  0  0  0
   25.4100   -1.5650   10.6780 C   0  0  0  0  0
   24.2380    0.5400   12.7720 N   0  0  0  0  0
   22.8830    0.8790   13.1980 C   0  0  0  0  0
   22.0020   -0.1210   12.4520 C   0  0  0  0  0
   22.2820   -0.4500   11.2780 O   0  0  0  0  0
   22.4770    2.3200   12.8430 C   0  0  0  0  0
   23.5240    3.2060   13.2350 O   0  0  0  0  0
   21.1700    2.7320   13.5720 C   0  0  0  0  0
   20.9680   -0.6610   13.1250 N   0  0  0  0  0
   20.0940   -1.4700   12.2910 C   0  0  0  0  0
   19.5140   -0.6060   11.1310 C   0  0  0  0  0
   19.3510    0.6100   11.2690 O   0  0  0  0  0
   19.0220   -1.9840   13.2610 C   0  0  0  0  0
   19.2550   -1.3240   14.5600 C   0  0  0  0  0
   20.5800   -0.6350   14.5440 C   0  0  0  0  0
   19.2830   -1.2130    9.9840 N   0  0  0  0  0
   18.7500   -0.4670    8.8500 C   0  0  0  0  0
   17.6140   -1.2220    8.2570 C   0  0  0  0  0
   17.4640   -2.4090    8.4590 O   0  0  0  0  0
   19.8280   -0.0940    7.8010 C   0  0  0  0  0
   20.5370   -1.2470    7.1010 C   0  0  0  0  0
   21.9710   -0.8670    6.6970 C   0  0  0  0  0
   16.7740   -0.5150    7.5490 N   0  0  0  0  0
   15.6430   -1.1370    6.9050 C   0  0  0  0  0
   16.1040   -1.4640    5.4980 C   0  0  0  0  0
   16.9360   -0.7830    4.9660 O   0  0  0  0  0
   14.4550   -0.1910    6.9010 C   0  0  0  0  0
   13.8580    0.0170    8.2900 C   0  0  0  0  0
   13.0220    1.2590    8.3490 C   0  0  0  0  0
   13.0370   -1.1830    8.6980 C   0  0  0  0  0
   15.5850   -2.5300    4.9110 N   0  0  0  0  0
   15.8910   -2.8060    3.4950 C   0  0  0  0  0
   15.3700   -1.7480    2.5160 C   0  0  0  0  0
   14.3160   -1.1330    2.7380 O   0  0  0  0  0
   15.1770   -4.1220    3.2440 C   0  0  0  0  0
   14.0790   -4.1760    4.2740 C   0  0  0  0  0
   14.6160   -3.4820    5.4790 C   0  0  0  0  0
   16.1200   -1.5330    1.4380 N   0  0  0  0  0
   15.6940   -0.6970    0.3250 C   0  0  0  0  0
   14.5210   -1.3500   -0.3950 C   0  0  0  0  0
   14.6120   -2.5100   -0.8270 O   0  0  0  0  0
   16.8770   -0.5080   -0.6510 C   0  0  0  0  0
   17.9290    0.1320    0.0620 O   0  0  0  0  0
   16.4980    0.3520   -1.8160 C   0  0  0  0  0
   13.4040   -0.6410   -0.5180 N   0  0  0  0  0
   12.2720   -1.1810   -1.2900 C   0  0  0  0  0
   12.3490   -0.7770   -2.7910 C   0  0  0  0  0
   13.0260    0.2180   -3.1430 O   0  0  0  0  0
   10.9390   -0.7060   -0.7010 C   0  0  0  0  0
   10.6950   -1.0860    0.7710 C   0  0  0  0  0
    9.5050   -0.3010    1.3030 C   0  0  0  0  0
   10.4600   -2.5830    0.9130 C   0  0  0  0  0
   11.6580   -1.5260   -3.6800 N   0  0  0  0  0
   11.6400   -1.1130   -5.0940 C   0  0  0  0  0
   11.1820    0.3350   -5.3260 C   0  0  0  0  0
   10.2120    0.8020   -4.6730 O   0  0  0  0  0
   10.6370   -2.1040   -5.7370 C   0  0  0  0  0
   10.7590   -3.3270   -4.8900 C   0  0  0  0  0
   10.9540   -2.8130   -3.4720 C   0  0  0  0  0
   11.8750    1.0510   -6.2230 N   0  0  0  0  0
   11.3870    2.3620   -6.6830 C   0  0  0  0  0
   10.3320    2.1900   -7.8060 C   0  0  0  0  0
    9.7270    3.1710   -8.2550 O   0  0  0  0  0
   12.5420    3.3010   -7.1020 C   0  0  0  0  0
   13.1850    4.0560   -5.9300 C   0  0  0  0  0
   13.7590    5.4250   -6.3280 C   0  0  0  0  0
   10.0870    0.9530   -8.2440 N   0  0  0  0  0
    9.0340    0.6860   -9.2160 C   0  0  0  0  0
    8.8710   -0.8200   -9.3890 C   0  0  0  0  0
    9.8430   -1.5640   -9.3190 O   0  0  0  0  0
    9.3440    1.3600  -10.5760 C   0  0  0  0  0
    7.6270   -1.2630   -9.5730 N   0  0  0  0  0
    7.3330   -2.6290  -10.0600 C   0  0  0  0  0
    6.3340   -2.5680  -11.2340 C   0  0  0  0  0
    5.6090   -1.5830  -11.3730 O   0  0  0  0  0
    6.8020   -3.5570   -8.9400 C   0  0  0  0  0
    7.9170   -3.8700   -7.9510 C   0  0  0  0  0
    5.5810   -2.9680   -8.2360 C   0  0  0  0  0
    6.2900   -3.6210  -12.0790 N   0  0  0  0  0
    5.3160   -3.6070  -13.1870 C   0  0  0  0  0
    5.7320   -4.8100  -14.0350 C   0  0  0  0  0
    6.3940   -5.7430  -13.0780 C   0  0  0  0  0
    7.0620   -4.8810  -12.0380 C   0  0  0  0  0
   26.9410   -1.9247   13.6789 H   0  0  0  0  0
   26.0357   -3.0484   12.8454 H   0  0  0  0  0
   27.4549   -2.4704   12.1906 H   0  0  0  0  0
   26.5454   -0.2671   11.9812 H   0  0  0  0  0
   24.7278   -2.4099   10.7722 H   0  0  0  0  0
   24.8977   -0.7353   10.1909 H   0  0  0  0  0
   26.2748   -1.8592   10.0833 H   0  0  0  0  0
   24.8409    1.2481   12.3532 H   0  0  0  0  0
   22.7894    0.8257   14.2827 H   0  0  0  0  0
   22.3052    2.3751   11.7680 H   0  0  0  0  0
   23.2773    4.1076   13.0163 H   0  0  0  0  0
   21.3216    2.6701   14.6496 H   0  0  0  0  0
   20.9098    3.7545   13.2985 H   0  0  0  0  0
   20.3641    2.0596   13.2780 H   0  0  0  0  0
   20.5971   -2.3011   11.7967 H   0  0  0  0  0
   19.0860   -3.0672   13.3643 H   0  0  0  0  0
   18.0244   -1.7535   12.8872 H   0  0  0  0  0
   19.2465   -2.0725   15.3523 H   0  0  0  0  0
   18.4686   -0.5908   14.7390 H   0  0  0  0  0
   20.5273    0.3781   14.9427 H   0  0  0  0  0
   21.3123   -1.1260   15.1849 H   0  0  0  0  0
   19.4781   -2.2097    9.8891 H   0  0  0  0  0
   18.3838    0.4918    9.2170 H   0  0  0  0  0
   20.6022    0.4448    8.3473 H   0  0  0  0  0
   19.3049    0.4543    7.0176 H   0  0  0  0  0
   19.9795   -1.4973    6.1984 H   0  0  0  0  0
   20.5850   -2.0908    7.7893 H   0  0  0  0  0
   21.9420   -0.0159    6.0166 H   0  0  0  0  0
   22.5401   -0.6022    7.5881 H   0  0  0  0  0
   22.4440   -1.7145    6.2008 H   0  0  0  0  0
   16.9198    0.4897    7.4503 H   0  0  0  0  0
   15.3147   -2.0371    7.4247 H   0  0  0  0  0
   13.6827   -0.6286    6.2684 H   0  0  0  0  0
   14.8010    0.7770    6.5386 H   0  0  0  0  0
   14.6854    0.1358    8.9895 H   0  0  0  0  0
   13.6400    2.1233    8.1059 H   0  0  0  0  0
   12.2060    1.1806    7.6307 H   0  0  0  0  0
   12.6140    1.3734    9.3533 H   0  0  0  0  0
   12.2278   -1.3284    7.9823 H   0  0  0  0  0
   13.6729   -2.0682    8.7142 H   0  0  0  0  0
   12.6198   -1.0156    9.6910 H   0  0  0  0  0
   16.9683   -2.8172    3.3298 H   0  0  0  0  0
   15.8546   -4.9712    3.3326 H   0  0  0  0  0
   14.7813   -4.1786    2.2300 H   0  0  0  0  0
   13.7995   -5.2048    4.5012 H   0  0  0  0  0
   13.1714   -3.6938    3.9109 H   0  0  0  0  0
   13.8383   -2.9927    6.0654 H   0  0  0  0  0
   15.0690   -4.1686    6.1942 H   0  0  0  0  0
   17.0378   -1.9754    1.3892 H   0  0  0  0  0
   15.3757    0.2756    0.7002 H   0  0  0  0  0
   17.1790   -1.4828   -1.0340 H   0  0  0  0  0
   18.6785    0.2615   -0.5237 H   0  0  0  0  0
   15.6752   -0.1144   -2.3578 H   0  0  0  0  0
   16.1879    1.3330   -1.4561 H   0  0  0  0  0
   17.3559    0.4615   -2.4795 H   0  0  0  0  0
   13.3306    0.2764   -0.0782 H   0  0  0  0  0
   12.3318   -2.2674   -1.2250 H   0  0  0  0  0
   10.1526   -1.1883   -1.2815 H   0  0  0  0  0
   10.9502    0.3831   -0.7437 H   0  0  0  0  0
   11.5804   -0.8346    1.3549 H   0  0  0  0  0
    9.7140    0.7664    1.2311 H   0  0  0  0  0
    8.6205   -0.5399    0.7126 H   0  0  0  0  0
    9.3311   -0.5691    2.3451 H   0  0  0  0  0
    9.5869   -2.8696    0.3269 H   0  0  0  0  0
   11.3352   -3.1228    0.5513 H   0  0  0  0  0
   10.2903   -2.8249    1.9622 H   0  0  0  0  0
   12.6439   -1.1374   -5.5178 H   0  0  0  0  0
   10.8593   -2.2998   -6.7860 H   0  0  0  0  0
    9.6201   -1.7121   -5.7588 H   0  0  0  0  0
   11.5915   -3.9546   -5.2080 H   0  0  0  0  0
    9.8758   -3.9608   -4.9698 H   0  0  0  0  0
   10.0150   -2.6989   -2.9304 H   0  0  0  0  0
   11.5149   -3.5055   -2.8443 H   0  0  0  0  0
   12.7519    0.6828   -6.5917 H   0  0  0  0  0
   10.8960    2.8483   -5.8401 H   0  0  0  0  0
   12.1247    4.0468   -7.7786 H   0  0  0  0  0
   13.3169    2.6810   -7.5529 H   0  0  0  0  0
   14.0109    3.4480   -5.5608 H   0  0  0  0  0
   12.4085    4.2291   -5.1849 H   0  0  0  0  0
   14.5258    5.2883   -7.0905 H   0  0  0  0  0
   12.9595    6.0518   -6.7231 H   0  0  0  0  0
   14.1973    5.9024   -5.4516 H   0  0  0  0  0
   10.6486    0.1781   -7.8910 H   0  0  0  0  0
    8.1006    1.1089   -8.8446 H   0  0  0  0  0
    9.4240    2.4380  -10.4359 H   0  0  0  0  0
   10.2850    0.9722  -10.9661 H   0  0  0  0  0
    8.5403    1.1423  -11.2795 H   0  0  0  0  0
    6.8482   -0.6363   -9.3703 H   0  0  0  0  0
    8.2725   -3.0601  -10.4058 H   0  0  0  0  0
    6.4727   -4.4877   -9.4021 H   0  0  0  0  0
    8.7345   -4.3677   -8.4726 H   0  0  0  0  0
    8.2787   -2.9423   -7.5076 H   0  0  0  0  0
    7.5331   -4.5232   -7.1674 H   0  0  0  0  0
    5.8484   -2.0116   -7.7868 H   0  0  0  0  0
    4.7815   -2.8191   -8.9617 H   0  0  0  0  0
    5.2449   -3.6545   -7.4589 H   0  0  0  0  0
    5.3312   -2.6725  -13.7478 H   0  0  0  0  0
    4.2847   -3.6739  -12.8405 H   0  0  0  0  0
    6.3997   -4.5217  -14.8469 H   0  0  0  0  0
    4.8770   -5.2738  -14.5268 H   0  0  0  0  0
    7.1207   -6.3758  -13.5875 H   0  0  0  0  0
    5.6679   -6.4156  -12.6214 H   0  0  0  0  0
    7.0552   -5.3409  -11.0498 H   0  0  0  0  0
    8.1212   -4.7266  -12.2437 H   0  0  0  0  0
  1  2  1  0  0  0
  2  3  1  0  0  0
  2  5  1  0  0  0
  3  4  2  0  0  0
  3  6  1  0  0  0
  6  7  1  0  0  0
  7  8  1  0  0  0
  7 10  1  0  0  0
  8  9  2  0  0  0
  8 13  1  0  0  0
 10 11  1  0  0  0
 10 12  1  0  0  0
 13 14  1  0  0  0
 13 19  1  0  0  0
 14 15  1  0  0  0
 14 17  1  0  0  0
 15 16  2  0  0  0
 15 20  1  0  0  0
 17 18  1  0  0  0
 18 19  1  0  0  0
 20 21  1  0  0  0
 21 22  1  0  0  0
 21 24  1  0  0  0
 22 23  2  0  0  0
 22 27  1  0  0  0
 24 25  1  0  0  0
 25 26  1  0  0  0
 27 28  1  0  0  0
 28 29  1  0  0  0
 28 31  1  0  0  0
 29 30  2  0  0  0
 29 35  1  0  0  0
 31 32  1  0  0  0
 32 33  1  0  0  0
 32 34  1  0  0  0
 35 36  1  0  0  0
 35 41  1  0  0  0
 36 37  1  0  0  0
 36 39  1  0  0  0
 37 38  2  0  0  0
 37 42  1  0  0  0
 39 40  1  0  0  0
 40 41  1  0  0  0
 42 43  1  0  0  0
 43 44  1  0  0  0
 43 46  1  0  0  0
 44 45  2  0  0  0
 44 49  1  0  0  0
 46 47  1  0  0  0
 46 48  1  0  0  0
 49 50  1  0  0  0
 50 51  1  0  0  0
 50 53  1  0  0  0
 51 52  2  0  0  0
 51 57  1  0  0  0
 53 54  1  0  0  0
 54 55  1  0  0  0
 54 56  1  0  0  0
 57 58  1  0  0  0
 57 63  1  0  0  0
 58 59  1  0  0  0
 58 61  1  0  0  0
 59 60  2  0  0  0
 59 64  1  0  0  0
 61 62  1  0  0  0
 62 63  1  0  0  0
 64 65  1  0  0  0
 65 66  1  0  0  0
 65 68  1  0  0  0
 66 67  2  0  0  0
 66 71  1  0  0  0
 68 69  1  0  0  0
 69 70  1  0  0  0
 71 72  1  0  0  0
 72 73  1  0  0  0
 72 75  1  0  0  0
 73 74  2  0  0  0
 73 76  1  0  0  0
 76 77  1  0  0  0
 77 78  1  0  0  0
 77 80  1  0  0  0
 78 79  2  0  0  0
 78 83  1  0  0  0
 80 81  1  0  0  0
 80 82  1  0  0  0
 83 84  1  0  0  0
 83 87  1  0  0  0
 84 85  1  0  0  0
 85 86  1  0  0  0
 86 87  1  0  0  0
  1 88  1  0  0  0
  1 89  1  0  0  0
  1 90  1  0  0  0
  2 91  1  0  0  0
  5 92  1  0  0  0
  5 93  1  0  0  0
  5 94  1  0  0  0
  6 95  1  0  0  0
  7 96  1  0  0  0
 10 97  1  0  0  0
 11 98  1  0  0  0
 12 99  1  0  0  0
 12100  1  0  0  0
 12101  1  0  0  0
 14102  1  0  0  0
 17103  1  0  0  0
 17104  1  0  0  0
 18105  1  0  0  0
 18106  1  0  0  0
 19107  1  0  0  0
 19108  1  0  0  0
 20109  1  0  0  0
 21110  1  0  0  0
 24111  1  0  0  0
 24112  1  0  0  0
 25113  1  0  0  0
 25114  1  0  0  0
 26115  1  0  0  0
 26116  1  0  0  0
 26117  1  0  0  0
 27118  1  0  0  0
 28119  1  0  0  0
 31120  1  0  0  0
 31121  1  0  0  0
 32122  1  0  0  0
 33123  1  0  0  0
 33124  1  0  0  0
 33125  1  0  0  0
 34126  1  0  0  0
 34127  1  0  0  0
 34128  1  0  0  0
 36129  1  0  0  0
 39130  1  0  0  0
 39131  1  0  0  0
 40132  1  0  0  0
 40133  1  0  0  0
 41134  1  0  0  0
 41135  1  0  0  0
 42136  1  0  0  0
 43137  1  0  0  0
 46138  1  0  0  0
 47139  1  0  0  0
 48140  1  0  0  0
 48141  1  0  0  0
 48142  1  0  0  0
 49143  1  0  0  0
 50144  1  0  0  0
 53145  1  0  0  0
 53146  1  0  0  0
 54147  1  0  0  0
 55148  1  0  0  0
 55149  1  0  0  0
 55150  1  0  0  0
 56151  1  0  0  0
 56152  1  0  0  0
 56153  1  0  0  0
 58154  1  0  0  0
 61155  1  0  0  0
 61156  1  0  0  0
 62157  1  0  0  0
 62158  1  0  0  0
 63159  1  0  0  0
 63160  1  0  0  0
 64161  1  0  0  0
 65162  1  0  0  0
 68163  1  0  0  0
 68164  1  0  0  0
 69165  1  0  0  0
 69166  1  0  0  0
 70167  1  0  0  0
 70168  1  0  0  0
 70169  1  0  0  0
 71170  1  0  0  0
 72171  1  0  0  0
 75172  1  0  0  0
 75173  1  0  0  0
 75174  1  0  0  0
 76175  1  0  0  0
 77176  1  0  0  0
 80177  1  0  0  0
 81178  1  0  0  0
 81179  1  0  0  0
 81180  1  0  0  0
 82181  1  0  0  0
 82182  1  0  0  0
 82183  1  0  0  0
 84184  1  0  0  0
 84185  1  0  0  0
 85186  1  0  0  0
 85187  1  0  0  0
 86188  1  0  0  0
 86189  1  0  0  0
 87190  1  0  0  0
 87191  1  0  0  0
M  END
$$$$
