### 
### Created by X-TOOL on Mon Sep 10 21:13:14 2018
### 

@<TRIPOS>MOLECULE
4lg6_ligand
  191   194     1     0     0
SMALL
GAST_HUCK


@<TRIPOS>ATOM
      1 N          26.6390   -2.2310   12.7540 N.4       1 HIS         0.2377
      2 CA         25.8800   -1.1240   12.0860 C.3       1 HIS         0.0621
      3 C          24.6750   -0.7060   12.9380 C.2       1 HIS         0.2265
      4 O          24.1440   -1.5020   13.7520 O.2       1 HIS        -0.3907
      5 CB         25.4100   -1.5650   10.6780 C.3       1 HIS        -0.0040
      6 N          24.2380    0.5400   12.7720 N.am      1 THR        -0.2586
      7 CA         22.8830    0.8790   13.1980 C.3       1 THR         0.1568
      8 C          22.0020   -0.1210   12.4520 C.2       1 THR         0.2090
      9 O          22.2820   -0.4500   11.2780 O.2       1 THR        -0.3941
     10 CB         22.4770    2.3200   12.8430 C.3       1 THR         0.0924
     11 OG1        23.5240    3.2060   13.2350 O.3       1 THR        -0.3874
     12 CG2        21.1700    2.7320   13.5720 C.3       1 THR        -0.0346
     13 N          20.9680   -0.6610   13.1250 N.am      1 PRO        -0.2498
     14 CA         20.0940   -1.4700   12.2910 C.3       1 PRO         0.1338
     15 C          19.5140   -0.6060   11.1310 C.2       1 PRO         0.2041
     16 O          19.3510    0.6100   11.2690 O.2       1 PRO        -0.3944
     17 CB         19.0220   -1.9840   13.2610 C.3       1 PRO        -0.0104
     18 CG         19.2550   -1.3240   14.5600 C.3       1 PRO        -0.0281
     19 CD         20.5800   -0.6350   14.5440 C.3       1 PRO         0.0369
     20 N          19.2830   -1.2130    9.9840 N.am      1 ARG        -0.2637
     21 CA         18.7500   -0.4670    8.8500 C.3       1 ARG         0.1310
     22 C          17.6140   -1.2220    8.2570 C.2       1 ARG         0.2039
     23 O          17.4640   -2.4090    8.4590 O.2       1 ARG        -0.3944
     24 CB         19.8280   -0.0940    7.8010 C.3       1 ARG        -0.0126
     25 CG         20.5370   -1.2470    7.1010 C.3       1 ARG        -0.0517
     26 CD         21.9710   -0.8670    6.6970 C.3       1 ARG        -0.0651
     27 N          16.7740   -0.5150    7.5490 N.am      1 LEU        -0.2637
     28 CA         15.6430   -1.1370    6.9050 C.3       1 LEU         0.1314
     29 C          16.1040   -1.4640    5.4980 C.2       1 LEU         0.2064
     30 O          16.9360   -0.7830    4.9660 O.2       1 LEU        -0.3942
     31 CB         14.4550   -0.1910    6.9010 C.3       1 LEU        -0.0101
     32 CG         13.8580    0.0170    8.2900 C.3       1 LEU        -0.0425
     33 CD1        13.0220    1.2590    8.3490 C.3       1 LEU        -0.0625
     34 CD2        13.0370   -1.1830    8.6980 C.3       1 LEU        -0.0625
     35 N          15.5850   -2.5300    4.9110 N.am      1 PRO        -0.2498
     36 CA         15.8910   -2.8060    3.4950 C.3       1 PRO         0.1338
     37 C          15.3700   -1.7480    2.5160 C.2       1 PRO         0.2042
     38 O          14.3160   -1.1330    2.7380 O.2       1 PRO        -0.3944
     39 CB         15.1770   -4.1220    3.2440 C.3       1 PRO        -0.0104
     40 CG         14.0790   -4.1760    4.2740 C.3       1 PRO        -0.0281
     41 CD         14.6160   -3.4820    5.4790 C.3       1 PRO         0.0369
     42 N          16.1200   -1.5330    1.4380 N.am      1 THR        -0.2613
     43 CA         15.6940   -0.6970    0.3250 C.3       1 THR         0.1565
     44 C          14.5210   -1.3500   -0.3950 C.2       1 THR         0.2065
     45 O          14.6120   -2.5100   -0.8270 O.2       1 THR        -0.3943
     46 CB         16.8770   -0.5080   -0.6510 C.3       1 THR         0.0924
     47 OG1        17.9290    0.1320    0.0620 O.3       1 THR        -0.3874
     48 CG2        16.4980    0.3520   -1.8160 C.3       1 THR        -0.0346
     49 N          13.4040   -0.6410   -0.5180 N.am      1 LEU        -0.2636
     50 CA         12.2720   -1.1810   -1.2900 C.3       1 LEU         0.1314
     51 C          12.3490   -0.7770   -2.7910 C.2       1 LEU         0.2064
     52 O          13.0260    0.2180   -3.1430 O.2       1 LEU        -0.3942
     53 CB         10.9390   -0.7060   -0.7010 C.3       1 LEU        -0.0101
     54 CG         10.6950   -1.0860    0.7710 C.3       1 LEU        -0.0425
     55 CD1         9.5050   -0.3010    1.3030 C.3       1 LEU        -0.0625
     56 CD2        10.4600   -2.5830    0.9130 C.3       1 LEU        -0.0625
     57 N          11.6580   -1.5260   -3.6800 N.am      1 PRO        -0.2498
     58 CA         11.6400   -1.1130   -5.0940 C.3       1 PRO         0.1338
     59 C          11.1820    0.3350   -5.3260 C.2       1 PRO         0.2041
     60 O          10.2120    0.8020   -4.6730 O.2       1 PRO        -0.3944
     61 CB         10.6370   -2.1040   -5.7370 C.3       1 PRO        -0.0104
     62 CG         10.7590   -3.3270   -4.8900 C.3       1 PRO        -0.0281
     63 CD         10.9540   -2.8130   -3.4720 C.3       1 PRO         0.0369
     64 N          11.8750    1.0510   -6.2230 N.am      1 LYS        -0.2637
     65 CA         11.3870    2.3620   -6.6830 C.3       1 LYS         0.1310
     66 C          10.3320    2.1900   -7.8060 C.2       1 LYS         0.2039
     67 O           9.7270    3.1710   -8.2550 O.2       1 LYS        -0.3944
     68 CB         12.5420    3.3010   -7.1020 C.3       1 LYS        -0.0126
     69 CG         13.1850    4.0560   -5.9300 C.3       1 LYS        -0.0517
     70 CD         13.7590    5.4250   -6.3280 C.3       1 LYS        -0.0651
     71 N          10.0870    0.9530   -8.2440 N.am      1 ARG        -0.2640
     72 CA          9.0340    0.6860   -9.2160 C.3       1 ARG         0.1282
     73 C           8.8710   -0.8200   -9.3890 C.2       1 ARG         0.2036
     74 O           9.8430   -1.5640   -9.3190 O.2       1 ARG        -0.3944
     75 CB          9.3440    1.3600  -10.5760 C.3       1 ARG        -0.0244
     76 N           7.6270   -1.2630   -9.5730 N.am      1 VAL        -0.2635
     77 CA          7.3330   -2.6290  -10.0600 C.3       1 VAL         0.1333
     78 C           6.3340   -2.5680  -11.2340 C.2       1 VAL         0.2044
     79 O           5.6090   -1.5830  -11.3730 O.2       1 VAL        -0.3943
     80 CB          6.8020   -3.5570   -8.9400 C.3       1 VAL        -0.0063
     81 CG1         7.9170   -3.8700   -7.9510 C.3       1 VAL        -0.0584
     82 CG2         5.5810   -2.9680   -8.2360 C.3       1 VAL        -0.0584
     83 N           6.2900   -3.6210  -12.0790 N.am      1 PRO        -0.2713
     84 CA          5.3160   -3.6070  -13.1870 C.3       1 PRO         0.0340
     85 CB          5.7320   -4.8100  -14.0350 C.3       1 PRO        -0.0307
     86 CG          6.3940   -5.7430  -13.0780 C.3       1 PRO        -0.0307
     87 CD          7.0620   -4.8810  -12.0380 C.3       1 PRO         0.0340
     88 H1         27.4260   -2.4923   12.1809 H         1 HIS         0.2015
     89 H2         26.0334   -3.0274   12.8764 H         1 HIS         0.2015
     90 H3         26.9680   -1.9176   13.6538 H         1 HIS         0.2015
     91 H4         26.5492   -0.2578   11.9771 H         1 HIS         0.1095
     92 H5         24.8556   -0.7426   10.2023 H         1 HIS         0.0310
     93 H6         24.7553   -2.4443   10.7687 H         1 HIS         0.0310
     94 H7         26.2851   -1.8213   10.0628 H         1 HIS         0.0310
     95 H8         24.8291    1.2342   12.3614 H         1 THR         0.1885
     96 H9         22.7862    0.7431   14.2853 H         1 THR         0.0826
     97 H10        22.3210    2.3924   11.7565 H         1 THR         0.0639
     98 H11        23.2799    4.0982   13.0186 H         1 THR         0.2101
     99 H12        20.9072    3.7644   13.2981 H         1 THR         0.0257
    100 H13        21.3212    2.6685   14.6597 H         1 THR         0.0257
    101 H14        20.3554    2.0552   13.2748 H         1 THR         0.0257
    102 H15        20.6462   -2.3177   11.8592 H         1 PRO         0.0802
    103 H16        19.1067   -3.0751   13.3723 H         1 PRO         0.0313
    104 H17        18.0202   -1.7305   12.8841 H         1 PRO         0.0313
    105 H18        19.2448   -2.0784   15.3605 H         1 PRO         0.0287
    106 H19        18.4608   -0.5851   14.7424 H         1 PRO         0.0287
    107 H20        20.4889    0.3993   14.9071 H         1 PRO         0.0524
    108 H21        21.3117   -1.1771   15.1610 H         1 PRO         0.0524
    109 H22        19.4742   -2.1901    9.8910 H         1 ARG         0.1883
    110 H23        18.3489    0.4799    9.2405 H         1 ARG         0.0800
    111 H24        20.5950    0.5066    8.3118 H         1 ARG         0.0312
    112 H25        19.3406    0.5159    7.0261 H         1 ARG         0.0312
    113 H26        19.9714   -1.5182    6.1973 H         1 ARG         0.0265
    114 H27        20.5748   -2.1096    7.7826 H         1 ARG         0.0265
    115 H28        22.4494   -1.7215    6.1961 H         1 ARG         0.0230
    116 H29        22.5464   -0.5996    7.5955 H         1 ARG         0.0230
    117 H30        21.9431   -0.0081    6.0103 H         1 ARG         0.0230
    118 H31        16.9169    0.4700    7.4523 H         1 LEU         0.1883
    119 H32        15.3644   -2.0608    7.4331 H         1 LEU         0.0800
    120 H33        13.6774   -0.6065    6.2432 H         1 LEU         0.0315
    121 H34        14.7834    0.7835    6.5104 H         1 LEU         0.0315
    122 H35        14.6870    0.1281    9.0044 H         1 LEU         0.0298
    123 H36        12.6096    1.3756    9.3621 H         1 LEU         0.0232
    124 H37        12.1980    1.1811    7.6245 H         1 LEU         0.0232
    125 H38        13.6446    2.1321    8.1038 H         1 LEU         0.0232
    126 H39        13.6612   -2.0875    8.6507 H         1 LEU         0.0232
    127 H40        12.1817   -1.2916    8.0149 H         1 LEU         0.0232
    128 H41        12.6702   -1.0441    9.7257 H         1 LEU         0.0232
    129 H42        16.9772   -2.9121    3.3574 H         1 PRO         0.0802
    130 H43        15.8689   -4.9674    3.3727 H         1 PRO         0.0313
    131 H44        14.7551   -4.1448    2.2284 H         1 PRO         0.0313
    132 H45        13.8295   -5.2203    4.5132 H         1 PRO         0.0287
    133 H46        13.1809   -3.6600    3.9036 H         1 PRO         0.0287
    134 H47        13.8164   -2.9558    6.0209 H         1 PRO         0.0524
    135 H48        15.1114   -4.1931    6.1564 H         1 PRO         0.0524
    136 H49        17.0198   -1.9667    1.3902 H         1 THR         0.1884
    137 H50        15.3797    0.2851    0.7080 H         1 THR         0.0826
    138 H51        17.2112   -1.4899   -1.0171 H         1 THR         0.0639
    139 H52        18.6707    0.2601   -0.5176 H         1 THR         0.2101
    140 H53        17.3630    0.4632   -2.4864 H         1 THR         0.0257
    141 H54        16.1849    1.3424   -1.4541 H         1 THR         0.0257
    142 H55        15.6677   -0.1177   -2.3637 H         1 THR         0.0257
    143 H56        13.3320    0.2584   -0.0868 H         1 LEU         0.1883
    144 H57        12.3098   -2.2785   -1.2264 H         1 LEU         0.0800
    145 H58        10.1276   -1.1413   -1.3028 H         1 LEU         0.0315
    146 H59        10.9053    0.3907   -0.7785 H         1 LEU         0.0315
    147 H60        11.5861   -0.8170    1.3571 H         1 LEU         0.0298
    148 H61         9.3285   -0.5707    2.3547 H         1 LEU         0.0232
    149 H62         8.6116   -0.5413    0.7080 H         1 LEU         0.0232
    150 H63         9.7147    0.7764    1.2310 H         1 LEU         0.0232
    151 H64        11.3313   -3.1295    0.5229 H         1 LEU         0.0232
    152 H65         9.5630   -2.8690    0.3441 H         1 LEU         0.0232
    153 H66        10.3160   -2.8325    1.9746 H         1 LEU         0.0232
    154 H67        12.6418   -1.2355   -5.5314 H         1 PRO         0.0802
    155 H68        10.9121   -2.3197   -6.7800 H         1 PRO         0.0313
    156 H69         9.6130   -1.7036   -5.7032 H         1 PRO         0.0313
    157 H70        11.6243   -3.9290   -5.2043 H         1 PRO         0.0287
    158 H71         9.8451   -3.9354   -4.9573 H         1 PRO         0.0287
    159 H72         9.9871   -2.6587   -2.9707 H         1 PRO         0.0524
    160 H73        11.5672   -3.5083   -2.8800 H         1 PRO         0.0524
    161 H74        12.7347    0.6900   -6.5845 H         1 LYS         0.1883
    162 H75        10.8804    2.8385   -5.8308 H         1 LYS         0.0800
    163 H76        12.1468    4.0397   -7.8149 H         1 LYS         0.0312
    164 H77        13.3191    2.6968   -7.5930 H         1 LYS         0.0312
    165 H78        14.0012    3.4403   -5.5242 H         1 LYS         0.0265
    166 H79        12.4213    4.2104   -5.1536 H         1 LYS         0.0265
    167 H80        14.2017    5.9079   -5.4443 H         1 LYS         0.0230
    168 H81        12.9531    6.0586   -6.7269 H         1 LYS         0.0230
    169 H82        14.5330    5.2884   -7.0975 H         1 LYS         0.0230
    170 H83        10.6376    0.1933   -7.8979 H         1 ARG         0.1883
    171 H84         8.0902    1.1003   -8.8319 H         1 ARG         0.0797
    172 H85         8.5336    1.1411  -11.2869 H         1 ARG         0.0277
    173 H86        10.2935    0.9694  -10.9708 H         1 ARG         0.0277
    174 H87         9.4249    2.4480  -10.4360 H         1 ARG         0.0277
    175 H88         6.8634   -0.6486   -9.3743 H         1 VAL         0.1883
    176 H89         8.2732   -3.0614  -10.4329 H         1 VAL         0.0802
    177 H90         6.4896   -4.5024   -9.4076 H         1 VAL         0.0343
    178 H91         7.5308   -4.5292   -7.1596 H         1 VAL         0.0234
    179 H92         8.2829   -2.9345   -7.5027 H         1 VAL         0.0234
    180 H93         8.7427   -4.3724   -8.4762 H         1 VAL         0.0234
    181 H94         4.7975   -2.7545   -8.9780 H         1 VAL         0.0234
    182 H95         5.8661   -2.0363   -7.7254 H         1 VAL         0.0234
    183 H96         5.2001   -3.6890   -7.4977 H         1 VAL         0.0234
    184 H97         5.3891   -2.6736  -13.7644 H         1 PRO         0.0522
    185 H98         4.2892   -3.7261  -12.8108 H         1 PRO         0.0522
    186 H99         6.4338   -4.5030  -14.8244 H         1 PRO         0.0285
    187 H100        4.8511   -5.2848  -14.4918 H         1 PRO         0.0285
    188 H101        7.1420   -6.3570  -13.6009 H         1 PRO         0.0285
    189 H102        5.6466   -6.3980  -12.6064 H         1 PRO         0.0285
    190 H103        6.9999   -5.3470  -11.0435 H         1 PRO         0.0522
    191 H104        8.1168   -4.7033  -12.2944 H         1 PRO         0.0522
@<TRIPOS>BOND
     1    1    2 1  
     2    2    3 1  
     3    2    5 1  
     4    3    4 2  
     5    3    6 am 
     6    6    7 1  
     7    7    8 1  
     8    7   10 1  
     9    8    9 2  
    10    8   13 am 
    11   10   11 1  
    12   10   12 1  
    13   13   14 1  
    14   13   19 1  
    15   14   15 1  
    16   14   17 1  
    17   15   16 2  
    18   15   20 am 
    19   17   18 1  
    20   18   19 1  
    21   20   21 1  
    22   21   22 1  
    23   21   24 1  
    24   22   23 2  
    25   22   27 am 
    26   24   25 1  
    27   25   26 1  
    28   27   28 1  
    29   28   29 1  
    30   28   31 1  
    31   29   30 2  
    32   29   35 am 
    33   31   32 1  
    34   32   33 1  
    35   32   34 1  
    36   35   36 1  
    37   35   41 1  
    38   36   37 1  
    39   36   39 1  
    40   37   38 2  
    41   37   42 am 
    42   39   40 1  
    43   40   41 1  
    44   42   43 1  
    45   43   44 1  
    46   43   46 1  
    47   44   45 2  
    48   44   49 am 
    49   46   47 1  
    50   46   48 1  
    51   49   50 1  
    52   50   51 1  
    53   50   53 1  
    54   51   52 2  
    55   51   57 am 
    56   53   54 1  
    57   54   55 1  
    58   54   56 1  
    59   57   58 1  
    60   57   63 1  
    61   58   59 1  
    62   58   61 1  
    63   59   60 2  
    64   59   64 am 
    65   61   62 1  
    66   62   63 1  
    67   64   65 1  
    68   65   66 1  
    69   65   68 1  
    70   66   67 2  
    71   66   71 am 
    72   68   69 1  
    73   69   70 1  
    74   71   72 1  
    75   72   73 1  
    76   72   75 1  
    77   73   74 2  
    78   73   76 am 
    79   76   77 1  
    80   77   78 1  
    81   77   80 1  
    82   78   79 2  
    83   78   83 am 
    84   80   81 1  
    85   80   82 1  
    86   83   84 1  
    87   83   87 1  
    88   84   85 1  
    89   85   86 1  
    90   86   87 1  
    91    1   88 1  
    92    1   89 1  
    93    1   90 1  
    94    2   91 1  
    95    5   92 1  
    96    5   93 1  
    97    5   94 1  
    98    6   95 1  
    99    7   96 1  
   100   10   97 1  
   101   11   98 1  
   102   12   99 1  
   103   12  100 1  
   104   12  101 1  
   105   14  102 1  
   106   17  103 1  
   107   17  104 1  
   108   18  105 1  
   109   18  106 1  
   110   19  107 1  
   111   19  108 1  
   112   20  109 1  
   113   21  110 1  
   114   24  111 1  
   115   24  112 1  
   116   25  113 1  
   117   25  114 1  
   118   26  115 1  
   119   26  116 1  
   120   26  117 1  
   121   27  118 1  
   122   28  119 1  
   123   31  120 1  
   124   31  121 1  
   125   32  122 1  
   126   33  123 1  
   127   33  124 1  
   128   33  125 1  
   129   34  126 1  
   130   34  127 1  
   131   34  128 1  
   132   36  129 1  
   133   39  130 1  
   134   39  131 1  
   135   40  132 1  
   136   40  133 1  
   137   41  134 1  
   138   41  135 1  
   139   42  136 1  
   140   43  137 1  
   141   46  138 1  
   142   47  139 1  
   143   48  140 1  
   144   48  141 1  
   145   48  142 1  
   146   49  143 1  
   147   50  144 1  
   148   53  145 1  
   149   53  146 1  
   150   54  147 1  
   151   55  148 1  
   152   55  149 1  
   153   55  150 1  
   154   56  151 1  
   155   56  152 1  
   156   56  153 1  
   157   58  154 1  
   158   61  155 1  
   159   61  156 1  
   160   62  157 1  
   161   62  158 1  
   162   63  159 1  
   163   63  160 1  
   164   64  161 1  
   165   65  162 1  
   166   68  163 1  
   167   68  164 1  
   168   69  165 1  
   169   69  166 1  
   170   70  167 1  
   171   70  168 1  
   172   70  169 1  
   173   71  170 1  
   174   72  171 1  
   175   75  172 1  
   176   75  173 1  
   177   75  174 1  
   178   76  175 1  
   179   77  176 1  
   180   80  177 1  
   181   81  178 1  
   182   81  179 1  
   183   81  180 1  
   184   82  181 1  
   185   82  182 1  
   186   82  183 1  
   187   84  184 1  
   188   84  185 1  
   189   85  186 1  
   190   85  187 1  
   191   86  188 1  
   192   86  189 1  
   193   87  190 1  
   194   87  191 1  
@<TRIPOS>SUBSTRUCTURE
     1 HIS         1

