3a73_ligand
  -I-interpret- 

 54 54  0  0  0  0  0  0  0  0999 V2000
   28.5910   32.2420  -61.5570 C   0  0  0  0  0
   27.5690   35.4570  -62.4570 O   0  0  0  0  0
   31.4370   33.1970  -53.6150 O   0  0  0  0  0
   25.5590   36.1830  -63.0980 O   0  0  0  0  0
   30.8360   29.6150  -57.4860 O   0  0  0  0  0
   26.4330   35.5350  -58.2600 C   0  0  0  0  0
   27.5000   35.3450  -57.3640 C   0  0  0  0  0
   30.1070   34.9270  -53.9920 C   0  0  0  0  0
   29.3110   35.4020  -54.9450 C   0  0  0  0  0
   30.9350   32.2260  -56.1820 C   0  0  0  0  0
   29.8140   31.3300  -61.4930 C   0  0  0  0  0
   25.5990   34.5890  -58.8080 C   0  0  0  0  0
   28.0120   34.2090  -56.7490 C   0  0  0  0  0
   30.5480   31.8750  -57.4620 C   0  0  0  0  0
   29.4980   29.8760  -61.2530 C   0  0  0  0  0
   25.1870   35.0160  -60.2090 C   0  0  0  0  0
   30.2700   29.4830  -60.0410 C   0  0  0  0  0
   26.0650   36.1670  -60.7500 C   0  0  0  0  0
   30.8900   30.7530  -59.5440 C   0  0  0  0  0
   26.4230   35.9180  -62.2260 C   0  0  0  0  0
   30.7140   33.8140  -54.3460 C   0  0  0  0  0
   30.3600   33.3680  -55.5780 C   0  0  0  0  0
   31.2930   30.7730  -58.0990 C   0  0  0  0  0
   29.4410   34.5030  -56.1710 C   0  0  0  0  0
   27.9413   31.9198  -62.3707 H   0  0  0  0  0
   28.0483   32.1866  -60.6133 H   0  0  0  0  0
   28.9135   33.2683  -61.7325 H   0  0  0  0  0
   28.0390   35.3408  -61.6280 H   0  0  0  0  0
   31.2879   28.8558  -57.8614 H   0  0  0  0  0
   26.2423   36.5657  -58.5589 H   0  0  0  0  0
   28.0253   36.2634  -57.1021 H   0  0  0  0  0
   30.2423   35.4071  -53.0228 H   0  0  0  0  0
   28.6743   36.2831  -54.8643 H   0  0  0  0  0
   31.6736   31.6303  -55.6455 H   0  0  0  0  0
   30.4199   31.6676  -60.6522 H   0  0  0  0  0
   30.3097   31.3929  -62.4617 H   0  0  0  0  0
   24.7099   34.4880  -58.1856 H   0  0  0  0  0
   26.1222   33.6342  -58.8611 H   0  0  0  0  0
   28.0824   33.4067  -57.4835 H   0  0  0  0  0
   27.3507   33.9160  -55.9336 H   0  0  0  0  0
   29.7335   32.3868  -57.9745 H   0  0  0  0  0
   29.7739   29.2648  -62.1123 H   0  0  0  0  0
   28.4287   29.7232  -61.1069 H   0  0  0  0  0
   24.1558   35.3667  -60.1673 H   0  0  0  0  0
   25.3038   34.1594  -60.8728 H   0  0  0  0  0
   31.0236   28.7295  -60.2701 H   0  0  0  0  0
   29.6302   29.0249  -59.2868 H   0  0  0  0  0
   26.9833   36.2189  -60.1651 H   0  0  0  0  0
   25.5124   37.1032  -60.6711 H   0  0  0  0  0
   30.1313   31.5271  -59.6588 H   0  0  0  0  0
   31.8071   30.8884  -60.1174 H   0  0  0  0  0
   30.0266   32.4157  -55.9903 H   0  0  0  0  0
   32.3750   30.8717  -58.0112 H   0  0  0  0  0
   29.9076   34.8627  -57.0881 H   0  0  0  0  0
 11  1  1  0  0  0
 20  2  1  0  0  0
 21  3  2  0  0  0
 20  4  2  0  0  0
 23  5  1  0  0  0
  7  6  2  0  0  0
  6 12  1  0  0  0
 13  7  1  0  0  0
  8  9  2  0  0  0
 21  8  1  0  0  0
  9 24  1  0  0  0
 10 14  2  0  0  0
 22 10  1  0  0  0
 15 11  1  0  0  0
 12 16  1  0  0  0
 24 13  1  0  0  0
 14 23  1  0  0  0
 17 15  1  0  0  0
 16 18  1  0  0  0
 19 17  1  0  0  0
 18 20  1  0  0  0
 23 19  1  0  0  0
 21 22  1  0  0  0
 22 24  1  0  0  0
  1 25  1  0  0  0
  1 26  1  0  0  0
  1 27  1  0  0  0
  2 28  1  0  0  0
  5 29  1  0  0  0
  6 30  1  0  0  0
  7 31  1  0  0  0
  8 32  1  0  0  0
  9 33  1  0  0  0
 10 34  1  0  0  0
 11 35  1  0  0  0
 11 36  1  0  0  0
 12 37  1  0  0  0
 12 38  1  0  0  0
 13 39  1  0  0  0
 13 40  1  0  0  0
 14 41  1  0  0  0
 15 42  1  0  0  0
 15 43  1  0  0  0
 16 44  1  0  0  0
 16 45  1  0  0  0
 17 46  1  0  0  0
 17 47  1  0  0  0
 18 48  1  0  0  0
 18 49  1  0  0  0
 19 50  1  0  0  0
 19 51  1  0  0  0
 22 52  1  0  0  0
 23 53  1  0  0  0
 24 54  1  0  0  0
M  END
$$$$
