5ftg_ligand
  -I-interpret- 

 73 76  0  0  0  0  0  0  0  0999 V2000
  -11.0730   -0.5400   -3.4250 C   0  0  0  0  0
  -12.5150   -0.5660   -3.7510 N   0  0  0  0  0
  -13.0550   -1.3030   -4.9150 C   0  0  0  0  0
  -13.3820    0.2020   -3.0680 C   0  0  0  0  0
  -13.2780    1.5990   -3.1600 C   0  0  0  0  0
  -14.1890    2.4260   -2.5040 C   0  0  0  0  0
  -14.4160   -0.3790   -2.3240 C   0  0  0  0  0
  -15.3260    0.4380   -1.6520 C   0  0  0  0  0
  -15.1970    1.8420   -1.7190 N   0  0  0  0  0
  -16.1690    2.7120   -1.0780 C   0  0  0  0  0
  -15.7140    3.7200   -0.1880 C   0  0  0  0  0
  -14.6260    3.5320    0.6480 C   0  0  0  0  0
  -14.2620    4.5230    1.5760 C   0  0  0  0  0
  -16.4300    4.8950   -0.1310 C   0  0  0  0  0
  -16.0500    5.9010    0.7680 C   0  0  0  0  0
  -14.9650    5.7130    1.6320 C   0  0  0  0  0
  -14.5260    6.7120    2.5580 O   0  0  0  0  0
  -15.2820    7.8960    2.6070 C   0  0  0  0  0
  -15.0270    8.5170    3.9890 C   0  0  0  0  0
  -15.6130    7.6060    4.9940 O   0  0  0  0  0
  -15.6780    8.2070    6.2800 C   0  0  0  0  0
  -15.3060    9.5020    6.5270 C   0  0  0  0  0
  -15.4650    9.9800    7.8210 C   0  0  0  0  0
  -16.2370    7.4000    7.2380 C   0  0  0  0  0
  -16.4030    7.8920    8.5730 C   0  0  0  0  0
  -16.0250    9.1880    8.8320 C   0  0  0  0  0
  -16.1730    9.8040   10.1830 C   0  0  0  0  0
  -17.3320   10.7050   10.0840 N   0  0  0  0  0
  -18.6380   10.2370    9.8660 C   0  0  0  0  0
  -19.7120   11.0490    9.6900 C   0  0  0  0  0
  -19.6090   12.4580    9.6580 C   0  0  0  0  0
  -20.6250   13.2910    9.4350 N   0  3  0  0  0
  -20.4990   14.7050    9.3990 C   0  0  0  0  0
  -21.9770   12.7560    9.0650 C   0  0  0  0  0
  -18.3110   12.9190    9.9520 C   0  0  0  0  0
  -17.2730   12.1060   10.1290 C   0  0  0  0  0
  -10.6888    0.4707   -3.5627 H   0  0  0  0  0
  -10.9305   -0.8462   -2.3886 H   0  0  0  0  0
  -10.5404   -1.2254   -4.0842 H   0  0  0  0  0
  -13.8478   -1.9734   -4.5830 H   0  0  0  0  0
  -13.4566   -0.5933   -5.6383 H   0  0  0  0  0
  -12.2569   -1.8833   -5.3781 H   0  0  0  0  0
  -12.4762    2.0421   -3.7508 H   0  0  0  0  0
  -14.7201    2.9463   -3.3011 H   0  0  0  0  0
  -13.5879    3.0054   -1.8032 H   0  0  0  0  0
  -14.5097   -1.4636   -2.2700 H   0  0  0  0  0
  -16.1364   -0.0080   -1.0754 H   0  0  0  0  0
  -16.7750    2.0478   -0.4618 H   0  0  0  0  0
  -16.6413    3.2546   -1.8969 H   0  0  0  0  0
  -14.0483    2.6098    0.5860 H   0  0  0  0  0
  -13.4244    4.3535    2.2526 H   0  0  0  0  0
  -17.2905    5.0424   -0.7837 H   0  0  0  0  0
  -16.6048    6.8388    0.7945 H   0  0  0  0  0
  -16.3422    7.6893    2.4608 H   0  0  0  0  0
  -14.9890    8.5803    1.8108 H   0  0  0  0  0
  -15.4828    9.5049    4.0553 H   0  0  0  0  0
  -13.9580    8.6417    4.1618 H   0  0  0  0  0
  -14.9002   10.1339    5.7370 H   0  0  0  0  0
  -15.1465   10.9956    8.0558 H   0  0  0  0  0
  -16.5536    6.3883    6.9844 H   0  0  0  0  0
  -16.8159    7.2589    9.3584 H   0  0  0  0  0
  -15.2725   10.3446   10.4746 H   0  0  0  0  0
  -16.3230    9.0459   10.9517 H   0  0  0  0  0
  -18.7989    9.1593    9.8364 H   0  0  0  0  0
  -20.6953   10.5947    9.5682 H   0  0  0  0  0
  -20.1254   15.0598   10.3595 H   0  0  0  0  0
  -19.8015   14.9864    8.6100 H   0  0  0  0  0
  -21.4737   15.1504    9.1999 H   0  0  0  0  0
  -21.8997   12.1856    8.1394 H   0  0  0  0  0
  -22.3410   12.1087    9.8629 H   0  0  0  0  0
  -22.6690   13.5864    8.9248 H   0  0  0  0  0
  -18.1492   13.9934   10.0387 H   0  0  0  0  0
  -16.3029   12.5631   10.3238 H   0  0  0  0  0
  1  2  1  0  0  0
  2  3  1  0  0  0
  2  4  1  0  0  0
  4  5  2  0  0  0
  4  7  1  0  0  0
  5  6  1  0  0  0
  6  9  1  0  0  0
  7  8  2  0  0  0
  8  9  1  0  0  0
  9 10  1  0  0  0
 10 11  1  0  0  0
 11 12  4  0  0  0
 11 14  4  0  0  0
 12 13  4  0  0  0
 13 16  4  0  0  0
 14 15  4  0  0  0
 15 16  4  0  0  0
 16 17  1  0  0  0
 17 18  1  0  0  0
 18 19  1  0  0  0
 19 20  1  0  0  0
 20 21  1  0  0  0
 21 22  4  0  0  0
 21 24  4  0  0  0
 22 23  4  0  0  0
 23 26  4  0  0  0
 24 25  4  0  0  0
 25 26  4  0  0  0
 26 27  1  0  0  0
 27 28  1  0  0  0
 28 29  1  0  0  0
 28 36  1  0  0  0
 29 30  2  0  0  0
 30 31  1  0  0  0
 31 32  2  0  0  0
 31 35  1  0  0  0
 32 33  1  0  0  0
 32 34  1  0  0  0
 35 36  2  0  0  0
  1 37  1  0  0  0
  1 38  1  0  0  0
  1 39  1  0  0  0
  3 40  1  0  0  0
  3 41  1  0  0  0
  3 42  1  0  0  0
  5 43  1  0  0  0
  6 44  1  0  0  0
  6 45  1  0  0  0
  7 46  1  0  0  0
  8 47  1  0  0  0
 10 48  1  0  0  0
 10 49  1  0  0  0
 12 50  1  0  0  0
 13 51  1  0  0  0
 14 52  1  0  0  0
 15 53  1  0  0  0
 18 54  1  0  0  0
 18 55  1  0  0  0
 19 56  1  0  0  0
 19 57  1  0  0  0
 22 58  1  0  0  0
 23 59  1  0  0  0
 24 60  1  0  0  0
 25 61  1  0  0  0
 27 62  1  0  0  0
 27 63  1  0  0  0
 29 64  1  0  0  0
 30 65  1  0  0  0
 33 66  1  0  0  0
 33 67  1  0  0  0
 33 68  1  0  0  0
 34 69  1  0  0  0
 34 70  1  0  0  0
 34 71  1  0  0  0
 35 72  1  0  0  0
 36 73  1  0  0  0
M  END
$$$$
