3bmo_ligand
  -I-interpret- 

 28 29  0  0  0  0  0  0  0  0999 V2000
    9.3380  -11.2350   14.0190 C   0  0  0  0  0
    8.1230  -10.7930   14.4520 C   0  0  0  0  0
    8.0710   -9.4580   14.9370 C   0  0  0  0  0
    9.2300   -8.7130   14.9500 N   0  0  0  0  0
   10.4770  -10.5070   14.0560 N   0  0  0  0  0
    7.7880  -14.2000   15.1570 C   0  0  0  0  0
    6.6020  -14.8180   15.5290 C   0  0  0  0  0
    5.5120  -14.7990   14.6520 C   0  0  0  0  0
    4.1730  -15.4310   15.0310 C   0  0  0  0  0
    5.6180  -14.1980   13.4090 C   0  0  0  0  0
    6.8150  -13.5970   13.0370 C   0  0  0  0  0
    7.8950  -13.5860   13.9190 C   0  0  0  0  0
    9.3700  -12.8680   13.4000 S   0  0  0  0  0
   10.4160   -9.2160   14.5310 C   0  0  0  0  0
   11.5130   -8.4350   14.5930 N   0  0  0  0  0
    6.9340   -8.8900   15.3900 N   0  0  0  0  0
    7.2386  -11.4296   14.4275 H   0  0  0  0  0
    8.6373  -14.1976   15.8402 H   0  0  0  0  0
    6.5206  -15.3139   16.4962 H   0  0  0  0  0
    4.3169  -16.4934   15.2277 H   0  0  0  0  0
    3.7830  -14.9442   15.9249 H   0  0  0  0  0
    3.4676  -15.3045   14.2097 H   0  0  0  0  0
    4.7681  -14.1962   12.7265 H   0  0  0  0  0
    6.9095  -13.1339   12.0548 H   0  0  0  0  0
   11.4414   -7.4825   14.9509 H   0  0  0  0  0
   12.4147   -8.7965   14.2820 H   0  0  0  0  0
    6.0641   -9.4226   15.3935 H   0  0  0  0  0
    6.9444   -7.9280   15.7289 H   0  0  0  0  0
  1  2  4  0  0  0
  1  5  4  0  0  0
 13  1  1  0  0  0
  2  3  4  0  0  0
  3  4  4  0  0  0
  3 16  1  0  0  0
 14  4  4  0  0  0
  5 14  4  0  0  0
  6  7  4  0  0  0
 12  6  4  0  0  0
  7  8  4  0  0  0
  8  9  1  0  0  0
 10  8  4  0  0  0
 11 10  4  0  0  0
 12 11  4  0  0  0
 12 13  1  0  0  0
 14 15  1  0  0  0
  2 17  1  0  0  0
  6 18  1  0  0  0
  7 19  1  0  0  0
  9 20  1  0  0  0
  9 21  1  0  0  0
  9 22  1  0  0  0
 10 23  1  0  0  0
 11 24  1  0  0  0
 15 25  1  0  0  0
 15 26  1  0  0  0
 16 27  1  0  0  0
 16 28  1  0  0  0
M  END
$$$$
