### 
### Created by X-TOOL on Mon Sep 10 21:13:25 2018
### 

@<TRIPOS>MOLECULE
5d10_ligand
   58    61     1     0     0
SMALL
GAST_HUCK


@<TRIPOS>ATOM
      1 C4        -13.1120  -39.7560    4.6680 C.ar      1 563         0.1161
      2 C5        -13.1500  -38.5930    5.4820 C.ar      1 563         0.0148
      3 C6        -11.9680  -38.0360    6.0250 C.ar      1 563         0.1175
      4 N1        -10.8110  -38.6670    5.7100 N.ar      1 563        -0.2439
      5 N3        -11.9000  -40.3040    4.4410 N.ar      1 563        -0.2445
      6 CAN       -14.0720  -41.4140    3.0440 C.2       1 563         0.0168
      7 CAL       -15.2830  -41.9230    2.4830 C.2       1 563        -0.0008
      8 NBE       -16.5020  -41.1100    2.7960 N.pl3     1 563        -0.3312
      9 CAC       -17.7520  -41.7300    2.2710 C.3       1 563         0.0103
     10 CAM       -16.6610  -40.9770    4.2280 C.3       1 563         0.0451
     11 CAO       -15.5570  -40.0510    4.7040 C.3       1 563         0.0614
     12 NBF       -14.2210  -40.3640    4.1250 N.pl3     1 563        -0.2717
     13 NAT       -12.0750  -36.8940    6.8150 N.pl3     1 563        -0.2623
     14 CBA       -11.0480  -36.2580    7.4650 C.2       1 563         0.0963
     15 CAJ        -9.8140  -36.6770    7.7380 C.2       1 563        -0.0260
     16 CAX        -9.2210  -35.6770    8.4070 C.2       1 563         0.0559
     17 CAB        -7.7840  -35.6610    8.9490 C.3       1 563        -0.0040
     18 NAU       -10.0560  -34.6840    8.5370 N.pl3     1 563        -0.2338
     19 NAP       -11.1140  -35.0230    7.9990 N.2       1 563        -0.2288
     20 C2        -10.7710  -39.7740    4.9330 C.ar      1 563         0.2345
     21 OAV        -9.6290  -40.4630    4.6070 O.3       1 563        -0.2321
     22 CAZ        -8.3280  -40.1270    4.8840 C.ar      1 563         0.1103
     23 CAI        -7.8950  -39.7400    6.1420 C.ar      1 563        -0.0394
     24 CAG        -6.5480  -39.4350    6.3700 C.ar      1 563        -0.0473
     25 CAH        -7.3770  -40.2400    3.8640 C.ar      1 563        -0.0394
     26 CAF        -6.0250  -39.9420    4.0900 C.ar      1 563        -0.0473
     27 CAY        -5.5960  -39.5420    5.3580 C.ar      1 563         0.0571
     28 NAS        -4.3020  -39.2200    5.5650 N.am      1 563        -0.2393
     29 CAW        -3.3800  -40.0190    6.1770 C.2       1 563         0.2009
     30 OAD        -2.2110  -39.6390    6.2850 O.2       1 563        -0.3861
     31 CAE        -3.8000  -41.4130    6.7380 C.3       1 563         0.0398
     32 CAA        -2.7720  -42.3220    7.4490 C.3       1 563        -0.0478
     33 H1        -14.1038  -38.1224    5.6916 H         1 563         0.0474
     34 H2        -13.0948  -41.7621    2.7124 H         1 563         0.0617
     35 H3        -15.3174  -42.8276    1.8776 H         1 563         0.0648
     36 H4        -18.6123  -41.0945    2.5278 H         1 563         0.0472
     37 H5        -17.8843  -42.7253    2.7202 H         1 563         0.0472
     38 H6        -17.6817  -41.8276    1.1776 H         1 563         0.0472
     39 H7        -16.5671  -41.9598    4.7130 H         1 563         0.0532
     40 H8        -17.6453  -40.5452    4.4619 H         1 563         0.0532
     41 H9        -15.4874  -40.1280    5.7991 H         1 563         0.0586
     42 H10       -15.8235  -39.0209    4.4250 H         1 563         0.0586
     43 H11       -13.0156  -36.4880    6.9214 H         1 563         0.2114
     44 H12        -9.3749  -37.6374    7.4719 H         1 563         0.0218
     45 H13        -7.5921  -34.7011    9.4508 H         1 563         0.0437
     46 H14        -7.0766  -35.7873    8.1162 H         1 563         0.0437
     47 H15        -7.6542  -36.4831    9.6683 H         1 563         0.0437
     48 H16        -9.8678  -33.7844    9.0020 H         1 563         0.2453
     49 H17        -8.6061  -39.6728    6.9574 H         1 563         0.0523
     50 H18        -6.2384  -39.1082    7.3561 H         1 563         0.0482
     51 H19        -7.6915  -40.5646    2.8787 H         1 563         0.0523
     52 H20        -5.3110  -40.0223    3.2784 H         1 563         0.0482
     53 H21        -3.9939  -38.3243    5.2444 H         1 563         0.2225
     54 H22        -4.1919  -41.9888    5.8866 H         1 563         0.0504
     55 H23        -4.6091  -41.2297    7.4603 H         1 563         0.0504
     56 H24        -3.2641  -43.2528    7.7675 H         1 563         0.0254
     57 H25        -2.3688  -41.8006    8.3296 H         1 563         0.0254
     58 H26        -1.9515  -42.5596    6.7560 H         1 563         0.0254
@<TRIPOS>BOND
     1    1    2 ar 
     2    1    5 ar 
     3   12    1 1  
     4    2    3 ar 
     5    3    4 ar 
     6    3   13 1  
     7   20    4 ar 
     8    5   20 ar 
     9    6    7 2  
    10    6   12 1  
    11    7    8 1  
    12    8    9 1  
    13    8   10 1  
    14   10   11 1  
    15   11   12 1  
    16   13   14 1  
    17   14   15 1  
    18   14   19 2  
    19   15   16 2  
    20   16   17 1  
    21   16   18 1  
    22   18   19 1  
    23   20   21 1  
    24   21   22 1  
    25   22   23 ar 
    26   22   25 ar 
    27   23   24 ar 
    28   24   27 ar 
    29   25   26 ar 
    30   26   27 ar 
    31   27   28 1  
    32   28   29 am 
    33   29   30 2  
    34   29   31 1  
    35   31   32 1  
    36    2   33 1  
    37    6   34 1  
    38    7   35 1  
    39    9   36 1  
    40    9   37 1  
    41    9   38 1  
    42   10   39 1  
    43   10   40 1  
    44   11   41 1  
    45   11   42 1  
    46   13   43 1  
    47   15   44 1  
    48   17   45 1  
    49   17   46 1  
    50   17   47 1  
    51   18   48 1  
    52   23   49 1  
    53   24   50 1  
    54   25   51 1  
    55   26   52 1  
    56   28   53 1  
    57   31   54 1  
    58   31   55 1  
    59   32   56 1  
    60   32   57 1  
    61   32   58 1  
@<TRIPOS>SUBSTRUCTURE
     1 563         1

