5d10_ligand
  -I-interpret- 

 57 60  0  0  0  0  0  0  0  0999 V2000
  -13.1120  -39.7560    4.6680 C   0  0  0  0  0
  -13.1500  -38.5930    5.4820 C   0  0  0  0  0
  -11.9680  -38.0360    6.0250 C   0  0  0  0  0
  -10.8110  -38.6670    5.7100 N   0  0  0  0  0
  -11.9000  -40.3040    4.4410 N   0  0  0  0  0
  -14.0720  -41.4140    3.0440 C   0  0  0  0  0
  -15.2830  -41.9230    2.4830 C   0  0  0  0  0
  -16.5020  -41.1100    2.7960 N   0  0  0  0  0
  -17.7520  -41.7300    2.2710 C   0  0  0  0  0
  -16.6610  -40.9770    4.2280 C   0  0  0  0  0
  -15.5570  -40.0510    4.7040 C   0  0  0  0  0
  -14.2210  -40.3640    4.1250 N   0  0  0  0  0
  -12.0750  -36.8940    6.8150 N   0  0  0  0  0
  -11.0480  -36.2580    7.4650 C   0  0  0  0  0
   -9.8140  -36.6770    7.7380 C   0  0  0  0  0
   -9.2210  -35.6770    8.4070 C   0  0  0  0  0
   -7.7840  -35.6610    8.9490 C   0  0  0  0  0
  -10.0560  -34.6840    8.5370 N   0  0  0  0  0
  -11.1140  -35.0230    7.9990 N   0  0  0  0  0
  -10.7710  -39.7740    4.9330 C   0  0  0  0  0
   -9.6290  -40.4630    4.6070 O   0  0  0  0  0
   -8.3280  -40.1270    4.8840 C   0  0  0  0  0
   -7.8950  -39.7400    6.1420 C   0  0  0  0  0
   -6.5480  -39.4350    6.3700 C   0  0  0  0  0
   -7.3770  -40.2400    3.8640 C   0  0  0  0  0
   -6.0250  -39.9420    4.0900 C   0  0  0  0  0
   -5.5960  -39.5420    5.3580 C   0  0  0  0  0
   -4.3020  -39.2200    5.5650 N   0  0  0  0  0
   -3.3800  -40.0190    6.1770 C   0  0  0  0  0
   -2.2110  -39.6390    6.2850 O   0  0  0  0  0
   -3.8000  -41.4130    6.7380 C   0  0  0  0  0
   -2.7720  -42.3220    7.4490 C   0  0  0  0  0
  -14.1091  -38.1198    5.6928 H   0  0  0  0  0
  -13.0940  -41.7624    2.7121 H   0  0  0  0  0
  -15.3175  -42.8284    1.8770 H   0  0  0  0  0
  -17.6811  -41.8262    1.1876 H   0  0  0  0  0
  -17.8819  -42.7161    2.7168 H   0  0  0  0  0
  -18.6037  -41.0994    2.5261 H   0  0  0  0  0
  -16.5926  -41.9479    4.7186 H   0  0  0  0  0
  -17.6421  -40.5710    4.4742 H   0  0  0  0  0
  -15.4786  -40.1664    5.7850 H   0  0  0  0  0
  -15.8202  -39.0414    4.3886 H   0  0  0  0  0
  -13.0065  -36.4919    6.9204 H   0  0  0  0  0
   -9.3745  -37.6383    7.4717 H   0  0  0  0  0
   -7.6567  -36.4760    9.6615 H   0  0  0  0  0
   -7.0840  -35.7862    8.1229 H   0  0  0  0  0
   -7.5950  -34.7094    9.4459 H   0  0  0  0  0
   -8.6101  -39.6724    6.9619 H   0  0  0  0  0
   -6.2367  -39.1064    7.3616 H   0  0  0  0  0
   -7.6932  -40.5663    2.8732 H   0  0  0  0  0
   -5.3070  -40.0228    3.2739 H   0  0  0  0  0
   -3.9877  -38.3064    5.2379 H   0  0  0  0  0
   -4.0891  -41.9798    5.8530 H   0  0  0  0  0
   -4.5293  -41.1789    7.5135 H   0  0  0  0  0
   -1.9596  -42.5567    6.7613 H   0  0  0  0  0
   -2.3732  -41.8042    8.3213 H   0  0  0  0  0
   -3.2608  -43.2439    7.7641 H   0  0  0  0  0
  1  2  4  0  0  0
  1  5  4  0  0  0
 12  1  1  0  0  0
  2  3  4  0  0  0
  3  4  4  0  0  0
  3 13  1  0  0  0
 20  4  4  0  0  0
  5 20  4  0  0  0
  6  7  2  0  0  0
  6 12  1  0  0  0
  7  8  1  0  0  0
  8  9  1  0  0  0
  8 10  1  0  0  0
 10 11  1  0  0  0
 11 12  1  0  0  0
 13 14  1  0  0  0
 14 15  4  0  0  0
 14 19  4  0  0  0
 15 16  4  0  0  0
 16 17  1  0  0  0
 16 18  4  0  0  0
 18 19  4  0  0  0
 20 21  1  0  0  0
 21 22  1  0  0  0
 22 23  4  0  0  0
 22 25  4  0  0  0
 23 24  4  0  0  0
 24 27  4  0  0  0
 25 26  4  0  0  0
 26 27  4  0  0  0
 27 28  1  0  0  0
 28 29  1  0  0  0
 29 30  2  0  0  0
 29 31  1  0  0  0
 31 32  1  0  0  0
  2 33  1  0  0  0
  6 34  1  0  0  0
  7 35  1  0  0  0
  9 36  1  0  0  0
  9 37  1  0  0  0
  9 38  1  0  0  0
 10 39  1  0  0  0
 10 40  1  0  0  0
 11 41  1  0  0  0
 11 42  1  0  0  0
 13 43  1  0  0  0
 15 44  1  0  0  0
 17 45  1  0  0  0
 17 46  1  0  0  0
 17 47  1  0  0  0
 23 48  1  0  0  0
 24 49  1  0  0  0
 25 50  1  0  0  0
 26 51  1  0  0  0
 28 52  1  0  0  0
 31 53  1  0  0  0
 31 54  1  0  0  0
 32 55  1  0  0  0
 32 56  1  0  0  0
 32 57  1  0  0  0
M  END
$$$$
