5drc_ligand
  -I-interpret- 

 27 28  0  0  0  0  0  0  0  0999 V2000
   34.2460   76.4970   63.5650 C   0  0  0  0  0
   31.2890   75.0610   61.8890 C   0  0  0  0  0
   31.1530   76.6580   60.0450 C   0  0  0  0  0
   32.9650   76.9330   61.7150 C   0  0  0  0  0
   37.8070   79.8700   65.2750 O   0  0  0  0  0
   38.0310   80.1350   64.0550 C   0  0  0  0  0
   39.1850   80.3620   63.5700 O   0  0  0  0  0
   36.8250   80.1620   63.0660 C   0  0  0  0  0
   36.9160   80.9280   61.9260 O   0  0  0  0  0
   35.7070   79.3910   63.2540 C   0  0  0  0  0
   35.0680   78.5790   62.2090 C   0  0  0  0  0
   35.3150   78.8460   61.0050 O   0  0  0  0  0
   34.1360   77.3960   62.4870 C   0  0  0  0  0
   33.2230   75.5240   63.5010 N   0  0  0  0  0
   32.4270   75.7650   62.3710 C   0  0  0  0  0
   30.6470   75.5140   60.7220 C   0  0  0  0  0
   32.2880   77.3420   60.5420 C   0  0  0  0  0
   35.0117   76.5447   64.3393 H   0  0  0  0  0
   30.9191   74.1820   62.4169 H   0  0  0  0  0
   30.6633   77.0103   59.1372 H   0  0  0  0  0
   39.1067   80.5376   62.6295 H   0  0  0  0  0
   36.4323   80.5443   64.0082 H   0  0  0  0  0
   37.7462   81.4100   61.9311 H   0  0  0  0  0
   34.9419   80.1353   63.4747 H   0  0  0  0  0
   36.0572   78.6360   63.9578 H   0  0  0  0  0
   29.7693   74.9927   60.3399 H   0  0  0  0  0
   32.6536   78.2152   60.0017 H   0  0  0  0  0
 13  1  4  0  0  0
  1 14  4  0  0  0
 15  2  4  0  0  0
  2 16  4  0  0  0
  3 16  4  0  0  0
 17  3  4  0  0  0
 13  4  4  0  0  0
  4 15  4  0  0  0
  4 17  4  0  0  0
  6  5  2  0  0  0
  6  7  1  0  0  0
  8  6  1  0  0  0
  8  9  1  0  0  0
 10  8  1  0  0  0
 11 10  1  0  0  0
 11 12  2  0  0  0
 11 13  1  0  0  0
 14 15  4  0  0  0
  1 18  1  0  0  0
  2 19  1  0  0  0
  3 20  1  0  0  0
  7 21  1  0  0  0
  8 22  1  0  0  0
  9 23  1  0  0  0
 10 24  1  0  0  0
 10 25  1  0  0  0
 16 26  1  0  0  0
 17 27  1  0  0  0
M  END
$$$$
