1nc6_ligand
  -I-interpret- 

 62 64  0  0  0  0  0  0  0  0999 V2000
   42.9260   24.9830   51.9510 N   0  0  0  0  0
   42.1130   26.1700   51.9010 C   0  0  0  0  0
   42.6050   24.2470   50.7510 C   0  0  0  0  0
   41.6090   24.9950   49.8970 C   0  0  0  0  0
   41.2700   26.1940   50.6340 C   0  0  0  0  0
   43.8730   23.9470   49.9320 C   0  0  0  0  0
   44.9350   24.3180   50.3610 O   0  0  0  0  0
   43.8700   22.4760   49.5650 N   0  3  0  0  0
   44.9500   21.7580   48.7840 C   0  0  0  0  0
   44.9510   20.2810   49.3230 C   0  0  0  0  0
   45.2090   20.3250   50.8320 C   0  0  0  0  0
   45.2130   18.9730   51.4780 C   0  0  0  0  0
   45.4730   19.1640   52.9210 N   0  0  0  0  0
   45.6300   17.9970   53.8330 C   0  0  0  0  0
   46.2850   18.2900   55.1370 N   0  0  0  0  0
   45.4720   16.8200   53.0350 N   0  0  0  0  0
   45.7980   21.0240   46.6110 O   0  0  0  0  0
   43.5470   24.0540   46.8260 N   0  0  0  0  0
   44.6650   23.2600   46.8320 C   0  0  0  0  0
   46.0500   24.1250   46.2890 S   0  0  0  0  0
   43.7950   25.3430   46.3970 C   0  0  0  0  0
   45.1580   25.5940   46.0400 C   0  0  0  0  0
   45.5590   26.8770   45.5820 C   0  0  0  0  0
   44.5980   27.9330   45.4730 C   0  0  0  0  0
   43.2220   27.7050   45.8250 C   0  0  0  0  0
   42.8180   26.3890   46.2920 C   0  0  0  0  0
   39.8930   26.1590   50.9890 O   0  0  0  0  0
   42.8600   24.1170   53.0760 C   0  0  0  0  0
   42.4450   24.6250   54.4730 C   0  0  0  0  0
   43.1830   22.9060   53.0060 O   0  0  0  0  0
   44.6940   21.7730   47.2670 C   0  0  0  0  0
   42.7651   27.0434   51.9061 H   0  0  0  0  0
   41.4490   26.1782   52.7654 H   0  0  0  0  0
   42.1548   23.3040   51.0612 H   0  0  0  0  0
   40.7242   24.3892   49.7013 H   0  0  0  0  0
   42.0302   25.2378   48.9214 H   0  0  0  0  0
   41.4558   27.0906   50.0426 H   0  0  0  0  0
   43.7964   24.5839   49.0508 H   0  0  0  0  0
   44.8830   25.2520   50.5769 H   0  0  0  0  0
   43.0740   22.4172   48.9299 H   0  0  0  0  0
   43.9363   22.0289   50.4794 H   0  0  0  0  0
   45.9100   22.2552   48.9230 H   0  0  0  0  0
   45.7281   19.7003   48.8259 H   0  0  0  0  0
   43.9910   19.8064   49.1198 H   0  0  0  0  0
   44.4029   20.9020   51.2853 H   0  0  0  0  0
   46.1958   20.7628   50.9828 H   0  0  0  0  0
   45.9840   18.3432   51.0341 H   0  0  0  0  0
   44.2533   18.4785   51.3281 H   0  0  0  0  0
   45.5459   20.1092   53.2975 H   0  0  0  0  0
   46.7532   17.5440   55.6516 H   0  0  0  0  0
   46.2657   19.2367   55.5161 H   0  0  0  0  0
   45.2886   16.9026   52.0350 H   0  0  0  0  0
   45.6599   21.0196   45.6610 H   0  0  0  0  0
   46.5996   27.0582   45.3131 H   0  0  0  0  0
   44.9112   28.9159   45.1210 H   0  0  0  0  0
   42.4910   28.5094   45.7425 H   0  0  0  0  0
   41.7791   26.1978   46.5608 H   0  0  0  0  0
   39.6694   26.9545   51.4776 H   0  0  0  0  0
   41.5812   24.0593   54.8221 H   0  0  0  0  0
   43.2739   24.4908   55.1680 H   0  0  0  0  0
   42.1879   25.6825   54.4121 H   0  0  0  0  0
   43.7520   21.3011   46.9876 H   0  0  0  0  0
  1  2  1  0  0  0
  3  1  1  0  0  0
  1 28  1  0  0  0
  5  2  1  0  0  0
  3  4  1  0  0  0
  6  3  1  0  0  0
  4  5  1  0  0  0
  5 27  1  0  0  0
  6  7  1  0  0  0
  8  6  1  0  0  0
  9  8  1  0  0  0
  9 10  1  0  0  0
 31  9  1  0  0  0
 10 11  1  0  0  0
 11 12  1  0  0  0
 12 13  1  0  0  0
 13 14  1  0  0  0
 14 15  1  0  0  0
 14 16  2  0  0  0
 31 17  1  0  0  0
 19 18  4  0  0  0
 18 21  4  0  0  0
 19 20  4  0  0  0
 19 31  1  0  0  0
 20 22  4  0  0  0
 21 22  4  0  0  0
 21 26  4  0  0  0
 22 23  4  0  0  0
 23 24  4  0  0  0
 24 25  4  0  0  0
 25 26  4  0  0  0
 28 29  1  0  0  0
 28 30  2  0  0  0
  2 32  1  0  0  0
  2 33  1  0  0  0
  3 34  1  0  0  0
  4 35  1  0  0  0
  4 36  1  0  0  0
  5 37  1  0  0  0
  6 38  1  0  0  0
  7 39  1  0  0  0
  8 40  1  0  0  0
  8 41  1  0  0  0
  9 42  1  0  0  0
 10 43  1  0  0  0
 10 44  1  0  0  0
 11 45  1  0  0  0
 11 46  1  0  0  0
 12 47  1  0  0  0
 12 48  1  0  0  0
 13 49  1  0  0  0
 15 50  1  0  0  0
 15 51  1  0  0  0
 16 52  1  0  0  0
 17 53  1  0  0  0
 23 54  1  0  0  0
 24 55  1  0  0  0
 25 56  1  0  0  0
 26 57  1  0  0  0
 27 58  1  0  0  0
 29 59  1  0  0  0
 29 60  1  0  0  0
 29 61  1  0  0  0
 31 62  1  0  0  0
M  END
$$$$
