4p0v_ligand
  -I-interpret- 

 51 53  0  0  0  0  0  0  0  0999 V2000
   -5.7390   32.2870  -14.3490 O   0  0  0  0  0
   -6.5800   33.2250  -14.4610 C   0  0  0  0  0
   -7.2920   33.8100  -13.3740 C   0  0  0  0  0
   -7.0560   33.2910  -12.1420 O   0  0  0  0  0
   -8.1890   34.9200  -13.4790 C   0  0  0  0  0
   -8.9780   35.4090  -12.3750 C   0  0  0  0  0
  -10.0100   34.3160  -12.2450 C   0  0  0  0  0
   -8.4800   35.5060  -11.0730 C   0  0  0  0  0
   -9.7410   35.4380  -10.0770 C   0  0  0  0  0
  -11.0740   35.9700  -10.6200 C   0  0  0  0  0
  -10.6860   37.1840  -11.6100 C   0  0  0  0  0
  -11.8920   37.7070  -12.3410 C   0  0  0  0  0
  -10.0500   38.3610  -10.8160 C   0  0  0  0  0
   -9.6370   36.7210  -12.7420 C   0  0  0  0  0
  -10.0960   36.8260  -14.1410 C   0  0  0  0  0
  -11.1100   37.5050  -14.4760 O   0  0  0  0  0
   -9.2370   36.3200  -15.1220 C   0  0  0  0  0
   -8.3580   35.4270  -14.7500 C   0  0  0  0  0
   -7.7830   34.8410  -15.7680 C   0  0  0  0  0
   -6.8710   33.8050  -15.7060 C   0  0  0  0  0
   -6.2970   33.3550  -16.8970 C   0  0  0  0  0
   -5.8250   34.4490  -17.7450 C   0  0  0  0  0
   -7.3720   32.7490  -17.7740 C   0  0  0  0  0
   -7.8766   34.0248  -14.2685 H   0  0  0  0  0
   -6.4410   32.5577  -12.2173 H   0  0  0  0  0
   -9.5264   33.3999  -11.9058 H   0  0  0  0  0
  -10.7677   34.6176  -11.5218 H   0  0  0  0  0
  -10.4788   34.1436  -13.2138 H   0  0  0  0  0
   -7.9341   36.4398  -10.9388 H   0  0  0  0  0
   -7.7829   34.6939  -10.8666 H   0  0  0  0  0
   -9.4878   36.0713   -9.2268 H   0  0  0  0  0
   -9.9019   34.3807   -9.8665 H   0  0  0  0  0
  -11.7267   36.3061   -9.8143 H   0  0  0  0  0
  -11.6302   35.1919  -11.1427 H   0  0  0  0  0
  -12.3320   36.9051  -12.9338 H   0  0  0  0  0
  -12.6235   38.0703  -11.6192 H   0  0  0  0  0
  -11.5914   38.5233  -12.9979 H   0  0  0  0  0
  -10.7620   38.7244  -10.0750 H   0  0  0  0  0
   -9.1471   38.0131  -10.3142 H   0  0  0  0  0
   -9.7969   39.1672  -11.5045 H   0  0  0  0  0
   -8.8529   37.4782  -12.7380 H   0  0  0  0  0
   -8.6579   37.1736  -15.4743 H   0  0  0  0  0
   -9.8797   35.8168  -15.8444 H   0  0  0  0  0
   -8.0487   35.2048  -16.7605 H   0  0  0  0  0
   -5.4960   32.6827  -16.5896 H   0  0  0  0  0
   -6.6638   35.0960  -18.0016 H   0  0  0  0  0
   -5.0716   35.0247  -17.2073 H   0  0  0  0  0
   -5.3890   34.0388  -18.6559 H   0  0  0  0  0
   -7.8351   31.9113  -17.2525 H   0  0  0  0  0
   -8.1271   33.5035  -17.9948 H   0  0  0  0  0
   -6.9251   32.3974  -18.7039 H   0  0  0  0  0
  1  2  2  0  0  0
  2  3  1  0  0  0
  2 20  1  0  0  0
  3  4  1  0  0  0
  3  5  1  0  0  0
  5  6  1  0  0  0
  5 18  2  0  0  0
  6  7  1  0  0  0
  6  8  1  0  0  0
  6 14  1  0  0  0
  8  9  1  0  0  0
  9 10  1  0  0  0
 10 11  1  0  0  0
 11 12  1  0  0  0
 11 13  1  0  0  0
 11 14  1  0  0  0
 14 15  1  0  0  0
 15 16  2  0  0  0
 15 17  1  0  0  0
 17 18  1  0  0  0
 18 19  1  0  0  0
 19 20  2  0  0  0
 20 21  1  0  0  0
 21 22  1  0  0  0
 21 23  1  0  0  0
  3 24  1  0  0  0
  4 25  1  0  0  0
  7 26  1  0  0  0
  7 27  1  0  0  0
  7 28  1  0  0  0
  8 29  1  0  0  0
  8 30  1  0  0  0
  9 31  1  0  0  0
  9 32  1  0  0  0
 10 33  1  0  0  0
 10 34  1  0  0  0
 12 35  1  0  0  0
 12 36  1  0  0  0
 12 37  1  0  0  0
 13 38  1  0  0  0
 13 39  1  0  0  0
 13 40  1  0  0  0
 14 41  1  0  0  0
 17 42  1  0  0  0
 17 43  1  0  0  0
 19 44  1  0  0  0
 21 45  1  0  0  0
 22 46  1  0  0  0
 22 47  1  0  0  0
 22 48  1  0  0  0
 23 49  1  0  0  0
 23 50  1  0  0  0
 23 51  1  0  0  0
M  END
$$$$
