6bh0_ligand
  -I-interpret- 

 53 56  0  0  0  0  0  0  0  0999 V2000
  -27.7750   23.7270    6.8660 C   0  0  0  0  0
  -27.9670   22.5000    4.4050 C   0  0  0  0  0
  -23.7890   25.8140    3.1300 C   0  0  0  0  0
  -22.6400   25.2430    0.5060 C   0  0  0  0  0
  -21.5240   26.2440    0.5000 C   0  0  0  0  0
  -21.4250   26.9370    1.8260 C   0  0  0  0  0
  -24.7670   20.3410    3.2360 C   0  0  0  0  0
  -23.3500   19.1470    7.7310 C   0  0  0  0  0
  -23.5260   18.7870    6.2960 C   0  0  0  0  0
  -24.0600   19.6730    5.3550 C   0  0  0  0  0
  -24.9630   21.4360    4.2460 C   0  0  0  0  0
  -25.4600   22.6660    4.0320 C   0  0  0  0  0
  -26.7120   22.8880    4.8530 C   0  0  0  0  0
  -26.6450   23.5040    6.0950 C   0  0  0  0  0
  -29.0160   23.3280    6.3970 C   0  0  0  0  0
  -29.1110   22.7120    5.1600 C   0  0  0  0  0
  -24.9810   24.9470    3.4030 C   0  0  0  0  0
  -22.5580   24.3060    1.7110 C   0  0  0  0  0
  -21.3830   25.9410    2.9860 C   0  0  0  0  0
  -24.1860   19.2620    4.0570 C   0  0  0  0  0
  -23.3110   17.1900    4.5270 C   0  0  0  0  0
  -23.1430   17.5170    5.8690 C   0  0  0  0  0
  -24.5240   20.9830    5.4750 N   0  0  0  0  0
  -22.5420   25.0490    2.9720 N   0  3  0  0  0
  -23.8190   18.0350    3.6340 N   0  0  0  0  0
  -24.0080   20.1050    8.2160 O   0  0  0  0  0
  -24.5860   23.7890    4.1830 O   0  0  0  0  0
  -22.5510   18.5010    8.4560 O   0  0  0  0  0
  -28.1430   21.7250    2.8690 Cl  0  0  0  0  0
  -27.6876   24.2142    7.8371 H   0  0  0  0  0
  -23.6624   26.4808    3.9829 H   0  0  0  0  0
  -23.9726   26.3444    2.1956 H   0  0  0  0  0
  -22.5652   24.6420   -0.4003 H   0  0  0  0  0
  -23.5847   25.7843    0.5574 H   0  0  0  0  0
  -21.7224   26.9877   -0.2718 H   0  0  0  0  0
  -20.5862   25.7244    0.3036 H   0  0  0  0  0
  -22.3047   27.5689    1.9488 H   0  0  0  0  0
  -20.5033   27.5187    1.8405 H   0  0  0  0  0
  -24.9955   20.3433    2.1702 H   0  0  0  0  0
  -25.6635   22.6447    2.9614 H   0  0  0  0  0
  -25.6744   23.8220    6.4755 H   0  0  0  0  0
  -29.9104   23.4974    6.9965 H   0  0  0  0  0
  -30.0824   22.3946    4.7809 H   0  0  0  0  0
  -25.4053   24.6131    2.4561 H   0  0  0  0  0
  -25.7202   25.5203    3.9625 H   0  0  0  0  0
  -21.6344   23.7317    1.6382 H   0  0  0  0  0
  -23.4350   23.6588    1.7040 H   0  0  0  0  0
  -21.3907   26.5010    3.9211 H   0  0  0  0  0
  -20.4816   25.3360    2.8880 H   0  0  0  0  0
  -23.0128   16.1964    4.1923 H   0  0  0  0  0
  -22.7216   16.7965    6.5700 H   0  0  0  0  0
  -22.4728   24.3965    3.7529 H   0  0  0  0  0
  -24.5656   20.4865    7.5340 H   0  0  0  0  0
 14  1  4  0  0  0
  1 15  4  0  0  0
 13  2  4  0  0  0
  2 16  4  0  0  0
  2 29  1  0  0  0
  3 17  1  0  0  0
 24  3  1  0  0  0
  4  5  1  0  0  0
 18  4  1  0  0  0
  5  6  1  0  0  0
  6 19  1  0  0  0
 11  7  4  0  0  0
  7 20  4  0  0  0
  9  8  1  0  0  0
  8 26  1  0  0  0
  8 28  2  0  0  0
 10  9  4  0  0  0
  9 22  4  0  0  0
 10 20  4  0  0  0
 23 10  4  0  0  0
 12 11  1  0  0  0
 11 23  4  0  0  0
 12 13  1  0  0  0
 27 12  1  0  0  0
 13 14  4  0  0  0
 16 15  4  0  0  0
 17 27  1  0  0  0
 18 24  1  0  0  0
 19 24  1  0  0  0
 20 25  4  0  0  0
 22 21  4  0  0  0
 21 25  4  0  0  0
  1 30  1  0  0  0
  3 31  1  0  0  0
  3 32  1  0  0  0
  4 33  1  0  0  0
  4 34  1  0  0  0
  5 35  1  0  0  0
  5 36  1  0  0  0
  6 37  1  0  0  0
  6 38  1  0  0  0
  7 39  1  0  0  0
 12 40  1  0  0  0
 14 41  1  0  0  0
 15 42  1  0  0  0
 16 43  1  0  0  0
 17 44  1  0  0  0
 17 45  1  0  0  0
 18 46  1  0  0  0
 18 47  1  0  0  0
 19 48  1  0  0  0
 19 49  1  0  0  0
 21 50  1  0  0  0
 22 51  1  0  0  0
 24 52  1  0  0  0
 26 53  1  0  0  0
M  END
$$$$
