4rsp_ligand
  -I-interpret- 

 97 97  0  0  0  0  0  0  0  0999 V2000
  -23.9000  -10.4190    0.6950 O   0  0  0  0  0
  -23.3740  -10.5510   -0.3940 C   0  0  0  0  0
  -24.1440  -10.8590   -1.5600 O   0  0  0  0  0
  -25.3550  -11.6340   -1.4540 C   0  0  0  0  0
  -25.0720  -12.9040   -0.6980 C   0  0  0  0  0
  -25.6900  -11.9250   -2.9310 C   0  0  0  0  0
  -26.4490  -10.8050   -0.8210 C   0  0  0  0  0
  -22.2650   -9.7150   -0.7830 N   0  0  0  0  0
  -21.6370   -8.8800    0.1830 C   0  0  0  0  0
  -22.6330   -7.7870    0.5420 C   0  0  0  0  0
  -23.5830   -7.4970   -0.1780 O   0  0  0  0  0
  -20.3660   -8.3290   -0.4070 C   0  0  0  0  0
  -20.6730   -7.8110   -1.6740 O   0  0  0  0  0
  -22.4510   -7.1000    1.8060 N   0  0  0  0  0
  -23.3520   -6.0960    2.2060 C   0  0  0  0  0
  -22.5800   -4.8030    2.3730 C   0  0  0  0  0
  -21.6090   -4.7820    3.0890 O   0  0  0  0  0
  -23.8530   -6.4820    3.6040 C   0  0  0  0  0
  -24.7920   -5.3920    4.2050 C   0  0  0  0  0
  -24.5480   -7.8610    3.5930 C   0  0  0  0  0
  -23.0050   -3.6000    1.7120 N   0  0  0  0  0
  -22.2510   -2.4100    1.9110 C   0  0  0  0  0
  -22.6360   -1.9090    3.3120 C   0  0  0  0  0
  -23.7860   -1.8980    3.6950 O   0  0  0  0  0
  -22.6210   -1.3660    0.8610 C   0  0  0  0  0
  -22.1570   -1.8470   -0.5470 C   0  0  0  0  0
  -22.6500   -0.8510   -1.6160 C   0  0  0  0  0
  -20.6450   -1.9960   -0.5730 C   0  0  0  0  0
  -25.0900    1.4450    4.1190 O   0  0  0  0  0
  -26.4380    1.3920    4.6340 C   0  0  0  0  0
  -27.2660    0.5230    3.7010 C   0  0  0  0  0
  -21.6060   -1.4390    4.2080 N   0  0  0  0  0
  -21.9770   -0.9880    5.5280 C   0  0  0  0  0
  -21.2320   -1.8070    6.5820 C   0  0  0  0  0
  -21.7240   -3.2490    6.6510 C   0  0  0  0  0
  -21.6680    0.4850    5.6120 C   0  0  0  0  0
  -21.0080   -4.0170    7.6740 C   0  0  0  0  0
  -19.7960   -4.0580    7.8660 O   0  0  0  0  0
  -21.9940   -4.8080    8.4230 N   0  0  0  0  0
  -23.2920   -4.5590    7.9250 C   0  0  0  0  0
  -23.1500   -3.2360    7.1500 C   0  0  0  0  0
  -22.5860    1.3250    4.6820 C   0  0  0  0  0
  -24.0990    1.3500    5.1430 C   0  0  0  0  0
  -24.4920    0.9420    6.2370 O   0  0  0  0  0
  -24.7592  -12.6591    0.3170 H   0  0  0  0  0
  -25.9747  -13.5140   -0.6641 H   0  0  0  0  0
  -24.2779  -13.4556   -1.2012 H   0  0  0  0  0
  -26.6305  -12.4731   -2.9877 H   0  0  0  0  0
  -25.7831  -10.9841   -3.4733 H   0  0  0  0  0
  -24.8924  -12.5228   -3.3722 H   0  0  0  0  0
  -26.5442   -9.8609   -1.3574 H   0  0  0  0  0
  -27.3916  -11.3500   -0.8719 H   0  0  0  0  0
  -26.1973  -10.6084    0.2212 H   0  0  0  0  0
  -21.9320   -9.7223   -1.7471 H   0  0  0  0  0
  -21.3636   -9.4201    1.0895 H   0  0  0  0  0
  -19.6150   -9.1146   -0.4904 H   0  0  0  0  0
  -19.9584   -7.5471    0.2337 H   0  0  0  0  0
  -19.8771   -7.4522   -2.0732 H   0  0  0  0  0
  -21.6655   -7.3459    2.4084 H   0  0  0  0  0
  -24.1600   -5.9863    1.4827 H   0  0  0  0  0
  -22.9761   -6.5517    4.2477 H   0  0  0  0  0
  -24.2493   -4.4500    4.2837 H   0  0  0  0  0
  -25.6572   -5.2612    3.5551 H   0  0  0  0  0
  -25.1236   -5.7055    5.1949 H   0  0  0  0  0
  -25.4012   -7.8310    2.9153 H   0  0  0  0  0
  -23.8416   -8.6198    3.2565 H   0  0  0  0  0
  -24.8901   -8.1021    4.5995 H   0  0  0  0  0
  -23.8302   -3.5992    1.1125 H   0  0  0  0  0
  -21.1799   -2.5918    1.8233 H   0  0  0  0  0
  -22.1287   -0.4234    1.1005 H   0  0  0  0  0
  -23.7020   -1.2266    0.8563 H   0  0  0  0  0
  -22.5877   -2.8238   -0.7672 H   0  0  0  0  0
  -23.7384   -0.7996   -1.5884 H   0  0  0  0  0
  -22.2331    0.1352   -1.4117 H   0  0  0  0  0
  -22.3257   -1.1870   -2.6009 H   0  0  0  0  0
  -20.1825   -1.0341   -0.3515 H   0  0  0  0  0
  -20.3404   -2.7279    0.1751 H   0  0  0  0  0
  -20.3313   -2.3325   -1.5612 H   0  0  0  0  0
  -26.8601    2.3956    4.6861 H   0  0  0  0  0
  -26.4398    0.9714    5.6396 H   0  0  0  0  0
  -27.2619    0.9585    2.7018 H   0  0  0  0  0
  -26.8378   -0.4787    3.6640 H   0  0  0  0  0
  -28.2899    0.4683    4.0707 H   0  0  0  0  0
  -20.6299   -1.4259    3.9123 H   0  0  0  0  0
  -23.0406   -1.1325    5.7176 H   0  0  0  0  0
  -21.4052   -1.3443    7.5536 H   0  0  0  0  0
  -20.1759   -1.8231    6.3126 H   0  0  0  0  0
  -21.5901   -3.6827    5.6600 H   0  0  0  0  0
  -20.6350    0.6354    5.2982 H   0  0  0  0  0
  -21.8334    0.8103    6.6391 H   0  0  0  0  0
  -21.7735   -5.4435    9.1898 H   0  0  0  0  0
  -24.0330   -4.4923    8.7216 H   0  0  0  0  0
  -23.6532   -5.3701    7.2927 H   0  0  0  0  0
  -23.8698   -3.1576    6.3353 H   0  0  0  0  0
  -23.3584   -2.3685    7.7761 H   0  0  0  0  0
  -22.5529    0.8704    3.6919 H   0  0  0  0  0
  -22.2207    2.3518    4.7019 H   0  0  0  0  0
  2  1  2  0  0  0
  2  3  1  0  0  0
  8  2  1  0  0  0
  3  4  1  0  0  0
  4  5  1  0  0  0
  4  6  1  0  0  0
  4  7  1  0  0  0
  9  8  1  0  0  0
 10  9  1  0  0  0
  9 12  1  0  0  0
 10 11  2  0  0  0
 14 10  1  0  0  0
 12 13  1  0  0  0
 15 14  1  0  0  0
 16 15  1  0  0  0
 15 18  1  0  0  0
 16 17  2  0  0  0
 21 16  1  0  0  0
 18 19  1  0  0  0
 18 20  1  0  0  0
 22 21  1  0  0  0
 23 22  1  0  0  0
 22 25  1  0  0  0
 23 24  2  0  0  0
 32 23  1  0  0  0
 25 26  1  0  0  0
 26 27  1  0  0  0
 26 28  1  0  0  0
 29 30  1  0  0  0
 43 29  1  0  0  0
 30 31  1  0  0  0
 33 32  1  0  0  0
 33 34  1  0  0  0
 36 33  1  0  0  0
 34 35  1  0  0  0
 35 37  1  0  0  0
 35 41  1  0  0  0
 42 36  1  0  0  0
 37 38  2  0  0  0
 37 39  1  0  0  0
 40 39  1  0  0  0
 41 40  1  0  0  0
 42 43  1  0  0  0
 43 44  2  0  0  0
  5 45  1  0  0  0
  5 46  1  0  0  0
  5 47  1  0  0  0
  6 48  1  0  0  0
  6 49  1  0  0  0
  6 50  1  0  0  0
  7 51  1  0  0  0
  7 52  1  0  0  0
  7 53  1  0  0  0
  8 54  1  0  0  0
  9 55  1  0  0  0
 12 56  1  0  0  0
 12 57  1  0  0  0
 13 58  1  0  0  0
 14 59  1  0  0  0
 15 60  1  0  0  0
 18 61  1  0  0  0
 19 62  1  0  0  0
 19 63  1  0  0  0
 19 64  1  0  0  0
 20 65  1  0  0  0
 20 66  1  0  0  0
 20 67  1  0  0  0
 21 68  1  0  0  0
 22 69  1  0  0  0
 25 70  1  0  0  0
 25 71  1  0  0  0
 26 72  1  0  0  0
 27 73  1  0  0  0
 27 74  1  0  0  0
 27 75  1  0  0  0
 28 76  1  0  0  0
 28 77  1  0  0  0
 28 78  1  0  0  0
 30 79  1  0  0  0
 30 80  1  0  0  0
 31 81  1  0  0  0
 31 82  1  0  0  0
 31 83  1  0  0  0
 32 84  1  0  0  0
 33 85  1  0  0  0
 34 86  1  0  0  0
 34 87  1  0  0  0
 35 88  1  0  0  0
 36 89  1  0  0  0
 36 90  1  0  0  0
 39 91  1  0  0  0
 40 92  1  0  0  0
 40 93  1  0  0  0
 41 94  1  0  0  0
 41 95  1  0  0  0
 42 96  1  0  0  0
 42 97  1  0  0  0
M  END
$$$$
