2mow_ligand
  -I-interpret- 

182184  0  0  0  0  0  0  0  0999 V2000
  -18.5330   -5.5820   24.0470 N   0  3  0  0  0
  -17.8970   -6.0910   22.8380 C   0  0  0  0  0
  -16.3850   -5.9020   22.8980 C   0  0  0  0  0
  -15.8910   -4.7750   22.9240 O   0  0  0  0  0
  -18.4630   -5.3880   21.6030 C   0  0  0  0  0
  -19.9150   -5.7440   21.3480 C   0  0  0  0  0
  -20.4170   -6.6860   21.9960 O   0  0  0  0  0
  -20.5480   -5.0800   20.5010 O   0  0  0  0  0
  -15.6560   -7.0130   22.9210 N   0  0  0  0  0
  -14.1990   -6.9700   22.9780 C   0  0  0  0  0
  -13.6080   -6.7230   21.5930 C   0  0  0  0  0
  -13.4170   -7.6560   20.8130 O   0  0  0  0  0
  -13.6510   -8.2760   23.5540 C   0  0  0  0  0
  -12.2500   -8.1200   24.1120 C   0  0  0  0  0
  -11.8480   -6.9720   24.3950 O   0  0  0  0  0
  -11.5560   -9.1470   24.2660 O   0  0  0  0  0
  -13.3220   -5.4600   21.2940 N   0  0  0  0  0
  -12.7530   -5.0900   20.0040 C   0  0  0  0  0
  -12.0550   -3.7360   20.0860 C   0  0  0  0  0
  -12.0510   -2.9700   19.1230 O   0  0  0  0  0
  -13.8450   -5.0510   18.9330 C   0  0  0  0  0
  -13.3290   -5.4500   17.5650 C   0  0  0  0  0
  -12.4730   -6.3570   17.4940 O   0  0  0  0  0
  -13.7810   -4.8550   16.5640 O   0  0  0  0  0
  -11.4660   -3.4490   21.2430 N   0  0  0  0  0
  -10.7670   -2.1860   21.4500 C   0  0  0  0  0
  -11.6720   -1.0020   21.1190 C   0  0  0  0  0
  -11.2350   -0.0250   20.5110 O   0  0  0  0  0
   -9.5020   -2.1310   20.5910 C   0  0  0  0  0
   -8.4060   -3.0720   21.0610 C   0  0  0  0  0
   -7.0330   -2.6650   20.5620 C   0  0  0  0  0
   -6.9290   -2.2380   19.3930 O   0  0  0  0  0
   -6.0630   -2.7730   21.3410 O   0  0  0  0  0
  -12.9330   -1.0990   21.5240 N   0  0  0  0  0
  -13.9000   -0.0370   21.2710 C   0  0  0  0  0
  -13.4980    1.2470   21.9920 C   0  0  0  0  0
  -12.4980    1.2820   22.7070 O   0  0  0  0  0
  -15.2960   -0.4720   21.7190 C   0  0  0  0  0
  -15.9390   -1.4420   20.7480 C   0  0  0  0  0
  -15.4100   -1.5980   19.6280 O   0  0  0  0  0
  -16.9730   -2.0450   21.1070 O   0  0  0  0  0
  -14.2860    2.3000   21.7980 N   0  0  0  0  0
  -13.9950    3.5710   22.4340 C   0  0  0  0  0
  -12.6630    4.1480   21.9960 C   0  0  0  0  0
  -11.6540    3.9900   22.6830 O   0  0  0  0  0
  -12.6600    4.8180   20.8490 N   0  0  0  0  0
  -11.4410    5.4170   20.3170 C   0  0  0  0  0
  -11.3260    6.8790   20.7350 C   0  0  0  0  0
  -12.1140    7.7220   20.3060 O   0  0  0  0  0
  -11.4180    5.3070   18.7920 C   0  0  0  0  0
  -10.4790    6.2890   18.1280 C   0  0  0  0  0
   -9.1330    5.9900   17.9620 C   0  0  0  0  0
  -10.9400    7.5160   17.6670 C   0  0  0  0  0
   -8.2720    6.8850   17.3570 C   0  0  0  0  0
  -10.0860    8.4170   17.0600 C   0  0  0  0  0
   -8.7530    8.0970   16.9070 C   0  0  0  0  0
   -7.8990    8.9910   16.3030 O   0  0  0  0  0
  -10.3380    7.1730   21.5740 N   0  0  0  0  0
  -10.1180    8.5330   22.0500 C   0  0  0  0  0
   -9.0870    9.2520   21.1860 C   0  0  0  0  0
   -8.0530    8.6950   20.8160 O   0  0  0  0  0
   -9.6560    8.5170   23.5080 C   0  0  0  0  0
  -10.0490    9.7780   24.2540 C   0  0  0  0  0
   -9.3900   10.8110   24.1390 O   0  0  0  0  0
  -11.1280    9.6970   25.0240 N   0  0  0  0  0
   -9.3730   10.5210   20.8550 N   0  0  0  0  0
   -8.4830   11.3440   20.0320 C   0  0  0  0  0
   -7.1990   11.7210   20.7640 C   0  0  0  0  0
   -6.1710   11.9820   20.1400 O   0  0  0  0  0
   -9.3200   12.5930   19.7440 C   0  0  0  0  0
  -10.2860   12.6700   20.8750 C   0  0  0  0  0
  -10.5870   11.2490   21.2610 C   0  0  0  0  0
   -7.2670   11.7470   22.0910 N   0  0  0  0  0
   -6.1100   12.0930   22.9080 C   0  0  0  0  0
   -5.1060   10.9460   22.9460 C   0  0  0  0  0
   -3.9580   11.1210   23.3570 O   0  0  0  0  0
   -6.5510   12.4470   24.3300 C   0  0  0  0  0
   -5.9640   13.7420   24.8420 C   0  0  0  0  0
   -4.6420   14.0800   24.5810 C   0  0  0  0  0
   -6.7320   14.6300   25.5850 C   0  0  0  0  0
   -4.1010   15.2620   25.0470 C   0  0  0  0  0
   -6.2000   15.8150   26.0550 C   0  0  0  0  0
   -4.8840   16.1270   25.7830 C   0  0  0  0  0
   -4.3490   17.3060   26.2490 O   0  0  0  0  0
   -5.5460    9.7680   22.5130 N   0  0  0  0  0
   -4.6870    8.5910   22.4960 C   0  0  0  0  0
   -4.7260    7.9010   21.1380 C   0  0  0  0  0
   -5.7800    7.4430   20.6920 O   0  0  0  0  0
   -5.0990    7.5810   23.5840 C   0  0  0  0  0
   -6.2710    6.8680   23.1730 O   0  0  0  0  0
   -5.3660    8.2870   24.9050 C   0  0  0  0  0
   -3.5730    7.8270   20.4830 N   0  0  0  0  0
   -3.4750    7.1910   19.1740 C   0  0  0  0  0
   -3.4310    5.6730   19.3080 C   0  0  0  0  0
   -4.2210    5.0820   20.0440 O   0  0  0  0  0
   -2.2280    7.6850   18.4370 C   0  0  0  0  0
   -2.0660    7.2030   16.9960 C   0  0  0  0  0
   -1.4650    8.3000   16.1300 C   0  0  0  0  0
   -1.2030    5.9500   16.9460 C   0  0  0  0  0
   -2.5755    5.0154   18.6574 O   0  0  0  0  0
  -18.1455   -6.0599   24.8606 H   0  0  0  0  0
  -18.3593   -4.5799   24.1250 H   0  0  0  0  0
  -19.5377   -5.7513   23.9983 H   0  0  0  0  0
  -18.1089   -7.1579   22.7679 H   0  0  0  0  0
  -17.8813   -5.7065   20.7380 H   0  0  0  0  0
  -18.4045   -4.3127   21.7712 H   0  0  0  0  0
  -19.7564   -7.0537   22.5876 H   0  0  0  0  0
  -16.1267   -7.9176   22.8982 H   0  0  0  0  0
  -13.9098   -6.1452   23.6293 H   0  0  0  0  0
  -13.6131   -9.0096   22.7487 H   0  0  0  0  0
  -14.3055   -8.5856   24.3688 H   0  0  0  0  0
  -12.0581   -9.9160   23.9865 H   0  0  0  0  0
  -13.5052   -4.7317   21.9842 H   0  0  0  0  0
  -12.0141   -5.8434   19.7311 H   0  0  0  0  0
  -14.2163   -4.0283   18.8677 H   0  0  0  0  0
  -14.6228   -5.7590   19.2192 H   0  0  0  0  0
  -12.2695   -6.6732   18.3773 H   0  0  0  0  0
  -11.5040   -4.1279   22.0033 H   0  0  0  0  0
  -10.4866   -2.1237   22.5015 H   0  0  0  0  0
   -9.1095   -1.1160   20.6520 H   0  0  0  0  0
   -9.7798   -2.4317   19.5808 H   0  0  0  0  0
   -8.6249   -4.0646   20.6673 H   0  0  0  0  0
   -8.3875   -3.0472   22.1506 H   0  0  0  0  0
   -7.7933   -2.2385   18.9752 H   0  0  0  0  0
  -13.2324   -1.9362   22.0239 H   0  0  0  0  0
  -13.9155    0.1588   20.1989 H   0  0  0  0  0
  -15.9247    0.4168   21.7735 H   0  0  0  0  0
  -15.1999   -0.9732   22.6821 H   0  0  0  0  0
  -17.2047   -1.7773   21.9993 H   0  0  0  0  0
  -15.1043    2.2133   21.1953 H   0  0  0  0  0
  -13.9524    3.4063   23.5106 H   0  0  0  0  0
  -14.7765    4.2758   22.1501 H   0  0  0  0  0
  -13.5312    4.9160   20.3276 H   0  0  0  0  0
  -10.5898    4.8731   20.7265 H   0  0  0  0  0
  -12.4243    5.5238   18.4336 H   0  0  0  0  0
  -11.0721    4.3040   18.5420 H   0  0  0  0  0
   -8.7494    5.0328   18.3151 H   0  0  0  0  0
  -11.9928    7.7721   17.7861 H   0  0  0  0  0
   -7.2180    6.6348   17.2358 H   0  0  0  0  0
  -10.4637    9.3755   16.7040 H   0  0  0  0  0
   -8.3875    9.7779   16.0505 H   0  0  0  0  0
   -9.7182    6.4283   21.8928 H   0  0  0  0  0
  -11.0627    9.0723   21.9812 H   0  0  0  0  0
   -8.5683    8.4460   23.5160 H   0  0  0  0  0
  -10.1320    7.6705   24.0030 H   0  0  0  0  0
  -11.4412   10.5125   25.5506 H   0  0  0  0  0
  -11.6436    8.8193   25.0888 H   0  0  0  0  0
   -8.1549   10.8175   19.1357 H   0  0  0  0  0
   -9.8260   12.5301   18.7806 H   0  0  0  0  0
   -8.7030   13.4889   19.6746 H   0  0  0  0  0
  -11.1927   13.2003   20.5840 H   0  0  0  0  0
   -9.8679   13.2266   21.7138 H   0  0  0  0  0
  -10.8046   11.1407   22.3236 H   0  0  0  0  0
  -11.4862   10.8655   20.7789 H   0  0  0  0  0
   -8.1496   11.5195   22.5488 H   0  0  0  0  0
   -5.6261   12.9598   22.4578 H   0  0  0  0  0
   -6.2048   11.6493   24.9872 H   0  0  0  0  0
   -7.6347   12.5628   24.3163 H   0  0  0  0  0
   -4.0207   13.4001   23.9980 H   0  0  0  0  0
   -7.7725   14.3873   25.8008 H   0  0  0  0  0
   -3.0611   15.5101   24.8345 H   0  0  0  0  0
   -6.8165   16.4997   26.6375 H   0  0  0  0  0
   -5.0192   17.7890   26.7381 H   0  0  0  0  0
   -6.5083    9.6864   22.1848 H   0  0  0  0  0
   -3.6726    8.9366   22.6953 H   0  0  0  0  0
   -4.2779    6.8782   23.7252 H   0  0  0  0  0
   -6.5195    6.2418   23.8569 H   0  0  0  0  0
   -4.4623    8.8033   25.2287 H   0  0  0  0  0
   -6.1713    9.0096   24.7730 H   0  0  0  0  0
   -5.6550    7.5521   25.6563 H   0  0  0  0  0
   -2.7346    8.2251   20.9061 H   0  0  0  0  0
   -4.3609    7.4613   18.5993 H   0  0  0  0  0
   -1.3723    7.2949   18.9881 H   0  0  0  0  0
   -2.3111    8.7708   18.3889 H   0  0  0  0  0
   -3.0525    6.9571   16.6031 H   0  0  0  0  0
   -2.1214    9.1702   16.1407 H   0  0  0  0  0
   -0.4866    8.5764   16.5231 H   0  0  0  0  0
   -1.3579    7.9366   15.1080 H   0  0  0  0  0
   -0.2187    6.1716   17.3584 H   0  0  0  0  0
   -1.6749    5.1617   17.5325 H   0  0  0  0  0
   -1.0996    5.6226   15.9115 H   0  0  0  0  0
   -2.0399    5.6175   18.1357 H   0  0  0  0  0
  1  2  1  0  0  0
  2  3  1  0  0  0
  2  5  1  0  0  0
  3  4  2  0  0  0
  3  9  1  0  0  0
  5  6  1  0  0  0
  6  7  1  0  0  0
  6  8  2  0  0  0
  9 10  1  0  0  0
 10 11  1  0  0  0
 10 13  1  0  0  0
 11 12  2  0  0  0
 11 17  1  0  0  0
 13 14  1  0  0  0
 14 15  2  0  0  0
 14 16  1  0  0  0
 17 18  1  0  0  0
 18 19  1  0  0  0
 18 21  1  0  0  0
 19 20  2  0  0  0
 19 25  1  0  0  0
 21 22  1  0  0  0
 22 23  1  0  0  0
 22 24  2  0  0  0
 25 26  1  0  0  0
 26 27  1  0  0  0
 26 29  1  0  0  0
 27 28  2  0  0  0
 27 34  1  0  0  0
 29 30  1  0  0  0
 30 31  1  0  0  0
 31 32  1  0  0  0
 31 33  2  0  0  0
 34 35  1  0  0  0
 35 36  1  0  0  0
 35 38  1  0  0  0
 36 37  2  0  0  0
 36 42  1  0  0  0
 38 39  1  0  0  0
 39 40  2  0  0  0
 39 41  1  0  0  0
 42 43  1  0  0  0
 43 44  1  0  0  0
 44 45  2  0  0  0
 44 46  1  0  0  0
 46 47  1  0  0  0
 47 48  1  0  0  0
 47 50  1  0  0  0
 48 49  2  0  0  0
 48 58  1  0  0  0
 50 51  1  0  0  0
 51 52  4  0  0  0
 51 53  4  0  0  0
 52 54  4  0  0  0
 53 55  4  0  0  0
 54 56  4  0  0  0
 55 56  4  0  0  0
 56 57  1  0  0  0
 58 59  1  0  0  0
 59 60  1  0  0  0
 59 62  1  0  0  0
 60 61  2  0  0  0
 60 66  1  0  0  0
 62 63  1  0  0  0
 63 64  2  0  0  0
 63 65  1  0  0  0
 66 67  1  0  0  0
 66 72  1  0  0  0
 67 68  1  0  0  0
 67 70  1  0  0  0
 68 69  2  0  0  0
 68 73  1  0  0  0
 70 71  1  0  0  0
 71 72  1  0  0  0
 73 74  1  0  0  0
 74 75  1  0  0  0
 74 77  1  0  0  0
 75 76  2  0  0  0
 75 85  1  0  0  0
 77 78  1  0  0  0
 78 79  4  0  0  0
 78 80  4  0  0  0
 79 81  4  0  0  0
 80 82  4  0  0  0
 81 83  4  0  0  0
 82 83  4  0  0  0
 83 84  1  0  0  0
 85 86  1  0  0  0
 86 87  1  0  0  0
 86 89  1  0  0  0
 87 88  2  0  0  0
 87 92  1  0  0  0
 89 90  1  0  0  0
 89 91  1  0  0  0
 92 93  1  0  0  0
 93 94  1  0  0  0
 93 96  1  0  0  0
 94 95  2  0  0  0
 96 97  1  0  0  0
 97 98  1  0  0  0
 97 99  1  0  0  0
 94100  1  0  0  0
  1101  1  0  0  0
  1102  1  0  0  0
  1103  1  0  0  0
  2104  1  0  0  0
  5105  1  0  0  0
  5106  1  0  0  0
  7107  1  0  0  0
  9108  1  0  0  0
 10109  1  0  0  0
 13110  1  0  0  0
 13111  1  0  0  0
 16112  1  0  0  0
 17113  1  0  0  0
 18114  1  0  0  0
 21115  1  0  0  0
 21116  1  0  0  0
 23117  1  0  0  0
 25118  1  0  0  0
 26119  1  0  0  0
 29120  1  0  0  0
 29121  1  0  0  0
 30122  1  0  0  0
 30123  1  0  0  0
 32124  1  0  0  0
 34125  1  0  0  0
 35126  1  0  0  0
 38127  1  0  0  0
 38128  1  0  0  0
 41129  1  0  0  0
 42130  1  0  0  0
 43131  1  0  0  0
 43132  1  0  0  0
 46133  1  0  0  0
 47134  1  0  0  0
 50135  1  0  0  0
 50136  1  0  0  0
 52137  1  0  0  0
 53138  1  0  0  0
 54139  1  0  0  0
 55140  1  0  0  0
 57141  1  0  0  0
 58142  1  0  0  0
 59143  1  0  0  0
 62144  1  0  0  0
 62145  1  0  0  0
 65146  1  0  0  0
 65147  1  0  0  0
 67148  1  0  0  0
 70149  1  0  0  0
 70150  1  0  0  0
 71151  1  0  0  0
 71152  1  0  0  0
 72153  1  0  0  0
 72154  1  0  0  0
 73155  1  0  0  0
 74156  1  0  0  0
 77157  1  0  0  0
 77158  1  0  0  0
 79159  1  0  0  0
 80160  1  0  0  0
 81161  1  0  0  0
 82162  1  0  0  0
 84163  1  0  0  0
 85164  1  0  0  0
 86165  1  0  0  0
 89166  1  0  0  0
 90167  1  0  0  0
 91168  1  0  0  0
 91169  1  0  0  0
 91170  1  0  0  0
 92171  1  0  0  0
 93172  1  0  0  0
 96173  1  0  0  0
 96174  1  0  0  0
 97175  1  0  0  0
 98176  1  0  0  0
 98177  1  0  0  0
 98178  1  0  0  0
 99179  1  0  0  0
 99180  1  0  0  0
 99181  1  0  0  0
100182  1  0  0  0
M  END
$$$$
