### 
### Created by X-TOOL on Mon Sep 10 21:13:20 2018
### 

@<TRIPOS>MOLECULE
2mow_ligand
  176   178     1     0     0
SMALL
GAST_HUCK


@<TRIPOS>ATOM
      1 N         -18.5330   -5.5820   24.0470 N.4       1 ASP         0.2391
      2 CA        -17.8970   -6.0910   22.8380 C.3       1 ASP         0.0764
      3 C         -16.3850   -5.9020   22.8980 C.2       1 ASP         0.2285
      4 O         -15.8910   -4.7750   22.9240 O.2       1 ASP        -0.3906
      5 CB        -18.4630   -5.3880   21.6030 C.3       1 ASP         0.0607
      6 CG        -19.9150   -5.7440   21.3480 C.2       1 ASP         0.0425
      7 OD1       -20.4170   -6.6860   21.9960 O.co2     1 ASP        -0.5686
      8 OD2       -20.5480   -5.0800   20.5010 O.co2     1 ASP        -0.5686
      9 N         -15.6560   -7.0130   22.9210 N.am      1 ASP        -0.2594
     10 CA        -14.1990   -6.9700   22.9780 C.3       1 ASP         0.1424
     11 C         -13.6080   -6.7230   21.5930 C.2       1 ASP         0.2057
     12 O         -13.4170   -7.6560   20.8130 O.2       1 ASP        -0.3943
     13 CB        -13.6510   -8.2760   23.5540 C.3       1 ASP         0.0406
     14 CG        -12.2500   -8.1200   24.1120 C.2       1 ASP         0.0393
     15 OD1       -11.8480   -6.9720   24.3950 O.co2     1 ASP        -0.5688
     16 OD2       -11.5560   -9.1470   24.2660 O.co2     1 ASP        -0.5688
     17 N         -13.3220   -5.4600   21.2940 N.am      1 ASP        -0.2621
     18 CA        -12.7530   -5.0900   20.0040 C.3       1 ASP         0.1423
     19 C         -12.0550   -3.7360   20.0860 C.2       1 ASP         0.2056
     20 O         -12.0510   -2.9700   19.1230 O.2       1 ASP        -0.3943
     21 CB        -13.8450   -5.0510   18.9330 C.3       1 ASP         0.0406
     22 CG        -13.3290   -5.4500   17.5650 C.2       1 ASP         0.0393
     23 OD1       -12.4730   -6.3570   17.4940 O.co2     1 ASP        -0.5688
     24 OD2       -13.7810   -4.8550   16.5640 O.co2     1 ASP        -0.5688
     25 N         -11.4660   -3.4490   21.2430 N.am      1 GLU        -0.2635
     26 CA        -10.7670   -2.1860   21.4500 C.3       1 GLU         0.1325
     27 C         -11.6720   -1.0020   21.1190 C.2       1 GLU         0.2041
     28 O         -11.2350   -0.0250   20.5110 O.2       1 GLU        -0.3944
     29 CB         -9.5020   -2.1310   20.5910 C.3       1 GLU        -0.0008
     30 CG         -8.4060   -3.0720   21.0610 C.3       1 GLU         0.0044
     31 CD         -7.0330   -2.6650   20.5620 C.2       1 GLU         0.0350
     32 OE1        -6.9290   -2.2380   19.3930 O.co2     1 GLU        -0.5690
     33 OE2        -6.0630   -2.7730   21.3410 O.co2     1 GLU        -0.5690
     34 N         -12.9330   -1.0990   21.5240 N.am      1 ASP        -0.2622
     35 CA        -13.9000   -0.0370   21.2710 C.3       1 ASP         0.1423
     36 C         -13.4980    1.2470   21.9920 C.2       1 ASP         0.2054
     37 O         -12.4980    1.2820   22.7070 O.2       1 ASP        -0.3943
     38 CB        -15.2960   -0.4720   21.7190 C.3       1 ASP         0.0406
     39 CG        -15.9390   -1.4420   20.7480 C.2       1 ASP         0.0393
     40 OD1       -15.4100   -1.5980   19.6280 O.co2     1 ASP        -0.5688
     41 OD2       -16.9730   -2.0450   21.1070 O.co2     1 ASP        -0.5688
     42 N         -14.2860    2.3000   21.7980 N.am      1 GLY        -0.2663
     43 CA        -13.9950    3.5710   22.4340 C.3       1 GLY         0.1201
     44 C         -12.6630    4.1480   21.9960 C.2       1 GLY         0.2009
     45 O         -11.6540    3.9900   22.6830 O.2       1 GLY        -0.3947
     46 N         -12.6600    4.8180   20.8490 N.am      1 TYR        -0.2624
     47 CA        -11.4410    5.4170   20.3170 C.3       1 TYR         0.1390
     48 C         -11.3260    6.8790   20.7350 C.2       1 TYR         0.2059
     49 O         -12.1140    7.7220   20.3060 O.2       1 TYR        -0.3942
     50 CB        -11.4180    5.3070   18.7920 C.3       1 TYR         0.0163
     51 CG        -10.4790    6.2890   18.1280 C.ar      1 TYR        -0.0493
     52 CD1        -9.1330    5.9900   17.9620 C.ar      1 TYR        -0.0685
     53 CD2       -10.9400    7.5160   17.6670 C.ar      1 TYR        -0.0685
     54 CE1        -8.2720    6.8850   17.3570 C.ar      1 TYR        -0.0398
     55 CE2       -10.0860    8.4170   17.0600 C.ar      1 TYR        -0.0398
     56 CZ         -8.7530    8.0970   16.9070 C.ar      1 TYR         0.0805
     57 OH         -7.8990    8.9910   16.3030 O.3       1 TYR        -0.3376
     58 N         -10.3380    7.1730   21.5740 N.am      1 ASN        -0.2615
     59 CA        -10.1180    8.5330   22.0500 C.3       1 ASN         0.1478
     60 C          -9.0870    9.2520   21.1860 C.2       1 ASN         0.2088
     61 O          -8.0530    8.6950   20.8160 O.2       1 ASN        -0.3940
     62 CB         -9.6560    8.5170   23.5080 C.3       1 ASN         0.0773
     63 CG        -10.0490    9.7780   24.2540 C.2       1 ASN         0.1780
     64 OD1        -9.3900   10.8110   24.1390 O.2       1 ASN        -0.3970
     65 ND2       -11.1280    9.6970   25.0240 N.am      1 ASN        -0.3007
     66 N          -9.3730   10.5210   20.8550 N.am      1 PRO        -0.2497
     67 CA         -8.4830   11.3440   20.0320 C.3       1 PRO         0.1338
     68 C          -7.1990   11.7210   20.7640 C.2       1 PRO         0.2042
     69 O          -6.1710   11.9820   20.1400 O.2       1 PRO        -0.3944
     70 CB         -9.3200   12.5930   19.7440 C.3       1 PRO        -0.0104
     71 CG        -10.2860   12.6700   20.8750 C.3       1 PRO        -0.0281
     72 CD        -10.5870   11.2490   21.2610 C.3       1 PRO         0.0369
     73 N          -7.2670   11.7470   22.0910 N.am      1 TYR        -0.2621
     74 CA         -6.1100   12.0930   22.9080 C.3       1 TYR         0.1390
     75 C          -5.1060   10.9460   22.9460 C.2       1 TYR         0.2058
     76 O          -3.9580   11.1210   23.3570 O.2       1 TYR        -0.3942
     77 CB         -6.5510   12.4470   24.3300 C.3       1 TYR         0.0163
     78 CG         -5.9640   13.7420   24.8420 C.ar      1 TYR        -0.0493
     79 CD1        -4.6420   14.0800   24.5810 C.ar      1 TYR        -0.0685
     80 CD2        -6.7320   14.6300   25.5850 C.ar      1 TYR        -0.0685
     81 CE1        -4.1010   15.2620   25.0470 C.ar      1 TYR        -0.0398
     82 CE2        -6.2000   15.8150   26.0550 C.ar      1 TYR        -0.0398
     83 CZ         -4.8840   16.1270   25.7830 C.ar      1 TYR         0.0805
     84 OH         -4.3490   17.3060   26.2490 O.3       1 TYR        -0.3376
     85 N          -5.5460    9.7680   22.5130 N.am      1 THR        -0.2612
     86 CA         -4.6870    8.5910   22.4960 C.3       1 THR         0.1564
     87 C          -4.7260    7.9010   21.1380 C.2       1 THR         0.2060
     88 O          -5.7800    7.4430   20.6920 O.2       1 THR        -0.3943
     89 CB         -5.0990    7.5810   23.5840 C.3       1 THR         0.0924
     90 OG1        -6.2710    6.8680   23.1730 O.3       1 THR        -0.3874
     91 CG2        -5.3660    8.2870   24.9050 C.3       1 THR        -0.0346
     92 N          -3.5730    7.8270   20.4830 N.am      1 LEU        -0.2670
     93 CA         -3.4750    7.1910   19.1740 C.3       1 LEU         0.1228
     94 C          -3.4310    5.6730   19.3080 C.2       1 LEU         0.2149
     95 O          -4.2210    5.0820   20.0440 O.co2     1 LEU        -0.4120
     96 CB         -2.2280    7.6850   18.4370 C.3       1 LEU        -0.0132
     97 CG         -2.0660    7.2030   16.9960 C.3       1 LEU        -0.0430
     98 CD1        -1.4650    8.3000   16.1300 C.3       1 LEU        -0.0625
     99 CD2        -1.2030    5.9500   16.9460 C.3       1 LEU        -0.0625
    100 H         -19.5299   -5.7175   23.9847 H         1 ASP         0.2016
    101 H         -18.3329   -4.5988   24.1435 H         1 ASP         0.2016
    102 H         -18.1760   -6.0778   24.8487 H         1 ASP         0.2016
    103 H         -18.1115   -7.1670   22.7587 H         1 ASP         0.1117
    104 H         -17.8682   -5.6822   20.7257 H         1 ASP         0.0512
    105 H         -18.3868   -4.3005   21.7499 H         1 ASP         0.0512
    106 H         -16.1174   -7.8999   22.8987 H         1 ASP         0.1886
    107 H         -13.9006   -6.1422   23.6381 H         1 ASP         0.0819
    108 H         -13.6309   -9.0328   22.7560 H         1 ASP         0.0478
    109 H         -14.3173   -8.6126   24.3619 H         1 ASP         0.0478
    110 H         -13.5016   -4.7459   21.9707 H         1 ASP         0.1884
    111 H         -12.0097   -5.8497   19.7205 H         1 ASP         0.0819
    112 H         -14.2458   -4.0283   18.8745 H         1 ASP         0.0478
    113 H         -14.6487   -5.7438   19.2229 H         1 ASP         0.0478
    114 H         -11.5032   -4.1146   21.9884 H         1 GLU         0.1883
    115 H         -10.4762   -2.1186   22.5087 H         1 GLU         0.0801
    116 H          -9.1109   -1.1031   20.6134 H         1 GLU         0.0330
    117 H          -9.7709   -2.3987   19.5585 H         1 GLU         0.0330
    118 H          -8.6288   -4.0841   20.6924 H         1 GLU         0.0433
    119 H          -8.3937   -3.0768   22.1609 H         1 GLU         0.0433
    120 H         -13.2265   -1.9198   22.0141 H         1 ASP         0.1884
    121 H         -13.9239    0.1620   20.1894 H         1 ASP         0.0819
    122 H         -15.9343    0.4200   21.8017 H         1 ASP         0.0478
    123 H         -15.2158   -0.9580   22.7025 H         1 ASP         0.0478
    124 H         -15.0883    2.2150   21.2071 H         1 GLY         0.1881
    125 H         -13.9742    3.4235   23.5239 H         1 GLY         0.0763
    126 H         -14.7908    4.2851   22.1757 H         1 GLY         0.0763
    127 H         -13.5141    4.9141   20.3379 H         1 TYR         0.1885
    128 H         -10.5778    4.8686   20.7222 H         1 TYR         0.0821
    129 H         -12.4351    5.4892   18.4149 H         1 TYR         0.0453
    130 H         -11.1036    4.2882   18.5216 H         1 TYR         0.0453
    131 H          -8.7515    5.0381   18.3132 H         1 TYR         0.0530
    132 H         -11.9870    7.7707   17.7855 H         1 TYR         0.0530
    133 H          -7.2238    6.6362   17.2365 H         1 TYR         0.0525
    134 H         -10.4616    9.3702   16.7060 H         1 TYR         0.0525
    135 H          -7.8872    9.8009   16.7995 H         1 TYR         0.2458
    136 H          -9.7303    6.4429   21.8865 H         1 ASN         0.1885
    137 H         -11.0694    9.0817   21.9885 H         1 ASN         0.0826
    138 H          -8.5605    8.4206   23.5302 H         1 ASN         0.0551
    139 H         -10.1106    7.6519   24.0130 H         1 ASN         0.0551
    140 H         -11.4352   10.4966   25.5400 H         1 ASN         0.1814
    141 H         -11.6333    8.8364   25.0878 H         1 ASN         0.1814
    142 H          -8.2260   10.8199   19.0996 H         1 PRO         0.0802
    143 H          -9.8514   12.4915   18.7863 H         1 PRO         0.0313
    144 H          -8.6827   13.4892   19.7166 H         1 PRO         0.0313
    145 H         -11.2060   13.1827   20.5575 H         1 PRO         0.0287
    146 H          -9.8393   13.2098   21.7230 H         1 PRO         0.0287
    147 H         -10.7540   11.1625   22.3448 H         1 PRO         0.0524
    148 H         -11.4698   10.8735   20.7228 H         1 PRO         0.0524
    149 H          -8.1323   11.5239   22.5399 H         1 TYR         0.1885
    150 H          -5.6200   12.9715   22.4629 H         1 TYR         0.0821
    151 H          -6.2397   11.6344   25.0029 H         1 TYR         0.0453
    152 H          -7.6475   12.5336   24.3424 H         1 TYR         0.0453
    153 H          -4.0242   13.4038   24.0012 H         1 TYR         0.0530
    154 H          -7.7668   14.3887   25.7996 H         1 TYR         0.0530
    155 H          -3.0668   15.5088   24.8356 H         1 TYR         0.0525
    156 H          -6.8131   16.4959   26.6343 H         1 TYR         0.0525
    157 H          -3.4407   17.3693   25.9779 H         1 TYR         0.2458
    158 H          -6.4894    9.6880   22.1912 H         1 THR         0.1884
    159 H          -3.6553    8.9173   22.6940 H         1 THR         0.0826
    160 H          -4.2776    6.8634   23.7270 H         1 THR         0.0639
    161 H          -6.0896    6.4014   22.3656 H         1 THR         0.2101
    162 H          -5.6578    7.5463   25.6641 H         1 THR         0.0257
    163 H          -6.1786    9.0165   24.7732 H         1 THR         0.0257
    164 H          -4.4546    8.8085   25.2328 H         1 THR         0.0257
    165 H          -2.7511    8.2173   20.8978 H         1 LEU         0.1876
    166 H          -4.3634    7.4648   18.5860 H         1 LEU         0.0751
    167 O1         -2.5755    5.0154   18.6574 O.co2     1 LEU        -0.4120
    168 H          -1.3471    7.3506   19.0046 H         1 LEU         0.0309
    169 H          -2.2592    8.7845   18.4225 H         1 LEU         0.0309
    170 H          -3.0615    6.9545   16.5995 H         1 LEU         0.0297
    171 H          -1.3564    7.9345   15.0982 H         1 LEU         0.0232
    172 H          -0.4775    8.5799   16.5256 H         1 LEU         0.0232
    173 H          -2.1265    9.1788   16.1399 H         1 LEU         0.0232
    174 H          -1.6530    5.1695   17.5771 H         1 LEU         0.0232
    175 H          -0.1941    6.1846   17.3163 H         1 LEU         0.0232
    176 H          -1.1383    5.5904   15.9085 H         1 LEU         0.0232
@<TRIPOS>BOND
     1    1    2 1  
     2    2    3 1  
     3    2    5 1  
     4    3    4 2  
     5    3    9 am 
     6    5    6 1  
     7    6    7 ar 
     8    6    8 ar 
     9    9   10 1  
    10   10   11 1  
    11   10   13 1  
    12   11   12 2  
    13   11   17 am 
    14   13   14 1  
    15   14   15 ar 
    16   14   16 ar 
    17   17   18 1  
    18   18   19 1  
    19   18   21 1  
    20   19   20 2  
    21   19   25 am 
    22   21   22 1  
    23   22   23 ar 
    24   22   24 ar 
    25   25   26 1  
    26   26   27 1  
    27   26   29 1  
    28   27   28 2  
    29   27   34 am 
    30   29   30 1  
    31   30   31 1  
    32   31   32 ar 
    33   31   33 ar 
    34   34   35 1  
    35   35   36 1  
    36   35   38 1  
    37   36   37 2  
    38   36   42 am 
    39   38   39 1  
    40   39   40 ar 
    41   39   41 ar 
    42   42   43 1  
    43   43   44 1  
    44   44   45 2  
    45   44   46 am 
    46   46   47 1  
    47   47   48 1  
    48   47   50 1  
    49   48   49 2  
    50   48   58 am 
    51   50   51 1  
    52   51   52 ar 
    53   51   53 ar 
    54   52   54 ar 
    55   53   55 ar 
    56   54   56 ar 
    57   55   56 ar 
    58   56   57 1  
    59   58   59 1  
    60   59   60 1  
    61   59   62 1  
    62   60   61 2  
    63   60   66 am 
    64   62   63 1  
    65   63   64 2  
    66   63   65 am 
    67   66   67 1  
    68   66   72 1  
    69   67   68 1  
    70   67   70 1  
    71   68   69 2  
    72   68   73 am 
    73   70   71 1  
    74   71   72 1  
    75   73   74 1  
    76   74   75 1  
    77   74   77 1  
    78   75   76 2  
    79   75   85 am 
    80   77   78 1  
    81   78   79 ar 
    82   78   80 ar 
    83   79   81 ar 
    84   80   82 ar 
    85   81   83 ar 
    86   82   83 ar 
    87   83   84 1  
    88   85   86 1  
    89   86   87 1  
    90   86   89 1  
    91   87   88 2  
    92   87   92 am 
    93   89   90 1  
    94   89   91 1  
    95   92   93 1  
    96   93   94 1  
    97   93   96 1  
    98   94   95 ar 
    99   96   97 1  
   100   97   98 1  
   101   97   99 1  
   102    1  100 1  
   103    1  101 1  
   104    1  102 1  
   105    2  103 1  
   106    5  104 1  
   107    5  105 1  
   108    9  106 1  
   109   10  107 1  
   110   13  108 1  
   111   13  109 1  
   112   17  110 1  
   113   18  111 1  
   114   21  112 1  
   115   21  113 1  
   116   25  114 1  
   117   26  115 1  
   118   29  116 1  
   119   29  117 1  
   120   30  118 1  
   121   30  119 1  
   122   34  120 1  
   123   35  121 1  
   124   38  122 1  
   125   38  123 1  
   126   42  124 1  
   127   43  125 1  
   128   43  126 1  
   129   46  127 1  
   130   47  128 1  
   131   50  129 1  
   132   50  130 1  
   133   52  131 1  
   134   53  132 1  
   135   54  133 1  
   136   55  134 1  
   137   57  135 1  
   138   58  136 1  
   139   59  137 1  
   140   62  138 1  
   141   62  139 1  
   142   65  140 1  
   143   65  141 1  
   144   67  142 1  
   145   70  143 1  
   146   70  144 1  
   147   71  145 1  
   148   71  146 1  
   149   72  147 1  
   150   72  148 1  
   151   73  149 1  
   152   74  150 1  
   153   77  151 1  
   154   77  152 1  
   155   79  153 1  
   156   80  154 1  
   157   81  155 1  
   158   82  156 1  
   159   84  157 1  
   160   85  158 1  
   161   86  159 1  
   162   89  160 1  
   163   90  161 1  
   164   91  162 1  
   165   91  163 1  
   166   91  164 1  
   167   92  165 1  
   168   93  166 1  
   169   94  167 ar 
   170   96  168 1  
   171   96  169 1  
   172   97  170 1  
   173   98  171 1  
   174   98  172 1  
   175   98  173 1  
   176   99  174 1  
   177   99  175 1  
   178   99  176 1  
@<TRIPOS>SUBSTRUCTURE
     1 ASP         1

