### 
### Created by X-TOOL on Mon Sep 10 21:13:05 2018
### 

@<TRIPOS>MOLECULE
2koh_ligand
  252   253     1     0     0
SMALL
GAST_HUCK


@<TRIPOS>ATOM
      1 N          -5.1990   -6.7800   34.2150 N.4       1 MET         0.2379
      2 CA         -4.6340   -5.6440   33.4880 C.3       1 MET         0.0658
      3 C          -3.4180   -6.0880   32.6990 C.2       1 MET         0.2267
      4 O          -2.9130   -5.3750   31.8270 O.2       1 MET        -0.3907
      5 CB         -4.2550   -4.5100   34.4500 C.3       1 MET         0.0168
      6 CG         -5.4340   -3.9390   35.2250 C.3       1 MET         0.0007
      7 SD         -4.9570   -2.6010   36.3400 S.3       1 MET        -0.1638
      8 CE         -6.5400   -2.2040   37.0760 C.3       1 MET        -0.0181
      9 N          -2.9440   -7.2620   33.0120 N.am      1 LEU        -0.2610
     10 CA         -1.8200   -7.8360   32.3140 C.3       1 LEU         0.1313
     11 C          -2.3070   -8.9360   31.4050 C.2       1 LEU         0.2039
     12 O          -3.4620   -9.3700   31.5210 O.2       1 LEU        -0.3944
     13 CB         -0.7310   -8.3890   33.2720 C.3       1 LEU        -0.0101
     14 CG          0.0750   -7.3860   34.1320 C.3       1 LEU        -0.0425
     15 CD1        -0.7910   -6.6600   35.1510 C.3       1 LEU        -0.0625
     16 CD2         1.2290   -8.0940   34.8180 C.3       1 LEU        -0.0625
     17 N          -1.4430   -9.3590   30.5060 N.am      1 ALA        -0.2640
     18 CA         -1.7130  -10.4350   29.5630 C.3       1 ALA         0.1282
     19 C          -2.8450  -10.1070   28.5970 C.2       1 ALA         0.2036
     20 O          -4.0120  -10.4530   28.8190 O.2       1 ALA        -0.3944
     21 CB         -1.9240  -11.7870   30.2560 C.3       1 ALA        -0.0244
     22 N          -2.5050   -9.3950   27.5730 N.am      1 GLU        -0.2636
     23 CA         -3.4130   -9.0680   26.5180 C.3       1 GLU         0.1325
     24 C          -2.7630   -9.5450   25.2600 C.2       1 GLU         0.2040
     25 O          -1.5600   -9.3020   25.0580 O.2       1 GLU        -0.3944
     26 CB         -3.6610   -7.5820   26.4670 C.3       1 GLU        -0.0008
     27 CG         -4.7430   -7.1660   25.4950 C.3       1 GLU         0.0044
     28 CD         -5.0110   -5.6930   25.5270 C.2       1 GLU         0.0350
     29 OE1        -5.8430   -5.2560   26.3420 O.co2     1 GLU        -0.5690
     30 OE2        -4.4030   -4.9430   24.7330 O.co2     1 GLU        -0.5690
     31 N          -3.5280  -10.2110   24.4250 N.am      1 LEU        -0.2637
     32 CA         -2.9880  -10.9490   23.2690 C.3       1 LEU         0.1312
     33 C          -2.0270  -12.0280   23.7950 C.2       1 LEU         0.2040
     34 O          -2.0330  -12.3520   25.0050 O.2       1 LEU        -0.3944
     35 CB         -2.2570  -10.0330   22.2300 C.3       1 LEU        -0.0101
     36 CG         -3.1060   -9.0920   21.3430 C.3       1 LEU        -0.0425
     37 CD1        -3.8390   -8.0430   22.1450 C.3       1 LEU        -0.0625
     38 CD2        -2.2360   -8.4380   20.2790 C.3       1 LEU        -0.0625
     39 N          -1.2380  -12.5980   22.9330 N.am      1 TYR        -0.2621
     40 CA         -0.2650  -13.5520   23.3540 C.3       1 TYR         0.1390
     41 C           0.8090  -13.5970   22.3200 C.2       1 TYR         0.2055
     42 O           0.5730  -14.0120   21.1760 O.2       1 TYR        -0.3942
     43 CB         -0.8880  -14.9300   23.5770 C.3       1 TYR         0.0163
     44 CG          0.0570  -15.9230   24.2000 C.ar      1 TYR        -0.0493
     45 CD1         0.3380  -15.8730   25.5590 C.ar      1 TYR        -0.0685
     46 CD2         0.6620  -16.9080   23.4440 C.ar      1 TYR        -0.0685
     47 CE1         1.1950  -16.7790   26.1410 C.ar      1 TYR        -0.0398
     48 CE2         1.5190  -17.8160   24.0220 C.ar      1 TYR        -0.0398
     49 CZ          1.7830  -17.7470   25.3650 C.ar      1 TYR         0.0805
     50 OH          2.6370  -18.6630   25.9400 O.3       1 TYR        -0.3376
     51 N           1.9470  -13.1310   22.6890 N.am      1 GLY        -0.2663
     52 CA          3.0310  -13.0490   21.7930 C.3       1 GLY         0.1201
     53 C           3.9420  -11.9430   22.2040 C.2       1 GLY         0.2008
     54 O           3.4980  -10.9940   22.8670 O.2       1 GLY        -0.3947
     55 N           5.1900  -12.0450   21.8620 N.am      1 SER        -0.2618
     56 CA          6.1310  -11.0290   22.1930 C.3       1 SER         0.1539
     57 C           6.1050   -9.9560   21.1090 C.2       1 SER         0.2063
     58 O           6.8390  -10.0250   20.1180 O.2       1 SER        -0.3943
     59 CB          7.5190  -11.6390   22.3530 C.3       1 SER         0.0843
     60 OG          7.4870  -12.6950   23.3180 O.3       1 SER        -0.3903
     61 N           5.1960   -9.0210   21.2630 N.am      1 ASP        -0.2621
     62 CA          4.9970   -7.9830   20.2970 C.3       1 ASP         0.1425
     63 C           4.8190   -6.6800   21.0310 C.2       1 ASP         0.2081
     64 O           4.1050   -6.6290   22.0340 O.2       1 ASP        -0.3941
     65 CB          3.7030   -8.2300   19.4740 C.3       1 ASP         0.0406
     66 CG          3.6190   -9.5830   18.7950 C.2       1 ASP         0.0393
     67 OD1         4.0700   -9.7290   17.6340 O.co2     1 ASP        -0.5688
     68 OD2         3.0790  -10.5200   19.4040 O.co2     1 ASP        -0.5688
     69 N           5.4710   -5.6160   20.5860 N.am      1 PRO        -0.2497
     70 CA          5.2720   -4.2900   21.1450 C.3       1 PRO         0.1338
     71 C           4.2150   -3.5310   20.3370 C.2       1 PRO         0.2041
     72 O           3.9880   -2.3380   20.5480 O.2       1 PRO        -0.3944
     73 CB          6.6440   -3.6480   20.9490 C.3       1 PRO        -0.0104
     74 CG          7.1750   -4.2600   19.6870 C.3       1 PRO        -0.0281
     75 CD          6.5060   -5.6120   19.5340 C.3       1 PRO         0.0369
     76 N           3.5590   -4.2730   19.4260 N.am      1 GLN        -0.2636
     77 CA          2.6040   -3.7430   18.4610 C.3       1 GLN         0.1330
     78 C           3.2580   -2.6870   17.5880 C.2       1 GLN         0.2040
     79 O           3.3400   -1.5260   17.9650 O.2       1 GLN        -0.3944
     80 CB          1.2950   -3.1940   19.0990 C.3       1 GLN         0.0045
     81 CG          0.3430   -4.2310   19.7240 C.3       1 GLN         0.0412
     82 CD          0.9160   -4.9910   20.9080 C.2       1 GLN         0.1737
     83 OE1         1.5140   -6.0590   20.7560 O.2       1 GLN        -0.3973
     84 NE2         0.7440   -4.4520   22.0820 N.am      1 GLN        -0.3009
     85 N           3.7720   -3.1010   16.4510 N.am      1 GLU        -0.2636
     86 CA          4.4190   -2.1770   15.5470 C.3       1 GLU         0.1325
     87 C           3.4060   -1.2730   14.8630 C.2       1 GLU         0.2040
     88 O           2.6620   -1.6760   13.9660 O.2       1 GLU        -0.3944
     89 CB          5.3500   -2.8980   14.5740 C.3       1 GLU        -0.0008
     90 CG          4.6990   -3.9850   13.7930 C.3       1 GLU         0.0044
     91 CD          5.7090   -4.7930   13.0370 C.2       1 GLU         0.0350
     92 OE1         6.4300   -5.5760   13.6850 O.co2     1 GLU        -0.5690
     93 OE2         5.7860   -4.7000   11.8120 O.co2     1 GLU        -0.5690
     94 N           3.3790   -0.0750   15.3390 N.am      1 GLU        -0.2636
     95 CA          2.4680    0.9610   14.9100 C.3       1 GLU         0.1325
     96 C           3.2230    1.9780   14.0730 C.2       1 GLU         0.2040
     97 O           4.4340    2.1830   14.2690 O.2       1 GLU        -0.3944
     98 CB          1.9260    1.6730   16.1510 C.3       1 GLU        -0.0008
     99 CG          1.1690    0.7930   17.1240 C.3       1 GLU         0.0044
    100 CD          1.0030    1.4490   18.4880 C.2       1 GLU         0.0350
    101 OE1         2.0030    1.5660   19.2160 O.co2     1 GLU        -0.5690
    102 OE2        -0.1200    1.8200   18.8590 O.co2     1 GLU        -0.5690
    103 N           2.5370    2.5890   13.1580 N.am      1 LEU        -0.2637
    104 CA          3.0850    3.6150   12.3470 C.3       1 LEU         0.1312
    105 C           1.9880    4.6800   12.2170 C.2       1 LEU         0.2039
    106 O           0.8410    4.3520   11.9540 O.2       1 LEU        -0.3944
    107 CB          3.4530    3.0100   10.9730 C.3       1 LEU        -0.0101
    108 CG          4.4850    3.7470   10.1250 C.3       1 LEU        -0.0425
    109 CD1         4.0650    5.1560    9.7740 C.3       1 LEU        -0.0625
    110 CD2         5.8140    3.7160   10.8270 C.3       1 LEU        -0.0625
    111 N           2.3180    5.9180   12.4420 N.am      1 ILE        -0.2635
    112 CA          1.3180    6.9740   12.3520 C.3       1 ILE         0.1335
    113 C           1.5620    7.8080   11.1200 C.2       1 ILE         0.2036
    114 O           2.6740    8.3180   10.9060 O.2       1 ILE        -0.3944
    115 CB          1.2440    7.9230   13.6190 C.3       1 ILE        -0.0037
    116 CG1         0.8700    7.1590   14.9170 C.3       1 ILE        -0.0491
    117 CG2         0.2450    9.0780   13.3930 C.3       1 ILE        -0.0582
    118 CD1         1.9290    6.2110   15.4540 C.3       1 ILE        -0.0648
    119 N           0.5630    7.9520   10.3180 N.am      1 ILE        -0.2692
    120 CA          0.6620    8.7470    9.1600 C.3       1 ILE         0.0969
    121 C          -0.2440    9.9480    9.3070 C.2       1 ILE         0.0604
    122 O           0.2470   11.0030    9.7200 O.co2     1 ILE        -0.5666
    123 CB          0.4130    7.9610    7.8320 C.3       1 ILE        -0.0092
    124 CG1        -0.9070    7.1880    7.8500 C.3       1 ILE        -0.0497
    125 CG2         1.5760    7.0130    7.5470 C.3       1 ILE        -0.0588
    126 CD1        -1.2460    6.5720    6.5150 C.3       1 ILE        -0.0649
    127 OXT        -1.4340    9.8440    9.0630 O.co2     1 ILE        -0.5666
    128 H1         -6.0065   -6.4770   34.7367 H         1 MET         0.2015
    129 H2         -4.5086   -7.1499   34.8494 H         1 MET         0.2015
    130 H3         -5.4715   -7.4961   33.5601 H         1 MET         0.2015
    131 H4         -5.3917   -5.2668   32.7854 H         1 MET         0.1098
    132 H5         -3.7988   -3.6976   33.8652 H         1 MET         0.0354
    133 H6         -3.5217   -4.8987   35.1719 H         1 MET         0.0354
    134 H7         -5.8882   -4.7460   35.8187 H         1 MET         0.0380
    135 H8         -6.1720   -3.5518   34.5071 H         1 MET         0.0380
    136 H9         -6.4132   -1.3840   37.7982 H         1 MET         0.0340
    137 H10        -6.9365   -3.0901   37.5933 H         1 MET         0.0340
    138 H11        -7.2429   -1.8938   36.2888 H         1 MET         0.0340
    139 H12        -3.3709   -7.7774   33.7551 H         1 LEU         0.1884
    140 H13        -1.3618   -7.0475   31.6989 H         1 LEU         0.0800
    141 H14        -0.0075   -8.9429   32.6558 H         1 LEU         0.0315
    142 H15        -1.2299   -9.0828   33.9646 H         1 LEU         0.0315
    143 H16         0.4951   -6.6283   33.4542 H         1 LEU         0.0298
    144 H17        -0.1683   -5.9632   35.7313 H         1 LEU         0.0232
    145 H18        -1.2510   -7.3931   35.8299 H         1 LEU         0.0232
    146 H19        -1.5797   -6.0988   34.6285 H         1 LEU         0.0232
    147 H20         1.8414   -8.6115   34.0649 H         1 LEU         0.0232
    148 H21         0.8342   -8.8274   35.5365 H         1 LEU         0.0232
    149 H22         1.8478   -7.3562   35.3497 H         1 LEU         0.0232
    150 H23        -0.5479   -8.9147   30.4687 H         1 ALA         0.1883
    151 H24        -0.8055  -10.5398   28.9503 H         1 ALA         0.0797
    152 H25        -2.1234  -12.5598   29.4990 H         1 ALA         0.0277
    153 H26        -2.7802  -11.7172   30.9430 H         1 ALA         0.0277
    154 H27        -1.0198  -12.0536   30.8228 H         1 ALA         0.0277
    155 H28        -1.5652   -9.0580   27.5162 H         1 GLU         0.1883
    156 H29        -4.3708   -9.5875   26.6686 H         1 GLU         0.0801
    157 H30        -2.7242   -7.0860   26.1731 H         1 GLU         0.0330
    158 H31        -3.9536   -7.2465   27.4729 H         1 GLU         0.0330
    159 H32        -5.6707   -7.6984   25.7516 H         1 GLU         0.0433
    160 H33        -4.4294   -7.4449   24.4782 H         1 GLU         0.0433
    161 H34        -4.5159  -10.2175   24.5799 H         1 LEU         0.1883
    162 H35        -3.8261  -11.4403   22.7531 H         1 LEU         0.0800
    163 H36        -1.6944  -10.6943   21.5546 H         1 LEU         0.0315
    164 H37        -1.5548   -9.4008   22.7932 H         1 LEU         0.0315
    165 H38        -3.8614   -9.7079   20.8330 H         1 LEU         0.0298
    166 H39        -4.4239   -7.4049   21.4662 H         1 LEU         0.0232
    167 H40        -3.1118   -7.4257   22.6928 H         1 LEU         0.0232
    168 H41        -4.5153   -8.5343   22.8601 H         1 LEU         0.0232
    169 H42        -1.7107   -9.2161   19.7058 H         1 LEU         0.0232
    170 H43        -1.4999   -7.7784   20.7618 H         1 LEU         0.0232
    171 H44        -2.8686   -7.8469   19.6005 H         1 LEU         0.0232
    172 H45        -1.3143  -12.3648   21.9636 H         1 TYR         0.1885
    173 H46         0.1723  -13.2166   24.3060 H         1 TYR         0.0821
    174 H47        -1.2165  -15.3251   22.6044 H         1 TYR         0.0453
    175 H48        -1.7587  -14.8154   24.2393 H         1 TYR         0.0453
    176 H49        -0.1252  -15.1079   26.1714 H         1 TYR         0.0530
    177 H50         0.4588  -16.9664   22.3808 H         1 TYR         0.0530
    178 H51         1.4041  -16.7287   27.2035 H         1 TYR         0.0525
    179 H52         1.9847  -18.5848   23.4160 H         1 TYR         0.0525
    180 H53         2.7150  -18.4817   26.8693 H         1 TYR         0.2458
    181 H54         2.0664  -12.8198   23.6318 H         1 GLY         0.1881
    182 H55         2.6528  -12.8529   20.7789 H         1 GLY         0.0763
    183 H56         3.5841  -13.9998   21.8007 H         1 GLY         0.0763
    184 H57         5.4962  -12.8519   21.3568 H         1 SER         0.1884
    185 H58         5.8405  -10.5695   23.1493 H         1 SER         0.0823
    186 H59         8.2210  -10.8615   22.6886 H         1 SER         0.0606
    187 H60         7.8527  -12.0414   21.3852 H         1 SER         0.0606
    188 H61         8.3567  -13.0663   23.4084 H         1 SER         0.2097
    189 H62         4.6233   -9.0343   22.0827 H         1 ASP         0.1884
    190 H63         5.8655   -7.9302   19.6240 H         1 ASP         0.0819
    191 H64         3.6409   -7.4545   18.6964 H         1 ASP         0.0478
    192 H65         2.8438   -8.1367   20.1544 H         1 ASP         0.0478
    193 H66         4.9856   -4.3306   22.2063 H         1 PRO         0.0802
    194 H67         7.3042   -3.8770   21.7985 H         1 PRO         0.0313
    195 H68         6.5499   -2.5574   20.8412 H         1 PRO         0.0313
    196 H69         8.2657   -4.3841   19.7572 H         1 PRO         0.0287
    197 H70         6.9335   -3.6195   18.8259 H         1 PRO         0.0287
    198 H71         6.0517   -5.7134   18.5374 H         1 PRO         0.0524
    199 H72         7.2283   -6.4263   19.6923 H         1 PRO         0.0524
    200 H73         3.7393   -5.2565   19.4100 H         1 GLN         0.1883
    201 H74         2.3135   -4.5791   17.8079 H         1 GLN         0.0801
    202 H75         0.7388   -2.6618   18.3133 H         1 GLN         0.0337
    203 H76         1.5813   -2.4851   19.8898 H         1 GLN         0.0337
    204 H77         0.0746   -4.9613   18.9464 H         1 GLN         0.0504
    205 H78        -0.5622   -3.7048   20.0611 H         1 GLN         0.0504
    206 H79         1.0997   -4.9073   22.8982 H         1 GLN         0.1814
    207 H80         0.2563   -3.5831   22.1667 H         1 GLN         0.1814
    208 H81         3.7145   -4.0693   16.2079 H         1 GLU         0.1883
    209 H82         5.0564   -1.5235   16.1607 H         1 GLU         0.0801
    210 H83         6.1777   -3.3367   15.1506 H         1 GLU         0.0330
    211 H84         5.7488   -2.1568   13.8659 H         1 GLU         0.0330
    212 H85         3.9907   -3.5387   13.0795 H         1 GLU         0.0433
    213 H86         4.1557   -4.6465   14.4838 H         1 GLU         0.0433
    214 H87         4.0363    0.1536   16.0572 H         1 GLU         0.1883
    215 H88         1.6436    0.5245   14.3270 H         1 GLU         0.0801
    216 H89         1.2471    2.4708   15.8156 H         1 GLU         0.0330
    217 H90         2.7777    2.1174   16.6868 H         1 GLU         0.0330
    218 H91         1.7202   -0.1505   17.2501 H         1 GLU         0.0433
    219 H92         0.1722    0.5828   16.7090 H         1 GLU         0.0433
    220 H93         1.5824    2.3259   13.0185 H         1 LEU         0.1883
    221 H94         3.9818    4.0473   12.8148 H         1 LEU         0.0800
    222 H95         2.5268    2.9487   10.3828 H         1 LEU         0.0315
    223 H96         3.8404    1.9965   11.1538 H         1 LEU         0.0315
    224 H97         4.5915    3.1968    9.1785 H         1 LEU         0.0298
    225 H98         4.8481    5.6310    9.1648 H         1 LEU         0.0232
    226 H99         3.9169    5.7353   10.6973 H         1 LEU         0.0232
    227 H100        3.1244    5.1271    9.2044 H         1 LEU         0.0232
    228 H101        6.0798    2.6750   11.0629 H         1 LEU         0.0232
    229 H102        5.7506    4.2982   11.7581 H         1 LEU         0.0232
    230 H103        6.5841    4.1520   10.1736 H         1 LEU         0.0232
    231 H104        3.2626    6.1461   12.6779 H         1 ILE         0.1883
    232 H105        0.3374    6.4861   12.2500 H         1 ILE         0.0803
    233 H106        2.2433    8.3598   13.7628 H         1 ILE         0.0345
    234 H107       -0.0372    6.5712   14.7133 H         1 ILE         0.0267
    235 H108        0.6567    7.9040   15.6977 H         1 ILE         0.0267
    236 H109        0.5115    9.6184   12.4727 H         1 ILE         0.0235
    237 H110        0.2836    9.7689   14.2481 H         1 ILE         0.0235
    238 H111       -0.7719    8.6698   13.2970 H         1 ILE         0.0235
    239 H112        1.5580    5.7277   16.3698 H         1 ILE         0.0230
    240 H113        2.8448    6.7758   15.6827 H         1 ILE         0.0230
    241 H114        2.1509    5.4431   14.6983 H         1 ILE         0.0230
    242 H115       -0.2998    7.4897   10.5224 H         1 ILE         0.1875
    243 H116        1.6956    9.1203    9.1108 H         1 ILE         0.0729
    244 H117        0.3608    8.6945    7.0140 H         1 ILE         0.0338
    245 H118       -1.7146    7.8793    8.1325 H         1 ILE         0.0267
    246 H119       -0.8332    6.3850    8.5982 H         1 ILE         0.0267
    247 H120        2.5180    7.5810    7.5369 H         1 ILE         0.0234
    248 H121        1.4266    6.5332    6.5685 H         1 ILE         0.0234
    249 H122        1.6211    6.2421    8.3304 H         1 ILE         0.0234
    250 H123       -2.2015    6.0325    6.5922 H         1 ILE         0.0230
    251 H124       -0.4512    5.8700    6.2226 H         1 ILE         0.0230
    252 H125       -1.3326    7.3643    5.7569 H         1 ILE         0.0230
@<TRIPOS>BOND
     1    1    2 1  
     2    2    3 1  
     3    2    5 1  
     4    3    4 2  
     5    3    9 am 
     6    5    6 1  
     7    6    7 1  
     8    7    8 1  
     9    9   10 1  
    10   10   11 1  
    11   10   13 1  
    12   11   12 2  
    13   11   17 am 
    14   13   14 1  
    15   14   15 1  
    16   14   16 1  
    17   17   18 1  
    18   18   19 1  
    19   18   21 1  
    20   19   20 2  
    21   19   22 am 
    22   22   23 1  
    23   23   24 1  
    24   23   26 1  
    25   24   25 2  
    26   24   31 am 
    27   26   27 1  
    28   27   28 1  
    29   28   29 ar 
    30   28   30 ar 
    31   31   32 1  
    32   32   33 1  
    33   32   35 1  
    34   33   34 2  
    35   33   39 am 
    36   35   36 1  
    37   36   37 1  
    38   36   38 1  
    39   39   40 1  
    40   40   41 1  
    41   40   43 1  
    42   41   42 2  
    43   41   51 am 
    44   43   44 1  
    45   44   45 ar 
    46   44   46 ar 
    47   45   47 ar 
    48   46   48 ar 
    49   47   49 ar 
    50   48   49 ar 
    51   49   50 1  
    52   51   52 1  
    53   52   53 1  
    54   53   54 2  
    55   53   55 am 
    56   55   56 1  
    57   56   57 1  
    58   56   59 1  
    59   57   58 2  
    60   57   61 am 
    61   59   60 1  
    62   61   62 1  
    63   62   63 1  
    64   62   65 1  
    65   63   64 2  
    66   63   69 am 
    67   65   66 1  
    68   66   67 ar 
    69   66   68 ar 
    70   69   70 1  
    71   69   75 1  
    72   70   71 1  
    73   70   73 1  
    74   71   72 2  
    75   71   76 am 
    76   73   74 1  
    77   74   75 1  
    78   76   77 1  
    79   77   78 1  
    80   77   80 1  
    81   78   79 2  
    82   78   85 am 
    83   80   81 1  
    84   81   82 1  
    85   82   83 2  
    86   82   84 am 
    87   85   86 1  
    88   86   87 1  
    89   86   89 1  
    90   87   88 2  
    91   87   94 am 
    92   89   90 1  
    93   90   91 1  
    94   91   92 ar 
    95   91   93 ar 
    96   94   95 1  
    97   95   96 1  
    98   95   98 1  
    99   96   97 2  
   100   96  103 am 
   101   98   99 1  
   102   99  100 1  
   103  100  101 ar 
   104  100  102 ar 
   105  103  104 1  
   106  104  105 1  
   107  104  107 1  
   108  105  106 2  
   109  105  111 am 
   110  107  108 1  
   111  108  109 1  
   112  108  110 1  
   113  111  112 1  
   114  112  113 1  
   115  112  115 1  
   116  113  114 2  
   117  113  119 am 
   118  115  116 1  
   119  115  117 1  
   120  116  118 1  
   121  119  120 1  
   122  120  121 1  
   123  120  123 1  
   124  121  122 ar 
   125  121  127 ar 
   126  123  124 1  
   127  123  125 1  
   128  124  126 1  
   129    1  128 1  
   130    1  129 1  
   131    1  130 1  
   132    2  131 1  
   133    5  132 1  
   134    5  133 1  
   135    6  134 1  
   136    6  135 1  
   137    8  136 1  
   138    8  137 1  
   139    8  138 1  
   140    9  139 1  
   141   10  140 1  
   142   13  141 1  
   143   13  142 1  
   144   14  143 1  
   145   15  144 1  
   146   15  145 1  
   147   15  146 1  
   148   16  147 1  
   149   16  148 1  
   150   16  149 1  
   151   17  150 1  
   152   18  151 1  
   153   21  152 1  
   154   21  153 1  
   155   21  154 1  
   156   22  155 1  
   157   23  156 1  
   158   26  157 1  
   159   26  158 1  
   160   27  159 1  
   161   27  160 1  
   162   31  161 1  
   163   32  162 1  
   164   35  163 1  
   165   35  164 1  
   166   36  165 1  
   167   37  166 1  
   168   37  167 1  
   169   37  168 1  
   170   38  169 1  
   171   38  170 1  
   172   38  171 1  
   173   39  172 1  
   174   40  173 1  
   175   43  174 1  
   176   43  175 1  
   177   45  176 1  
   178   46  177 1  
   179   47  178 1  
   180   48  179 1  
   181   50  180 1  
   182   51  181 1  
   183   52  182 1  
   184   52  183 1  
   185   55  184 1  
   186   56  185 1  
   187   59  186 1  
   188   59  187 1  
   189   60  188 1  
   190   61  189 1  
   191   62  190 1  
   192   65  191 1  
   193   65  192 1  
   194   70  193 1  
   195   73  194 1  
   196   73  195 1  
   197   74  196 1  
   198   74  197 1  
   199   75  198 1  
   200   75  199 1  
   201   76  200 1  
   202   77  201 1  
   203   80  202 1  
   204   80  203 1  
   205   81  204 1  
   206   81  205 1  
   207   84  206 1  
   208   84  207 1  
   209   85  208 1  
   210   86  209 1  
   211   89  210 1  
   212   89  211 1  
   213   90  212 1  
   214   90  213 1  
   215   94  214 1  
   216   95  215 1  
   217   98  216 1  
   218   98  217 1  
   219   99  218 1  
   220   99  219 1  
   221  103  220 1  
   222  104  221 1  
   223  107  222 1  
   224  107  223 1  
   225  108  224 1  
   226  109  225 1  
   227  109  226 1  
   228  109  227 1  
   229  110  228 1  
   230  110  229 1  
   231  110  230 1  
   232  111  231 1  
   233  112  232 1  
   234  115  233 1  
   235  116  234 1  
   236  116  235 1  
   237  117  236 1  
   238  117  237 1  
   239  117  238 1  
   240  118  239 1  
   241  118  240 1  
   242  118  241 1  
   243  119  242 1  
   244  120  243 1  
   245  123  244 1  
   246  124  245 1  
   247  124  246 1  
   248  125  247 1  
   249  125  248 1  
   250  125  249 1  
   251  126  250 1  
   252  126  251 1  
   253  126  252 1  
@<TRIPOS>SUBSTRUCTURE
     1 MET         1

