2koh_ligand
  -I-interpret- 

257258  0  0  0  0  0  0  0  0999 V2000
   -5.1990   -6.7800   34.2150 N   0  3  0  0  0
   -4.6340   -5.6440   33.4880 C   0  0  0  0  0
   -3.4180   -6.0880   32.6990 C   0  0  0  0  0
   -2.9130   -5.3750   31.8270 O   0  0  0  0  0
   -4.2550   -4.5100   34.4500 C   0  0  0  0  0
   -5.4340   -3.9390   35.2250 C   0  0  0  0  0
   -4.9570   -2.6010   36.3400 S   0  0  0  0  0
   -6.5400   -2.2040   37.0760 C   0  0  0  0  0
   -2.9440   -7.2620   33.0120 N   0  0  0  0  0
   -1.8200   -7.8360   32.3140 C   0  0  0  0  0
   -2.3070   -8.9360   31.4050 C   0  0  0  0  0
   -3.4620   -9.3700   31.5210 O   0  0  0  0  0
   -0.7310   -8.3890   33.2720 C   0  0  0  0  0
    0.0750   -7.3860   34.1320 C   0  0  0  0  0
   -0.7910   -6.6600   35.1510 C   0  0  0  0  0
    1.2290   -8.0940   34.8180 C   0  0  0  0  0
   -1.4430   -9.3590   30.5060 N   0  0  0  0  0
   -1.7130  -10.4350   29.5630 C   0  0  0  0  0
   -2.8450  -10.1070   28.5970 C   0  0  0  0  0
   -4.0120  -10.4530   28.8190 O   0  0  0  0  0
   -1.9240  -11.7870   30.2560 C   0  0  0  0  0
   -2.5050   -9.3950   27.5730 N   0  0  0  0  0
   -3.4130   -9.0680   26.5180 C   0  0  0  0  0
   -2.7630   -9.5450   25.2600 C   0  0  0  0  0
   -1.5600   -9.3020   25.0580 O   0  0  0  0  0
   -3.6610   -7.5820   26.4670 C   0  0  0  0  0
   -4.7430   -7.1660   25.4950 C   0  0  0  0  0
   -5.0110   -5.6930   25.5270 C   0  0  0  0  0
   -5.8430   -5.2560   26.3420 O   0  0  0  0  0
   -4.4030   -4.9430   24.7330 O   0  0  0  0  0
   -3.5280  -10.2110   24.4250 N   0  0  0  0  0
   -2.9880  -10.9490   23.2690 C   0  0  0  0  0
   -2.0270  -12.0280   23.7950 C   0  0  0  0  0
   -2.0330  -12.3520   25.0050 O   0  0  0  0  0
   -2.2570  -10.0330   22.2300 C   0  0  0  0  0
   -3.1060   -9.0920   21.3430 C   0  0  0  0  0
   -3.8390   -8.0430   22.1450 C   0  0  0  0  0
   -2.2360   -8.4380   20.2790 C   0  0  0  0  0
   -1.2380  -12.5980   22.9330 N   0  0  0  0  0
   -0.2650  -13.5520   23.3540 C   0  0  0  0  0
    0.8090  -13.5970   22.3200 C   0  0  0  0  0
    0.5730  -14.0120   21.1760 O   0  0  0  0  0
   -0.8880  -14.9300   23.5770 C   0  0  0  0  0
    0.0570  -15.9230   24.2000 C   0  0  0  0  0
    0.3380  -15.8730   25.5590 C   0  0  0  0  0
    0.6620  -16.9080   23.4440 C   0  0  0  0  0
    1.1950  -16.7790   26.1410 C   0  0  0  0  0
    1.5190  -17.8160   24.0220 C   0  0  0  0  0
    1.7830  -17.7470   25.3650 C   0  0  0  0  0
    2.6370  -18.6630   25.9400 O   0  0  0  0  0
    1.9470  -13.1310   22.6890 N   0  0  0  0  0
    3.0310  -13.0490   21.7930 C   0  0  0  0  0
    3.9420  -11.9430   22.2040 C   0  0  0  0  0
    3.4980  -10.9940   22.8670 O   0  0  0  0  0
    5.1900  -12.0450   21.8620 N   0  0  0  0  0
    6.1310  -11.0290   22.1930 C   0  0  0  0  0
    6.1050   -9.9560   21.1090 C   0  0  0  0  0
    6.8390  -10.0250   20.1180 O   0  0  0  0  0
    7.5190  -11.6390   22.3530 C   0  0  0  0  0
    7.4870  -12.6950   23.3180 O   0  0  0  0  0
    5.1960   -9.0210   21.2630 N   0  0  0  0  0
    4.9970   -7.9830   20.2970 C   0  0  0  0  0
    4.8190   -6.6800   21.0310 C   0  0  0  0  0
    4.1050   -6.6290   22.0340 O   0  0  0  0  0
    3.7030   -8.2300   19.4740 C   0  0  0  0  0
    3.6190   -9.5830   18.7950 C   0  0  0  0  0
    4.0700   -9.7290   17.6340 O   0  0  0  0  0
    3.0790  -10.5200   19.4040 O   0  0  0  0  0
    5.4710   -5.6160   20.5860 N   0  0  0  0  0
    5.2720   -4.2900   21.1450 C   0  0  0  0  0
    4.2150   -3.5310   20.3370 C   0  0  0  0  0
    3.9880   -2.3380   20.5480 O   0  0  0  0  0
    6.6440   -3.6480   20.9490 C   0  0  0  0  0
    7.1750   -4.2600   19.6870 C   0  0  0  0  0
    6.5060   -5.6120   19.5340 C   0  0  0  0  0
    3.5590   -4.2730   19.4260 N   0  0  0  0  0
    2.6040   -3.7430   18.4610 C   0  0  0  0  0
    3.2580   -2.6870   17.5880 C   0  0  0  0  0
    3.3400   -1.5260   17.9650 O   0  0  0  0  0
    1.2950   -3.1940   19.0990 C   0  0  0  0  0
    0.3430   -4.2310   19.7240 C   0  0  0  0  0
    0.9160   -4.9910   20.9080 C   0  0  0  0  0
    1.5140   -6.0590   20.7560 O   0  0  0  0  0
    0.7440   -4.4520   22.0820 N   0  0  0  0  0
    3.7720   -3.1010   16.4510 N   0  0  0  0  0
    4.4190   -2.1770   15.5470 C   0  0  0  0  0
    3.4060   -1.2730   14.8630 C   0  0  0  0  0
    2.6620   -1.6760   13.9660 O   0  0  0  0  0
    5.3500   -2.8980   14.5740 C   0  0  0  0  0
    4.6990   -3.9850   13.7930 C   0  0  0  0  0
    5.7090   -4.7930   13.0370 C   0  0  0  0  0
    6.4300   -5.5760   13.6850 O   0  0  0  0  0
    5.7860   -4.7000   11.8120 O   0  0  0  0  0
    3.3790   -0.0750   15.3390 N   0  0  0  0  0
    2.4680    0.9610   14.9100 C   0  0  0  0  0
    3.2230    1.9780   14.0730 C   0  0  0  0  0
    4.4340    2.1830   14.2690 O   0  0  0  0  0
    1.9260    1.6730   16.1510 C   0  0  0  0  0
    1.1690    0.7930   17.1240 C   0  0  0  0  0
    1.0030    1.4490   18.4880 C   0  0  0  0  0
    2.0030    1.5660   19.2160 O   0  0  0  0  0
   -0.1200    1.8200   18.8590 O   0  0  0  0  0
    2.5370    2.5890   13.1580 N   0  0  0  0  0
    3.0850    3.6150   12.3470 C   0  0  0  0  0
    1.9880    4.6800   12.2170 C   0  0  0  0  0
    0.8410    4.3520   11.9540 O   0  0  0  0  0
    3.4530    3.0100   10.9730 C   0  0  0  0  0
    4.4850    3.7470   10.1250 C   0  0  0  0  0
    4.0650    5.1560    9.7740 C   0  0  0  0  0
    5.8140    3.7160   10.8270 C   0  0  0  0  0
    2.3180    5.9180   12.4420 N   0  0  0  0  0
    1.3180    6.9740   12.3520 C   0  0  0  0  0
    1.5620    7.8080   11.1200 C   0  0  0  0  0
    2.6740    8.3180   10.9060 O   0  0  0  0  0
    1.2440    7.9230   13.6190 C   0  0  0  0  0
    0.8700    7.1590   14.9170 C   0  0  0  0  0
    0.2450    9.0780   13.3930 C   0  0  0  0  0
    1.9290    6.2110   15.4540 C   0  0  0  0  0
    0.5630    7.9520   10.3180 N   0  0  0  0  0
    0.6620    8.7470    9.1600 C   0  0  0  0  0
   -0.2440    9.9480    9.3070 C   0  0  0  0  0
    0.2470   11.0030    9.7200 O   0  0  0  0  0
    0.4130    7.9610    7.8320 C   0  0  0  0  0
   -0.9070    7.1880    7.8500 C   0  0  0  0  0
    1.5760    7.0130    7.5470 C   0  0  0  0  0
   -1.2460    6.5720    6.5150 C   0  0  0  0  0
   -1.4340    9.8440    9.0630 O   0  0  0  0  0
   -5.4419   -7.5181   33.5543 H   0  0  0  0  0
   -4.5116   -7.1314   34.8816 H   0  0  0  0  0
   -6.0362   -6.4801   34.7145 H   0  0  0  0  0
   -5.3900   -5.2666   32.7994 H   0  0  0  0  0
   -3.8392   -3.7008   33.8496 H   0  0  0  0  0
   -3.5573   -4.9226   35.1787 H   0  0  0  0  0
   -5.8567   -4.7419   35.8289 H   0  0  0  0  0
   -6.1436   -3.5348   34.5031 H   0  0  0  0  0
   -7.2356   -1.8969   36.2950 H   0  0  0  0  0
   -6.9317   -3.0828   37.5882 H   0  0  0  0  0
   -6.4131   -1.3914   37.7914 H   0  0  0  0  0
   -3.3794   -7.7877   33.7699 H   0  0  0  0  0
   -1.3548   -7.0377   31.7357 H   0  0  0  0  0
    0.0050   -8.8634   32.6229 H   0  0  0  0  0
   -1.2700   -9.0093   33.9881 H   0  0  0  0  0
    0.4681   -6.6258   33.4570 H   0  0  0  0  0
   -1.5721   -6.1044   34.6320 H   0  0  0  0  0
   -1.2462   -7.3875   35.8231 H   0  0  0  0  0
   -0.1729   -5.9699   35.7253 H   0  0  0  0  0
    0.8389   -8.8834   35.4605 H   0  0  0  0  0
    1.8864   -8.5284   34.0648 H   0  0  0  0  0
    1.7875   -7.3769   35.4196 H   0  0  0  0  0
   -0.5300   -8.9058   30.4679 H   0  0  0  0  0
   -0.8108  -10.5295   28.9586 H   0  0  0  0  0
   -1.0274  -12.0500   30.8173 H   0  0  0  0  0
   -2.7726  -11.7165   30.9365 H   0  0  0  0  0
   -2.1214  -12.5519   29.5050 H   0  0  0  0  0
   -1.5464   -9.0512   27.5151 H   0  0  0  0  0
   -4.3852   -9.5381   26.6661 H   0  0  0  0  0
   -2.7344   -7.1128   26.1364 H   0  0  0  0  0
   -3.9873   -7.2764   27.4611 H   0  0  0  0  0
   -5.6621   -7.6802   25.7761 H   0  0  0  0  0
   -4.4085   -7.4242   24.4902 H   0  0  0  0  0
   -3.8091   -5.4672   24.1906 H   0  0  0  0  0
   -4.5357  -10.2176   24.5830 H   0  0  0  0  0
   -3.8271  -11.3930   22.7334 H   0  0  0  0  0
   -1.7764  -10.7210   21.5344 H   0  0  0  0  0
   -1.6306   -9.3706   22.8275 H   0  0  0  0  0
   -3.8641   -9.7079   20.8591 H   0  0  0  0  0
   -4.5087   -8.5311   22.8531 H   0  0  0  0  0
   -3.1173   -7.4321   22.6873 H   0  0  0  0  0
   -4.4182   -7.4114   21.4714 H   0  0  0  0  0
   -1.4489   -7.8582   20.7611 H   0  0  0  0  0
   -1.7887   -9.2097   19.6525 H   0  0  0  0  0
   -2.8495   -7.7795   19.6642 H   0  0  0  0  0
   -1.3158  -12.3601   21.9442 H   0  0  0  0  0
    0.1561  -13.2527   24.3138 H   0  0  0  0  0
   -1.1770  -15.3206   22.6013 H   0  0  0  0  0
   -1.7273  -14.8032   24.2608 H   0  0  0  0  0
   -0.1278  -15.1036   26.1748 H   0  0  0  0  0
    0.4577  -16.9668   22.3749 H   0  0  0  0  0
    1.4052  -16.7285   27.2093 H   0  0  0  0  0
    1.9872  -18.5890   23.4127 H   0  0  0  0  0
    2.9594  -19.2654   25.2657 H   0  0  0  0  0
    2.0687  -12.8136   23.6507 H   0  0  0  0  0
    2.6550  -12.8524   20.7890 H   0  0  0  0  0
    3.5795  -13.9909   21.8033 H   0  0  0  0  0
    5.5023  -12.8680   21.3467 H   0  0  0  0  0
    5.8675  -10.5640   23.1429 H   0  0  0  0  0
    8.2107  -10.8675   22.6914 H   0  0  0  0  0
    7.8441  -12.0421   21.3939 H   0  0  0  0  0
    8.3659  -13.0702   23.4093 H   0  0  0  0  0
    4.6119   -9.0346   22.0991 H   0  0  0  0  0
    5.8570   -7.9631   19.6276 H   0  0  0  0  0
    3.6875   -7.4808   18.6824 H   0  0  0  0  0
    2.8708   -8.1798   20.1762 H   0  0  0  0  0
    4.4471   -8.8995   17.3317 H   0  0  0  0  0
    4.9288   -4.2930   22.1796 H   0  0  0  0  0
    7.3031   -3.8307   21.7977 H   0  0  0  0  0
    6.5781   -2.5623   20.8776 H   0  0  0  0  0
    8.2583   -4.3694   19.7377 H   0  0  0  0  0
    6.9586   -3.6234   18.8291 H   0  0  0  0  0
    6.0856   -5.7559   18.5387 H   0  0  0  0  0
    7.2099   -6.4371   19.6423 H   0  0  0  0  0
    3.7429   -5.2761   19.4097 H   0  0  0  0  0
    2.3009   -4.5903   17.8459 H   0  0  0  0  0
    0.7383   -2.7261   18.2871 H   0  0  0  0  0
    1.6086   -2.5435   19.9155 H   0  0  0  0  0
    0.1262   -4.9677   18.9505 H   0  0  0  0  0
   -0.5250   -3.6829   20.0903 H   0  0  0  0  0
    1.1094   -4.9149   22.9142 H   0  0  0  0  0
    0.2439   -3.5672   22.1687 H   0  0  0  0  0
    3.7134   -4.0887   16.2031 H   0  0  0  0  0
    5.0606   -1.5199   16.1341 H   0  0  0  0  0
    6.1392   -3.3589   15.1679 H   0  0  0  0  0
    5.7018   -2.1555   13.8577 H   0  0  0  0  0
    4.0106   -3.5340   13.0783 H   0  0  0  0  0
    4.1759   -4.6442   14.4857 H   0  0  0  0  0
    6.2214   -5.5025   14.6192 H   0  0  0  0  0
    4.0494    0.1582   16.0715 H   0  0  0  0  0
    1.6578    0.5231   14.3269 H   0  0  0  0  0
    1.2206    2.4244   15.7963 H   0  0  0  0  0
    2.7900    2.0621   16.6896 H   0  0  0  0  0
    1.7362   -0.1280   17.2586 H   0  0  0  0  0
    0.1759    0.6111   16.7132 H   0  0  0  0  0
    2.7737    1.2248   18.7564 H   0  0  0  0  0
    1.5633    2.3206   13.0157 H   0  0  0  0  0
    3.9889    4.0557   12.7676 H   0  0  0  0  0
    2.5316    3.0281   10.3909 H   0  0  0  0  0
    3.8965    2.0387   11.1921 H   0  0  0  0  0
    4.5700    3.2293    9.1696 H   0  0  0  0  0
    3.1329    5.1260    9.2097 H   0  0  0  0  0
    3.9185    5.7289   10.6897 H   0  0  0  0  0
    4.8417    5.6256    9.1704 H   0  0  0  0  0
    5.7221    4.2029   11.7978 H   0  0  0  0  0
    6.1258    2.6809   10.9663 H   0  0  0  0  0
    6.5543    4.2418   10.2240 H   0  0  0  0  0
    3.2815    6.1507   12.6826 H   0  0  0  0  0
    0.3573    6.4618   12.2992 H   0  0  0  0  0
    2.2461    8.3315   13.7494 H   0  0  0  0  0
    0.0022    6.5458   14.6743 H   0  0  0  0  0
    0.7154    7.9157   15.6861 H   0  0  0  0  0
    0.5625    9.6683   12.5334 H   0  0  0  0  0
   -0.7473    8.6672   13.2068 H   0  0  0  0  0
    0.2169    9.7112   14.2798 H   0  0  0  0  0
    2.1480    5.4507   14.7043 H   0  0  0  0  0
    2.8359    6.7719   15.6802 H   0  0  0  0  0
    1.5602    5.7328   16.3614 H   0  0  0  0  0
   -0.3171    7.4804   10.5265 H   0  0  0  0  0
    1.6940    9.0867    9.0728 H   0  0  0  0  0
    1.1906   10.8855    9.8518 H   0  0  0  0  0
    0.3444    8.6991    7.0329 H   0  0  0  0  0
   -1.7007    7.8910    8.1031 H   0  0  0  0  0
   -0.8090    6.3793    8.5742 H   0  0  0  0  0
    2.4970    7.5882    7.4520 H   0  0  0  0  0
    1.6731    6.3022    8.3676 H   0  0  0  0  0
    1.3850    6.4745    6.6188 H   0  0  0  0  0
   -1.3315    7.3581    5.7648 H   0  0  0  0  0
   -0.4577    5.8767    6.2264 H   0  0  0  0  0
   -2.1929    6.0377    6.5928 H   0  0  0  0  0
  1  2  1  0  0  0
  2  3  1  0  0  0
  2  5  1  0  0  0
  3  4  2  0  0  0
  3  9  1  0  0  0
  5  6  1  0  0  0
  6  7  1  0  0  0
  7  8  1  0  0  0
  9 10  1  0  0  0
 10 11  1  0  0  0
 10 13  1  0  0  0
 11 12  2  0  0  0
 11 17  1  0  0  0
 13 14  1  0  0  0
 14 15  1  0  0  0
 14 16  1  0  0  0
 17 18  1  0  0  0
 18 19  1  0  0  0
 18 21  1  0  0  0
 19 20  2  0  0  0
 19 22  1  0  0  0
 22 23  1  0  0  0
 23 24  1  0  0  0
 23 26  1  0  0  0
 24 25  2  0  0  0
 24 31  1  0  0  0
 26 27  1  0  0  0
 27 28  1  0  0  0
 28 29  2  0  0  0
 28 30  1  0  0  0
 31 32  1  0  0  0
 32 33  1  0  0  0
 32 35  1  0  0  0
 33 34  2  0  0  0
 33 39  1  0  0  0
 35 36  1  0  0  0
 36 37  1  0  0  0
 36 38  1  0  0  0
 39 40  1  0  0  0
 40 41  1  0  0  0
 40 43  1  0  0  0
 41 42  2  0  0  0
 41 51  1  0  0  0
 43 44  1  0  0  0
 44 45  4  0  0  0
 44 46  4  0  0  0
 45 47  4  0  0  0
 46 48  4  0  0  0
 47 49  4  0  0  0
 48 49  4  0  0  0
 49 50  1  0  0  0
 51 52  1  0  0  0
 52 53  1  0  0  0
 53 54  2  0  0  0
 53 55  1  0  0  0
 55 56  1  0  0  0
 56 57  1  0  0  0
 56 59  1  0  0  0
 57 58  2  0  0  0
 57 61  1  0  0  0
 59 60  1  0  0  0
 61 62  1  0  0  0
 62 63  1  0  0  0
 62 65  1  0  0  0
 63 64  2  0  0  0
 63 69  1  0  0  0
 65 66  1  0  0  0
 66 67  1  0  0  0
 66 68  2  0  0  0
 69 70  1  0  0  0
 69 75  1  0  0  0
 70 71  1  0  0  0
 70 73  1  0  0  0
 71 72  2  0  0  0
 71 76  1  0  0  0
 73 74  1  0  0  0
 74 75  1  0  0  0
 76 77  1  0  0  0
 77 78  1  0  0  0
 77 80  1  0  0  0
 78 79  2  0  0  0
 78 85  1  0  0  0
 80 81  1  0  0  0
 81 82  1  0  0  0
 82 83  2  0  0  0
 82 84  1  0  0  0
 85 86  1  0  0  0
 86 87  1  0  0  0
 86 89  1  0  0  0
 87 88  2  0  0  0
 87 94  1  0  0  0
 89 90  1  0  0  0
 90 91  1  0  0  0
 91 92  1  0  0  0
 91 93  2  0  0  0
 94 95  1  0  0  0
 95 96  1  0  0  0
 95 98  1  0  0  0
 96 97  2  0  0  0
 96103  1  0  0  0
 98 99  1  0  0  0
 99100  1  0  0  0
100101  1  0  0  0
100102  2  0  0  0
103104  1  0  0  0
104105  1  0  0  0
104107  1  0  0  0
105106  2  0  0  0
105111  1  0  0  0
107108  1  0  0  0
108109  1  0  0  0
108110  1  0  0  0
111112  1  0  0  0
112113  1  0  0  0
112115  1  0  0  0
113114  2  0  0  0
113119  1  0  0  0
115116  1  0  0  0
115117  1  0  0  0
116118  1  0  0  0
119120  1  0  0  0
120121  1  0  0  0
120123  1  0  0  0
121122  1  0  0  0
121127  2  0  0  0
123124  1  0  0  0
123125  1  0  0  0
124126  1  0  0  0
  1128  1  0  0  0
  1129  1  0  0  0
  1130  1  0  0  0
  2131  1  0  0  0
  5132  1  0  0  0
  5133  1  0  0  0
  6134  1  0  0  0
  6135  1  0  0  0
  8136  1  0  0  0
  8137  1  0  0  0
  8138  1  0  0  0
  9139  1  0  0  0
 10140  1  0  0  0
 13141  1  0  0  0
 13142  1  0  0  0
 14143  1  0  0  0
 15144  1  0  0  0
 15145  1  0  0  0
 15146  1  0  0  0
 16147  1  0  0  0
 16148  1  0  0  0
 16149  1  0  0  0
 17150  1  0  0  0
 18151  1  0  0  0
 21152  1  0  0  0
 21153  1  0  0  0
 21154  1  0  0  0
 22155  1  0  0  0
 23156  1  0  0  0
 26157  1  0  0  0
 26158  1  0  0  0
 27159  1  0  0  0
 27160  1  0  0  0
 30161  1  0  0  0
 31162  1  0  0  0
 32163  1  0  0  0
 35164  1  0  0  0
 35165  1  0  0  0
 36166  1  0  0  0
 37167  1  0  0  0
 37168  1  0  0  0
 37169  1  0  0  0
 38170  1  0  0  0
 38171  1  0  0  0
 38172  1  0  0  0
 39173  1  0  0  0
 40174  1  0  0  0
 43175  1  0  0  0
 43176  1  0  0  0
 45177  1  0  0  0
 46178  1  0  0  0
 47179  1  0  0  0
 48180  1  0  0  0
 50181  1  0  0  0
 51182  1  0  0  0
 52183  1  0  0  0
 52184  1  0  0  0
 55185  1  0  0  0
 56186  1  0  0  0
 59187  1  0  0  0
 59188  1  0  0  0
 60189  1  0  0  0
 61190  1  0  0  0
 62191  1  0  0  0
 65192  1  0  0  0
 65193  1  0  0  0
 67194  1  0  0  0
 70195  1  0  0  0
 73196  1  0  0  0
 73197  1  0  0  0
 74198  1  0  0  0
 74199  1  0  0  0
 75200  1  0  0  0
 75201  1  0  0  0
 76202  1  0  0  0
 77203  1  0  0  0
 80204  1  0  0  0
 80205  1  0  0  0
 81206  1  0  0  0
 81207  1  0  0  0
 84208  1  0  0  0
 84209  1  0  0  0
 85210  1  0  0  0
 86211  1  0  0  0
 89212  1  0  0  0
 89213  1  0  0  0
 90214  1  0  0  0
 90215  1  0  0  0
 92216  1  0  0  0
 94217  1  0  0  0
 95218  1  0  0  0
 98219  1  0  0  0
 98220  1  0  0  0
 99221  1  0  0  0
 99222  1  0  0  0
101223  1  0  0  0
103224  1  0  0  0
104225  1  0  0  0
107226  1  0  0  0
107227  1  0  0  0
108228  1  0  0  0
109229  1  0  0  0
109230  1  0  0  0
109231  1  0  0  0
110232  1  0  0  0
110233  1  0  0  0
110234  1  0  0  0
111235  1  0  0  0
112236  1  0  0  0
115237  1  0  0  0
116238  1  0  0  0
116239  1  0  0  0
117240  1  0  0  0
117241  1  0  0  0
117242  1  0  0  0
118243  1  0  0  0
118244  1  0  0  0
118245  1  0  0  0
119246  1  0  0  0
120247  1  0  0  0
122248  1  0  0  0
123249  1  0  0  0
124250  1  0  0  0
124251  1  0  0  0
125252  1  0  0  0
125253  1  0  0  0
125254  1  0  0  0
126255  1  0  0  0
126256  1  0  0  0
126257  1  0  0  0
M  END
$$$$
