4k3q_ligand
  -I-interpret- 

 87 87  0  0  0  0  0  0  0  0999 V2000
   -3.2100   -8.2930  -12.9970 C   0  0  0  0  0
   -2.7470   -7.6390  -13.9210 O   0  0  0  0  0
   -4.5030   -9.0510  -13.1910 C   0  0  0  0  0
   -2.7350   -8.2720  -11.7470 N   0  0  0  0  0
   -1.5580   -7.4560  -11.3110 C   0  0  0  0  0
   -0.3050   -7.7500  -12.1350 C   0  0  0  0  0
    0.1440   -8.8990  -12.2130 O   0  0  0  0  0
   -1.2590   -7.6850   -9.8230 C   0  0  0  0  0
   -0.0290   -6.9330   -9.3170 C   0  0  0  0  0
   -0.1840   -5.4280   -9.4350 C   0  0  0  0  0
   -1.1490   -4.8550   -8.9320 O   0  0  0  0  0
    0.7630   -4.7820  -10.1120 N   0  0  0  0  0
    0.2590   -6.7010  -12.7300 N   0  0  0  0  0
    1.4840   -6.8270  -13.5200 C   0  0  0  0  0
    2.7410   -6.6350  -12.6600 C   0  0  0  0  0
    2.6740   -6.0670  -11.5660 O   0  0  0  0  0
    1.4580   -5.8700  -14.7250 C   0  0  0  0  0
    0.3620   -6.1110  -15.7770 C   0  0  0  0  0
    0.4220   -5.0740  -16.8890 C   0  0  0  0  0
    0.4390   -7.5210  -16.3570 C   0  0  0  0  0
    3.8760   -7.1320  -13.1540 N   0  0  0  0  0
    5.1530   -7.0440  -12.4370 C   0  0  0  0  0
    6.0070   -5.8990  -12.9710 C   0  0  0  0  0
    5.9400   -5.5670  -14.1600 O   0  0  0  0  0
    5.9290   -8.3640  -12.5330 C   0  0  0  0  0
    5.1850   -9.5330  -11.9000 C   0  0  0  0  0
    4.6500   -9.3740  -10.7800 O   0  0  0  0  0
    5.1450  -10.6190  -12.5210 O   0  0  0  0  0
    6.8120   -5.3100  -12.0850 N   0  0  0  0  0
    7.6820   -4.1760  -12.4230 C   0  0  0  0  0
    8.9610   -4.5870  -13.1520 C   0  0  0  0  0
    9.4930   -3.8280  -13.9630 O   0  0  0  0  0
    8.0200   -3.3790  -11.1650 C   0  0  0  0  0
    9.4390   -5.7920  -12.8500 N   0  0  0  0  0
   10.7260   -6.2850  -13.3360 C   0  0  0  0  0
   10.7680   -7.8070  -13.2310 C   0  0  0  0  0
    9.8320   -8.4350  -12.7250 O   0  0  0  0  0
   11.8790   -5.6790  -12.5160 C   0  0  0  0  0
   11.7010   -5.8190  -11.0250 C   0  0  0  0  0
   12.0030   -7.0180  -10.3780 C   0  0  0  0  0
   11.2150   -4.7550  -10.2710 C   0  0  0  0  0
   11.8240   -7.1510   -9.0100 C   0  0  0  0  0
   11.0350   -4.8800   -8.9040 C   0  0  0  0  0
   11.3430   -6.0780   -8.2720 C   0  0  0  0  0
   11.7490   -8.4410  -13.6260 O   0  0  0  0  0
   -5.2980   -8.3510  -13.4478 H   0  0  0  0  0
   -4.3807   -9.7753  -13.9963 H   0  0  0  0  0
   -4.7595   -9.5715  -12.2683 H   0  0  0  0  0
   -3.2037   -8.8476  -11.0474 H   0  0  0  0  0
   -1.8270   -6.4125  -11.4746 H   0  0  0  0  0
   -1.0657   -8.7496   -9.6909 H   0  0  0  0  0
   -2.1175   -7.3195   -9.2594 H   0  0  0  0  0
    0.8244   -7.2334   -9.9249 H   0  0  0  0  0
    0.1064   -7.1771   -8.2633 H   0  0  0  0  0
    0.7054   -3.7705  -10.2303 H   0  0  0  0  0
    1.5461   -5.2985  -10.5124 H   0  0  0  0  0
   -0.1753   -5.7833  -12.6323 H   0  0  0  0  0
    1.5272   -7.8448  -13.9076 H   0  0  0  0  0
    2.4067   -6.0136  -15.2422 H   0  0  0  0  0
    1.2676   -4.8779  -14.3157 H   0  0  0  0  0
   -0.5961   -6.0089  -15.2674 H   0  0  0  0  0
    0.2824   -4.0797  -16.4647 H   0  0  0  0  0
    1.3929   -5.1272  -17.3817 H   0  0  0  0  0
   -0.3664   -5.2749  -17.6143 H   0  0  0  0  0
    1.4096   -7.6647  -16.8317 H   0  0  0  0  0
    0.3135   -8.2494  -15.5559 H   0  0  0  0  0
   -0.3514   -7.6521  -17.0961 H   0  0  0  0  0
    3.8553   -7.5907  -14.0648 H   0  0  0  0  0
    4.9259   -6.8470  -11.3893 H   0  0  0  0  0
    6.8701   -8.2379  -11.9977 H   0  0  0  0  0
    6.0716   -8.5915  -13.5894 H   0  0  0  0  0
    5.6136  -10.5275  -13.3539 H   0  0  0  0  0
    6.8238   -5.6637  -11.1284 H   0  0  0  0  0
    7.1211   -3.5509  -13.1178 H   0  0  0  0  0
    7.1004   -3.0033  -10.7165 H   0  0  0  0  0
    8.5347   -4.0255  -10.4542 H   0  0  0  0  0
    8.6654   -2.5414  -11.4296 H   0  0  0  0  0
    8.8806   -6.4001  -12.2510 H   0  0  0  0  0
   10.8421   -5.9880  -14.3783 H   0  0  0  0  0
    9.1408   -7.8220  -12.4641 H   0  0  0  0  0
   11.9144   -4.6132  -12.7415 H   0  0  0  0  0
   12.7888   -6.2145  -12.7875 H   0  0  0  0  0
   12.3843   -7.8602  -10.9555 H   0  0  0  0  0
   10.9733   -3.8125  -10.7623 H   0  0  0  0  0
   12.0598   -8.0936   -8.5160 H   0  0  0  0  0
   10.6522   -4.0398   -8.3247 H   0  0  0  0  0
   11.2068   -6.1758   -7.1950 H   0  0  0  0  0
  1  2  2  0  0  0
  1  3  1  0  0  0
  1  4  1  0  0  0
  4  5  1  0  0  0
  5  6  1  0  0  0
  5  8  1  0  0  0
  6  7  2  0  0  0
  6 13  1  0  0  0
  8  9  1  0  0  0
  9 10  1  0  0  0
 10 11  2  0  0  0
 10 12  1  0  0  0
 13 14  1  0  0  0
 14 15  1  0  0  0
 14 17  1  0  0  0
 15 16  2  0  0  0
 15 21  1  0  0  0
 17 18  1  0  0  0
 18 19  1  0  0  0
 18 20  1  0  0  0
 21 22  1  0  0  0
 22 23  1  0  0  0
 22 25  1  0  0  0
 23 24  2  0  0  0
 23 29  1  0  0  0
 25 26  1  0  0  0
 26 27  2  0  0  0
 26 28  1  0  0  0
 29 30  1  0  0  0
 30 31  1  0  0  0
 30 33  1  0  0  0
 31 32  2  0  0  0
 31 34  1  0  0  0
 34 35  1  0  0  0
 35 36  1  0  0  0
 35 38  1  0  0  0
 36 37  1  0  0  0
 36 45  2  0  0  0
 38 39  1  0  0  0
 39 40  4  0  0  0
 39 41  4  0  0  0
 40 42  4  0  0  0
 41 43  4  0  0  0
 42 44  4  0  0  0
 43 44  4  0  0  0
  3 46  1  0  0  0
  3 47  1  0  0  0
  3 48  1  0  0  0
  4 49  1  0  0  0
  5 50  1  0  0  0
  8 51  1  0  0  0
  8 52  1  0  0  0
  9 53  1  0  0  0
  9 54  1  0  0  0
 12 55  1  0  0  0
 12 56  1  0  0  0
 13 57  1  0  0  0
 14 58  1  0  0  0
 17 59  1  0  0  0
 17 60  1  0  0  0
 18 61  1  0  0  0
 19 62  1  0  0  0
 19 63  1  0  0  0
 19 64  1  0  0  0
 20 65  1  0  0  0
 20 66  1  0  0  0
 20 67  1  0  0  0
 21 68  1  0  0  0
 22 69  1  0  0  0
 25 70  1  0  0  0
 25 71  1  0  0  0
 28 72  1  0  0  0
 29 73  1  0  0  0
 30 74  1  0  0  0
 33 75  1  0  0  0
 33 76  1  0  0  0
 33 77  1  0  0  0
 34 78  1  0  0  0
 35 79  1  0  0  0
 37 80  1  0  0  0
 38 81  1  0  0  0
 38 82  1  0  0  0
 40 83  1  0  0  0
 41 84  1  0  0  0
 42 85  1  0  0  0
 43 86  1  0  0  0
 44 87  1  0  0  0
M  END
$$$$
