### 
### Created by X-TOOL on Wed Jan  1 15:39:37 2020
### 

@<TRIPOS>MOLECULE
6fi4_ligand
  115   119     1     0     0
SMALL
GAST_HUCK


@<TRIPOS>ATOM
      1 N         -13.9700  -11.2230   11.7760 N.4       1 PRO         0.2461
      2 CA        -13.0020  -10.2990   12.3690 C.3       1 PRO         0.0670
      3 C         -12.4800  -10.8140   13.7110 C.2       1 PRO         0.2268
      4 O         -12.5950  -10.1550   14.7420 O.2       1 PRO        -0.3907
      5 CB        -13.8130   -9.0060   12.5320 C.3       1 PRO         0.0127
      6 CG        -15.2890   -9.4050   12.3190 C.3       1 PRO        -0.0053
      7 CD        -15.3360  -10.8940   12.2050 C.3       1 PRO        -0.0313
      8 N         -11.9090  -12.0110   13.6790 N.am      1 SEP        -0.2586
      9 CA        -11.3740  -12.6500   14.8710 C.3       1 SEP         0.1587
     10 CB        -11.4410  -14.1680   14.7260 C.3       1 SEP         0.1184
     11 OG        -10.6840  -14.5530   13.5970 O.3       1 SEP        -0.2714
     12 C          -9.9360  -12.2210   15.1120 C.2       1 SEP         0.2065
     13 O          -9.4270  -11.3140   14.4580 O.2       1 SEP        -0.3943
     14 P         -10.9350  -16.0860   13.1780 P.3       1 SEP         0.2010
     15 O1P       -10.0230  -16.3590   11.8830 O.co2     1 SEP        -0.5537
     16 O2P       -12.4880  -16.3160   12.8310 O.co2     1 SEP        -0.5537
     17 O3P       -10.5050  -17.0470   14.3930 O.co2     1 SEP        -0.5537
     18 N          -9.2850  -12.8960   16.0500 N.am      1 LEU        -0.2636
     19 CA         -7.8970  -12.6210   16.3890 C.3       1 LEU         0.1314
     20 C          -6.9960  -12.8180   15.1740 C.2       1 LEU         0.2064
     21 O          -7.0020  -13.8900   14.5740 O.2       1 LEU        -0.3942
     22 CB         -7.4570  -13.5450   17.5210 C.3       1 LEU        -0.0101
     23 CG         -6.6170  -13.0520   18.6990 C.3       1 LEU        -0.0425
     24 CD1        -6.8170  -11.5850   19.0520 C.3       1 LEU        -0.0625
     25 CD2        -6.9660  -13.9190   19.8930 C.3       1 LEU        -0.0625
     26 N          -6.2230  -11.7860   14.7940 N.am      1 PRO        -0.2498
     27 CA         -5.2680  -12.0250   13.7090 C.3       1 PRO         0.1338
     28 C          -4.0610  -12.8060   14.2010 C.2       1 PRO         0.2041
     29 O          -3.1900  -12.2540   14.8720 O.2       1 PRO        -0.3944
     30 CB         -4.8730  -10.6150   13.2700 C.3       1 PRO        -0.0104
     31 CG         -5.0140   -9.7980   14.5010 C.3       1 PRO        -0.0281
     32 CD         -6.1780  -10.3890   15.2610 C.3       1 PRO         0.0369
     33 N          -4.0250  -14.0910   13.8780 N.am      1 DVA        -0.2635
     34 CA         -2.9290  -14.9480   14.2990 C.3       1 DVA         0.1333
     35 CB         -2.9490  -16.2800   13.5330 C.3       1 DVA        -0.0063
     36 CG1        -3.0270  -16.0350   12.0220 C.3       1 DVA        -0.0584
     37 CG2        -1.7390  -17.1050   13.9040 C.3       1 DVA        -0.0584
     38 C          -3.0030  -15.1840   15.8070 C.2       1 DVA         0.2049
     39 O          -3.9230  -15.8440   16.2960 O.2       1 DVA        -0.3943
     40 N10        -2.0160  -15.3330   16.8300 N.am      1 60H        -0.2641
     41 C38        -2.4500  -15.9190   18.1820 C.3       1 60H         0.0665
     42 C39        -3.3440  -14.9250   19.0810 C.3       1 60H         0.0487
     43 C46        -3.7800  -15.6330   20.4850 C.ar      1 60H        -0.0267
     44 C51        -3.7760  -17.0460   20.6670 C.ar      1 60H        -0.0580
     45 C50        -4.1620  -17.6480   21.8960 C.ar      1 60H        -0.0682
     46 C49        -4.5700  -16.8390   22.9730 C.ar      1 60H        -0.0685
     47 C48        -4.5890  -15.4480   22.8190 C.ar      1 60H        -0.0682
     48 C47        -4.1990  -14.8630   21.5900 C.ar      1 60H        -0.0580
     49 C40        -2.6070  -13.5430   19.2560 C.ar      1 60H        -0.0267
     50 C45        -2.8270  -12.5100   18.3210 C.ar      1 60H        -0.0580
     51 C44        -2.1800  -11.2520   18.4370 C.ar      1 60H        -0.0682
     52 C43        -1.2860  -11.0070   19.5050 C.ar      1 60H        -0.0685
     53 C42        -1.0480  -12.0230   20.4460 C.ar      1 60H        -0.0682
     54 C41        -1.7030  -13.2820   20.3200 C.ar      1 60H        -0.0580
     55 C37        -1.2100  -16.4010   18.8500 C.3       1 60H        -0.0239
     56 C36        -0.1060  -15.4970   18.3670 C.3       1 60H        -0.0301
     57 C35        -0.4760  -15.1730   16.9430 C.3       1 60H         0.0347
     58 H1        -13.7500  -12.1630   12.0659 H         1 PRO         0.2035
     59 H2        -13.9149  -11.1596   10.7715 H         1 PRO         0.2035
     60 H3        -12.1504  -10.1402   11.6911 H         1 PRO         0.1099
     61 H4        -13.5049   -8.2635   11.7812 H         1 PRO         0.0347
     62 H5        -13.6707   -8.5891   13.5399 H         1 PRO         0.0347
     63 H6        -15.6738   -8.9448   11.3970 H         1 PRO         0.0320
     64 H7        -15.8955   -9.0739   13.1749 H         1 PRO         0.0320
     65 H8        -15.5716  -11.3596   13.1733 H         1 PRO         0.0814
     66 H9        -16.0756  -11.2122   11.4555 H         1 PRO         0.0814
     67 H10       -11.8441  -12.4911   12.8042 H         1 SEP         0.1885
     68 H11       -11.9827  -12.3478   15.7360 H         1 SEP         0.0827
     69 H12       -12.4873  -14.4806   14.5932 H         1 SEP         0.0662
     70 H13       -11.0277  -14.6438   15.6275 H         1 SEP         0.0662
     71 H14        -9.7662  -13.6211   16.5427 H         1 LEU         0.1883
     72 H15        -7.8133  -11.5772   16.7258 H         1 LEU         0.0800
     73 H16        -6.8786  -14.3532   17.0495 H         1 LEU         0.0315
     74 H17        -8.3793  -13.9589   17.9546 H         1 LEU         0.0315
     75 H18        -5.5556  -13.1938   18.4472 H         1 LEU         0.0298
     76 H19        -6.1754  -11.3227   19.9061 H         1 LEU         0.0232
     77 H20        -7.8703  -11.4121   19.3179 H         1 LEU         0.0232
     78 H21        -6.5498  -10.9600   18.1871 H         1 LEU         0.0232
     79 H22        -6.8198  -14.9777   19.6326 H         1 LEU         0.0232
     80 H23        -8.0166  -13.7520   20.1728 H         1 LEU         0.0232
     81 H24        -6.3148  -13.6564   20.7397 H         1 LEU         0.0232
     82 H25        -5.7436  -12.5735   12.8826 H         1 PRO         0.0802
     83 H26        -5.5455  -10.2495   12.4800 H         1 PRO         0.0313
     84 H27        -3.8352  -10.5960   12.9059 H         1 PRO         0.0313
     85 H28        -5.2196   -8.7489   14.2421 H         1 PRO         0.0287
     86 H29        -4.0958   -9.8537   15.1041 H         1 PRO         0.0287
     87 H30        -6.0026  -10.3430   16.3459 H         1 PRO         0.0524
     88 H31        -7.1132   -9.8633   15.0181 H         1 PRO         0.0524
     89 H32        -4.7680  -14.4793   13.3328 H         1 DVA         0.1883
     90 H33        -1.9817  -14.4363   14.0738 H         1 DVA         0.0802
     91 H34        -3.8483  -16.8379   13.8330 H         1 DVA         0.0343
     92 H35        -3.0401  -17.0001   11.4943 H         1 DVA         0.0234
     93 H36        -2.1514  -15.4526   11.6993 H         1 DVA         0.0234
     94 H37        -3.9454  -15.4766   11.7880 H         1 DVA         0.0234
     95 H38        -1.7195  -17.2580   14.9931 H         1 DVA         0.0234
     96 H39        -0.8257  -16.5776   13.5915 H         1 DVA         0.0234
     97 H40        -1.7908  -18.0801   13.3976 H         1 DVA         0.0234
     98 H41        -3.0811  -16.7964   17.9776 H         1 DVA         0.0606
     99 H42        -4.2728  -14.7237   18.5272 H         1 DVA         0.0641
    100 H43        -3.4695  -17.6812   19.8438 H         1 DVA         0.0561
    101 H44        -4.1421  -18.7265   22.0031 H         1 DVA         0.0600
    102 H45        -4.8669  -17.2892   23.9134 H         1 DVA         0.0561
    103 H46        -4.9030  -14.8170   23.6426 H         1 DVA         0.0600
    104 H47        -4.2233  -13.7835   21.4948 H         1 DVA         0.0561
    105 H48        -3.5066  -12.6810   17.4940 H         1 DVA         0.0561
    106 H49        -2.3718  -10.4764   17.7044 H         1 DVA         0.0600
    107 H50        -0.7905  -10.0473   19.5966 H         1 DVA         0.0561
    108 H51        -0.3648  -11.8486   21.2693 H         1 DVA         0.0600
    109 H52        -1.5072  -14.0573   21.0519 H         1 DVA         0.0561
    110 H53        -1.0028  -17.4436   18.5669 H         1 DVA         0.0291
    111 H54        -1.3117  -16.3311   19.9430 H         1 DVA         0.0291
    112 H55         0.8645  -16.0131   18.4082 H         1 DVA         0.0285
    113 H56        -0.0604  -14.5810   18.9744 H         1 DVA         0.0285
    114 H57        -0.1842  -14.1402   16.7020 H         1 DVA         0.0522
    115 H58         0.0280  -15.8667   16.2540 H         1 DVA         0.0522
@<TRIPOS>BOND
     1    1    2 1  
     2    1    7 1  
     3    2    3 1  
     4    2    5 1  
     5    3    4 2  
     6    3    8 am 
     7    5    6 1  
     8    6    7 1  
     9    8    9 1  
    10    9   10 1  
    11    9   12 1  
    12   10   11 1  
    13   11   14 1  
    14   12   13 2  
    15   12   18 am 
    16   14   15 ar 
    17   14   16 ar 
    18   14   17 ar 
    19   18   19 1  
    20   19   20 1  
    21   19   22 1  
    22   20   21 2  
    23   20   26 am 
    24   22   23 1  
    25   23   24 1  
    26   23   25 1  
    27   26   27 1  
    28   26   32 1  
    29   27   28 1  
    30   27   30 1  
    31   28   29 2  
    32   28   33 am 
    33   30   31 1  
    34   31   32 1  
    35   33   34 1  
    36   34   35 1  
    37   34   38 1  
    38   35   36 1  
    39   35   37 1  
    40   38   39 2  
    41   38   40 am 
    42   40   41 1  
    43   40   57 1  
    44   41   42 1  
    45   41   55 1  
    46   42   43 1  
    47   42   49 1  
    48   43   44 ar 
    49   43   48 ar 
    50   44   45 ar 
    51   45   46 ar 
    52   46   47 ar 
    53   47   48 ar 
    54   49   50 ar 
    55   49   54 ar 
    56   50   51 ar 
    57   51   52 ar 
    58   52   53 ar 
    59   53   54 ar 
    60   55   56 1  
    61   56   57 1  
    62    1   58 1  
    63    1   59 1  
    64    2   60 1  
    65    5   61 1  
    66    5   62 1  
    67    6   63 1  
    68    6   64 1  
    69    7   65 1  
    70    7   66 1  
    71    8   67 1  
    72    9   68 1  
    73   10   69 1  
    74   10   70 1  
    75   18   71 1  
    76   19   72 1  
    77   22   73 1  
    78   22   74 1  
    79   23   75 1  
    80   24   76 1  
    81   24   77 1  
    82   24   78 1  
    83   25   79 1  
    84   25   80 1  
    85   25   81 1  
    86   27   82 1  
    87   30   83 1  
    88   30   84 1  
    89   31   85 1  
    90   31   86 1  
    91   32   87 1  
    92   32   88 1  
    93   33   89 1  
    94   34   90 1  
    95   35   91 1  
    96   36   92 1  
    97   36   93 1  
    98   36   94 1  
    99   37   95 1  
   100   37   96 1  
   101   37   97 1  
   102   41   98 1  
   103   42   99 1  
   104   44  100 1  
   105   45  101 1  
   106   46  102 1  
   107   47  103 1  
   108   48  104 1  
   109   50  105 1  
   110   51  106 1  
   111   52  107 1  
   112   53  108 1  
   113   54  109 1  
   114   55  110 1  
   115   55  111 1  
   116   56  112 1  
   117   56  113 1  
   118   57  114 1  
   119   57  115 1  
@<TRIPOS>SUBSTRUCTURE
     1 PRO         1

