6fi4_ligand
  -I-interpret- 

117121  0  0  0  0  0  0  0  0999 V2000
  -13.9700  -11.2230   11.7760 N   0  3  0  0  0
  -13.0020  -10.2990   12.3690 C   0  0  0  0  0
  -12.4800  -10.8140   13.7110 C   0  0  0  0  0
  -12.5950  -10.1550   14.7420 O   0  0  0  0  0
  -13.8130   -9.0060   12.5320 C   0  0  0  0  0
  -15.2890   -9.4050   12.3190 C   0  0  0  0  0
  -15.3360  -10.8940   12.2050 C   0  0  0  0  0
  -11.9090  -12.0110   13.6790 N   0  0  0  0  0
  -11.3740  -12.6500   14.8710 C   0  0  0  0  0
  -11.4410  -14.1680   14.7260 C   0  0  0  0  0
  -10.6840  -14.5530   13.5970 O   0  0  0  0  0
   -9.9360  -12.2210   15.1120 C   0  0  0  0  0
   -9.4270  -11.3140   14.4580 O   0  0  0  0  0
  -10.9350  -16.0860   13.1780 P   0  0  0  0  0
  -10.0230  -16.3590   11.8830 O   0  0  0  0  0
  -12.4880  -16.3160   12.8310 O   0  0  0  0  0
  -10.5050  -17.0470   14.3930 O   0  0  0  0  0
   -9.2850  -12.8960   16.0500 N   0  0  0  0  0
   -7.8970  -12.6210   16.3890 C   0  0  0  0  0
   -6.9960  -12.8180   15.1740 C   0  0  0  0  0
   -7.0020  -13.8900   14.5740 O   0  0  0  0  0
   -7.4570  -13.5450   17.5210 C   0  0  0  0  0
   -6.6170  -13.0520   18.6990 C   0  0  0  0  0
   -6.8170  -11.5850   19.0520 C   0  0  0  0  0
   -6.9660  -13.9190   19.8930 C   0  0  0  0  0
   -6.2230  -11.7860   14.7940 N   0  0  0  0  0
   -5.2680  -12.0250   13.7090 C   0  0  0  0  0
   -4.0610  -12.8060   14.2010 C   0  0  0  0  0
   -3.1900  -12.2540   14.8720 O   0  0  0  0  0
   -4.8730  -10.6150   13.2700 C   0  0  0  0  0
   -5.0140   -9.7980   14.5010 C   0  0  0  0  0
   -6.1780  -10.3890   15.2610 C   0  0  0  0  0
   -4.0250  -14.0910   13.8780 N   0  0  0  0  0
   -2.9290  -14.9480   14.2990 C   0  0  0  0  0
   -2.9490  -16.2800   13.5330 C   0  0  0  0  0
   -3.0270  -16.0350   12.0220 C   0  0  0  0  0
   -1.7390  -17.1050   13.9040 C   0  0  0  0  0
   -3.0030  -15.1840   15.8070 C   0  0  0  0  0
   -3.9230  -15.8440   16.2960 O   0  0  0  0  0
   -2.0160  -15.3330   16.8300 N   0  0  0  0  0
   -2.4500  -15.9190   18.1820 C   0  0  0  0  0
   -3.3440  -14.9250   19.0810 C   0  0  0  0  0
   -3.7800  -15.6330   20.4850 C   0  0  0  0  0
   -3.7760  -17.0460   20.6670 C   0  0  0  0  0
   -4.1620  -17.6480   21.8960 C   0  0  0  0  0
   -4.5700  -16.8390   22.9730 C   0  0  0  0  0
   -4.5890  -15.4480   22.8190 C   0  0  0  0  0
   -4.1990  -14.8630   21.5900 C   0  0  0  0  0
   -2.6070  -13.5430   19.2560 C   0  0  0  0  0
   -2.8270  -12.5100   18.3210 C   0  0  0  0  0
   -2.1800  -11.2520   18.4370 C   0  0  0  0  0
   -1.2860  -11.0070   19.5050 C   0  0  0  0  0
   -1.0480  -12.0230   20.4460 C   0  0  0  0  0
   -1.7030  -13.2820   20.3200 C   0  0  0  0  0
   -1.2100  -16.4010   18.8500 C   0  0  0  0  0
   -0.1060  -15.4970   18.3670 C   0  0  0  0  0
   -0.4760  -15.1730   16.9430 C   0  0  0  0  0
  -13.7490  -12.1710   12.0807 H   0  0  0  0  0
  -13.9172  -11.1473   10.7602 H   0  0  0  0  0
  -12.1082  -10.1666   11.7594 H   0  0  0  0  0
  -13.4996   -8.2484   11.8137 H   0  0  0  0  0
  -13.6601   -8.5637   13.5164 H   0  0  0  0  0
  -15.6846   -8.9396   11.4162 H   0  0  0  0  0
  -15.9013   -9.0658   13.1546 H   0  0  0  0  0
  -15.6214  -11.3849   13.1354 H   0  0  0  0  0
  -16.0984  -11.2453   11.5097 H   0  0  0  0  0
  -11.8428  -12.5007   12.7867 H   0  0  0  0  0
  -11.9775  -12.3418   15.7247 H   0  0  0  0  0
  -12.4774  -14.4809   14.5992 H   0  0  0  0  0
  -11.0365  -14.6421   15.6203 H   0  0  0  0  0
  -13.0178  -16.1491   13.6140 H   0  0  0  0  0
  -11.0616  -16.8671   15.1542 H   0  0  0  0  0
   -9.7758  -13.6356   16.5525 H   0  0  0  0  0
   -7.8128  -11.5834   16.7122 H   0  0  0  0  0
   -6.8016  -14.2603   17.0241 H   0  0  0  0  0
   -8.3971  -13.8412   17.9864 H   0  0  0  0  0
   -5.5683  -13.1320   18.4128 H   0  0  0  0  0
   -6.5520  -10.9668   18.1943 H   0  0  0  0  0
   -7.8610  -11.4150   19.3153 H   0  0  0  0  0
   -6.1808  -11.3263   19.8984 H   0  0  0  0  0
   -8.0293  -13.8219   20.1125 H   0  0  0  0  0
   -6.7342  -14.9594   19.6651 H   0  0  0  0  0
   -6.3845  -13.5967   20.7568 H   0  0  0  0  0
   -5.6863  -12.6213   12.8981 H   0  0  0  0  0
   -5.4992  -10.2464   12.4576 H   0  0  0  0  0
   -3.8616  -10.5782   12.8654 H   0  0  0  0  0
   -5.1903   -8.7494   14.2612 H   0  0  0  0  0
   -4.1013   -9.8201   15.0965 H   0  0  0  0  0
   -6.0518  -10.3143   16.3411 H   0  0  0  0  0
   -7.1109   -9.8569   15.0747 H   0  0  0  0  0
   -4.7828  -14.4871   13.3219 H   0  0  0  0  0
   -1.9872  -14.4495   14.0695 H   0  0  0  0  0
   -3.8399  -16.8411   13.8153 H   0  0  0  0  0
   -3.9374  -15.4817   11.7915 H   0  0  0  0  0
   -2.1590  -15.4578   11.7035 H   0  0  0  0  0
   -3.0400  -16.9919   11.5002 H   0  0  0  0  0
   -0.8334  -16.5554   13.6470 H   0  0  0  0  0
   -1.7521  -17.3055   14.9753 H   0  0  0  0  0
   -1.7615  -18.0472   13.3564 H   0  0  0  0  0
   -3.1394  -16.7488   18.0263 H   0  0  0  0  0
   -4.2812  -14.7092   18.5680 H   0  0  0  0  0
   -3.4678  -17.6848   19.8393 H   0  0  0  0  0
   -4.1420  -18.7325   22.0037 H   0  0  0  0  0
   -4.8685  -17.2917   23.9186 H   0  0  0  0  0
   -4.9048  -14.8136   23.6472 H   0  0  0  0  0
   -4.2235  -13.7775   21.4943 H   0  0  0  0  0
   -3.5103  -12.6820   17.4894 H   0  0  0  0  0
   -2.3729  -10.4721   17.7004 H   0  0  0  0  0
   -0.7877  -10.0419   19.5971 H   0  0  0  0  0
   -0.3610  -11.8476   21.2739 H   0  0  0  0  0
   -1.5061  -14.0616   21.0559 H   0  0  0  0  0
   -1.0060  -17.4429   18.6033 H   0  0  0  0  0
   -1.3049  -16.3661   19.9353 H   0  0  0  0  0
    0.8713  -15.9747   18.4356 H   0  0  0  0  0
   -0.0168  -14.5996   18.9792 H   0  0  0  0  0
   -0.1727  -14.1581   16.6859 H   0  0  0  0  0
    0.0342  -15.8411   16.2492 H   0  0  0  0  0
  1  2  1  0  0  0
  1  7  1  0  0  0
  2  3  1  0  0  0
  2  5  1  0  0  0
  3  4  2  0  0  0
  3  8  1  0  0  0
  5  6  1  0  0  0
  6  7  1  0  0  0
  8  9  1  0  0  0
  9 10  1  0  0  0
  9 12  1  0  0  0
 10 11  1  0  0  0
 11 14  1  0  0  0
 12 13  2  0  0  0
 12 18  1  0  0  0
 14 15  2  0  0  0
 14 16  1  0  0  0
 14 17  1  0  0  0
 18 19  1  0  0  0
 19 20  1  0  0  0
 19 22  1  0  0  0
 20 21  2  0  0  0
 20 26  1  0  0  0
 22 23  1  0  0  0
 23 24  1  0  0  0
 23 25  1  0  0  0
 26 27  1  0  0  0
 26 32  1  0  0  0
 27 28  1  0  0  0
 27 30  1  0  0  0
 28 29  2  0  0  0
 28 33  1  0  0  0
 30 31  1  0  0  0
 31 32  1  0  0  0
 33 34  1  0  0  0
 34 35  1  0  0  0
 34 38  1  0  0  0
 35 36  1  0  0  0
 35 37  1  0  0  0
 38 39  2  0  0  0
 38 40  1  0  0  0
 40 41  1  0  0  0
 40 57  1  0  0  0
 41 42  1  0  0  0
 41 55  1  0  0  0
 42 43  1  0  0  0
 42 49  1  0  0  0
 43 44  4  0  0  0
 43 48  4  0  0  0
 44 45  4  0  0  0
 45 46  4  0  0  0
 46 47  4  0  0  0
 47 48  4  0  0  0
 49 50  4  0  0  0
 49 54  4  0  0  0
 50 51  4  0  0  0
 51 52  4  0  0  0
 52 53  4  0  0  0
 53 54  4  0  0  0
 55 56  1  0  0  0
 56 57  1  0  0  0
  1 58  1  0  0  0
  1 59  1  0  0  0
  2 60  1  0  0  0
  5 61  1  0  0  0
  5 62  1  0  0  0
  6 63  1  0  0  0
  6 64  1  0  0  0
  7 65  1  0  0  0
  7 66  1  0  0  0
  8 67  1  0  0  0
  9 68  1  0  0  0
 10 69  1  0  0  0
 10 70  1  0  0  0
 16 71  1  0  0  0
 17 72  1  0  0  0
 18 73  1  0  0  0
 19 74  1  0  0  0
 22 75  1  0  0  0
 22 76  1  0  0  0
 23 77  1  0  0  0
 24 78  1  0  0  0
 24 79  1  0  0  0
 24 80  1  0  0  0
 25 81  1  0  0  0
 25 82  1  0  0  0
 25 83  1  0  0  0
 27 84  1  0  0  0
 30 85  1  0  0  0
 30 86  1  0  0  0
 31 87  1  0  0  0
 31 88  1  0  0  0
 32 89  1  0  0  0
 32 90  1  0  0  0
 33 91  1  0  0  0
 34 92  1  0  0  0
 35 93  1  0  0  0
 36 94  1  0  0  0
 36 95  1  0  0  0
 36 96  1  0  0  0
 37 97  1  0  0  0
 37 98  1  0  0  0
 37 99  1  0  0  0
 41100  1  0  0  0
 42101  1  0  0  0
 44102  1  0  0  0
 45103  1  0  0  0
 46104  1  0  0  0
 47105  1  0  0  0
 48106  1  0  0  0
 50107  1  0  0  0
 51108  1  0  0  0
 52109  1  0  0  0
 53110  1  0  0  0
 54111  1  0  0  0
 55112  1  0  0  0
 55113  1  0  0  0
 56114  1  0  0  0
 56115  1  0  0  0
 57116  1  0  0  0
 57117  1  0  0  0
M  END
$$$$
