4j06_ligand
  -I-interpret- 

 27 28  0  0  0  0  0  0  0  0999 V2000
  -29.1220   50.8100   51.6650 Br  0  0  0  0  0
  -28.3560   51.5150   54.6230 S   0  0  0  0  0
  -28.8730   50.3760   53.4720 C   0  0  0  0  0
  -29.0870   49.1260   53.9560 C   0  0  0  0  0
  -28.8160   49.0680   55.3400 C   0  0  0  0  0
  -28.4060   50.2890   55.8490 C   0  0  0  0  0
  -27.9300   50.7730   57.4920 S   0  0  0  0  0
  -28.6450   49.8510   58.3690 O   0  0  0  0  0
  -28.2780   52.1970   57.5750 O   0  0  0  0  0
  -26.2620   50.5450   57.7720 N   0  0  0  0  0
  -25.3230   51.0250   56.7890 C   0  0  0  0  0
  -24.4740   50.1630   55.9870 C   0  0  0  0  0
  -23.5820   50.7820   55.0370 C   0  0  0  0  0
  -23.5340   52.2000   54.8930 C   0  0  0  0  0
  -24.3720   53.0170   55.6930 C   0  0  0  0  0
  -25.2540   52.4400   56.6260 C   0  0  0  0  0
  -24.5080   48.6790   56.1270 C   0  0  0  0  0
  -25.3390   48.0480   56.7640 O   0  0  0  0  0
  -23.5000   48.0540   55.4800 O   0  0  0  0  0
  -24.3210   54.7260   55.5370 Cl  0  0  0  0  0
  -29.4231   48.2802   53.3562 H   0  0  0  0  0
  -28.9179   48.1641   55.9405 H   0  0  0  0  0
  -25.9358   50.0783   58.6183 H   0  0  0  0  0
  -22.9357   50.1571   54.4207 H   0  0  0  0  0
  -22.8556   52.6539   54.1706 H   0  0  0  0  0
  -25.8925   53.0831   57.2317 H   0  0  0  0  0
  -22.9516   48.7065   55.0383 H   0  0  0  0  0
  1  3  1  0  0  0
  3  2  4  0  0  0
  2  6  4  0  0  0
  3  4  4  0  0  0
  4  5  4  0  0  0
  5  6  4  0  0  0
  6  7  1  0  0  0
  7  8  2  0  0  0
  7  9  2  0  0  0
  7 10  1  0  0  0
 10 11  1  0  0  0
 11 12  4  0  0  0
 11 16  4  0  0  0
 12 13  4  0  0  0
 12 17  1  0  0  0
 13 14  4  0  0  0
 14 15  4  0  0  0
 15 16  4  0  0  0
 15 20  1  0  0  0
 17 18  2  0  0  0
 17 19  1  0  0  0
  4 21  1  0  0  0
  5 22  1  0  0  0
 10 23  1  0  0  0
 13 24  1  0  0  0
 14 25  1  0  0  0
 16 26  1  0  0  0
 19 27  1  0  0  0
M  END
$$$$
