6bbu_ligand
  -I-interpret- 

 42 44  0  0  0  0  0  0  0  0999 V2000
   12.6630   16.0180  -11.1730 C   0  0  0  0  0
   12.0890   15.5780  -12.4050 C   0  0  0  0  0
    9.9950   13.0960  -17.7930 N   0  0  0  0  0
   11.1700   14.9550  -15.1420 C   0  0  0  0  0
   10.9630   13.4330  -15.4390 C   0  0  0  0  0
    9.9530   13.8350  -16.5460 C   0  0  0  0  0
    7.5160   13.3400  -18.6750 C   0  0  0  0  0
    6.6860   14.6230  -18.8300 C   0  0  0  0  0
    5.2150   14.3800  -18.5510 C   0  0  0  0  0
   13.4870   15.5130  -15.9390 C   0  0  0  0  0
   10.8570   14.9300  -12.0690 C   0  0  0  0  0
   10.7140   14.9830  -10.6980 C   0  0  0  0  0
    9.4540   12.5830  -20.1220 O   0  0  0  0  0
    9.1420   13.5410  -19.1220 S   0  0  0  0  0
    9.3830   14.9140  -19.3700 O   0  0  0  0  0
   10.5430   15.2820  -16.5290 C   0  0  0  0  0
   12.5180   15.3790  -14.8410 N   0  0  0  0  0
   12.8530   15.8370  -13.5710 C   0  0  0  0  0
   14.0310   16.5360  -13.4770 N   0  0  0  0  0
   11.8180   15.6470  -10.1380 N   0  0  0  0  0
   13.8600   16.6850  -11.0340 N   0  0  0  0  0
   14.4500   16.9020  -12.2290 C   0  0  0  0  0
   10.5808   12.2627  -17.8463 H   0  0  0  0  0
   10.7637   15.4342  -14.2513 H   0  0  0  0  0
   10.6813   12.7394  -14.6467 H   0  0  0  0  0
   11.8101   12.7837  -15.6605 H   0  0  0  0  0
    8.8834   13.6760  -16.4089 H   0  0  0  0  0
    7.0832   12.5841  -19.3303 H   0  0  0  0  0
    7.4942   13.0563  -17.6228 H   0  0  0  0  0
    6.7863   14.9738  -19.8571 H   0  0  0  0  0
    7.0537   15.3574  -18.1134 H   0  0  0  0  0
    4.8317   13.6373  -19.2507 H   0  0  0  0  0
    5.0954   14.0157  -17.5307 H   0  0  0  0  0
    4.6646   15.3130  -18.6719 H   0  0  0  0  0
   13.7231   16.5668  -16.0870 H   0  0  0  0  0
   14.3966   14.9674  -15.6878 H   0  0  0  0  0
   13.0571   15.1038  -16.8532 H   0  0  0  0  0
   10.1574   14.4761  -12.7709 H   0  0  0  0  0
    9.8745   14.5732  -10.1363 H   0  0  0  0  0
   11.1566   15.6493  -17.3516 H   0  0  0  0  0
    9.9019   16.1529  -16.6656 H   0  0  0  0  0
   15.3939   17.4460  -12.1930 H   0  0  0  0  0
  2  1  4  0  0  0
  1 20  4  0  0  0
  1 21  4  0  0  0
  2 11  4  0  0  0
 18  2  4  0  0  0
  6  3  1  0  0  0
  3 14  1  0  0  0
  4  5  1  0  0  0
  4 16  1  0  0  0
 17  4  1  0  0  0
  5  6  1  0  0  0
 16  6  1  0  0  0
  7  8  1  0  0  0
 14  7  1  0  0  0
  8  9  1  0  0  0
 17 10  1  0  0  0
 11 12  4  0  0  0
 12 20  4  0  0  0
 14 13  2  0  0  0
 14 15  2  0  0  0
 17 18  1  0  0  0
 18 19  4  0  0  0
 19 22  4  0  0  0
 21 22  4  0  0  0
  3 23  1  0  0  0
  4 24  1  0  0  0
  5 25  1  0  0  0
  5 26  1  0  0  0
  6 27  1  0  0  0
  7 28  1  0  0  0
  7 29  1  0  0  0
  8 30  1  0  0  0
  8 31  1  0  0  0
  9 32  1  0  0  0
  9 33  1  0  0  0
  9 34  1  0  0  0
 10 35  1  0  0  0
 10 36  1  0  0  0
 10 37  1  0  0  0
 11 38  1  0  0  0
 12 39  1  0  0  0
 16 40  1  0  0  0
 16 41  1  0  0  0
 22 42  1  0  0  0
M  END
$$$$
