6pvs_ligand
  -I-interpret- 

 68 71  0  0  0  0  0  0  0  0999 V2000
    7.3800    1.5040   -8.0400 C   0  0  0  0  0
    8.2820    2.5800   -7.9110 C   0  0  0  0  0
    9.2530    2.5580   -6.9260 C   0  0  0  0  0
    7.4570    0.4120   -7.1990 C   0  0  0  0  0
    6.4380   -0.7260   -7.4030 C   0  0  0  0  0
    3.7060   -2.6690   -4.9620 C   0  0  0  0  0
   -0.7270   -4.1560   -9.1250 C   0  0  0  0  0
    2.2390   -2.5360   -8.4580 C   0  0  0  0  0
    0.2500   -4.0660   -8.0340 C   0  0  0  0  0
    0.8070   -2.6850   -8.0070 C   0  0  0  0  0
   -4.5670   -1.1260  -11.5550 C   0  0  0  0  0
   -4.7370   -1.9070   -9.3540 C   0  0  0  0  0
   -3.4750   -2.3330   -9.3430 N   0  0  0  0  0
   -2.7030   -2.1750  -10.4310 C   0  0  0  0  0
   -3.2590   -1.5490  -11.5810 C   0  0  0  0  0
   -1.5690   -2.4240  -10.8180 N   0  0  0  0  0
   -1.1720   -2.1140  -11.9420 C   0  0  0  0  0
   -0.5610   -3.0190  -10.0190 C   0  0  0  0  0
    2.7850   -3.1610   -6.1020 C   0  0  0  0  0
    3.0660   -2.5670   -3.5910 C   0  0  0  0  0
    4.6230   -2.7760   -7.7840 C   0  0  0  0  0
    5.6440   -1.6170   -7.5670 C   0  0  0  0  0
    9.3350    1.4550   -6.0670 C   0  0  0  0  0
    8.4360    0.3800   -6.2030 C   0  0  0  0  0
    8.1070    3.7480   -8.8940 C   0  0  0  0  0
    4.3680   -2.4230   -2.6750 C   0  0  0  0  0
    3.2310   -2.4120   -7.3350 N   0  3  0  0  0
   -5.1070   -0.4740  -12.7330 N   0  0  0  0  0
    2.0800   -3.3620   -2.9240 N   0  3  0  0  0
    6.8130    4.4360   -8.8530 N   0  0  0  0  0
   -5.2750   -1.3130  -10.4360 N   0  0  0  0  0
   -2.1940   -1.5380  -12.5430 N   0  0  0  0  0
   -0.0050   -1.9190   -9.0380 O   0  0  0  0  0
    1.3400   -5.0190   -8.1130 O   0  0  0  0  0
   -0.4360   -5.2860   -9.9760 O   0  0  0  0  0
    8.9620    4.0700   -9.6610 O   0  0  0  0  0
    4.5570   -1.4900   -1.8520 O   0  0  0  0  0
    5.3490   -3.2430   -2.6780 O   0  0  0  0  0
    6.6124    1.5348   -8.8133 H   0  0  0  0  0
    9.9476    3.3912   -6.8195 H   0  0  0  0  0
    4.0162   -1.6595   -5.2319 H   0  0  0  0  0
    4.5052   -3.4049   -4.8738 H   0  0  0  0  0
   -1.7125   -4.2161   -8.6633 H   0  0  0  0  0
    2.2979   -1.6170   -9.0412 H   0  0  0  0  0
    2.4956   -3.4372   -9.0148 H   0  0  0  0  0
   -0.2895   -4.3108   -7.1190 H   0  0  0  0  0
    0.7646   -2.3476   -6.9714 H   0  0  0  0  0
   -5.3505   -2.0429   -8.4634 H   0  0  0  0  0
   -0.1776   -2.2819  -12.3557 H   0  0  0  0  0
    0.0183   -3.4325  -10.8445 H   0  0  0  0  0
    1.7356   -2.9702   -5.8773 H   0  0  0  0  0
    2.8631   -4.2393   -6.2404 H   0  0  0  0  0
    2.2964   -1.8188   -3.7806 H   0  0  0  0  0
    4.9539   -3.6302   -7.1932 H   0  0  0  0  0
    4.5852   -2.9950   -8.8511 H   0  0  0  0  0
   10.0984    1.4286   -5.2894 H   0  0  0  0  0
    8.5038   -0.4762   -5.5319 H   0  0  0  0  0
    3.2688   -1.4300   -7.0616 H   0  0  0  0  0
   -4.5192   -0.3385  -13.5555 H   0  0  0  0  0
   -6.0745   -0.1511  -12.7388 H   0  0  0  0  0
    1.2548   -3.4467   -3.5176 H   0  0  0  0  0
    2.4622   -4.2890   -2.7368 H   0  0  0  0  0
    1.8229   -2.9148   -2.0440 H   0  0  0  0  0
    6.6266    5.2102   -9.4904 H   0  0  0  0  0
    6.0991    4.1404   -8.1871 H   0  0  0  0  0
    1.9292   -4.8922   -7.3658 H   0  0  0  0  0
   -1.0845   -5.3284  -10.6826 H   0  0  0  0  0
    5.1782   -3.9423   -3.3132 H   0  0  0  0  0
  1  2  4  0  0  0
  4  1  4  0  0  0
  2  3  4  0  0  0
  2 25  1  0  0  0
  3 23  4  0  0  0
  5  4  1  0  0  0
  4 24  4  0  0  0
 22  5  3  0  0  0
 19  6  1  0  0  0
  6 20  1  0  0  0
  9  7  1  0  0  0
 18  7  1  0  0  0
  7 35  1  0  0  0
  8 10  1  0  0  0
 27  8  1  0  0  0
 10  9  1  0  0  0
  9 34  1  0  0  0
 10 33  1  0  0  0
 15 11  4  0  0  0
 11 28  1  0  0  0
 11 31  4  0  0  0
 13 12  4  0  0  0
 12 31  4  0  0  0
 14 13  4  0  0  0
 14 15  4  0  0  0
 16 14  4  0  0  0
 32 15  4  0  0  0
 16 17  4  0  0  0
 18 16  1  0  0  0
 17 32  4  0  0  0
 33 18  1  0  0  0
 27 19  1  0  0  0
 20 26  1  0  0  0
 20 29  1  0  0  0
 21 22  1  0  0  0
 21 27  1  0  0  0
 23 24  4  0  0  0
 25 30  1  0  0  0
 25 36  2  0  0  0
 26 37  2  0  0  0
 26 38  1  0  0  0
  1 39  1  0  0  0
  3 40  1  0  0  0
  6 41  1  0  0  0
  6 42  1  0  0  0
  7 43  1  0  0  0
  8 44  1  0  0  0
  8 45  1  0  0  0
  9 46  1  0  0  0
 10 47  1  0  0  0
 12 48  1  0  0  0
 17 49  1  0  0  0
 18 50  1  0  0  0
 19 51  1  0  0  0
 19 52  1  0  0  0
 20 53  1  0  0  0
 21 54  1  0  0  0
 21 55  1  0  0  0
 23 56  1  0  0  0
 24 57  1  0  0  0
 27 58  1  0  0  0
 28 59  1  0  0  0
 28 60  1  0  0  0
 29 61  1  0  0  0
 29 62  1  0  0  0
 29 63  1  0  0  0
 30 64  1  0  0  0
 30 65  1  0  0  0
 34 66  1  0  0  0
 35 67  1  0  0  0
 38 68  1  0  0  0
M  END
$$$$
