4bkj_ligand
  -I-interpret- 

 70 74  0  0  0  0  0  0  0  0999 V2000
  -23.0430   31.4550   32.6020 C   0  0  0  0  0
  -22.4770   30.1870   32.3750 C   0  0  0  0  0
  -22.4770   29.2620   33.4250 C   0  0  0  0  0
  -22.9950   29.6760   34.6610 C   0  0  0  0  0
  -23.5160   30.8850   34.8340 N   0  0  0  0  0
  -23.5370   31.7770   33.8560 C   0  0  0  0  0
  -21.8920   27.9760   33.2890 C   0  0  0  0  0
  -21.4730   27.3940   32.0540 C   0  0  0  0  0
  -20.8620   26.1340   32.0660 C   0  0  0  0  0
  -20.7030   25.4550   33.2370 N   0  0  0  0  0
  -21.1200   26.0470   34.3530 C   0  0  0  0  0
  -21.6920   27.2420   34.3980 N   0  0  0  0  0
  -20.9320   25.3820   35.5870 N   0  0  0  0  0
  -20.3130   24.0880   35.6750 C   0  0  0  0  0
  -21.0480   22.8930   35.4860 C   0  0  0  0  0
  -20.4550   21.6610   35.6410 C   0  0  0  0  0
  -19.0860   21.6060   35.9370 C   0  0  0  0  0
  -18.3440   22.7840   36.0920 C   0  0  0  0  0
  -18.9380   24.0390   36.0020 C   0  0  0  0  0
  -16.9660   22.6370   36.4700 N   0  0  0  0  0
  -16.0670   23.7280   36.7540 C   0  0  0  0  0
  -14.6850   23.3050   37.2280 C   0  0  0  0  0
  -14.1400   22.0430   36.9290 C   0  0  0  0  0
  -12.8710   21.7000   37.4160 C   0  0  0  0  0
  -12.1960   22.6330   38.2120 C   0  0  0  0  0
  -12.7350   23.8590   38.5410 C   0  0  0  0  0
  -14.0050   24.2220   38.0630 C   0  0  0  0  0
  -10.8290   22.2630   38.7490 C   0  0  0  0  0
  -10.0050   21.6380   37.7250 N   0  3  0  0  0
   -8.6850   21.1170   38.1230 C   0  0  0  0  0
   -7.9790   20.3430   37.0700 C   0  0  0  0  0
   -7.7880   21.1270   35.8360 N   0  3  0  0  0
   -7.0320   20.4250   34.7670 C   0  0  0  0  0
   -9.0780   21.7220   35.3890 C   0  0  0  0  0
   -9.8900   22.4520   36.4890 C   0  0  0  0  0
  -16.3120   24.9010   36.5940 O   0  0  0  0  0
  -22.5390   22.9740   35.1520 C   0  0  0  0  0
  -23.0928   32.1832   31.7924 H   0  0  0  0  0
  -22.0492   29.9316   31.4055 H   0  0  0  0  0
  -22.9691   28.9853   35.5038 H   0  0  0  0  0
  -23.9454   32.7710   34.0383 H   0  0  0  0  0
  -21.6268   27.9238   31.1139 H   0  0  0  0  0
  -20.5113   25.6934   31.1327 H   0  0  0  0  0
  -21.2466   25.8366   36.4442 H   0  0  0  0  0
  -21.0382   20.7462   35.5357 H   0  0  0  0  0
  -18.5950   20.6391   36.0474 H   0  0  0  0  0
  -18.3653   24.9498   36.1769 H   0  0  0  0  0
  -16.5955   21.6895   36.5430 H   0  0  0  0  0
  -14.7024   21.3345   36.3209 H   0  0  0  0  0
  -12.4227   20.7345   37.1816 H   0  0  0  0  0
  -12.1745   24.5477   39.1732 H   0  0  0  0  0
  -14.4524   25.1802   38.3273 H   0  0  0  0  0
  -10.9595   21.5546   39.5671 H   0  0  0  0  0
  -10.3318   23.1732   39.0843 H   0  0  0  0  0
  -10.5523   20.7984   37.5354 H   0  0  0  0  0
   -8.8514   20.4369   38.9584 H   0  0  0  0  0
   -8.0604   21.9798   38.3547 H   0  0  0  0  0
   -8.5850   19.4702   36.8269 H   0  0  0  0  0
   -6.9961   20.0682   37.4527 H   0  0  0  0  0
   -7.1654   21.9004   36.0697 H   0  0  0  0  0
   -6.0389   20.1677   35.1352 H   0  0  0  0  0
   -7.5632   19.5159   34.4851 H   0  0  0  0  0
   -6.9412   21.0782   33.8991 H   0  0  0  0  0
   -9.6979   20.8957   35.0412 H   0  0  0  0  0
   -8.8312   22.4704   34.6360 H   0  0  0  0  0
   -9.3726   23.3787   36.7372 H   0  0  0  0  0
  -10.8940   22.6364   36.1068 H   0  0  0  0  0
  -23.0629   23.4893   35.9571 H   0  0  0  0  0
  -22.6719   23.5235   34.2201 H   0  0  0  0  0
  -22.9406   21.9667   35.0417 H   0  0  0  0  0
  1  2  4  0  0  0
  1  6  4  0  0  0
  2  3  4  0  0  0
  3  4  4  0  0  0
  3  7  1  0  0  0
  4  5  4  0  0  0
  5  6  4  0  0  0
  7  8  4  0  0  0
  7 12  4  0  0  0
  8  9  4  0  0  0
  9 10  4  0  0  0
 10 11  4  0  0  0
 11 12  4  0  0  0
 11 13  1  0  0  0
 13 14  1  0  0  0
 14 15  4  0  0  0
 14 19  4  0  0  0
 15 16  4  0  0  0
 15 37  1  0  0  0
 16 17  4  0  0  0
 17 18  4  0  0  0
 18 19  4  0  0  0
 18 20  1  0  0  0
 20 21  1  0  0  0
 21 22  1  0  0  0
 21 36  2  0  0  0
 22 23  4  0  0  0
 22 27  4  0  0  0
 23 24  4  0  0  0
 24 25  4  0  0  0
 25 26  4  0  0  0
 25 28  1  0  0  0
 26 27  4  0  0  0
 28 29  1  0  0  0
 29 30  1  0  0  0
 29 35  1  0  0  0
 30 31  1  0  0  0
 31 32  1  0  0  0
 32 33  1  0  0  0
 32 34  1  0  0  0
 34 35  1  0  0  0
  1 38  1  0  0  0
  2 39  1  0  0  0
  4 40  1  0  0  0
  6 41  1  0  0  0
  8 42  1  0  0  0
  9 43  1  0  0  0
 13 44  1  0  0  0
 16 45  1  0  0  0
 17 46  1  0  0  0
 19 47  1  0  0  0
 20 48  1  0  0  0
 23 49  1  0  0  0
 24 50  1  0  0  0
 26 51  1  0  0  0
 27 52  1  0  0  0
 28 53  1  0  0  0
 28 54  1  0  0  0
 29 55  1  0  0  0
 30 56  1  0  0  0
 30 57  1  0  0  0
 31 58  1  0  0  0
 31 59  1  0  0  0
 32 60  1  0  0  0
 33 61  1  0  0  0
 33 62  1  0  0  0
 33 63  1  0  0  0
 34 64  1  0  0  0
 34 65  1  0  0  0
 35 66  1  0  0  0
 35 67  1  0  0  0
 37 68  1  0  0  0
 37 69  1  0  0  0
 37 70  1  0  0  0
M  END
$$$$
