4gvu_ligand
  -I-interpret- 

145148  0  0  0  0  0  0  0  0999 V2000
   17.6140   10.7720    2.6350 C   0  0  0  0  0
   16.6570   10.9530    1.4800 C   0  0  0  0  0
   16.6200   12.1040    0.8330 O   0  0  0  0  0
   17.7940   12.0220    3.4490 C   0  0  0  0  0
   16.4860   12.3240    4.1240 C   0  0  0  0  0
   16.6160   13.4070    5.1630 C   0  0  0  0  0
   17.2360   14.6680    4.5860 C   0  0  0  0  0
   15.9460    9.9590    1.1600 N   0  0  0  0  0
   14.9660    9.9840    0.0740 C   0  0  0  0  0
   13.7680    9.2070    0.5240 C   0  0  0  0  0
   13.8690    8.0460    0.8710 O   0  0  0  0  0
   15.5680    9.3520   -1.1730 C   0  0  0  0  0
   14.5820    9.3630   -2.3280 C   0  0  0  0  0
   15.0320    9.0870   -3.5630 C   0  0  0  0  0
   16.2130    8.8310   -3.7060 O   0  0  0  0  0
   14.2080    9.0520   -4.6070 N   0  0  0  0  0
   12.6190    9.8900    0.5000 N   0  0  0  0  0
   11.4490    9.1140    0.9120 C   0  0  0  0  0
   11.2270    7.9380   -0.0210 C   0  0  0  0  0
   11.6350    7.9290   -1.1850 O   0  0  0  0  0
   10.2070   10.0510    0.9230 C   0  0  0  0  0
   10.2150   10.9370   -0.2140 O   0  0  0  0  0
   10.1760   11.0000    2.1000 C   0  0  0  0  0
   10.5270    6.8830    0.4740 N   0  0  0  0  0
   10.2830    5.6920   -0.1460 C   0  0  0  0  0
   10.8930    4.5320    0.2270 C   0  0  0  0  0
   11.9200    4.4580    1.3140 C   0  0  0  0  0
    9.3300    5.5780   -1.2500 C   0  0  0  0  0
    8.9930    4.4440   -1.6110 O   0  0  0  0  0
    8.7730    6.6800   -1.7690 N   0  0  0  0  0
    7.6350    6.5460   -2.7020 C   0  0  0  0  0
    8.0060    6.7320   -4.1830 C   0  0  0  0  0
    9.3800    6.7450   -4.4470 O   0  0  0  0  0
    6.4900    7.4370   -2.2170 C   0  0  0  0  0
    5.5050    7.5200   -3.3750 C   0  0  0  0  0
    6.1010    8.3190   -4.5560 C   0  0  0  0  0
    6.3940    9.6390   -4.1740 O   0  0  0  0  0
    7.3300    7.6750   -5.0190 N   0  3  0  0  0
    7.8650    7.8940   -6.3890 C   0  0  0  0  0
    7.6810    9.4140   -6.5210 C   0  0  0  0  0
    6.7340    9.8060   -7.4750 O   0  0  0  0  0
    6.9470    7.0820   -7.3480 C   0  0  0  0  0
    7.0360    5.5980   -7.0890 C   0  0  0  0  0
    6.0470    4.9380   -6.3410 C   0  0  0  0  0
    8.1150    4.8800   -7.5880 C   0  0  0  0  0
    6.1900    3.5620   -6.1050 C   0  0  0  0  0
    8.2220    3.4980   -7.3740 C   0  0  0  0  0
    7.2590    2.8380   -6.6270 C   0  0  0  0  0
    8.8030   10.3070   -6.3660 N   0  3  0  0  0
   10.0180    9.7520   -5.7770 C   0  0  0  0  0
   10.3020   10.4080   -4.4310 C   0  0  0  0  0
   11.3830   11.3180   -4.3400 O   0  0  0  0  0
   11.1890    9.8990   -6.7830 C   0  0  0  0  0
   10.9740    8.8210   -7.8210 C   0  0  0  0  0
   11.5190    7.5520   -7.6240 C   0  0  0  0  0
   10.2390    9.0840   -8.9850 C   0  0  0  0  0
   11.3420    6.5320   -8.5710 C   0  0  0  0  0
   10.0430    8.0620   -9.9190 C   0  0  0  0  0
   10.4270    5.7990  -10.6180 O   0  0  0  0  0
   10.5950    6.7950   -9.7080 C   0  0  0  0  0
    8.6310   11.7100   -6.7060 C   0  0  0  0  0
    9.1760   10.8710   -3.6610 N   0  3  0  0  0
    9.4770   11.5510   -2.4470 C   0  0  0  0  0
    9.8160   10.4700   -1.4340 C   0  0  0  0  0
    8.8910    9.4250   -1.3770 O   0  0  0  0  0
    8.4180   12.5760   -2.0640 C   0  0  0  0  0
    8.4890   13.6660   -3.1390 C   0  0  0  0  0
    7.0010   12.0430   -1.8610 C   0  0  0  0  0
   18.5858   10.5016    2.2220 H   0  0  0  0  0
   17.2020   10.0049    3.2907 H   0  0  0  0  0
   18.0886   12.8521    2.8070 H   0  0  0  0  0
   18.5788   11.8796    4.1919 H   0  0  0  0  0
   16.1449   11.4165    4.6221 H   0  0  0  0  0
   15.7842   12.6670    3.3638 H   0  0  0  0  0
   17.2618   13.0412    5.9613 H   0  0  0  0  0
   15.6194   13.6516    5.5305 H   0  0  0  0  0
   18.2301   14.4395    4.2016 H   0  0  0  0  0
   16.6091   15.0419    3.7765 H   0  0  0  0  0
   17.3121   15.4242    5.3673 H   0  0  0  0  0
   16.0613    9.0931    1.6867 H   0  0  0  0  0
   14.6806   11.0080   -0.1667 H   0  0  0  0  0
   15.8266    8.3174   -0.9474 H   0  0  0  0  0
   16.4481    9.9261   -1.4626 H   0  0  0  0  0
   14.2198   10.3897   -2.3814 H   0  0  0  0  0
   13.8713    8.5682   -2.1013 H   0  0  0  0  0
   14.5656    8.8100   -5.5311 H   0  0  0  0  0
   13.2187    9.2672   -4.4833 H   0  0  0  0  0
   12.5628   10.8688    0.2184 H   0  0  0  0  0
   11.6120    8.7119    1.9119 H   0  0  0  0  0
    9.3630    9.3615    0.9419 H   0  0  0  0  0
   10.1607   10.4268    3.0270 H   0  0  0  0  0
   11.0627   11.6335    2.0777 H   0  0  0  0  0
    9.2824   11.6213    2.0407 H   0  0  0  0  0
   10.1418    6.9938    1.4119 H   0  0  0  0  0
   10.6199    3.6129   -0.2914 H   0  0  0  0  0
   12.7676    5.0926    1.0551 H   0  0  0  0  0
   11.4808    4.8005    2.2510 H   0  0  0  0  0
   12.2567    3.4272    1.4244 H   0  0  0  0  0
    9.1309    7.6028   -1.5226 H   0  0  0  0  0
    7.2925    5.5114   -2.6832 H   0  0  0  0  0
    7.5485    5.7971   -4.5067 H   0  0  0  0  0
    9.5226    6.8647   -5.3888 H   0  0  0  0  0
    6.8513    8.4256   -1.9338 H   0  0  0  0  0
    6.0181    7.0238   -1.3256 H   0  0  0  0  0
    4.6035    8.0268   -3.0306 H   0  0  0  0  0
    5.2809    6.5091   -3.7155 H   0  0  0  0  0
    5.3624    8.3388   -5.3574 H   0  0  0  0  0
    6.7621   10.1135   -4.9230 H   0  0  0  0  0
    7.4350    8.6517   -4.7442 H   0  0  0  0  0
    8.8897    7.5874   -6.5990 H   0  0  0  0  0
    7.2370    9.5945   -5.5420 H   0  0  0  0  0
    6.6796   10.7642   -7.4952 H   0  0  0  0  0
    7.2702    7.2704   -8.3718 H   0  0  0  0  0
    5.9166    7.3967   -7.1830 H   0  0  0  0  0
    5.1868    5.4830   -5.9522 H   0  0  0  0  0
    8.8895    5.3977   -8.1539 H   0  0  0  0  0
    5.4456    3.0470   -5.4978 H   0  0  0  0  0
    9.0612    2.9439   -7.7945 H   0  0  0  0  0
    7.3374    1.7653   -6.4502 H   0  0  0  0  0
    9.4858   10.6729   -7.0296 H   0  0  0  0  0
    9.8897    8.6880   -5.5784 H   0  0  0  0  0
   10.6513    9.4968   -3.9454 H   0  0  0  0  0
   11.4445   11.6513   -3.4418 H   0  0  0  0  0
   12.1541    9.7882   -6.2887 H   0  0  0  0  0
   11.2019   10.8903   -7.2360 H   0  0  0  0  0
   12.0920    7.3495   -6.7191 H   0  0  0  0  0
    9.8238   10.0764   -9.1606 H   0  0  0  0  0
   11.7850    5.5484   -8.4148 H   0  0  0  0  0
    9.4562    8.2544  -10.8172 H   0  0  0  0  0
    9.8929    6.1208  -11.3480 H   0  0  0  0  0
    8.3512   11.7964   -7.7559 H   0  0  0  0  0
    7.8467   12.1400   -6.0831 H   0  0  0  0  0
    9.5666   12.2418   -6.5330 H   0  0  0  0  0
    8.6514   10.0372   -3.3964 H   0  0  0  0  0
    8.6877   11.5454   -4.2502 H   0  0  0  0  0
   10.3447   12.2055   -2.5299 H   0  0  0  0  0
   10.7157   10.0073   -1.8396 H   0  0  0  0  0
    8.6612    9.1536   -2.2687 H   0  0  0  0  0
    8.6440   12.9539   -1.0669 H   0  0  0  0  0
    9.4858   14.1070   -3.1422 H   0  0  0  0  0
    8.2817   13.2264   -4.1146 H   0  0  0  0  0
    7.7498   14.4371   -2.9221 H   0  0  0  0  0
    6.6519   11.5817   -2.7848 H   0  0  0  0  0
    7.0040   11.3018   -1.0618 H   0  0  0  0  0
    6.3395   12.8665   -1.5920 H   0  0  0  0  0
  1  2  1  0  0  0
  1  4  1  0  0  0
  2  3  2  0  0  0
  2  8  1  0  0  0
  4  5  1  0  0  0
  5  6  1  0  0  0
  6  7  1  0  0  0
  8  9  1  0  0  0
  9 10  1  0  0  0
  9 12  1  0  0  0
 10 11  2  0  0  0
 10 17  1  0  0  0
 12 13  1  0  0  0
 13 14  1  0  0  0
 14 15  2  0  0  0
 14 16  1  0  0  0
 17 18  1  0  0  0
 18 19  1  0  0  0
 18 21  1  0  0  0
 19 20  2  0  0  0
 19 24  1  0  0  0
 21 22  1  0  0  0
 21 23  1  0  0  0
 22 64  1  0  0  0
 24 25  1  0  0  0
 25 26  2  0  0  0
 25 28  1  0  0  0
 26 27  1  0  0  0
 28 29  2  0  0  0
 28 30  1  0  0  0
 30 31  1  0  0  0
 31 32  1  0  0  0
 31 34  1  0  0  0
 32 33  1  0  0  0
 32 38  1  0  0  0
 34 35  1  0  0  0
 35 36  1  0  0  0
 36 37  1  0  0  0
 36 38  1  0  0  0
 38 39  1  0  0  0
 39 40  1  0  0  0
 39 42  1  0  0  0
 40 41  1  0  0  0
 40 49  1  0  0  0
 42 43  1  0  0  0
 43 44  4  0  0  0
 43 45  4  0  0  0
 44 46  4  0  0  0
 45 47  4  0  0  0
 46 48  4  0  0  0
 47 48  4  0  0  0
 49 50  1  0  0  0
 49 61  1  0  0  0
 50 51  1  0  0  0
 50 53  1  0  0  0
 51 52  1  0  0  0
 51 62  1  0  0  0
 53 54  1  0  0  0
 54 55  4  0  0  0
 54 56  4  0  0  0
 55 57  4  0  0  0
 56 58  4  0  0  0
 57 60  4  0  0  0
 58 60  4  0  0  0
 60 59  1  0  0  0
 62 63  1  0  0  0
 63 64  1  0  0  0
 63 66  1  0  0  0
 64 65  1  0  0  0
 66 67  1  0  0  0
 66 68  1  0  0  0
  1 69  1  0  0  0
  1 70  1  0  0  0
  4 71  1  0  0  0
  4 72  1  0  0  0
  5 73  1  0  0  0
  5 74  1  0  0  0
  6 75  1  0  0  0
  6 76  1  0  0  0
  7 77  1  0  0  0
  7 78  1  0  0  0
  7 79  1  0  0  0
  8 80  1  0  0  0
  9 81  1  0  0  0
 12 82  1  0  0  0
 12 83  1  0  0  0
 13 84  1  0  0  0
 13 85  1  0  0  0
 16 86  1  0  0  0
 16 87  1  0  0  0
 17 88  1  0  0  0
 18 89  1  0  0  0
 21 90  1  0  0  0
 23 91  1  0  0  0
 23 92  1  0  0  0
 23 93  1  0  0  0
 24 94  1  0  0  0
 26 95  1  0  0  0
 27 96  1  0  0  0
 27 97  1  0  0  0
 27 98  1  0  0  0
 30 99  1  0  0  0
 31100  1  0  0  0
 32101  1  0  0  0
 33102  1  0  0  0
 34103  1  0  0  0
 34104  1  0  0  0
 35105  1  0  0  0
 35106  1  0  0  0
 36107  1  0  0  0
 37108  1  0  0  0
 38109  1  0  0  0
 39110  1  0  0  0
 40111  1  0  0  0
 41112  1  0  0  0
 42113  1  0  0  0
 42114  1  0  0  0
 44115  1  0  0  0
 45116  1  0  0  0
 46117  1  0  0  0
 47118  1  0  0  0
 48119  1  0  0  0
 49120  1  0  0  0
 50121  1  0  0  0
 51122  1  0  0  0
 52123  1  0  0  0
 53124  1  0  0  0
 53125  1  0  0  0
 55126  1  0  0  0
 56127  1  0  0  0
 57128  1  0  0  0
 58129  1  0  0  0
 59130  1  0  0  0
 61131  1  0  0  0
 61132  1  0  0  0
 61133  1  0  0  0
 62134  1  0  0  0
 62135  1  0  0  0
 63136  1  0  0  0
 64137  1  0  0  0
 65138  1  0  0  0
 66139  1  0  0  0
 67140  1  0  0  0
 67141  1  0  0  0
 67142  1  0  0  0
 68143  1  0  0  0
 68144  1  0  0  0
 68145  1  0  0  0
M  END
$$$$
