5fq9_ligand
  -I-interpret- 

 43 45  0  0  0  0  0  0  0  0999 V2000
  -22.9820   16.3880   -2.4120 O   0  0  0  0  0
  -22.9710   16.3970   -0.9730 B   0  0  0  0  0
  -23.6010   15.1950   -0.5190 O   0  0  0  0  0
  -25.0030   15.3040   -0.1690 C   0  0  0  0  0
  -25.3370   16.3870    0.6210 C   0  0  0  0  0
  -24.2290   17.3940    0.9650 C   0  0  0  0  0
  -23.4780   17.7650   -0.3270 C   0  0  0  0  0
  -24.4520   18.3840   -1.2200 N   0  0  0  0  0
  -24.7630   19.7500   -1.1670 C   0  0  0  0  0
  -24.1660   20.5740   -0.4720 O   0  0  0  0  0
  -25.9830   20.2040   -2.0370 C   0  0  0  0  0
  -25.9720   21.6830   -2.3330 C   0  0  0  0  0
  -27.2380   22.0380   -3.1450 C   0  0  0  0  0
  -28.4460   21.7170   -2.3260 C   0  0  0  0  0
  -28.5000   20.2700   -1.9290 C   0  0  0  0  0
  -27.2120   19.8830   -1.1860 C   0  0  0  0  0
  -26.6800   16.5470    1.0320 C   0  0  0  0  0
  -27.6290   15.5910    0.5750 C   0  0  0  0  0
  -27.2540   14.4940   -0.2390 C   0  0  0  0  0
  -25.9160   14.3210   -0.5990 C   0  0  0  0  0
  -25.4890   13.2350   -1.5270 C   0  0  0  0  0
  -26.3010   12.5070   -2.1450 O   0  0  0  0  0
  -24.3230   13.1220   -1.8130 O   0  0  0  0  0
  -22.6662   15.5383   -2.7280 H   0  0  0  0  0
  -23.5365   16.9513    1.6809 H   0  0  0  0  0
  -24.6670   18.2885    1.4078 H   0  0  0  0  0
  -22.6403   18.4393   -0.1492 H   0  0  0  0  0
  -24.9250   17.8001   -1.9097 H   0  0  0  0  0
  -25.9647   19.6976   -3.0021 H   0  0  0  0  0
  -25.0814   21.9381   -2.9073 H   0  0  0  0  0
  -25.9617   22.2463   -1.3999 H   0  0  0  0  0
  -27.2561   21.4606   -4.0693 H   0  0  0  0  0
  -27.2317   23.0999   -3.3908 H   0  0  0  0  0
  -29.3288   21.9351   -2.9271 H   0  0  0  0  0
  -28.4052   22.3153   -1.4158 H   0  0  0  0  0
  -28.5974   19.6552   -2.8238 H   0  0  0  0  0
  -29.3556   20.1089   -1.2731 H   0  0  0  0  0
  -27.1562   20.4501   -0.2568 H   0  0  0  0  0
  -27.2302   18.8125   -0.9814 H   0  0  0  0  0
  -26.9780   17.3740    1.6765 H   0  0  0  0  0
  -28.6750   15.7059    0.8594 H   0  0  0  0  0
  -28.0082   13.7865   -0.5836 H   0  0  0  0  0
  -27.1911   12.6858   -1.8329 H   0  0  0  0  0
  1  2  1  0  0  0
  2  3  1  0  0  0
  2  7  1  0  0  0
  3  4  1  0  0  0
  4  5  4  0  0  0
  4 20  4  0  0  0
  5  6  1  0  0  0
  5 17  4  0  0  0
  6  7  1  0  0  0
  7  8  1  0  0  0
  8  9  1  0  0  0
  9 10  2  0  0  0
  9 11  1  0  0  0
 11 12  1  0  0  0
 11 16  1  0  0  0
 12 13  1  0  0  0
 13 14  1  0  0  0
 14 15  1  0  0  0
 15 16  1  0  0  0
 17 18  4  0  0  0
 18 19  4  0  0  0
 19 20  4  0  0  0
 20 21  1  0  0  0
 21 22  1  0  0  0
 21 23  2  0  0  0
  1 24  1  0  0  0
  6 25  1  0  0  0
  6 26  1  0  0  0
  7 27  1  0  0  0
  8 28  1  0  0  0
 11 29  1  0  0  0
 12 30  1  0  0  0
 12 31  1  0  0  0
 13 32  1  0  0  0
 13 33  1  0  0  0
 14 34  1  0  0  0
 14 35  1  0  0  0
 15 36  1  0  0  0
 15 37  1  0  0  0
 16 38  1  0  0  0
 16 39  1  0  0  0
 17 40  1  0  0  0
 18 41  1  0  0  0
 19 42  1  0  0  0
 22 43  1  0  0  0
M  END
$$$$
