### 
### Created by X-TOOL on Mon Sep 10 21:13:26 2018
### 

@<TRIPOS>MOLECULE
5fq9_ligand
   42    44     1     0     0
SMALL
GAST_HUCK


@<TRIPOS>ATOM
      1 O01       -22.9820   16.3880   -2.4120 O.3       1 C6S        -0.4105
      2 B02       -22.9710   16.3970   -0.9730 B         1 C6S         3.0000
      3 O03       -23.6010   15.1950   -0.5190 O.3       1 C6S        -0.3332
      4 C04       -25.0030   15.3040   -0.1690 C.ar      1 C6S         0.1047
      5 C05       -25.3370   16.3870    0.6210 C.ar      1 C6S        -0.0080
      6 C06       -24.2290   17.3940    0.9650 C.3       1 C6S        -0.0001
      7 C07       -23.4780   17.7650   -0.3270 C.3       1 C6S         0.0389
      8 N08       -24.4520   18.3840   -1.2200 N.am      1 C6S        -0.2850
      9 C09       -24.7630   19.7500   -1.1670 C.2       1 C6S         0.1792
     10 O10       -24.1660   20.5740   -0.4720 O.2       1 C6S        -0.3968
     11 C11       -25.9830   20.2040   -2.0370 C.3       1 C6S         0.0486
     12 C12       -25.9720   21.6830   -2.3330 C.3       1 C6S        -0.0332
     13 C13       -27.2380   22.0380   -3.1450 C.3       1 C6S        -0.0507
     14 C14       -28.4460   21.7170   -2.3260 C.3       1 C6S        -0.0528
     15 C15       -28.5000   20.2700   -1.9290 C.3       1 C6S        -0.0507
     16 C16       -27.2120   19.8830   -1.1860 C.3       1 C6S        -0.0332
     17 C17       -26.6800   16.5470    1.0320 C.ar      1 C6S        -0.0660
     18 C18       -27.6290   15.5910    0.5750 C.ar      1 C6S        -0.0761
     19 C19       -27.2540   14.4940   -0.2390 C.ar      1 C6S        -0.0632
     20 C20       -25.9160   14.3210   -0.5990 C.ar      1 C6S         0.0322
     21 C21       -25.4890   13.2350   -1.5270 C.2       1 C6S         0.0564
     22 O22       -26.3010   12.5070   -2.1450 O.co2     1 C6S        -0.5645
     23 O23       -24.3230   13.1220   -1.8130 O.co2     1 C6S        -0.5645
     24 H2        -23.8797   16.3506   -2.7205 H         1 C6S         0.2052
     25 H4        -23.5287   16.9424    1.6831 H         1 C6S         0.0423
     26 H5        -24.6746   18.2978    1.4062 H         1 C6S         0.0423
     27 H7        -22.6666   18.4731   -0.1030 H         1 C6S         0.0540
     28 H8        -24.9157   17.8115   -1.8962 H         1 C6S         0.1852
     29 H9        -26.0023   19.6431   -2.9831 H         1 C6S         0.0538
     30 H10       -25.0751   21.9364   -2.9172 H         1 C6S         0.0292
     31 H11       -25.9672   22.2488   -1.3897 H         1 C6S         0.0292
     32 H12       -27.2563   21.4512   -4.0752 H         1 C6S         0.0267
     33 H13       -27.2316   23.1107   -3.3882 H         1 C6S         0.0267
     34 H14       -29.3448   21.9559   -2.9134 H         1 C6S         0.0265
     35 H15       -28.4290   22.3329   -1.4148 H         1 C6S         0.0265
     36 H16       -28.6018   19.6480   -2.8305 H         1 C6S         0.0267
     37 H17       -29.3649   20.1047   -1.2698 H         1 C6S         0.0267
     38 H18       -27.1557   20.4460   -0.2427 H         1 C6S         0.0292
     39 H19       -27.2299   18.8048   -0.9690 H         1 C6S         0.0292
     40 H20       -26.9763   17.3694    1.6730 H         1 C6S         0.0547
     41 H21       -28.6692   15.7052    0.8578 H         1 C6S         0.0513
     42 H22       -28.0041   13.7904   -0.5817 H         1 C6S         0.0564
@<TRIPOS>BOND
     1    1    2 1  
     2    2    3 1  
     3    2    7 1  
     4    3    4 1  
     5    4    5 ar 
     6    4   20 ar 
     7    5    6 1  
     8    5   17 ar 
     9    6    7 1  
    10    7    8 1  
    11    8    9 am 
    12    9   10 2  
    13    9   11 1  
    14   11   12 1  
    15   11   16 1  
    16   12   13 1  
    17   13   14 1  
    18   14   15 1  
    19   15   16 1  
    20   17   18 ar 
    21   18   19 ar 
    22   19   20 ar 
    23   20   21 1  
    24   21   22 ar 
    25   21   23 ar 
    26    1   24 1  
    27    6   25 1  
    28    6   26 1  
    29    7   27 1  
    30    8   28 1  
    31   11   29 1  
    32   12   30 1  
    33   12   31 1  
    34   13   32 1  
    35   13   33 1  
    36   14   34 1  
    37   14   35 1  
    38   15   36 1  
    39   15   37 1  
    40   16   38 1  
    41   16   39 1  
    42   17   40 1  
    43   18   41 1  
    44   19   42 1  
@<TRIPOS>SUBSTRUCTURE
     1 C6S         1

