4kio_ligand
  -I-interpret- 

 60 64  0  0  0  0  0  0  0  0999 V2000
   13.8100   11.9900    5.2610 C   0  0  0  0  0
   12.6590   11.8790    4.6030 C   0  0  0  0  0
   12.7590   11.9710    3.1270 C   0  0  0  0  0
   13.8370   12.1430    2.5800 O   0  0  0  0  0
   11.5910   11.8610    2.4200 N   0  0  0  0  0
   11.4680   11.9110    0.9800 C   0  0  0  0  0
   10.0040   11.6640    0.7280 C   0  0  0  0  0
    9.6250   10.9330    1.9700 C   0  0  0  0  0
   10.3450   11.6640    3.0460 C   0  0  0  0  0
    8.2310   10.9450    2.2460 N   0  0  0  0  0
    7.3980   10.0220    1.7850 C   0  0  0  0  0
    6.1540   10.1150    2.2700 N   0  0  0  0  0
    5.3000    9.2170    1.7890 C   0  0  0  0  0
    3.8580    9.2490    2.2410 C   0  0  0  0  0
    3.6650    9.5230    3.6500 N   0  3  0  0  0
    4.2660    8.4640    4.4890 C   0  0  0  0  0
    3.7340    8.4620    5.9250 C   0  0  0  0  0
    2.3010    8.4250    5.9610 O   0  0  0  0  0
    1.8360    9.6160    5.3000 C   0  0  0  0  0
    2.2070    9.5660    3.8240 C   0  0  0  0  0
    5.7360    8.2700    0.8740 C   0  0  0  0  0
    7.0470    8.2540    0.4510 C   0  0  0  0  0
    7.5310    7.2870   -0.4990 N   0  0  0  0  0
    8.6830    7.2040   -1.1610 C   0  0  0  0  0
    8.9730    6.2380   -2.0000 N   0  0  0  0  0
   10.2410    6.4530   -2.4930 C   0  0  0  0  0
   10.9520    5.6760   -3.3830 C   0  0  0  0  0
   12.2370    6.0950   -3.7330 C   0  0  0  0  0
   12.8010    7.2370   -3.2230 C   0  0  0  0  0
   12.1170    7.9820   -2.3570 N   0  0  0  0  0
   10.8850    7.5820   -2.0180 C   0  0  0  0  0
    9.8910    8.4240   -0.9110 S   0  0  0  0  0
    7.9280    9.1460    0.8930 N   0  0  0  0  0
   14.7398   12.1377    4.7116 H   0  0  0  0  0
   13.8232   11.9332    6.3494 H   0  0  0  0  0
   11.7078   11.7306    5.1142 H   0  0  0  0  0
   12.1013   11.1739    0.4863 H   0  0  0  0  0
   11.8016   12.8645    0.5707 H   0  0  0  0  0
    9.8000   11.1124   -0.1897 H   0  0  0  0  0
    9.4256   12.5715    0.5548 H   0  0  0  0  0
    9.8831    9.8778    1.8800 H   0  0  0  0  0
    9.8553   12.5820    3.3709 H   0  0  0  0  0
   10.3982   11.1295    3.9944 H   0  0  0  0  0
    7.8547   11.6965    2.8240 H   0  0  0  0  0
    3.4472    8.2569    2.0539 H   0  0  0  0  0
    3.3742   10.0580    1.6936 H   0  0  0  0  0
    4.1147   10.3930    3.9350 H   0  0  0  0  0
    5.3398    8.6459    4.5336 H   0  0  0  0  0
    4.0139    7.5029    4.0408 H   0  0  0  0  0
    4.0658    9.3774    6.4149 H   0  0  0  0  0
    4.1128    7.5733    6.4298 H   0  0  0  0  0
    2.3020   10.4879    5.7591 H   0  0  0  0  0
    0.7523    9.6818    5.3969 H   0  0  0  0  0
    1.7753    8.6667    3.3848 H   0  0  0  0  0
    1.8224   10.4615    3.3358 H   0  0  0  0  0
    5.0346    7.5314    0.4859 H   0  0  0  0  0
    6.8755    6.5320   -0.7006 H   0  0  0  0  0
   10.5246    4.7640   -3.7999 H   0  0  0  0  0
   12.8126    5.4934   -4.4365 H   0  0  0  0  0
   13.8053    7.5333   -3.5257 H   0  0  0  0  0
  1  2  2  0  0  0
  2  3  1  0  0  0
  3  4  2  0  0  0
  3  5  1  0  0  0
  5  6  1  0  0  0
  5  9  1  0  0  0
  6  7  1  0  0  0
  7  8  1  0  0  0
  8  9  1  0  0  0
  8 10  1  0  0  0
 10 11  1  0  0  0
 11 12  4  0  0  0
 11 33  4  0  0  0
 12 13  4  0  0  0
 13 14  1  0  0  0
 13 21  4  0  0  0
 14 15  1  0  0  0
 15 16  1  0  0  0
 15 20  1  0  0  0
 16 17  1  0  0  0
 17 18  1  0  0  0
 18 19  1  0  0  0
 19 20  1  0  0  0
 21 22  4  0  0  0
 22 23  1  0  0  0
 22 33  4  0  0  0
 23 24  1  0  0  0
 24 25  4  0  0  0
 24 32  4  0  0  0
 25 26  4  0  0  0
 26 27  4  0  0  0
 26 31  4  0  0  0
 27 28  4  0  0  0
 28 29  4  0  0  0
 29 30  4  0  0  0
 30 31  4  0  0  0
 31 32  4  0  0  0
  1 34  1  0  0  0
  1 35  1  0  0  0
  2 36  1  0  0  0
  6 37  1  0  0  0
  6 38  1  0  0  0
  7 39  1  0  0  0
  7 40  1  0  0  0
  8 41  1  0  0  0
  9 42  1  0  0  0
  9 43  1  0  0  0
 10 44  1  0  0  0
 14 45  1  0  0  0
 14 46  1  0  0  0
 15 47  1  0  0  0
 16 48  1  0  0  0
 16 49  1  0  0  0
 17 50  1  0  0  0
 17 51  1  0  0  0
 19 52  1  0  0  0
 19 53  1  0  0  0
 20 54  1  0  0  0
 20 55  1  0  0  0
 21 56  1  0  0  0
 23 57  1  0  0  0
 27 58  1  0  0  0
 28 59  1  0  0  0
 29 60  1  0  0  0
M  END
$$$$
