2c5x_ligand
  -I-interpret- 

 43 46  0  0  0  0  0  0  0  0999 V2000
    2.9360   44.8920   -0.8800 C   0  0  0  0  0
    2.4000   44.2510   -1.9140 N   0  0  0  0  0
    2.6670   42.9480   -1.7540 C   0  0  0  0  0
    3.3730   42.7990   -0.6320 N   0  0  0  0  0
    3.5160   43.9300   -0.1580 N   0  0  0  0  0
    4.1930   44.1690    1.1140 C   0  0  0  0  0
    4.9600   45.4890    1.1270 C   0  0  0  0  0
    4.4220   46.6460    1.6680 C   0  0  0  0  0
    6.2790   45.5020    0.7040 C   0  0  0  0  0
    7.0340   46.6730    0.7560 C   0  0  0  0  0
    6.5060   47.8250    1.3200 C   0  0  0  0  0
    5.1810   47.8120    1.7290 C   0  0  0  0  0
    4.6790   48.9720    2.3060 C   0  0  0  0  0
    3.3690   49.0710    2.6160 N   0  0  0  0  0
    5.5630   49.9920    2.6510 C   0  0  0  0  0
    4.9840   51.1000    3.2750 C   0  0  0  0  0
    3.6860   51.1870    3.5420 N   0  0  0  0  0
    2.8660   50.1640    3.2260 C   0  0  0  0  0
    1.5550   50.2690    3.4640 N   0  0  0  0  0
    0.6240   49.3960    3.0440 C   0  0  0  0  0
    0.9600   48.1570    2.5060 C   0  0  0  0  0
   -0.7300   49.7290    3.1320 C   0  0  0  0  0
   -1.7330   48.8480    2.7450 C   0  0  0  0  0
   -1.3640   47.5970    2.2640 C   0  0  0  0  0
   -0.0230   47.2390    2.1290 C   0  0  0  0  0
    0.2910   46.0390    1.6070 N   0  0  0  0  0
   -0.7240   45.2820    0.9320 O   0  0  0  0  0
    1.6290   45.4930    1.6270 O   0  0  0  0  0
    2.9083   45.9611   -0.6692 H   0  0  0  0  0
    2.3598   42.1465   -2.4258 H   0  0  0  0  0
    4.9085   43.3620    1.2717 H   0  0  0  0  0
    3.4351   44.2120    1.8962 H   0  0  0  0  0
    3.4002   46.6433    2.0475 H   0  0  0  0  0
    6.7322   44.5856    0.3259 H   0  0  0  0  0
    8.0458   46.6833    0.3508 H   0  0  0  0  0
    7.1179   48.7191    1.4389 H   0  0  0  0  0
    6.6322   49.9300    2.4482 H   0  0  0  0  0
    5.6285   51.9328    3.5561 H   0  0  0  0  0
    1.2372   51.0728    4.0055 H   0  0  0  0  0
    2.0108   47.8980    2.3763 H   0  0  0  0  0
   -1.0085   50.7103    3.5161 H   0  0  0  0  0
   -2.7831   49.1311    2.8169 H   0  0  0  0  0
   -2.1383   46.8816    1.9868 H   0  0  0  0  0
  1  2  4  0  0  0
  1  5  4  0  0  0
  2  3  4  0  0  0
  3  4  4  0  0  0
  4  5  4  0  0  0
  5  6  1  0  0  0
  6  7  1  0  0  0
  7  8  4  0  0  0
  7  9  4  0  0  0
  8 12  4  0  0  0
  9 10  4  0  0  0
 10 11  4  0  0  0
 11 12  4  0  0  0
 12 13  1  0  0  0
 13 14  4  0  0  0
 13 15  4  0  0  0
 14 18  4  0  0  0
 15 16  4  0  0  0
 16 17  4  0  0  0
 17 18  4  0  0  0
 18 19  1  0  0  0
 19 20  1  0  0  0
 20 21  4  0  0  0
 20 22  4  0  0  0
 21 25  4  0  0  0
 22 23  4  0  0  0
 23 24  4  0  0  0
 24 25  4  0  0  0
 25 26  1  0  0  0
 26 27  2  0  0  0
 26 28  2  0  0  0
  1 29  1  0  0  0
  3 30  1  0  0  0
  6 31  1  0  0  0
  6 32  1  0  0  0
  8 33  1  0  0  0
  9 34  1  0  0  0
 10 35  1  0  0  0
 11 36  1  0  0  0
 15 37  1  0  0  0
 16 38  1  0  0  0
 19 39  1  0  0  0
 21 40  1  0  0  0
 22 41  1  0  0  0
 23 42  1  0  0  0
 24 43  1  0  0  0
M  END
$$$$
