### 
### Created by X-TOOL on Mon Sep 10 21:12:48 2018
### 

@<TRIPOS>MOLECULE
1j4q_ligand
  194   193     1     0     0
SMALL
GAST_HUCK


@<TRIPOS>ATOM
      1 N         -15.7800  -24.1120  -17.4970 N.4       1 SER         0.2396
      2 CA        -15.8380  -22.9570  -18.4310 C.3       1 SER         0.0885
      3 C         -14.5510  -22.1420  -18.3820 C.2       1 SER         0.2290
      4 O         -13.7420  -22.1900  -19.3080 O.2       1 SER        -0.3906
      5 CB        -17.0320  -22.0810  -18.0500 C.3       1 SER         0.1041
      6 OG        -18.2000  -22.4730  -18.7520 O.3       1 SER        -0.3870
      7 N         -14.3690  -21.3970  -17.2920 N.am      1 LEU        -0.2609
      8 CA        -13.1820  -20.5610  -17.1020 C.3       1 LEU         0.1313
      9 C         -12.8290  -19.7840  -18.3710 C.2       1 LEU         0.2039
     10 O         -13.5760  -19.8000  -19.3510 O.2       1 LEU        -0.3944
     11 CB        -11.9830  -21.4070  -16.6390 C.3       1 LEU        -0.0101
     12 CG        -11.7180  -22.6930  -17.4310 C.3       1 LEU        -0.0425
     13 CD1       -11.0600  -22.3820  -18.7680 C.3       1 LEU        -0.0625
     14 CD2       -10.8450  -23.6380  -16.6170 C.3       1 LEU        -0.0625
     15 N         -11.6940  -19.0940  -18.3440 N.am      1 GLU        -0.2636
     16 CA        -11.2490  -18.3070  -19.4890 C.3       1 GLU         0.1325
     17 C          -9.7330  -18.1450  -19.4810 C.2       1 GLU         0.2040
     18 O          -9.2110  -17.0760  -19.7980 O.2       1 GLU        -0.3944
     19 CB        -11.9220  -16.9340  -19.4830 C.3       1 GLU        -0.0008
     20 CG        -11.9140  -16.2460  -20.8390 C.3       1 GLU         0.0044
     21 CD        -12.9470  -16.8190  -21.7890 C.2       1 GLU         0.0350
     22 OE1       -12.5590  -17.5830  -22.6970 O.co2     1 GLU        -0.5690
     23 OE2       -14.1450  -16.5030  -21.6250 O.co2     1 GLU        -0.5690
     24 N          -9.0300  -19.2130  -19.1180 N.am      1 VAL        -0.2635
     25 CA         -7.5730  -19.1900  -19.0690 C.3       1 VAL         0.1333
     26 C          -6.9840  -18.8120  -20.4240 C.2       1 VAL         0.2042
     27 O          -7.3270  -19.4000  -21.4480 O.2       1 VAL        -0.3944
     28 CB         -7.0030  -20.5540  -18.6390 C.3       1 VAL        -0.0063
     29 CG1        -5.5030  -20.4550  -18.4030 C.3       1 VAL        -0.0584
     30 CG2        -7.7140  -21.0600  -17.3930 C.3       1 VAL        -0.0584
     31 N          -6.0930  -17.8260  -20.4190 N.am      1 TPO        -0.2611
     32 CA         -5.4540  -17.3690  -21.6470 C.3       1 TPO         0.1612
     33 CB         -4.4920  -16.1890  -21.3810 C.3       1 TPO         0.1262
     34 CG2        -3.8120  -15.7410  -22.6680 C.3       1 TPO        -0.0298
     35 OG1        -5.1960  -15.1070  -20.8250 O.3       1 TPO        -0.2685
     36 P          -5.3080  -14.9870  -19.2670 P.3       1 TPO         0.2014
     37 O1P        -6.7630  -15.4190  -18.9460 O.co2     1 TPO        -0.5537
     38 O2P        -4.3300  -16.0490  -18.6990 O.co2     1 TPO        -0.5537
     39 O3P        -4.9980  -13.6070  -18.7710 O.co2     1 TPO        -0.5537
     40 C          -4.6820  -18.5070  -22.3100 C.2       1 TPO         0.2068
     41 O          -3.7880  -19.0980  -21.7050 O.2       1 TPO        -0.3943
     42 N          -5.0380  -18.8100  -23.5540 N.am      1 GLU        -0.2635
     43 CA         -4.3820  -19.8800  -24.3000 C.3       1 GLU         0.1325
     44 C          -2.8730  -19.6650  -24.3550 C.2       1 GLU         0.2040
     45 O          -2.3830  -18.8270  -25.1120 O.2       1 GLU        -0.3944
     46 CB         -4.9500  -19.9620  -25.7180 C.3       1 GLU        -0.0008
     47 CG         -5.0700  -21.3830  -26.2440 C.3       1 GLU         0.0044
     48 CD         -5.6520  -21.4390  -27.6430 C.2       1 GLU         0.0350
     49 OE1        -5.4640  -22.4680  -28.3250 O.co2     1 GLU        -0.5690
     50 OE2        -6.2970  -20.4520  -28.0580 O.co2     1 GLU        -0.5690
     51 N          -2.1400  -20.4260  -23.5480 N.am      1 ALA        -0.2640
     52 CA         -0.6870  -20.3190  -23.5040 C.3       1 ALA         0.1282
     53 C          -0.0270  -21.6270  -23.9280 C.2       1 ALA         0.2037
     54 O          -0.4230  -22.7060  -23.4860 O.2       1 ALA        -0.3944
     55 CB         -0.2290  -19.9230  -22.1080 C.3       1 ALA        -0.0244
     56 N           0.9810  -21.5240  -24.7890 N.am      1 ASP        -0.2622
     57 CA          1.6960  -22.6990  -25.2720 C.3       1 ASP         0.1423
     58 C           2.3570  -23.4470  -24.1190 C.2       1 ASP         0.2056
     59 O           2.5050  -22.9090  -23.0210 O.2       1 ASP        -0.3943
     60 CB          2.7520  -22.2910  -26.3010 C.3       1 ASP         0.0406
     61 CG          2.1380  -21.7370  -27.5710 C.2       1 ASP         0.0393
     62 OD1         2.8520  -21.0370  -28.3200 O.co2     1 ASP        -0.5688
     63 OD2         0.9430  -22.0040  -27.8190 O.co2     1 ASP        -0.5688
     64 N           2.7500  -24.6900  -24.3740 N.am      1 ALA        -0.2639
     65 CA          3.3950  -25.5120  -23.3570 C.3       1 ALA         0.1282
     66 C           4.6930  -26.1180  -23.8810 C.2       1 ALA         0.2037
     67 O           4.9370  -27.3150  -23.7350 O.2       1 ALA        -0.3944
     68 CB          2.4500  -26.6070  -22.8870 C.3       1 ALA        -0.0244
     69 N           5.5240  -25.2790  -24.4940 N.am      1 THR        -0.2613
     70 CA          6.7990  -25.7300  -25.0410 C.3       1 THR         0.1565
     71 C           7.9580  -25.2890  -24.1520 C.2       1 THR         0.2065
     72 O           8.9550  -24.7510  -24.6350 O.2       1 THR        -0.3943
     73 CB          6.9890  -25.1880  -26.4590 C.3       1 THR         0.0924
     74 OG1         7.1640  -23.7830  -26.4380 O.3       1 THR        -0.3874
     75 CG2         5.8270  -25.4930  -27.3770 C.3       1 THR        -0.0346
     76 N           7.8210  -25.5300  -22.8480 N.am      1 PHE        -0.2636
     77 CA          8.8450  -25.1720  -21.8770 C.3       1 PHE         0.1312
     78 C           9.4490  -23.7980  -22.1690 C.2       1 PHE         0.2039
     79 O          10.6640  -23.6130  -22.1030 O.2       1 PHE        -0.3944
     80 CB          9.9280  -26.2510  -21.8480 C.3       1 PHE        -0.0101
     81 CG         10.9690  -26.1370  -22.9820 C.3       1 PHE        -0.0425
     82 CD1        12.3560  -25.8190  -22.9880 C.3       1 PHE        -0.0625
     83 CD2        11.7250  -27.2110  -23.4020 C.3       1 PHE        -0.0625
     84 N           8.5830  -22.8390  -22.4870 N.am      1 VAL        -0.2635
     85 CA          9.0050  -21.4710  -22.7890 C.3       1 VAL         0.1332
     86 C          10.2730  -21.4430  -23.6410 C.2       1 VAL         0.2036
     87 O          11.3650  -21.1770  -23.1390 O.2       1 VAL        -0.3944
     88 CB          9.2430  -20.6510  -21.5030 C.3       1 VAL        -0.0063
     89 CG1         7.9180  -20.2690  -20.8620 C.3       1 VAL        -0.0584
     90 CG2        10.1130  -21.4230  -20.5220 C.3       1 VAL        -0.0584
     91 N          10.1180  -21.7210  -24.9310 N.am      1 GLN        -0.2693
     92 CA         11.2490  -21.7280  -25.8530 C.3       1 GLN         0.0964
     93 C          11.6270  -20.3080  -26.2600 C.2       1 GLN         0.0602
     94 O          10.7250  -19.5540  -26.6810 O.co2     1 GLN        -0.5666
     95 CB         10.9160  -22.5570  -27.0950 C.3       1 GLN        -0.0010
     96 CG         11.1250  -24.0500  -26.9030 C.3       1 GLN         0.0407
     97 CD         10.4340  -24.8770  -27.9700 C.2       1 GLN         0.1737
     98 OE1         9.9790  -24.3470  -28.9840 O.2       1 GLN        -0.3973
     99 NE2        10.3500  -26.1820  -27.7450 N.am      1 GLN        -0.3009
    100 OXT        12.8220  -19.9620  -26.1550 O.co2     1 GLN        -0.5666
    101 H1        -16.6423  -24.6312  -17.5508 H         1 SER         0.2016
    102 H2        -15.6480  -23.7766  -16.5557 H         1 SER         0.2016
    103 H3        -15.0105  -24.7114  -17.7512 H         1 SER         0.2016
    104 H4        -15.9778  -23.3324  -19.4554 H         1 SER         0.1122
    105 H5        -16.8011  -21.0336  -18.2943 H         1 SER         0.0640
    106 H6        -17.2148  -22.1738  -16.9693 H         1 SER         0.0640
    107 H7        -18.9242  -21.9136  -18.4968 H         1 SER         0.2099
    108 H8        -15.0688  -21.4094  -16.5777 H         1 LEU         0.1884
    109 H9        -13.4087  -19.8307  -16.3113 H         1 LEU         0.0800
    110 H10       -12.1555  -21.6883  -15.5897 H         1 LEU         0.0315
    111 H11       -11.0825  -20.7790  -16.7070 H         1 LEU         0.0315
    112 H12       -12.6815  -23.1869  -17.6252 H         1 LEU         0.0298
    113 H13       -10.8810  -23.3192  -19.3153 H         1 LEU         0.0232
    114 H14       -10.1021  -21.8698  -18.5949 H         1 LEU         0.0232
    115 H15       -11.7215  -21.7324  -19.3599 H         1 LEU         0.0232
    116 H16       -11.3342  -23.8522  -15.6553 H         1 LEU         0.0232
    117 H17        -9.8673  -23.1682  -16.4343 H         1 LEU         0.0232
    118 H18       -10.7028  -24.5764  -17.1731 H         1 LEU         0.0232
    119 H19       -11.1306  -19.1146  -17.5181 H         1 GLU         0.1883
    120 H20       -11.5387  -18.8361  -20.4088 H         1 GLU         0.0801
    121 H21       -11.3937  -16.2909  -18.7637 H         1 GLU         0.0330
    122 H22       -12.9669  -17.0603  -19.1634 H         1 GLU         0.0330
    123 H23       -10.9173  -16.3652  -21.2888 H         1 GLU         0.0433
    124 H24       -12.1248  -15.1764  -20.6927 H         1 GLU         0.0433
    125 H25        -9.5126  -20.0536  -18.8723 H         1 VAL         0.1883
    126 H26        -7.2674  -18.4345  -18.3302 H         1 VAL         0.0802
    127 H27        -7.1775  -21.2739  -19.4521 H         1 VAL         0.0343
    128 H28        -5.1144  -21.4375  -18.0971 H         1 VAL         0.0234
    129 H29        -5.3043  -19.7190  -17.6100 H         1 VAL         0.0234
    130 H30        -5.0059  -20.1370  -19.3313 H         1 VAL         0.0234
    131 H31        -8.7948  -21.1230  -17.5877 H         1 VAL         0.0234
    132 H32        -7.5315  -20.3660  -16.5593 H         1 VAL         0.0234
    133 H33        -7.3300  -22.0569  -17.1310 H         1 VAL         0.0234
    134 H34        -5.8553  -17.3872  -19.5524 H         1 TPO         0.1884
    135 H35        -6.2403  -17.0289  -22.3370 H         1 TPO         0.0830
    136 H36        -3.7210  -16.5175  -20.6685 H         1 TPO         0.0695
    137 H37        -3.1342  -14.9021  -22.4517 H         1 TPO         0.0260
    138 H38        -4.5744  -15.4190  -23.3926 H         1 TPO         0.0260
    139 H39        -3.2362  -16.5783  -23.0892 H         1 TPO         0.0260
    140 H40        -5.7738  -18.2920  -23.9902 H         1 GLU         0.1883
    141 H41        -4.5796  -20.8327  -23.7869 H         1 GLU         0.0801
    142 H42        -4.2884  -19.3968  -26.3909 H         1 GLU         0.0330
    143 H43        -5.9507  -19.5052  -25.7188 H         1 GLU         0.0330
    144 H44        -5.7222  -21.9552  -25.5679 H         1 GLU         0.0433
    145 H45        -4.0689  -21.8385  -26.2603 H         1 GLU         0.0433
    146 H46        -2.5975  -21.0892  -22.9557 H         1 ALA         0.1883
    147 H47        -0.3773  -19.5324  -24.2078 H         1 ALA         0.0797
    148 H48         0.8682  -19.8462  -22.0901 H         1 ALA         0.0277
    149 H49        -0.5550  -20.6853  -21.3851 H         1 ALA         0.0277
    150 H50        -0.6689  -18.9512  -21.8396 H         1 ALA         0.0277
    151 H51         1.2553  -20.6186  -25.1131 H         1 ASP         0.1884
    152 H52         0.9733  -23.3718  -25.7568 H         1 ASP         0.0819
    153 H53         3.3557  -23.1742  -26.5568 H         1 ASP         0.0478
    154 H54         3.3992  -21.5206  -25.8565 H         1 ASP         0.0478
    155 H55         2.5998  -25.0715  -25.2861 H         1 ALA         0.1883
    156 H56         3.6373  -24.8698  -22.4974 H         1 ALA         0.0797
    157 H57         2.9494  -27.2184  -22.1209 H         1 ALA         0.0277
    158 H58         2.1726  -27.2432  -23.7404 H         1 ALA         0.0277
    159 H59         1.5446  -26.1515  -22.4596 H         1 ALA         0.0277
    160 H60         5.2685  -24.3162  -24.5819 H         1 THR         0.1884
    161 H61         6.7904  -26.8291  -25.0836 H         1 THR         0.0826
    162 H62         7.8932  -25.6534  -26.8783 H         1 THR         0.0639
    163 H63         7.9315  -23.5683  -25.9211 H         1 THR         0.2101
    164 H64         6.0291  -25.0767  -28.3749 H         1 THR         0.0257
    165 H65         4.9100  -25.0416  -26.9702 H         1 THR         0.0257
    166 H66         5.6965  -26.5825  -27.4538 H         1 THR         0.0257
    167 H67         6.9845  -25.9727  -22.5251 H         1 PHE         0.1883
    168 H68         8.3742  -25.1293  -20.8838 H         1 PHE         0.0800
    169 H69         9.4383  -27.2328  -21.9274 H         1 PHE         0.0315
    170 H70        10.4574  -26.1820  -20.8863 H         1 PHE         0.0315
    171 H71        10.4204  -25.6160  -23.7805 H         1 PHE         0.0298
    172 H72        12.7339  -25.8462  -24.0207 H         1 PHE         0.0232
    173 H73        12.9031  -26.5528  -22.3780 H         1 PHE         0.0232
    174 H74        12.5032  -24.8122  -22.5701 H         1 PHE         0.0232
    175 H75        12.3935  -26.8930  -24.2156 H         1 PHE         0.0232
    176 H76        11.0596  -28.0083  -23.7647 H         1 PHE         0.0232
    177 H77        12.3250  -27.5884  -22.5608 H         1 PHE         0.0232
    178 H78         7.6086  -23.0613  -22.5208 H         1 VAL         0.1883
    179 H79         8.1969  -20.9899  -23.3594 H         1 VAL         0.0802
    180 H80         9.7723  -19.7265  -21.7773 H         1 VAL         0.0343
    181 H81         8.1072  -19.6861  -19.9485 H         1 VAL         0.0234
    182 H82         7.3582  -21.1806  -20.6059 H         1 VAL         0.0234
    183 H83         7.3302  -19.6639  -21.5678 H         1 VAL         0.0234
    184 H84        11.0644  -21.6885  -21.0060 H         1 VAL         0.0234
    185 H85         9.5909  -22.3402  -20.2120 H         1 VAL         0.0234
    186 H86        10.3127  -20.7984  -19.6388 H         1 VAL         0.0234
    187 H87         9.2040  -21.9305  -25.2785 H         1 GLN         0.1875
    188 H88        12.1099  -22.1867  -25.3447 H         1 GLN         0.0727
    189 H89        11.5587  -22.2192  -27.9214 H         1 GLN         0.0330
    190 H90         9.8616  -22.3841  -27.3563 H         1 GLN         0.0330
    191 H91        10.7250  -24.3383  -25.9197 H         1 GLN         0.0504
    192 H92        12.2038  -24.2620  -26.9365 H         1 GLN         0.0504
    193 H93         9.9048  -26.7771  -28.4141 H         1 GLN         0.1814
    194 H94        10.7319  -26.5704  -26.9064 H         1 GLN         0.1814
@<TRIPOS>BOND
     1    2    1 1  
     2   81   82 1  
     3    3    2 1  
     4    2    5 1  
     5    3    4 2  
     6    7    3 am 
     7    5    6 1  
     8    8    7 1  
     9    9    8 1  
    10    8   11 1  
    11    9   10 2  
    12   15    9 am 
    13   11   12 1  
    14   12   13 1  
    15   12   14 1  
    16   16   15 1  
    17   17   16 1  
    18   16   19 1  
    19   17   18 2  
    20   24   17 am 
    21   19   20 1  
    22   20   21 1  
    23   21   22 ar 
    24   21   23 ar 
    25   25   24 1  
    26   26   25 1  
    27   25   28 1  
    28   26   27 2  
    29   31   26 am 
    30   28   29 1  
    31   28   30 1  
    32   32   31 1  
    33   32   33 1  
    34   40   32 1  
    35   33   34 1  
    36   33   35 1  
    37   35   36 1  
    38   36   37 ar 
    39   36   38 ar 
    40   36   39 ar 
    41   40   41 2  
    42   42   40 am 
    43   43   42 1  
    44   44   43 1  
    45   43   46 1  
    46   44   45 2  
    47   51   44 am 
    48   46   47 1  
    49   47   48 1  
    50   48   49 ar 
    51   48   50 ar 
    52   52   51 1  
    53   53   52 1  
    54   52   55 1  
    55   53   54 2  
    56   56   53 am 
    57   57   56 1  
    58   58   57 1  
    59   57   60 1  
    60   58   59 2  
    61   64   58 am 
    62   60   61 1  
    63   61   62 ar 
    64   61   63 ar 
    65   65   64 1  
    66   66   65 1  
    67   65   68 1  
    68   66   67 2  
    69   69   66 am 
    70   70   69 1  
    71   71   70 1  
    72   70   73 1  
    73   71   72 2  
    74   76   71 am 
    75   73   74 1  
    76   73   75 1  
    77   77   76 1  
    78   77   78 1  
    79   80   77 1  
    80   78   79 2  
    81   78   84 am 
    82   81   80 1  
    83   81   83 1  
    84   84   85 1  
    85   85   86 1  
    86   85   88 1  
    87   86   87 2  
    88   86   91 am 
    89   88   89 1  
    90   88   90 1  
    91   91   92 1  
    92   92   93 1  
    93   92   95 1  
    94   93   94 ar 
    95   93  100 ar 
    96   95   96 1  
    97   96   97 1  
    98   97   98 2  
    99   97   99 am 
   100    1  101 1  
   101    1  102 1  
   102    1  103 1  
   103    2  104 1  
   104    5  105 1  
   105    5  106 1  
   106    6  107 1  
   107    7  108 1  
   108    8  109 1  
   109   11  110 1  
   110   11  111 1  
   111   12  112 1  
   112   13  113 1  
   113   13  114 1  
   114   13  115 1  
   115   14  116 1  
   116   14  117 1  
   117   14  118 1  
   118   15  119 1  
   119   16  120 1  
   120   19  121 1  
   121   19  122 1  
   122   20  123 1  
   123   20  124 1  
   124   24  125 1  
   125   25  126 1  
   126   28  127 1  
   127   29  128 1  
   128   29  129 1  
   129   29  130 1  
   130   30  131 1  
   131   30  132 1  
   132   30  133 1  
   133   31  134 1  
   134   32  135 1  
   135   33  136 1  
   136   34  137 1  
   137   34  138 1  
   138   34  139 1  
   139   42  140 1  
   140   43  141 1  
   141   46  142 1  
   142   46  143 1  
   143   47  144 1  
   144   47  145 1  
   145   51  146 1  
   146   52  147 1  
   147   55  148 1  
   148   55  149 1  
   149   55  150 1  
   150   56  151 1  
   151   57  152 1  
   152   60  153 1  
   153   60  154 1  
   154   64  155 1  
   155   65  156 1  
   156   68  157 1  
   157   68  158 1  
   158   68  159 1  
   159   69  160 1  
   160   70  161 1  
   161   73  162 1  
   162   74  163 1  
   163   75  164 1  
   164   75  165 1  
   165   75  166 1  
   166   76  167 1  
   167   77  168 1  
   168   80  169 1  
   169   80  170 1  
   170   81  171 1  
   171   82  172 1  
   172   82  173 1  
   173   82  174 1  
   174   83  175 1  
   175   83  176 1  
   176   83  177 1  
   177   84  178 1  
   178   85  179 1  
   179   88  180 1  
   180   89  181 1  
   181   89  182 1  
   182   89  183 1  
   183   90  184 1  
   184   90  185 1  
   185   90  186 1  
   186   91  187 1  
   187   92  188 1  
   188   95  189 1  
   189   95  190 1  
   190   96  191 1  
   191   96  192 1  
   192   99  193 1  
   193   99  194 1  
@<TRIPOS>SUBSTRUCTURE
     1 SER         1

