1j4q_ligand
  -I-interpret- 

200199  0  0  0  0  0  0  0  0999 V2000
  -15.7800  -24.1120  -17.4970 N   0  3  0  0  0
  -15.8380  -22.9570  -18.4310 C   0  0  0  0  0
  -14.5510  -22.1420  -18.3820 C   0  0  0  0  0
  -13.7420  -22.1900  -19.3080 O   0  0  0  0  0
  -17.0320  -22.0810  -18.0500 C   0  0  0  0  0
  -18.2000  -22.4730  -18.7520 O   0  0  0  0  0
  -14.3690  -21.3970  -17.2920 N   0  0  0  0  0
  -13.1820  -20.5610  -17.1020 C   0  0  0  0  0
  -12.8290  -19.7840  -18.3710 C   0  0  0  0  0
  -13.5760  -19.8000  -19.3510 O   0  0  0  0  0
  -11.9830  -21.4070  -16.6390 C   0  0  0  0  0
  -11.7180  -22.6930  -17.4310 C   0  0  0  0  0
  -11.0600  -22.3820  -18.7680 C   0  0  0  0  0
  -10.8450  -23.6380  -16.6170 C   0  0  0  0  0
  -11.6940  -19.0940  -18.3440 N   0  0  0  0  0
  -11.2490  -18.3070  -19.4890 C   0  0  0  0  0
   -9.7330  -18.1450  -19.4810 C   0  0  0  0  0
   -9.2110  -17.0760  -19.7980 O   0  0  0  0  0
  -11.9220  -16.9340  -19.4830 C   0  0  0  0  0
  -11.9140  -16.2460  -20.8390 C   0  0  0  0  0
  -12.9470  -16.8190  -21.7890 C   0  0  0  0  0
  -12.5590  -17.5830  -22.6970 O   0  0  0  0  0
  -14.1450  -16.5030  -21.6250 O   0  0  0  0  0
   -9.0300  -19.2130  -19.1180 N   0  0  0  0  0
   -7.5730  -19.1900  -19.0690 C   0  0  0  0  0
   -6.9840  -18.8120  -20.4240 C   0  0  0  0  0
   -7.3270  -19.4000  -21.4480 O   0  0  0  0  0
   -7.0030  -20.5540  -18.6390 C   0  0  0  0  0
   -5.5030  -20.4550  -18.4030 C   0  0  0  0  0
   -7.7140  -21.0600  -17.3930 C   0  0  0  0  0
   -6.0930  -17.8260  -20.4190 N   0  0  0  0  0
   -5.4540  -17.3690  -21.6470 C   0  0  0  0  0
   -4.4920  -16.1890  -21.3810 C   0  0  0  0  0
   -3.8120  -15.7410  -22.6680 C   0  0  0  0  0
   -5.1960  -15.1070  -20.8250 O   0  0  0  0  0
   -5.3080  -14.9870  -19.2670 P   0  0  0  0  0
   -6.7630  -15.4190  -18.9460 O   0  0  0  0  0
   -4.3300  -16.0490  -18.6990 O   0  0  0  0  0
   -4.9980  -13.6070  -18.7710 O   0  0  0  0  0
   -4.6820  -18.5070  -22.3100 C   0  0  0  0  0
   -3.7880  -19.0980  -21.7050 O   0  0  0  0  0
   -5.0380  -18.8100  -23.5540 N   0  0  0  0  0
   -4.3820  -19.8800  -24.3000 C   0  0  0  0  0
   -2.8730  -19.6650  -24.3550 C   0  0  0  0  0
   -2.3830  -18.8270  -25.1120 O   0  0  0  0  0
   -4.9500  -19.9620  -25.7180 C   0  0  0  0  0
   -5.0700  -21.3830  -26.2440 C   0  0  0  0  0
   -5.6520  -21.4390  -27.6430 C   0  0  0  0  0
   -5.4640  -22.4680  -28.3250 O   0  0  0  0  0
   -6.2970  -20.4520  -28.0580 O   0  0  0  0  0
   -2.1400  -20.4260  -23.5480 N   0  0  0  0  0
   -0.6870  -20.3190  -23.5040 C   0  0  0  0  0
   -0.0270  -21.6270  -23.9280 C   0  0  0  0  0
   -0.4230  -22.7060  -23.4860 O   0  0  0  0  0
   -0.2290  -19.9230  -22.1080 C   0  0  0  0  0
    0.9810  -21.5240  -24.7890 N   0  0  0  0  0
    1.6960  -22.6990  -25.2720 C   0  0  0  0  0
    2.3570  -23.4470  -24.1190 C   0  0  0  0  0
    2.5050  -22.9090  -23.0210 O   0  0  0  0  0
    2.7520  -22.2910  -26.3010 C   0  0  0  0  0
    2.1380  -21.7370  -27.5710 C   0  0  0  0  0
    2.8520  -21.0370  -28.3200 O   0  0  0  0  0
    0.9430  -22.0040  -27.8190 O   0  0  0  0  0
    2.7500  -24.6900  -24.3740 N   0  0  0  0  0
    3.3950  -25.5120  -23.3570 C   0  0  0  0  0
    4.6930  -26.1180  -23.8810 C   0  0  0  0  0
    4.9370  -27.3150  -23.7350 O   0  0  0  0  0
    2.4500  -26.6070  -22.8870 C   0  0  0  0  0
    5.5240  -25.2790  -24.4940 N   0  0  0  0  0
    6.7990  -25.7300  -25.0410 C   0  0  0  0  0
    7.9580  -25.2890  -24.1520 C   0  0  0  0  0
    8.9550  -24.7510  -24.6350 O   0  0  0  0  0
    6.9890  -25.1880  -26.4590 C   0  0  0  0  0
    7.1640  -23.7830  -26.4380 O   0  0  0  0  0
    5.8270  -25.4930  -27.3770 C   0  0  0  0  0
    7.8210  -25.5300  -22.8480 N   0  0  0  0  0
    8.8450  -25.1720  -21.8770 C   0  0  0  0  0
    9.4490  -23.7980  -22.1690 C   0  0  0  0  0
   10.6640  -23.6130  -22.1030 O   0  0  0  0  0
    9.9280  -26.2510  -21.8480 C   0  0  0  0  0
   10.9690  -26.1370  -22.9820 C   0  0  0  0  0
   12.3560  -25.8190  -22.9880 C   0  0  0  0  0
   11.7250  -27.2110  -23.4020 C   0  0  0  0  0
    8.5830  -22.8390  -22.4870 N   0  0  0  0  0
    9.0050  -21.4710  -22.7890 C   0  0  0  0  0
   10.2730  -21.4430  -23.6410 C   0  0  0  0  0
   11.3650  -21.1770  -23.1390 O   0  0  0  0  0
    9.2430  -20.6510  -21.5030 C   0  0  0  0  0
    7.9180  -20.2690  -20.8620 C   0  0  0  0  0
   10.1130  -21.4230  -20.5220 C   0  0  0  0  0
   10.1180  -21.7210  -24.9310 N   0  0  0  0  0
   11.2490  -21.7280  -25.8530 C   0  0  0  0  0
   11.6270  -20.3080  -26.2600 C   0  0  0  0  0
   10.7250  -19.5540  -26.6810 O   0  0  0  0  0
   10.9160  -22.5570  -27.0950 C   0  0  0  0  0
   11.1250  -24.0500  -26.9030 C   0  0  0  0  0
   10.4340  -24.8770  -27.9700 C   0  0  0  0  0
    9.9790  -24.3470  -28.9840 O   0  0  0  0  0
   10.3500  -26.1820  -27.7450 N   0  0  0  0  0
   12.8220  -19.9620  -26.1550 O   0  0  0  0  0
  -14.9868  -24.7052  -17.7405 H   0  0  0  0  0
  -15.6702  -23.7704  -16.5422 H   0  0  0  0  0
  -16.6434  -24.6501  -17.5696 H   0  0  0  0  0
  -15.9529  -23.3273  -19.4497 H   0  0  0  0  0
  -16.8015  -21.0473  -18.3077 H   0  0  0  0  0
  -17.2158  -22.1889  -16.9810 H   0  0  0  0  0
  -18.9318  -21.9078  -18.4941 H   0  0  0  0  0
  -15.0828  -21.4097  -16.5634 H   0  0  0  0  0
  -13.4179  -19.8362  -16.3228 H   0  0  0  0  0
  -12.2051  -21.7178  -15.6181 H   0  0  0  0  0
  -11.0999  -20.7813  -16.7689 H   0  0  0  0  0
  -12.6740  -23.1776  -17.6294 H   0  0  0  0  0
  -11.7164  -21.7382  -19.3535 H   0  0  0  0  0
  -10.1110  -21.8745  -18.5951 H   0  0  0  0  0
  -10.8831  -23.3114  -19.3094 H   0  0  0  0  0
   -9.8951  -23.1520  -16.3944 H   0  0  0  0  0
  -11.3532  -23.8888  -15.6859 H   0  0  0  0  0
  -10.6638  -24.5474  -17.1899 H   0  0  0  0  0
  -11.1193  -19.1150  -17.5016 H   0  0  0  0  0
  -11.5339  -18.8385  -20.3970 H   0  0  0  0  0
  -11.3659  -16.3005  -18.7919 H   0  0  0  0  0
  -12.9636  -17.0819  -19.1978 H   0  0  0  0  0
  -10.9301  -16.3935  -21.2844 H   0  0  0  0  0
  -12.1494  -15.1933  -20.6826 H   0  0  0  0  0
  -14.2184  -15.9099  -20.8737 H   0  0  0  0  0
   -9.5223  -20.0704  -18.8673 H   0  0  0  0  0
   -7.2939  -18.4386  -18.3303 H   0  0  0  0  0
   -7.1744  -21.2696  -19.4431 H   0  0  0  0  0
   -5.0117  -20.1398  -19.3235 H   0  0  0  0  0
   -5.3075  -19.7255  -17.6171 H   0  0  0  0  0
   -5.1191  -21.4291  -18.0999 H   0  0  0  0  0
   -7.5748  -20.3458  -16.5815 H   0  0  0  0  0
   -8.7779  -21.1705  -17.6029 H   0  0  0  0  0
   -7.2970  -22.0250  -17.1049 H   0  0  0  0  0
   -5.8505  -17.3784  -19.5351 H   0  0  0  0  0
   -6.2467  -17.0295  -22.3137 H   0  0  0  0  0
   -3.7289  -16.5278  -20.6802 H   0  0  0  0  0
   -3.2419  -16.5715  -23.0843 H   0  0  0  0  0
   -4.5684  -15.4222  -23.3851 H   0  0  0  0  0
   -3.1407  -14.9097  -22.4524 H   0  0  0  0  0
   -6.9138  -16.3057  -19.2817 H   0  0  0  0  0
   -4.5649  -16.9144  -19.0417 H   0  0  0  0  0
   -5.7885  -18.2817  -23.9989 H   0  0  0  0  0
   -4.5753  -20.8195  -23.7822 H   0  0  0  0  0
   -4.2654  -19.4267  -26.3758 H   0  0  0  0  0
   -5.9533  -19.5367  -25.6933 H   0  0  0  0  0
   -5.7384  -21.9313  -25.5802 H   0  0  0  0  0
   -4.0692  -21.8135  -26.2793 H   0  0  0  0  0
   -6.3191  -19.7761  -27.3766 H   0  0  0  0  0
   -2.6067  -21.1024  -22.9438 H   0  0  0  0  0
   -0.3830  -19.5442  -24.2078 H   0  0  0  0  0
   -0.6656  -18.9600  -21.8433 H   0  0  0  0  0
   -0.5527  -20.6791  -21.3927 H   0  0  0  0  0
    0.8582  -19.8473  -22.0915 H   0  0  0  0  0
    1.2607  -20.6005  -25.1195 H   0  0  0  0  0
    0.9733  -23.3636  -25.7454 H   0  0  0  0  0
    3.3271  -23.1788  -26.5640 H   0  0  0  0  0
    3.3709  -21.5109  -25.8577 H   0  0  0  0  0
    0.5861  -22.5518  -27.1160 H   0  0  0  0  0
    2.5968  -25.0791  -25.3043 H   0  0  0  0  0
    3.6412  -24.8715  -22.5101 H   0  0  0  0  0
    1.5533  -26.1543  -22.4638 H   0  0  0  0  0
    2.1759  -27.2366  -23.7335 H   0  0  0  0  0
    2.9459  -27.2121  -22.1280 H   0  0  0  0  0
    5.2634  -24.2969  -24.5836 H   0  0  0  0  0
    6.7878  -26.8194  -25.0762 H   0  0  0  0  0
    7.8758  -25.6909  -26.8447 H   0  0  0  0  0
    7.2814  -23.4628  -27.3354 H   0  0  0  0  0
    5.6988  -26.5728  -27.4522 H   0  0  0  0  0
    4.9191  -25.0453  -26.9728 H   0  0  0  0  0
    6.0284  -25.0800  -28.3654 H   0  0  0  0  0
    6.9678  -25.9816  -22.5186 H   0  0  0  0  0
    8.3767  -25.1100  -20.8947 H   0  0  0  0  0
    9.4270  -27.2115  -21.9680 H   0  0  0  0  0
   10.4660  -26.1401  -20.9065 H   0  0  0  0  0
   10.1570  -25.5348  -23.3895 H   0  0  0  0  0
   12.5005  -24.8212  -22.5737 H   0  0  0  0  0
   12.8969  -26.5468  -22.3832 H   0  0  0  0  0
   12.7293  -25.8462  -24.0117 H   0  0  0  0  0
   12.2835  -26.9332  -24.2959 H   0  0  0  0  0
   12.4197  -27.4958  -22.6119 H   0  0  0  0  0
   11.0673  -28.0500  -23.6291 H   0  0  0  0  0
    7.5891  -23.0658  -22.5215 H   0  0  0  0  0
    8.1896  -21.0192  -23.3538 H   0  0  0  0  0
    9.7702  -19.7362  -21.7739 H   0  0  0  0  0
    7.3365  -19.6695  -21.5624 H   0  0  0  0  0
    7.3643  -21.1731  -20.6088 H   0  0  0  0  0
    8.1068  -19.6915  -19.9570 H   0  0  0  0  0
    9.6181  -22.3573  -20.2568 H   0  0  0  0  0
   11.0761  -21.6391  -20.9845 H   0  0  0  0  0
   10.2659  -20.8238  -19.6244 H   0  0  0  0  0
    9.1857  -21.9347  -25.2854 H   0  0  0  0  0
   12.1001  -22.1785  -25.3424 H   0  0  0  0  0
    9.8884  -20.0248  -26.6776 H   0  0  0  0  0
   11.5840  -22.2332  -27.8932 H   0  0  0  0  0
    9.8609  -22.4006  -27.3194 H   0  0  0  0  0
   10.7017  -24.3267  -25.9374 H   0  0  0  0  0
   12.1948  -24.2497  -26.9640 H   0  0  0  0  0
    9.8942  -26.7887  -28.4265 H   0  0  0  0  0
   10.7413  -26.5784  -26.8905 H   0  0  0  0  0
  2  1  1  0  0  0
 81 82  1  0  0  0
  3  2  1  0  0  0
  2  5  1  0  0  0
  3  4  2  0  0  0
  7  3  1  0  0  0
  5  6  1  0  0  0
  8  7  1  0  0  0
  9  8  1  0  0  0
  8 11  1  0  0  0
  9 10  2  0  0  0
 15  9  1  0  0  0
 11 12  1  0  0  0
 12 13  1  0  0  0
 12 14  1  0  0  0
 16 15  1  0  0  0
 17 16  1  0  0  0
 16 19  1  0  0  0
 17 18  2  0  0  0
 24 17  1  0  0  0
 19 20  1  0  0  0
 20 21  1  0  0  0
 21 22  2  0  0  0
 21 23  1  0  0  0
 25 24  1  0  0  0
 26 25  1  0  0  0
 25 28  1  0  0  0
 26 27  2  0  0  0
 31 26  1  0  0  0
 28 29  1  0  0  0
 28 30  1  0  0  0
 32 31  1  0  0  0
 32 33  1  0  0  0
 40 32  1  0  0  0
 33 34  1  0  0  0
 33 35  1  0  0  0
 35 36  1  0  0  0
 36 37  1  0  0  0
 36 38  1  0  0  0
 36 39  2  0  0  0
 40 41  2  0  0  0
 42 40  1  0  0  0
 43 42  1  0  0  0
 44 43  1  0  0  0
 43 46  1  0  0  0
 44 45  2  0  0  0
 51 44  1  0  0  0
 46 47  1  0  0  0
 47 48  1  0  0  0
 48 49  2  0  0  0
 48 50  1  0  0  0
 52 51  1  0  0  0
 53 52  1  0  0  0
 52 55  1  0  0  0
 53 54  2  0  0  0
 56 53  1  0  0  0
 57 56  1  0  0  0
 58 57  1  0  0  0
 57 60  1  0  0  0
 58 59  2  0  0  0
 64 58  1  0  0  0
 60 61  1  0  0  0
 61 62  2  0  0  0
 61 63  1  0  0  0
 65 64  1  0  0  0
 66 65  1  0  0  0
 65 68  1  0  0  0
 66 67  2  0  0  0
 69 66  1  0  0  0
 70 69  1  0  0  0
 71 70  1  0  0  0
 70 73  1  0  0  0
 71 72  2  0  0  0
 76 71  1  0  0  0
 73 74  1  0  0  0
 73 75  1  0  0  0
 77 76  1  0  0  0
 77 78  1  0  0  0
 80 77  1  0  0  0
 78 79  2  0  0  0
 78 84  1  0  0  0
 81 80  1  0  0  0
 81 83  1  0  0  0
 84 85  1  0  0  0
 85 86  1  0  0  0
 85 88  1  0  0  0
 86 87  2  0  0  0
 86 91  1  0  0  0
 88 89  1  0  0  0
 88 90  1  0  0  0
 91 92  1  0  0  0
 92 93  1  0  0  0
 92 95  1  0  0  0
 93 94  1  0  0  0
 93100  2  0  0  0
 95 96  1  0  0  0
 96 97  1  0  0  0
 97 98  2  0  0  0
 97 99  1  0  0  0
  1101  1  0  0  0
  1102  1  0  0  0
  1103  1  0  0  0
  2104  1  0  0  0
  5105  1  0  0  0
  5106  1  0  0  0
  6107  1  0  0  0
  7108  1  0  0  0
  8109  1  0  0  0
 11110  1  0  0  0
 11111  1  0  0  0
 12112  1  0  0  0
 13113  1  0  0  0
 13114  1  0  0  0
 13115  1  0  0  0
 14116  1  0  0  0
 14117  1  0  0  0
 14118  1  0  0  0
 15119  1  0  0  0
 16120  1  0  0  0
 19121  1  0  0  0
 19122  1  0  0  0
 20123  1  0  0  0
 20124  1  0  0  0
 23125  1  0  0  0
 24126  1  0  0  0
 25127  1  0  0  0
 28128  1  0  0  0
 29129  1  0  0  0
 29130  1  0  0  0
 29131  1  0  0  0
 30132  1  0  0  0
 30133  1  0  0  0
 30134  1  0  0  0
 31135  1  0  0  0
 32136  1  0  0  0
 33137  1  0  0  0
 34138  1  0  0  0
 34139  1  0  0  0
 34140  1  0  0  0
 37141  1  0  0  0
 38142  1  0  0  0
 42143  1  0  0  0
 43144  1  0  0  0
 46145  1  0  0  0
 46146  1  0  0  0
 47147  1  0  0  0
 47148  1  0  0  0
 50149  1  0  0  0
 51150  1  0  0  0
 52151  1  0  0  0
 55152  1  0  0  0
 55153  1  0  0  0
 55154  1  0  0  0
 56155  1  0  0  0
 57156  1  0  0  0
 60157  1  0  0  0
 60158  1  0  0  0
 63159  1  0  0  0
 64160  1  0  0  0
 65161  1  0  0  0
 68162  1  0  0  0
 68163  1  0  0  0
 68164  1  0  0  0
 69165  1  0  0  0
 70166  1  0  0  0
 73167  1  0  0  0
 74168  1  0  0  0
 75169  1  0  0  0
 75170  1  0  0  0
 75171  1  0  0  0
 76172  1  0  0  0
 77173  1  0  0  0
 80174  1  0  0  0
 80175  1  0  0  0
 81176  1  0  0  0
 82177  1  0  0  0
 82178  1  0  0  0
 82179  1  0  0  0
 83180  1  0  0  0
 83181  1  0  0  0
 83182  1  0  0  0
 84183  1  0  0  0
 85184  1  0  0  0
 88185  1  0  0  0
 89186  1  0  0  0
 89187  1  0  0  0
 89188  1  0  0  0
 90189  1  0  0  0
 90190  1  0  0  0
 90191  1  0  0  0
 91192  1  0  0  0
 92193  1  0  0  0
 94194  1  0  0  0
 95195  1  0  0  0
 95196  1  0  0  0
 96197  1  0  0  0
 96198  1  0  0  0
 99199  1  0  0  0
 99200  1  0  0  0
M  END
$$$$
