1tvr_ligand
  -I-interpret- 

 42 44  0  0  0  0  0  0  0  0999 V2000
  141.5670  -25.8320   71.0180 N   0  0  0  0  0
  142.1760  -26.1780   72.2290 C   0  0  0  0  0
  142.3710  -24.8230   70.3680 C   0  0  0  0  0
  141.9880  -24.1100   68.7930 S   0  0  0  0  0
  143.5290  -24.5470   71.2420 N   0  0  0  0  0
  143.3280  -25.4150   72.3500 C   0  0  0  0  0
  144.6870  -23.7730   70.8230 C   0  0  0  0  0
  145.3230  -22.8190   71.8420 C   0  0  0  0  0
  145.6460  -23.2790   73.2100 N   0  3  0  0  0
  145.5880  -24.7070   73.5000 C   0  0  0  0  0
  144.2390  -25.4430   73.4600 C   0  0  0  0  0
  143.8930  -26.3640   74.5280 C   0  0  0  0  0
  142.2520  -28.4010   75.5860 Cl  0  0  0  0  0
  142.6630  -27.1740   74.3960 C   0  0  0  0  0
  141.8300  -27.0560   73.2350 C   0  0  0  0  0
  146.6520  -22.5360   71.1970 C   0  0  0  0  0
  145.7910  -22.2900   74.2910 C   0  0  0  0  0
  144.5000  -22.2350   74.9610 C   0  0  0  0  0
  144.1880  -21.7880   76.1850 C   0  0  0  0  0
  142.6440  -21.8990   76.3480 C   0  0  0  0  0
  145.3540  -21.2580   77.0590 C   0  0  0  0  0
  140.6995  -26.2266   70.6544 H   0  0  0  0  0
  144.3312  -23.1358   70.0134 H   0  0  0  0  0
  145.4587  -24.5081   70.5945 H   0  0  0  0  0
  144.5937  -22.0288   72.0204 H   0  0  0  0  0
  146.6644  -23.3016   73.1583 H   0  0  0  0  0
  145.9132  -24.7887   74.5371 H   0  0  0  0  0
  146.1760  -25.1708   72.7080 H   0  0  0  0  0
  144.5274  -26.4564   75.4095 H   0  0  0  0  0
  140.9258  -27.6584   73.1476 H   0  0  0  0  0
  147.1741  -21.7668   71.7660 H   0  0  0  0  0
  147.2492  -23.4478   71.1831 H   0  0  0  0  0
  146.4924  -22.1891   70.1761 H   0  0  0  0  0
  146.0731  -21.3135   73.8972 H   0  0  0  0  0
  146.5830  -22.5755   74.9833 H   0  0  0  0  0
  143.6602  -22.6148   74.3791 H   0  0  0  0  0
  142.1549  -21.2926   75.5856 H   0  0  0  0  0
  142.3419  -22.9402   76.2350 H   0  0  0  0  0
  142.3577  -21.5416   77.3372 H   0  0  0  0  0
  146.0816  -22.0547   77.2138 H   0  0  0  0  0
  145.8334  -20.4197   76.5535 H   0  0  0  0  0
  144.9639  -20.9283   78.0219 H   0  0  0  0  0
  1  2  1  0  0  0
  1  3  1  0  0  0
  2  6  4  0  0  0
  2 15  4  0  0  0
  3  4  2  0  0  0
  3  5  1  0  0  0
  5  6  1  0  0  0
  5  7  1  0  0  0
  6 11  4  0  0  0
  7  8  1  0  0  0
  8  9  1  0  0  0
  8 16  1  0  0  0
  9 10  1  0  0  0
  9 17  1  0  0  0
 10 11  1  0  0  0
 11 12  4  0  0  0
 12 14  4  0  0  0
 14 13  1  0  0  0
 14 15  4  0  0  0
 17 18  1  0  0  0
 18 19  2  0  0  0
 19 20  1  0  0  0
 19 21  1  0  0  0
  1 22  1  0  0  0
  7 23  1  0  0  0
  7 24  1  0  0  0
  8 25  1  0  0  0
  9 26  1  0  0  0
 10 27  1  0  0  0
 10 28  1  0  0  0
 12 29  1  0  0  0
 15 30  1  0  0  0
 16 31  1  0  0  0
 16 32  1  0  0  0
 16 33  1  0  0  0
 17 34  1  0  0  0
 17 35  1  0  0  0
 18 36  1  0  0  0
 20 37  1  0  0  0
 20 38  1  0  0  0
 20 39  1  0  0  0
 21 40  1  0  0  0
 21 41  1  0  0  0
 21 42  1  0  0  0
M  END
$$$$
