4loo_ligand
  -I-interpret- 

 45 48  0  0  0  0  0  0  0  0999 V2000
   23.0370  -20.8010   27.2090 C   0  0  0  0  0
   23.6910  -20.8480   25.8680 C   0  0  0  0  0
   22.8030  -20.1890   24.9040 N   0  3  0  0  0
   21.4880  -20.7580   24.7150 C   0  0  0  0  0
   20.8280  -20.6120   26.0840 C   0  0  0  0  0
   21.6040  -21.3770   27.1080 C   0  0  0  0  0
   20.8000  -22.7180   32.5220 C   0  0  0  0  0
   20.4530  -23.1400   33.7810 C   0  0  0  0  0
   19.1580  -22.8390   34.1860 C   0  0  0  0  0
   18.3490  -22.0970   33.3870 C   0  0  0  0  0
   18.7230  -21.6040   32.1600 C   0  0  0  0  0
   20.0220  -21.8990   31.7140 C   0  0  0  0  0
   18.7260  -23.3470   35.3320 F   0  0  0  0  0
   20.3980  -24.3440   29.6810 C   0  0  0  0  0
   21.2720  -23.3910   29.2160 C   0  0  0  0  0
   22.4510  -23.8180   28.5540 N   0  0  0  0  0
   22.7050  -25.1130   28.3330 C   0  0  0  0  0
   21.8810  -26.0280   28.8270 N   0  0  0  0  0
   20.6580  -25.6770   29.4900 C   0  0  0  0  0
   23.8150  -25.4990   27.6870 N   0  0  0  0  0
   21.0640  -21.1690   28.4290 N   0  0  0  0  0
   20.6100  -19.9850   28.8970 C   0  0  0  0  0
   20.1570  -20.1610   30.1480 N   0  0  0  0  0
   20.4200  -21.4280   30.5040 C   0  0  0  0  0
   20.9370  -22.0740   29.4060 C   0  0  0  0  0
   22.9887  -19.7677   27.5525 H   0  0  0  0  0
   23.6169  -21.3944   27.9159 H   0  0  0  0  0
   23.8657  -21.8822   25.5715 H   0  0  0  0  0
   24.6536  -20.3377   25.9016 H   0  0  0  0  0
   23.2699  -20.2682   24.0006 H   0  0  0  0  0
   22.6468  -19.2500   25.2705 H   0  0  0  0  0
   21.5284  -21.7952   24.3822 H   0  0  0  0  0
   20.9270  -20.2542   23.9279 H   0  0  0  0  0
   19.8120  -21.0038   26.0366 H   0  0  0  0  0
   20.8072  -19.5583   26.3623 H   0  0  0  0  0
   21.5709  -22.4238   26.8061 H   0  0  0  0  0
   21.7594  -23.0510   32.1260 H   0  0  0  0  0
   21.1500  -23.6780   34.4236 H   0  0  0  0  0
   17.3412  -21.8790   33.7404 H   0  0  0  0  0
   18.0387  -21.0076   31.5566 H   0  0  0  0  0
   19.4923  -24.0386   30.2050 H   0  0  0  0  0
   19.9604  -26.4425   29.8298 H   0  0  0  0  0
   24.4811  -24.8011   27.3557 H   0  0  0  0  0
   23.9932  -26.4905   27.5269 H   0  0  0  0  0
   20.6115  -19.0428   28.3489 H   0  0  0  0  0
  1  2  1  0  0  0
  6  1  1  0  0  0
  2  3  1  0  0  0
  4  3  1  0  0  0
  5  4  1  0  0  0
  6  5  1  0  0  0
 21  6  1  0  0  0
  7  8  4  0  0  0
 12  7  4  0  0  0
  8  9  4  0  0  0
 10  9  4  0  0  0
  9 13  1  0  0  0
 11 10  4  0  0  0
 12 11  4  0  0  0
 24 12  1  0  0  0
 15 14  4  0  0  0
 14 19  4  0  0  0
 15 16  4  0  0  0
 25 15  1  0  0  0
 16 17  4  0  0  0
 17 18  4  0  0  0
 17 20  1  0  0  0
 19 18  4  0  0  0
 22 21  4  0  0  0
 21 25  4  0  0  0
 23 22  4  0  0  0
 23 24  4  0  0  0
 24 25  4  0  0  0
  1 26  1  0  0  0
  1 27  1  0  0  0
  2 28  1  0  0  0
  2 29  1  0  0  0
  3 30  1  0  0  0
  3 31  1  0  0  0
  4 32  1  0  0  0
  4 33  1  0  0  0
  5 34  1  0  0  0
  5 35  1  0  0  0
  6 36  1  0  0  0
  7 37  1  0  0  0
  8 38  1  0  0  0
 10 39  1  0  0  0
 11 40  1  0  0  0
 14 41  1  0  0  0
 19 42  1  0  0  0
 20 43  1  0  0  0
 20 44  1  0  0  0
 22 45  1  0  0  0
M  END
$$$$
