4wop_ligand
  -I-interpret- 

 45 46  0  0  0  0  0  0  0  0999 V2000
   14.1930   36.7950  -24.3360 N   0  0  0  0  0
   12.9200   37.3140  -24.4510 C   0  0  0  0  0
   11.8310   36.5280  -24.1490 N   0  0  0  0  0
   11.9800   35.1580  -24.1690 C   0  0  0  0  0
   13.2530   34.6080  -24.3110 C   0  0  0  0  0
   14.3640   35.4410  -24.3540 C   0  0  0  0  0
   12.7670   38.4750  -24.8270 O   0  0  0  0  0
   10.9100   34.3740  -24.0510 N   0  0  0  0  0
   15.3450   37.7040  -24.5430 C   0  0  0  0  0
   16.0110   38.0300  -23.2150 C   0  0  0  0  0
   15.5620   39.2410  -22.6630 O   0  0  0  0  0
   17.4890   38.0760  -23.5410 C   0  0  0  0  0
   17.6130   37.2060  -24.7840 C   0  0  0  0  0
   16.3270   37.0960  -25.3630 O   0  0  0  0  0
   17.9230   39.3970  -23.7910 O   0  0  0  0  0
   18.1120   35.8030  -24.4400 C   0  0  0  0  0
   17.5840   35.4210  -23.1790 O   0  0  0  0  0
   18.5380   35.0270  -21.9390 P   0  0  0  0  0
   19.3180   36.2080  -21.4070 O   0  0  0  0  0
   17.6850   34.4200  -20.8560 O   0  0  0  0  0
   19.5540   34.0040  -22.6520 O   0  0  0  0  0
   20.4840   33.0260  -21.7980 P   0  0  0  0  0
   20.2000   31.6090  -22.2580 O   0  0  0  0  0
   20.1670   33.2330  -20.3340 O   0  0  0  0  0
   22.0080   33.4610  -22.1760 O   0  0  0  0  0
   23.2580   33.5420  -21.1440 P   0  0  0  0  0
   24.1200   34.7150  -21.5330 O   0  0  0  0  0
   24.1130   32.2980  -21.2300 O   0  0  0  0  0
   22.7730   33.7810  -19.7240 O   0  0  0  0  0
   10.9326   36.9507  -23.9153 H   0  0  0  0  0
   13.3763   33.5277  -24.3881 H   0  0  0  0  0
   15.3665   35.0157  -24.4018 H   0  0  0  0  0
   11.0170   33.3597  -24.0640 H   0  0  0  0  0
   14.9593   38.6071  -25.0161 H   0  0  0  0  0
   15.7718   37.2875  -22.4537 H   0  0  0  0  0
   16.0121   39.3979  -21.8297 H   0  0  0  0  0
   18.1104   37.7236  -22.7178 H   0  0  0  0  0
   18.3294   37.6637  -25.4662 H   0  0  0  0  0
   18.8613   39.3914  -23.9939 H   0  0  0  0  0
   19.2012   35.8002  -24.3985 H   0  0  0  0  0
   17.7841   35.0986  -25.2044 H   0  0  0  0  0
   19.8540   36.5796  -22.1114 H   0  0  0  0  0
   20.4159   31.5269  -23.1898 H   0  0  0  0  0
   23.5875   31.5324  -20.9866 H   0  0  0  0  0
   22.2193   33.0468  -19.4483 H   0  0  0  0  0
  1  2  1  0  0  0
  1  6  1  0  0  0
  1  9  1  0  0  0
  2  3  1  0  0  0
  2  7  2  0  0  0
  3  4  1  0  0  0
  4  5  1  0  0  0
  4  8  2  0  0  0
  5  6  2  0  0  0
  9 10  1  0  0  0
  9 14  1  0  0  0
 10 11  1  0  0  0
 10 12  1  0  0  0
 12 13  1  0  0  0
 12 15  1  0  0  0
 13 14  1  0  0  0
 13 16  1  0  0  0
 16 17  1  0  0  0
 17 18  1  0  0  0
 18 19  1  0  0  0
 18 20  2  0  0  0
 18 21  1  0  0  0
 21 22  1  0  0  0
 22 23  1  0  0  0
 22 24  2  0  0  0
 22 25  1  0  0  0
 25 26  1  0  0  0
 26 27  2  0  0  0
 26 28  1  0  0  0
 26 29  1  0  0  0
  3 30  1  0  0  0
  5 31  1  0  0  0
  6 32  1  0  0  0
  8 33  1  0  0  0
  9 34  1  0  0  0
 10 35  1  0  0  0
 11 36  1  0  0  0
 12 37  1  0  0  0
 13 38  1  0  0  0
 15 39  1  0  0  0
 16 40  1  0  0  0
 16 41  1  0  0  0
 19 42  1  0  0  0
 23 43  1  0  0  0
 28 44  1  0  0  0
 29 45  1  0  0  0
M  END
$$$$
