8abp_ligand
  -I-interpret- 

 24 24  0  0  0  0  0  0  0  0999 V2000
   14.3120   56.8460   55.1160 C   0  0  0  0  0
   12.8730   57.1400   54.7490 C   0  0  0  0  0
   12.3730   56.2560   53.6260 C   0  0  0  0  0
   13.3340   56.3640   52.4010 C   0  0  0  0  0
   14.7350   56.0540   52.8460 C   0  0  0  0  0
   15.6850   56.3570   51.6840 C   0  0  0  0  0
   14.4010   55.5650   55.6850 O   0  0  0  0  0
   12.0230   56.9890   55.9270 O   0  0  0  0  0
   11.0680   56.6300   53.2440 O   0  0  0  0  0
   13.1840   57.6940   51.7930 O   0  0  0  0  0
   15.1350   56.8820   53.9220 O   0  0  0  0  0
   16.8900   55.7810   52.0740 O   0  0  0  0  0
   14.6574   57.5944   55.8292 H   0  0  0  0  0
   12.8283   58.1684   54.3904 H   0  0  0  0  0
   12.3499   55.2249   53.9787 H   0  0  0  0  0
   13.0855   55.6361   51.6287 H   0  0  0  0  0
   14.7662   55.0099   53.1573 H   0  0  0  0  0
   15.7803   57.4266   51.4969 H   0  0  0  0  0
   15.3220   55.9543   50.7384 H   0  0  0  0  0
   13.8595   55.5295   56.4769 H   0  0  0  0  0
   12.3502   57.5539   56.6309 H   0  0  0  0  0
   10.4821   56.5615   54.0014 H   0  0  0  0  0
   12.2690   57.8246   51.5334 H   0  0  0  0  0
   17.5491   55.9275   51.3915 H   0  0  0  0  0
  1  2  1  0  0  0
  1  7  1  0  0  0
  1 11  1  0  0  0
  2  3  1  0  0  0
  2  8  1  0  0  0
  3  4  1  0  0  0
  3  9  1  0  0  0
  4  5  1  0  0  0
  4 10  1  0  0  0
  5  6  1  0  0  0
  5 11  1  0  0  0
  6 12  1  0  0  0
  1 13  1  0  0  0
  2 14  1  0  0  0
  3 15  1  0  0  0
  4 16  1  0  0  0
  5 17  1  0  0  0
  6 18  1  0  0  0
  6 19  1  0  0  0
  7 20  1  0  0  0
  8 21  1  0  0  0
  9 22  1  0  0  0
 10 23  1  0  0  0
 12 24  1  0  0  0
M  END
$$$$
