4mm9_ligand
  -I-interpret- 

 47 47  0  0  0  0  0  0  0  0999 V2000
  189.5950  -22.0780   97.9380 C   0  0  0  0  0
  188.5590  -21.4020   98.5200 O   0  0  0  0  0
  188.2860  -20.0490   97.9390 C   0  0  0  0  0
  189.3820  -19.0330   98.4310 C   0  0  0  0  0
  189.6190  -17.7810   97.5020 C   0  0  0  0  0
  190.2900  -16.6000   98.2470 C   0  0  0  0  0
  189.4620  -16.2140   99.5300 C   0  0  0  0  0
  190.2250  -15.5610  100.5120 N   0  3  0  0  0
  189.3480  -15.2270  101.6200 O   0  0  0  0  0
  190.0320  -15.2870  102.8310 C   0  0  0  0  0
  191.4840  -15.7420  102.6330 C   0  0  0  0  0
  191.7090  -17.0670  103.1230 N   0  3  0  0  0
  188.1190  -15.6290   99.1500 C   0  0  0  0  0
  187.9160  -14.8750   97.9170 C   0  0  0  0  0
  186.6720  -14.4130   97.6140 C   0  0  0  0  0
  185.5720  -14.6670   98.4730 C   0  0  0  0  0
  185.7740  -15.4150   99.6640 C   0  0  0  0  0
  187.0370  -15.8890   99.9760 C   0  0  0  0  0
  184.2000  -14.1660   98.1330 C   0  0  0  0  0
  183.7400  -13.3170   99.0580 F   0  0  0  0  0
  184.2030  -13.5630   96.9430 F   0  0  0  0  0
  183.3180  -15.2110   98.0690 F   0  0  0  0  0
  189.3808  -22.2274   96.8798 H   0  0  0  0  0
  190.5117  -21.4984   98.0461 H   0  0  0  0  0
  189.7156  -23.0453   98.4257 H   0  0  0  0  0
  187.3032  -19.7070   98.2633 H   0  0  0  0  0
  188.3109  -20.1101   96.8510 H   0  0  0  0  0
  190.3233  -19.5820   98.4557 H   0  0  0  0  0
  189.0361  -18.6456   99.3893 H   0  0  0  0  0
  188.6469  -17.4414   97.1446 H   0  0  0  0  0
  190.2828  -18.0861   96.6931 H   0  0  0  0  0
  190.3313  -15.7387   97.5802 H   0  0  0  0  0
  191.2939  -16.8975   98.5501 H   0  0  0  0  0
  189.1915  -17.1176  100.0763 H   0  0  0  0  0
  190.6414  -14.7134  100.1265 H   0  0  0  0  0
  190.9788  -16.1690  100.8323 H   0  0  0  0  0
  189.5291  -16.0067  103.4769 H   0  0  0  0  0
  190.0390  -14.2911  103.2739 H   0  0  0  0  0
  192.1303  -15.0619  103.1878 H   0  0  0  0  0
  191.6977  -15.7358  101.5642 H   0  0  0  0  0
  192.6842  -17.3238  102.9698 H   0  0  0  0  0
  191.5004  -17.0992  104.1209 H   0  0  0  0  0
  191.1023  -17.7194  102.6264 H   0  0  0  0  0
  188.7527  -14.6836   97.2451 H   0  0  0  0  0
  186.5190  -13.8403   96.6993 H   0  0  0  0  0
  184.9357  -15.6154  100.3313 H   0  0  0  0  0
  187.1822  -16.4747  100.8837 H   0  0  0  0  0
  1  2  1  0  0  0
  2  3  1  0  0  0
  3  4  1  0  0  0
  4  5  1  0  0  0
  5  6  1  0  0  0
  6  7  1  0  0  0
  7  8  1  0  0  0
  7 13  1  0  0  0
  8  9  1  0  0  0
  9 10  1  0  0  0
 10 11  1  0  0  0
 11 12  1  0  0  0
 13 14  4  0  0  0
 13 18  4  0  0  0
 14 15  4  0  0  0
 15 16  4  0  0  0
 16 17  4  0  0  0
 16 19  1  0  0  0
 17 18  4  0  0  0
 19 20  1  0  0  0
 19 21  1  0  0  0
 19 22  1  0  0  0
  1 23  1  0  0  0
  1 24  1  0  0  0
  1 25  1  0  0  0
  3 26  1  0  0  0
  3 27  1  0  0  0
  4 28  1  0  0  0
  4 29  1  0  0  0
  5 30  1  0  0  0
  5 31  1  0  0  0
  6 32  1  0  0  0
  6 33  1  0  0  0
  7 34  1  0  0  0
  8 35  1  0  0  0
  8 36  1  0  0  0
 10 37  1  0  0  0
 10 38  1  0  0  0
 11 39  1  0  0  0
 11 40  1  0  0  0
 12 41  1  0  0  0
 12 42  1  0  0  0
 12 43  1  0  0  0
 14 44  1  0  0  0
 15 45  1  0  0  0
 17 46  1  0  0  0
 18 47  1  0  0  0
M  END
$$$$
