4mw7_ligand
  -I-interpret- 

 47 48  0  0  0  0  0  0  0  0999 V2000
   41.7820   17.4110   -7.0800 I   0  0  0  0  0
   40.7680   15.5620   -7.0500 C   0  0  0  0  0
   41.4680   14.3470   -7.1340 C   0  0  0  0  0
   42.8160   14.3330   -7.4330 O   0  0  0  0  0
   43.6930   14.5900   -6.3350 C   0  0  0  0  0
   45.0800   14.5490   -6.8470 C   0  0  0  0  0
   39.3940   15.5680   -6.8900 C   0  0  0  0  0
   38.7340   14.3620   -6.7930 C   0  0  0  0  0
   36.9960   14.3600   -6.6620 Cl  0  0  0  0  0
   39.4080   13.1570   -6.8310 C   0  0  0  0  0
   40.7930   13.1310   -6.9970 C   0  0  0  0  0
   41.5520   11.8250   -6.9890 C   0  0  0  0  0
   41.6480   11.1700   -8.2970 N   0  3  0  0  0
   42.9850   11.2590   -8.8930 C   0  0  0  0  0
   42.9740   11.1260  -10.4060 C   0  0  0  0  0
   43.9320   12.0430  -11.1330 C   0  0  0  0  0
   43.2910   12.7890  -12.2070 N   0  0  0  0  0
   43.9760   13.6310  -13.0010 C   0  0  0  0  0
   45.1880   13.5460  -13.1610 O   0  0  0  0  0
   43.2120   14.6000  -13.6420 N   0  0  0  0  0
   43.6660   15.6380  -14.5070 C   0  0  0  0  0
   42.7140   16.5970  -14.9780 C   0  0  0  0  0
   43.2290   17.5420  -15.7650 C   0  0  0  0  0
   44.9020   17.3050  -15.9610 S   0  0  0  0  0
   44.9160   15.9140  -14.9790 C   0  0  0  0  0
   43.5544   13.8405   -5.5558 H   0  0  0  0  0
   43.4786   15.5658   -5.8991 H   0  0  0  0  0
   45.2807   13.5649   -7.2705 H   0  0  0  0  0
   45.2041   15.3098   -7.6177 H   0  0  0  0  0
   45.7738   14.7423   -6.0288 H   0  0  0  0  0
   38.8442   16.5079   -6.8416 H   0  0  0  0  0
   38.8556   12.2227   -6.7309 H   0  0  0  0  0
   41.0108   11.1454   -6.3307 H   0  0  0  0  0
   42.5695   12.0492   -6.6689 H   0  0  0  0  0
   40.9978   11.6409   -8.9262 H   0  0  0  0  0
   41.4351   10.1815   -8.1633 H   0  0  0  0  0
   43.5808   10.4385   -8.4931 H   0  0  0  0  0
   43.3908   12.2411   -8.6501 H   0  0  0  0  0
   41.9703   11.3906  -10.7386 H   0  0  0  0  0
   43.2794   10.1050  -10.6352 H   0  0  0  0  0
   44.7148   11.4265  -11.5749 H   0  0  0  0  0
   44.3194   12.7621  -10.4112 H   0  0  0  0  0
   42.2900   12.6690  -12.3620 H   0  0  0  0  0
   42.2067   14.5637  -13.4731 H   0  0  0  0  0
   41.6568   16.5582  -14.7155 H   0  0  0  0  0
   42.6584   18.3523  -16.2189 H   0  0  0  0  0
   45.8047   15.3231  -14.7572 H   0  0  0  0  0
  1  2  1  0  0  0
  2  3  4  0  0  0
  2  7  4  0  0  0
  3  4  1  0  0  0
  3 11  4  0  0  0
  4  5  1  0  0  0
  5  6  1  0  0  0
  7  8  4  0  0  0
  8  9  1  0  0  0
  8 10  4  0  0  0
 10 11  4  0  0  0
 11 12  1  0  0  0
 12 13  1  0  0  0
 13 14  1  0  0  0
 14 15  1  0  0  0
 15 16  1  0  0  0
 16 17  1  0  0  0
 17 18  1  0  0  0
 18 19  2  0  0  0
 18 20  1  0  0  0
 20 21  1  0  0  0
 21 22  4  0  0  0
 21 25  4  0  0  0
 22 23  4  0  0  0
 23 24  4  0  0  0
 24 25  4  0  0  0
  5 26  1  0  0  0
  5 27  1  0  0  0
  6 28  1  0  0  0
  6 29  1  0  0  0
  6 30  1  0  0  0
  7 31  1  0  0  0
 10 32  1  0  0  0
 12 33  1  0  0  0
 12 34  1  0  0  0
 13 35  1  0  0  0
 13 36  1  0  0  0
 14 37  1  0  0  0
 14 38  1  0  0  0
 15 39  1  0  0  0
 15 40  1  0  0  0
 16 41  1  0  0  0
 16 42  1  0  0  0
 17 43  1  0  0  0
 20 44  1  0  0  0
 22 45  1  0  0  0
 23 46  1  0  0  0
 25 47  1  0  0  0
M  END
$$$$
