### 
### Created by X-TOOL on Mon Sep 10 21:13:16 2018
### 

@<TRIPOS>MOLECULE
4rrv_ligand
  142   144     1     0     0
SMALL
GAST_HUCK


@<TRIPOS>ATOM
      1 N         -13.0960   23.1860  -13.9170 N.4       1 MET         0.2379
      2 CA        -12.9930   22.8710  -12.5010 C.3       1 MET         0.0658
      3 C         -12.1340   21.6180  -12.3090 C.2       1 MET         0.2268
      4 O         -11.2090   21.3760  -13.0870 O.2       1 MET        -0.3907
      5 CB        -14.3880   22.6720  -11.9070 C.3       1 MET         0.0168
      6 CG        -15.1480   21.4780  -12.4700 C.3       1 MET         0.0007
      7 SD        -16.8380   21.8950  -12.9470 S.3       1 MET        -0.1638
      8 CE        -16.5260   23.0100  -14.3170 C.3       1 MET        -0.0181
      9 N         -12.4390   20.8320  -11.2750 N.am      1 PHE        -0.2592
     10 CA        -11.6510   19.6450  -10.9290 C.3       1 PHE         0.1406
     11 C         -10.2160   20.0250  -10.5500 C.2       1 PHE         0.2059
     12 O          -9.2990   19.2110  -10.6400 O.2       1 PHE        -0.3942
     13 CB        -11.6580   18.6220  -12.0730 C.3       1 PHE         0.0214
     14 CG        -13.0310   18.2650  -12.5570 C.ar      1 PHE        -0.0386
     15 CD1       -13.9030   17.5800  -11.7360 C.ar      1 PHE        -0.0601
     16 CD2       -13.4450   18.6050  -13.8310 C.ar      1 PHE        -0.0601
     17 CE1       -15.1630   17.2470  -12.1660 C.ar      1 PHE        -0.0686
     18 CE2       -14.7100   18.2740  -14.2720 C.ar      1 PHE        -0.0686
     19 CZ        -15.5690   17.5910  -13.4360 C.ar      1 PHE        -0.0687
     20 N         -10.0390   21.2640  -10.1030 N.am      1 ARG        -0.2639
     21 CA         -8.7190   21.7830   -9.7780 C.3       1 ARG         0.1282
     22 C          -8.1360   21.0890   -8.5520 C.2       1 ARG         0.2036
     23 O          -6.9210   20.9690   -8.4170 O.2       1 ARG        -0.3944
     24 CB         -8.7930   23.2940   -9.5370 C.3       1 ARG        -0.0244
     25 N          -9.0120   20.6290   -7.6650 N.am      1 ASP        -0.2640
     26 CA         -8.5930   20.0070   -6.4150 C.3       1 ASP         0.1282
     27 C          -8.8180   18.5050   -6.4700 C.2       1 ASP         0.2037
     28 O          -8.9810   17.8550   -5.4360 O.2       1 ASP        -0.3944
     29 CB         -9.3740   20.5990   -5.2410 C.3       1 ASP        -0.0244
     30 N          -8.8220   17.9480   -7.6760 N.am      1 PHE        -0.2619
     31 CA         -9.1680   16.5430   -7.8370 C.3       1 PHE         0.1404
     32 C          -7.9580   15.6180   -7.7280 C.2       1 PHE         0.2060
     33 O          -8.0320   14.5590   -7.1010 O.2       1 PHE        -0.3942
     34 CB         -9.8820   16.2910   -9.1630 C.3       1 PHE         0.0214
     35 CG        -10.2450   14.8610   -9.3580 C.ar      1 PHE        -0.0386
     36 CD1       -11.3040   14.3000   -8.6560 C.ar      1 PHE        -0.0601
     37 CD2        -9.5040   14.0570  -10.1980 C.ar      1 PHE        -0.0601
     38 CE1       -11.6210   12.9720   -8.8060 C.ar      1 PHE        -0.0686
     39 CE2        -9.8270   12.7250  -10.3550 C.ar      1 PHE        -0.0686
     40 CZ        -10.8790   12.1830   -9.6510 C.ar      1 PHE        -0.0687
     41 N          -6.8450   16.0190   -8.3310 N.am      1 ASP        -0.2620
     42 CA         -5.6640   15.1610   -8.3780 C.3       1 ASP         0.1423
     43 C          -5.1320   14.8500   -6.9790 C.2       1 ASP         0.2057
     44 O          -5.1350   15.7040   -6.0890 O.2       1 ASP        -0.3943
     45 CB         -4.5850   15.7870   -9.2570 C.3       1 ASP         0.0406
     46 CG         -5.0570   15.9960  -10.6820 C.2       1 ASP         0.0393
     47 OD1        -6.1900   15.5720  -11.0020 O.co2     1 ASP        -0.5688
     48 OD2        -4.3020   16.5800  -11.4800 O.co2     1 ASP        -0.5688
     49 N          -4.6760   13.6140   -6.8040 N.am      1 TYR        -0.2620
     50 CA         -4.3980   13.0600   -5.4890 C.3       1 TYR         0.1390
     51 C          -3.3570   11.9600   -5.6070 C.2       1 TYR         0.2057
     52 O          -3.3720   11.1810   -6.5500 O.2       1 TYR        -0.3942
     53 CB         -5.6920   12.4660   -4.8970 C.3       1 TYR         0.0163
     54 CG         -5.5030   11.7140   -3.6060 C.ar      1 TYR        -0.0493
     55 CD1        -5.1590   12.3790   -2.4390 C.ar      1 TYR        -0.0685
     56 CD2        -5.6780   10.3320   -3.5520 C.ar      1 TYR        -0.0685
     57 CE1        -4.9900   11.6910   -1.2530 C.ar      1 TYR        -0.0398
     58 CE2        -5.5050    9.6380   -2.3760 C.ar      1 TYR        -0.0398
     59 CZ         -5.1580   10.3240   -1.2290 C.ar      1 TYR         0.0805
     60 OH         -4.9940    9.6410   -0.0480 O.3       1 TYR        -0.3376
     61 N          -2.4410   11.9150   -4.6500 N.am      1 ILE        -0.2633
     62 CA         -1.5410   10.7850   -4.5220 C.3       1 ILE         0.1335
     63 C          -1.5340   10.4280   -3.0540 C.2       1 ILE         0.2037
     64 O          -1.2460   11.2790   -2.2030 O.2       1 ILE        -0.3944
     65 CB         -0.0920   11.1340   -4.9440 C.3       1 ILE        -0.0037
     66 CG1        -0.0430   11.6560   -6.3910 C.3       1 ILE        -0.0491
     67 CG2         0.8270    9.9260   -4.7450 C.3       1 ILE        -0.0582
     68 CD1        -0.0070   10.5750   -7.4760 C.3       1 ILE        -0.0648
     69 N          -1.8980    9.1890   -2.7540 N.am      1 ALA        -0.2673
     70 CA         -1.5880    8.6250   -1.4620 C.3       1 ALA         0.1198
     71 C          -0.0730    8.7680   -1.3560 C.2       1 ALA         0.2147
     72 O           0.6660    7.7940   -1.3870 O.co2     1 ALA        -0.4120
     73 CB         -2.0200    7.1590   -1.3830 C.3       1 ALA        -0.0276
     74 H         -13.6622   24.0112  -14.0373 H         1 MET         0.2015
     75 H         -13.5219   22.4125  -14.4032 H         1 MET         0.2015
     76 H         -12.1753   23.3527  -14.2920 H         1 MET         0.2015
     77 H         -12.5082   23.7125  -11.9844 H         1 MET         0.1098
     78 H         -14.9782   23.5791  -12.1038 H         1 MET         0.0354
     79 H         -14.2826   22.5315  -10.8211 H         1 MET         0.0354
     80 H         -15.1824   20.6891  -11.7043 H         1 MET         0.0380
     81 H         -14.6133   21.1058  -13.3563 H         1 MET         0.0380
     82 H         -17.4834   23.3619  -14.7287 H         1 MET         0.0340
     83 H         -15.9628   22.4807  -15.0997 H         1 MET         0.0340
     84 H         -15.9405   23.8713  -13.9628 H         1 MET         0.0340
     85 H         -13.2351   21.0611  -10.7148 H         1 PHE         0.1886
     86 H         -12.1190   19.1743  -10.0518 H         1 PHE         0.0823
     87 H         -11.1651   17.7040  -11.7204 H         1 PHE         0.0474
     88 H         -11.0910   19.0417  -12.9170 H         1 PHE         0.0474
     89 H         -13.5883   17.3008  -10.7369 H         1 PHE         0.0557
     90 H         -12.7691   19.1371  -14.4906 H         1 PHE         0.0557
     91 H         -15.8380   16.7137  -11.5065 H         1 PHE         0.0599
     92 H         -15.0274   18.5495  -15.2712 H         1 PHE         0.0599
     93 H         -16.5626   17.3254  -13.7786 H         1 PHE         0.0559
     94 H         -10.8360   21.8567   -9.9866 H         1 ARG         0.1883
     95 H          -8.0526   21.5954  -10.6328 H         1 ARG         0.0797
     96 H          -7.7908   23.6758   -9.2923 H         1 ARG         0.0277
     97 H          -9.4776   23.4989   -8.7007 H         1 ARG         0.0277
     98 H          -9.1636   23.7924  -10.4449 H         1 ARG         0.0277
     99 H          -9.9891   20.7121   -7.8611 H         1 ASP         0.1883
    100 H          -7.5208   20.2016   -6.2647 H         1 ASP         0.0797
    101 H          -9.0479   20.1210   -4.3055 H         1 ASP         0.0277
    102 H         -10.4493   20.4204   -5.3886 H         1 ASP         0.0277
    103 H          -9.1865   21.6814   -5.1844 H         1 ASP         0.0277
    104 H          -8.5860   18.4969   -8.4779 H         1 PHE         0.1885
    105 H          -9.8616   16.2824   -7.0240 H         1 PHE         0.0823
    106 H          -9.2187   16.6006   -9.9841 H         1 PHE         0.0474
    107 H         -10.8018   16.8938   -9.1874 H         1 PHE         0.0474
    108 H         -11.8870   14.9172   -7.9821 H         1 PHE         0.0557
    109 H          -8.6621   14.4743  -10.7386 H         1 PHE         0.0557
    110 H         -12.4549   12.5474   -8.2588 H         1 PHE         0.0599
    111 H          -9.2522   12.1046  -11.0331 H         1 PHE         0.0599
    112 H         -11.1219   11.1326   -9.7637 H         1 PHE         0.0559
    113 H          -6.8150   16.9221   -8.7594 H         1 ASP         0.1884
    114 H          -5.9614   14.2075   -8.8388 H         1 ASP         0.0819
    115 H          -3.7080   15.1231   -9.2682 H         1 ASP         0.0478
    116 H          -4.3022   16.7610   -8.8312 H         1 ASP         0.0478
    117 H          -4.5178   13.0422   -7.6090 H         1 TYR         0.1885
    118 H          -4.0209   13.8547   -4.8285 H         1 TYR         0.0821
    119 H          -6.1221   11.7749   -5.6368 H         1 TYR         0.0453
    120 H          -6.3958   13.2912   -4.7135 H         1 TYR         0.0453
    121 H          -5.0207   13.4540   -2.4575 H         1 TYR         0.0530
    122 H          -5.9551    9.7947   -4.4517 H         1 TYR         0.0530
    123 H          -4.7267   12.2238   -0.3465 H         1 TYR         0.0525
    124 H          -5.6399    8.5627   -2.3505 H         1 TYR         0.0525
    125 H          -5.8066    9.2046    0.1796 H         1 TYR         0.2458
    126 H          -2.3691   12.6748   -4.0038 H         1 ILE         0.1883
    127 H          -1.9069    9.9427   -5.1275 H         1 ILE         0.0803
    128 H           0.2662   11.9403   -4.2871 H         1 ILE         0.0345
    129 H           0.8596   12.2755   -6.4985 H         1 ILE         0.0267
    130 H          -0.9357   12.2764   -6.5589 H         1 ILE         0.0267
    131 H           0.7630    9.5846   -3.7013 H         1 ILE         0.0235
    132 H           1.8640   10.2125   -4.9741 H         1 ILE         0.0235
    133 H           0.5143    9.1128   -5.4165 H         1 ILE         0.0235
    134 H           0.0266   11.0512   -8.4670 H         1 ILE         0.0230
    135 H          -0.9085    9.9493   -7.4003 H         1 ILE         0.0230
    136 H           0.8868    9.9484   -7.3398 H         1 ILE         0.0230
    137 H          -2.3917    8.6403   -3.4287 H         1 ALA         0.1876
    138 H          -2.0866    9.1914   -0.6616 H         1 ALA         0.0748
    139 O1          0.4291    9.9171   -1.2336 O.co2     1 ALA        -0.4120
    140 H          -1.7718    6.7567   -0.3898 H         1 ALA         0.0271
    141 H          -1.4933    6.5794   -2.1554 H         1 ALA         0.0271
    142 H          -3.1053    7.0872   -1.5469 H         1 ALA         0.0271
@<TRIPOS>BOND
     1    1    2 1  
     2    2    3 1  
     3    2    5 1  
     4    3    4 2  
     5    3    9 am 
     6    5    6 1  
     7    6    7 1  
     8    7    8 1  
     9    9   10 1  
    10   10   11 1  
    11   10   13 1  
    12   11   12 2  
    13   11   20 am 
    14   13   14 1  
    15   14   15 ar 
    16   14   16 ar 
    17   15   17 ar 
    18   16   18 ar 
    19   17   19 ar 
    20   18   19 ar 
    21   20   21 1  
    22   21   22 1  
    23   21   24 1  
    24   22   23 2  
    25   22   25 am 
    26   25   26 1  
    27   26   27 1  
    28   26   29 1  
    29   27   28 2  
    30   27   30 am 
    31   30   31 1  
    32   31   32 1  
    33   31   34 1  
    34   32   33 2  
    35   32   41 am 
    36   34   35 1  
    37   35   36 ar 
    38   35   37 ar 
    39   36   38 ar 
    40   37   39 ar 
    41   38   40 ar 
    42   39   40 ar 
    43   41   42 1  
    44   42   43 1  
    45   42   45 1  
    46   43   44 2  
    47   43   49 am 
    48   45   46 1  
    49   46   47 ar 
    50   46   48 ar 
    51   49   50 1  
    52   50   51 1  
    53   50   53 1  
    54   51   52 2  
    55   51   61 am 
    56   53   54 1  
    57   54   55 ar 
    58   54   56 ar 
    59   55   57 ar 
    60   56   58 ar 
    61   57   59 ar 
    62   58   59 ar 
    63   59   60 1  
    64   61   62 1  
    65   62   63 1  
    66   62   65 1  
    67   63   64 2  
    68   63   69 am 
    69   65   66 1  
    70   65   67 1  
    71   66   68 1  
    72   69   70 1  
    73   70   71 1  
    74   70   73 1  
    75   71   72 ar 
    76    1   74 1  
    77    1   75 1  
    78    1   76 1  
    79    2   77 1  
    80    5   78 1  
    81    5   79 1  
    82    6   80 1  
    83    6   81 1  
    84    8   82 1  
    85    8   83 1  
    86    8   84 1  
    87    9   85 1  
    88   10   86 1  
    89   13   87 1  
    90   13   88 1  
    91   15   89 1  
    92   16   90 1  
    93   17   91 1  
    94   18   92 1  
    95   19   93 1  
    96   20   94 1  
    97   21   95 1  
    98   24   96 1  
    99   24   97 1  
   100   24   98 1  
   101   25   99 1  
   102   26  100 1  
   103   29  101 1  
   104   29  102 1  
   105   29  103 1  
   106   30  104 1  
   107   31  105 1  
   108   34  106 1  
   109   34  107 1  
   110   36  108 1  
   111   37  109 1  
   112   38  110 1  
   113   39  111 1  
   114   40  112 1  
   115   41  113 1  
   116   42  114 1  
   117   45  115 1  
   118   45  116 1  
   119   49  117 1  
   120   50  118 1  
   121   53  119 1  
   122   53  120 1  
   123   55  121 1  
   124   56  122 1  
   125   57  123 1  
   126   58  124 1  
   127   60  125 1  
   128   61  126 1  
   129   62  127 1  
   130   65  128 1  
   131   66  129 1  
   132   66  130 1  
   133   67  131 1  
   134   67  132 1  
   135   67  133 1  
   136   68  134 1  
   137   68  135 1  
   138   68  136 1  
   139   69  137 1  
   140   70  138 1  
   141   71  139 ar 
   142   73  140 1  
   143   73  141 1  
   144   73  142 1  
@<TRIPOS>SUBSTRUCTURE
     1 MET         1

