4rrv_ligand
  -I-interpret- 

144146  0  0  0  0  0  0  0  0999 V2000
  -13.0960   23.1860  -13.9170 N   0  3  0  0  0
  -12.9930   22.8710  -12.5010 C   0  0  0  0  0
  -12.1340   21.6180  -12.3090 C   0  0  0  0  0
  -11.2090   21.3760  -13.0870 O   0  0  0  0  0
  -14.3880   22.6720  -11.9070 C   0  0  0  0  0
  -15.1480   21.4780  -12.4700 C   0  0  0  0  0
  -16.8380   21.8950  -12.9470 S   0  0  0  0  0
  -16.5260   23.0100  -14.3170 C   0  0  0  0  0
  -12.4390   20.8320  -11.2750 N   0  0  0  0  0
  -11.6510   19.6450  -10.9290 C   0  0  0  0  0
  -10.2160   20.0250  -10.5500 C   0  0  0  0  0
   -9.2990   19.2110  -10.6400 O   0  0  0  0  0
  -11.6580   18.6220  -12.0730 C   0  0  0  0  0
  -13.0310   18.2650  -12.5570 C   0  0  0  0  0
  -13.9030   17.5800  -11.7360 C   0  0  0  0  0
  -13.4450   18.6050  -13.8310 C   0  0  0  0  0
  -15.1630   17.2470  -12.1660 C   0  0  0  0  0
  -14.7100   18.2740  -14.2720 C   0  0  0  0  0
  -15.5690   17.5910  -13.4360 C   0  0  0  0  0
  -10.0390   21.2640  -10.1030 N   0  0  0  0  0
   -8.7190   21.7830   -9.7780 C   0  0  0  0  0
   -8.1360   21.0890   -8.5520 C   0  0  0  0  0
   -6.9210   20.9690   -8.4170 O   0  0  0  0  0
   -8.7930   23.2940   -9.5370 C   0  0  0  0  0
   -9.0120   20.6290   -7.6650 N   0  0  0  0  0
   -8.5930   20.0070   -6.4150 C   0  0  0  0  0
   -8.8180   18.5050   -6.4700 C   0  0  0  0  0
   -8.9810   17.8550   -5.4360 O   0  0  0  0  0
   -9.3740   20.5990   -5.2410 C   0  0  0  0  0
   -8.8220   17.9480   -7.6760 N   0  0  0  0  0
   -9.1680   16.5430   -7.8370 C   0  0  0  0  0
   -7.9580   15.6180   -7.7280 C   0  0  0  0  0
   -8.0320   14.5590   -7.1010 O   0  0  0  0  0
   -9.8820   16.2910   -9.1630 C   0  0  0  0  0
  -10.2450   14.8610   -9.3580 C   0  0  0  0  0
  -11.3040   14.3000   -8.6560 C   0  0  0  0  0
   -9.5040   14.0570  -10.1980 C   0  0  0  0  0
  -11.6210   12.9720   -8.8060 C   0  0  0  0  0
   -9.8270   12.7250  -10.3550 C   0  0  0  0  0
  -10.8790   12.1830   -9.6510 C   0  0  0  0  0
   -6.8450   16.0190   -8.3310 N   0  0  0  0  0
   -5.6640   15.1610   -8.3780 C   0  0  0  0  0
   -5.1320   14.8500   -6.9790 C   0  0  0  0  0
   -5.1350   15.7040   -6.0890 O   0  0  0  0  0
   -4.5850   15.7870   -9.2570 C   0  0  0  0  0
   -5.0570   15.9960  -10.6820 C   0  0  0  0  0
   -6.1900   15.5720  -11.0020 O   0  0  0  0  0
   -4.3020   16.5800  -11.4800 O   0  0  0  0  0
   -4.6760   13.6140   -6.8040 N   0  0  0  0  0
   -4.3980   13.0600   -5.4890 C   0  0  0  0  0
   -3.3570   11.9600   -5.6070 C   0  0  0  0  0
   -3.3720   11.1810   -6.5500 O   0  0  0  0  0
   -5.6920   12.4660   -4.8970 C   0  0  0  0  0
   -5.5030   11.7140   -3.6060 C   0  0  0  0  0
   -5.1590   12.3790   -2.4390 C   0  0  0  0  0
   -5.6780   10.3320   -3.5520 C   0  0  0  0  0
   -4.9900   11.6910   -1.2530 C   0  0  0  0  0
   -5.5050    9.6380   -2.3760 C   0  0  0  0  0
   -5.1580   10.3240   -1.2290 C   0  0  0  0  0
   -4.9940    9.6410   -0.0480 O   0  0  0  0  0
   -2.4410   11.9150   -4.6500 N   0  0  0  0  0
   -1.5410   10.7850   -4.5220 C   0  0  0  0  0
   -1.5340   10.4280   -3.0540 C   0  0  0  0  0
   -1.2460   11.2790   -2.2030 O   0  0  0  0  0
   -0.0920   11.1340   -4.9440 C   0  0  0  0  0
   -0.0430   11.6560   -6.3910 C   0  0  0  0  0
    0.8270    9.9260   -4.7450 C   0  0  0  0  0
   -0.0070   10.5750   -7.4760 C   0  0  0  0  0
   -1.8980    9.1890   -2.7540 N   0  0  0  0  0
   -1.5880    8.6250   -1.4620 C   0  0  0  0  0
   -0.0730    8.7680   -1.3560 C   0  0  0  0  0
    0.6660    7.7940   -1.3870 O   0  0  0  0  0
   -2.0200    7.1590   -1.3830 C   0  0  0  0  0
    0.4291    9.9171   -1.2336 O   0  0  0  0  0
  -12.1613   23.3168  -14.3038 H   0  0  0  0  0
  -13.5616   22.4188  -14.4018 H   0  0  0  0  0
  -13.6371   24.0426  -14.0351 H   0  0  0  0  0
  -12.5147   23.7003  -11.9799 H   0  0  0  0  0
  -14.9681   23.5627  -12.1482 H   0  0  0  0  0
  -14.2584   22.4939  -10.8395 H   0  0  0  0  0
  -15.1969   20.7145  -11.6936 H   0  0  0  0  0
  -14.6224   21.1352  -13.3612 H   0  0  0  0  0
  -15.9458   23.8629  -13.9648 H   0  0  0  0  0
  -15.9679   22.4843  -15.0918 H   0  0  0  0  0
  -17.4754   23.3580  -14.7241 H   0  0  0  0  0
  -13.2510   21.0657  -10.7036 H   0  0  0  0  0
  -12.1182   19.1820  -10.0599 H   0  0  0  0  0
  -11.1989   17.7085  -11.6950 H   0  0  0  0  0
  -11.1237   19.0685  -12.9116 H   0  0  0  0  0
  -13.5866   17.2993  -10.7314 H   0  0  0  0  0
  -12.7654   19.1401  -14.4942 H   0  0  0  0  0
  -15.8417   16.7107  -11.5028 H   0  0  0  0  0
  -15.0292   18.5510  -15.2767 H   0  0  0  0  0
  -16.5681   17.3239  -13.7805 H   0  0  0  0  0
  -10.8519   21.8686   -9.9843 H   0  0  0  0  0
   -8.0619   21.5829  -10.6243 H   0  0  0  0  0
   -9.1604   23.7867  -10.4372 H   0  0  0  0  0
   -9.4717   23.4956   -8.7082 H   0  0  0  0  0
   -7.7994   23.6711   -9.2947 H   0  0  0  0  0
  -10.0086   20.7138   -7.8650 H   0  0  0  0  0
   -7.5302   20.2030   -6.2734 H   0  0  0  0  0
   -9.1874   21.6715   -5.1860 H   0  0  0  0  0
  -10.4393   20.4214   -5.3885 H   0  0  0  0  0
   -9.0501   20.1246   -4.3147 H   0  0  0  0  0
   -8.5813   18.5079   -8.4939 H   0  0  0  0  0
   -9.8429   16.3100   -7.0134 H   0  0  0  0  0
   -9.2041   16.5766   -9.9674 H   0  0  0  0  0
  -10.8037   16.8729   -9.1624 H   0  0  0  0  0
  -11.8902   14.9207   -7.9783 H   0  0  0  0  0
   -8.6575   14.4766  -10.7416 H   0  0  0  0  0
  -12.4595   12.5451   -8.2558 H   0  0  0  0  0
   -9.2490   12.1012  -11.0368 H   0  0  0  0  0
  -11.1233   11.1268   -9.7643 H   0  0  0  0  0
   -6.8144   16.9401   -8.7680 H   0  0  0  0  0
   -5.9590   14.2104   -8.8224 H   0  0  0  0  0
   -3.7306   15.1105   -9.2786 H   0  0  0  0  0
   -4.3292   16.7604   -8.8384 H   0  0  0  0  0
   -6.6016   15.1564  -10.2408 H   0  0  0  0  0
   -4.5146   13.0308   -7.6251 H   0  0  0  0  0
   -4.0232   13.8509   -4.8393 H   0  0  0  0  0
   -6.0780   11.7539   -5.6264 H   0  0  0  0  0
   -6.3575   13.3025   -4.6835 H   0  0  0  0  0
   -5.0199   13.4599   -2.4576 H   0  0  0  0  0
   -5.9566    9.7917   -4.4567 H   0  0  0  0  0
   -4.7252   12.2268   -0.3414 H   0  0  0  0  0
   -5.6407    8.5568   -2.3504 H   0  0  0  0  0
   -5.1443    8.7047   -0.1976 H   0  0  0  0  0
   -2.3677   12.6900   -3.9909 H   0  0  0  0  0
   -1.8784    9.9738   -5.1672 H   0  0  0  0  0
    0.2693   11.9384   -4.3033 H   0  0  0  0  0
    0.8818   12.2249   -6.4864 H   0  0  0  0  0
   -0.9587   12.2259   -6.5484 H   0  0  0  0  0
    0.8224    9.6368   -3.6941 H   0  0  0  0  0
    0.4697    9.0951   -5.3533 H   0  0  0  0  0
    1.8410   10.1889   -5.0464 H   0  0  0  0  0
    0.8790    9.9548   -7.3399 H   0  0  0  0  0
   -0.9008    9.9557   -7.3999 H   0  0  0  0  0
    0.0263   11.0481   -8.4574 H   0  0  0  0  0
   -2.4015    8.6294   -3.4422 H   0  0  0  0  0
   -2.1109    9.1241   -0.6462 H   0  0  0  0  0
   -3.0955    7.0892   -1.5457 H   0  0  0  0  0
   -1.4975    6.5858   -2.1488 H   0  0  0  0  0
   -1.7736    6.7615   -0.3984 H   0  0  0  0  0
   -0.2724   10.5724   -1.2255 H   0  0  0  0  0
  1  2  1  0  0  0
  2  3  1  0  0  0
  2  5  1  0  0  0
  3  4  2  0  0  0
  3  9  1  0  0  0
  5  6  1  0  0  0
  6  7  1  0  0  0
  7  8  1  0  0  0
  9 10  1  0  0  0
 10 11  1  0  0  0
 10 13  1  0  0  0
 11 12  2  0  0  0
 11 20  1  0  0  0
 13 14  1  0  0  0
 14 15  4  0  0  0
 14 16  4  0  0  0
 15 17  4  0  0  0
 16 18  4  0  0  0
 17 19  4  0  0  0
 18 19  4  0  0  0
 20 21  1  0  0  0
 21 22  1  0  0  0
 21 24  1  0  0  0
 22 23  2  0  0  0
 22 25  1  0  0  0
 25 26  1  0  0  0
 26 27  1  0  0  0
 26 29  1  0  0  0
 27 28  2  0  0  0
 27 30  1  0  0  0
 30 31  1  0  0  0
 31 32  1  0  0  0
 31 34  1  0  0  0
 32 33  2  0  0  0
 32 41  1  0  0  0
 34 35  1  0  0  0
 35 36  4  0  0  0
 35 37  4  0  0  0
 36 38  4  0  0  0
 37 39  4  0  0  0
 38 40  4  0  0  0
 39 40  4  0  0  0
 41 42  1  0  0  0
 42 43  1  0  0  0
 42 45  1  0  0  0
 43 44  2  0  0  0
 43 49  1  0  0  0
 45 46  1  0  0  0
 46 47  1  0  0  0
 46 48  2  0  0  0
 49 50  1  0  0  0
 50 51  1  0  0  0
 50 53  1  0  0  0
 51 52  2  0  0  0
 51 61  1  0  0  0
 53 54  1  0  0  0
 54 55  4  0  0  0
 54 56  4  0  0  0
 55 57  4  0  0  0
 56 58  4  0  0  0
 57 59  4  0  0  0
 58 59  4  0  0  0
 59 60  1  0  0  0
 61 62  1  0  0  0
 62 63  1  0  0  0
 62 65  1  0  0  0
 63 64  2  0  0  0
 63 69  1  0  0  0
 65 66  1  0  0  0
 65 67  1  0  0  0
 66 68  1  0  0  0
 69 70  1  0  0  0
 70 71  1  0  0  0
 70 73  1  0  0  0
 71 72  2  0  0  0
 71 74  1  0  0  0
  1 75  1  0  0  0
  1 76  1  0  0  0
  1 77  1  0  0  0
  2 78  1  0  0  0
  5 79  1  0  0  0
  5 80  1  0  0  0
  6 81  1  0  0  0
  6 82  1  0  0  0
  8 83  1  0  0  0
  8 84  1  0  0  0
  8 85  1  0  0  0
  9 86  1  0  0  0
 10 87  1  0  0  0
 13 88  1  0  0  0
 13 89  1  0  0  0
 15 90  1  0  0  0
 16 91  1  0  0  0
 17 92  1  0  0  0
 18 93  1  0  0  0
 19 94  1  0  0  0
 20 95  1  0  0  0
 21 96  1  0  0  0
 24 97  1  0  0  0
 24 98  1  0  0  0
 24 99  1  0  0  0
 25100  1  0  0  0
 26101  1  0  0  0
 29102  1  0  0  0
 29103  1  0  0  0
 29104  1  0  0  0
 30105  1  0  0  0
 31106  1  0  0  0
 34107  1  0  0  0
 34108  1  0  0  0
 36109  1  0  0  0
 37110  1  0  0  0
 38111  1  0  0  0
 39112  1  0  0  0
 40113  1  0  0  0
 41114  1  0  0  0
 42115  1  0  0  0
 45116  1  0  0  0
 45117  1  0  0  0
 47118  1  0  0  0
 49119  1  0  0  0
 50120  1  0  0  0
 53121  1  0  0  0
 53122  1  0  0  0
 55123  1  0  0  0
 56124  1  0  0  0
 57125  1  0  0  0
 58126  1  0  0  0
 60127  1  0  0  0
 61128  1  0  0  0
 62129  1  0  0  0
 65130  1  0  0  0
 66131  1  0  0  0
 66132  1  0  0  0
 67133  1  0  0  0
 67134  1  0  0  0
 67135  1  0  0  0
 68136  1  0  0  0
 68137  1  0  0  0
 68138  1  0  0  0
 69139  1  0  0  0
 70140  1  0  0  0
 73141  1  0  0  0
 73142  1  0  0  0
 73143  1  0  0  0
 74144  1  0  0  0
M  END
$$$$
