4pct_ligand
  -I-interpret- 

 21 21  0  0  0  0  0  0  0  0999 V2000
   33.1810    6.9870   57.6240 C   0  0  0  0  0
   32.5850    6.5070   56.9430 C   0  0  0  0  0
   31.7110    5.8440   55.8920 C   0  0  0  0  0
   30.2850    6.1160   56.1850 N   0  3  0  0  0
   29.6350    4.7890   56.2470 C   0  0  0  0  0
   28.1630    4.7670   55.7720 C   0  0  0  0  0
   30.5170    3.9360   55.3640 C   0  0  0  0  0
   30.4200    4.3690   53.9940 O   0  0  0  0  0
   31.8400    4.2850   55.9550 C   0  0  0  0  0
   32.9110    3.6980   55.2110 O   0  0  0  0  0
   32.0283    6.2347   54.9252 H   0  0  0  0  0
   29.8621    6.7065   55.4689 H   0  0  0  0  0
   30.1741    6.6280   57.0602 H   0  0  0  0  0
   29.5563    4.4375   57.2758 H   0  0  0  0  0
   28.1055    5.1508   54.7534 H   0  0  0  0  0
   27.7896    3.7433   55.7976 H   0  0  0  0  0
   27.5604    5.3915   56.4315 H   0  0  0  0  0
   30.2875    2.8708   55.3356 H   0  0  0  0  0
   29.5586    4.1297   53.6442 H   0  0  0  0  0
   32.0711    3.9181   56.9550 H   0  0  0  0  0
   33.7485    3.9391   55.6135 H   0  0  0  0  0
  1  2  3  0  0  0
  2  3  1  0  0  0
  3  4  1  0  0  0
  3  9  1  0  0  0
  4  5  1  0  0  0
  5  6  1  0  0  0
  5  7  1  0  0  0
  7  8  1  0  0  0
  7  9  1  0  0  0
  9 10  1  0  0  0
  3 11  1  0  0  0
  4 12  1  0  0  0
  4 13  1  0  0  0
  5 14  1  0  0  0
  6 15  1  0  0  0
  6 16  1  0  0  0
  6 17  1  0  0  0
  7 18  1  0  0  0
  8 19  1  0  0  0
  9 20  1  0  0  0
 10 21  1  0  0  0
M  END
$$$$
