2srt_ligand
  -I-interpret- 

 70 71  0  0  0  0  0  0  0  0999 V2000
   -1.9680    2.7480   14.3770 C   0  0  0  0  0
   -1.4790    2.0880   13.0710 C   0  0  0  0  0
   -2.1390    2.8070   11.8600 C   0  0  0  0  0
   -1.5200    2.8420   10.8030 O   0  0  0  0  0
   -3.2470    3.3030   12.0110 O   0  0  0  0  0
   -1.7850    0.6420   13.1240 N   0  3  0  0  0
   -3.2370    0.3870   12.8900 C   0  0  0  0  0
   -3.4870   -1.1360   12.6980 C   0  0  0  0  0
   -4.7560   -1.3960   11.8440 C   0  0  0  0  0
   -4.8510   -2.8660   11.4510 C   0  0  0  0  0
   -5.6290   -3.2490   10.3440 C   0  0  0  0  0
   -5.7230   -4.5980    9.9880 C   0  0  0  0  0
   -5.0460   -5.5690   10.7320 C   0  0  0  0  0
   -4.2720   -5.1930   11.8340 C   0  0  0  0  0
   -4.1720   -3.8440   12.1940 C   0  0  0  0  0
   -4.1180    0.8870   14.0660 C   0  0  0  0  0
   -3.9460    0.4770   15.2030 O   0  0  0  0  0
   -5.0730    1.7650   13.7890 N   0  0  0  0  0
   -6.0340    2.3190   14.8170 C   0  0  0  0  0
   -6.4950    3.7320   14.3740 C   0  0  0  0  0
   -5.4300    4.7870   14.7430 C   0  0  0  0  0
   -5.9420    6.2010   14.4120 C   0  0  0  0  0
   -4.8820    7.2240   14.7350 N   0  0  0  0  0
   -5.0300    8.5410   14.5970 C   0  0  0  0  0
   -4.0330    9.3350   14.9280 N   0  0  0  0  0
   -6.1590    9.0730   14.1490 N   0  0  0  0  0
   -7.2550    1.3650   14.9750 C   0  0  0  0  0
   -7.6800    0.7200   14.0250 O   0  0  0  0  0
   -7.8290    1.2870   16.1790 N   0  0  0  0  0
   -8.9080    0.4640   16.3850 C   0  0  0  0  0
   -8.9760   -0.3170   17.5490 C   0  0  0  0  0
  -10.0720   -1.1620   17.7670 C   0  0  0  0  0
  -11.1020   -1.2320   16.8230 C   0  0  0  0  0
  -11.0400   -0.4580   15.6610 C   0  0  0  0  0
   -9.9460    0.3880   15.4370 C   0  0  0  0  0
   -3.0434    2.6009   14.4764 H   0  0  0  0  0
   -1.4577    2.2928   15.2258 H   0  0  0  0  0
   -1.7471    3.8150   14.3482 H   0  0  0  0  0
   -0.4000    2.1877   12.9530 H   0  0  0  0  0
   -0.6782    2.3935   10.9115 H   0  0  0  0  0
   -1.5384    0.2913   14.0495 H   0  0  0  0  0
   -1.2504    0.1697   12.3949 H   0  0  0  0  0
   -3.5145    0.9391   11.9920 H   0  0  0  0  0
   -3.6296   -1.5904   13.6784 H   0  0  0  0  0
   -2.6281   -1.5663   12.1830 H   0  0  0  0  0
   -4.7001   -0.7925   10.9380 H   0  0  0  0  0
   -5.6354   -1.1312   12.4310 H   0  0  0  0  0
   -6.1590   -2.4941    9.7632 H   0  0  0  0  0
   -6.3253   -4.8931    9.1288 H   0  0  0  0  0
   -5.1217   -6.6199   10.4527 H   0  0  0  0  0
   -3.7457   -5.9514   12.4136 H   0  0  0  0  0
   -3.5662   -3.5529   13.0521 H   0  0  0  0  0
   -5.1647    2.0856   12.8251 H   0  0  0  0  0
   -5.5354    2.3948   15.7833 H   0  0  0  0  0
   -7.4275    3.9765   14.8826 H   0  0  0  0  0
   -6.6384    3.7357   13.2935 H   0  0  0  0  0
   -4.5234    4.5934   14.1696 H   0  0  0  0  0
   -5.2222    4.7246   15.8112 H   0  0  0  0  0
   -6.8320    6.4077   15.0064 H   0  0  0  0  0
   -6.1806    6.2558   13.3498 H   0  0  0  0  0
   -3.9865    6.8829   15.0846 H   0  0  0  0  0
   -3.1628    8.9397   15.2843 H   0  0  0  0  0
   -6.2472   10.0856   14.0643 H   0  0  0  0  0
   -6.9392    8.4696   13.8891 H   0  0  0  0  0
   -7.4624    1.8435   16.9512 H   0  0  0  0  0
   -8.1740   -0.2660   18.2854 H   0  0  0  0  0
  -10.1222   -1.7656   18.6732 H   0  0  0  0  0
  -11.9535   -1.8907   16.9939 H   0  0  0  0  0
  -11.8444   -0.5127   14.9275 H   0  0  0  0  0
   -9.8985    0.9878   14.5281 H   0  0  0  0  0
  1  2  1  0  0  0
  2  3  1  0  0  0
  2  6  1  0  0  0
  3  4  1  0  0  0
  3  5  2  0  0  0
  6  7  1  0  0  0
  7  8  1  0  0  0
  7 16  1  0  0  0
  8  9  1  0  0  0
  9 10  1  0  0  0
 10 11  4  0  0  0
 10 15  4  0  0  0
 11 12  4  0  0  0
 12 13  4  0  0  0
 13 14  4  0  0  0
 14 15  4  0  0  0
 16 17  2  0  0  0
 16 18  1  0  0  0
 18 19  1  0  0  0
 19 20  1  0  0  0
 19 27  1  0  0  0
 20 21  1  0  0  0
 21 22  1  0  0  0
 22 23  1  0  0  0
 23 24  1  0  0  0
 24 25  2  0  0  0
 24 26  1  0  0  0
 27 28  2  0  0  0
 27 29  1  0  0  0
 29 30  1  0  0  0
 30 31  4  0  0  0
 30 35  4  0  0  0
 31 32  4  0  0  0
 32 33  4  0  0  0
 33 34  4  0  0  0
 34 35  4  0  0  0
  1 36  1  0  0  0
  1 37  1  0  0  0
  1 38  1  0  0  0
  2 39  1  0  0  0
  4 40  1  0  0  0
  6 41  1  0  0  0
  6 42  1  0  0  0
  7 43  1  0  0  0
  8 44  1  0  0  0
  8 45  1  0  0  0
  9 46  1  0  0  0
  9 47  1  0  0  0
 11 48  1  0  0  0
 12 49  1  0  0  0
 13 50  1  0  0  0
 14 51  1  0  0  0
 15 52  1  0  0  0
 18 53  1  0  0  0
 19 54  1  0  0  0
 20 55  1  0  0  0
 20 56  1  0  0  0
 21 57  1  0  0  0
 21 58  1  0  0  0
 22 59  1  0  0  0
 22 60  1  0  0  0
 23 61  1  0  0  0
 25 62  1  0  0  0
 26 63  1  0  0  0
 26 64  1  0  0  0
 29 65  1  0  0  0
 31 66  1  0  0  0
 32 67  1  0  0  0
 33 68  1  0  0  0
 34 69  1  0  0  0
 35 70  1  0  0  0
M  END
$$$$
