6cyh_ligand
  -I-interpret- 

 41 43  0  0  0  0  0  0  0  0999 V2000
   57.7510  211.8830   48.9900 N   0  3  0  0  0
   57.8930  213.0170   48.1580 C   0  0  0  0  0
   59.3040  213.0480   47.4780 C   0  0  0  0  0
   60.2250  213.5470   48.4470 N   0  0  0  0  0
   61.5560  213.0180   48.6060 C   0  0  0  0  0
   61.9280  212.0640   47.8810 O   0  0  0  0  0
   62.3680  213.6130   49.6400 C   0  0  0  0  0
   63.1730  212.3480   50.3530 O   0  0  0  0  0
   63.3430  214.4230   49.2160 C   0  0  0  0  0
   62.8840  215.7950   49.0710 O   0  0  0  0  0
   64.3460  214.3340   50.4140 C   0  0  0  0  0
   63.9050  215.0620   51.4740 O   0  0  0  0  0
   64.3310  212.7970   50.7600 C   0  0  0  0  0
   65.4160  212.1660   50.0070 N   0  0  0  0  0
   65.3490  211.5110   48.8090 C   0  0  0  0  0
   66.5970  211.1040   48.4530 N   0  0  0  0  0
   67.4730  211.4980   49.4470 C   0  0  0  0  0
   66.7230  212.1700   50.4110 C   0  0  0  0  0
   67.3200  212.7030   51.5650 N   0  0  0  0  0
   68.6200  212.5650   51.7270 C   0  0  0  0  0
   69.3880  211.9140   50.7940 N   0  0  0  0  0
   68.8510  211.3840   49.6560 C   0  0  0  0  0
   69.7300  210.7160   48.6960 N   0  0  0  0  0
   56.8250  211.8903   49.4176 H   0  0  0  0  0
   57.8622  211.0369   48.4314 H   0  0  0  0  0
   58.4637  211.9065   49.7193 H   0  0  0  0  0
   57.7816  213.9128   48.7690 H   0  0  0  0  0
   57.1322  212.9740   47.3786 H   0  0  0  0  0
   59.2916  213.6859   46.5943 H   0  0  0  0  0
   59.5946  212.0505   47.1484 H   0  0  0  0  0
   59.9283  214.3115   49.0536 H   0  0  0  0  0
   61.6946  214.2001   50.2645 H   0  0  0  0  0
   63.7438  214.1447   48.2413 H   0  0  0  0  0
   63.6103  216.3437   48.7659 H   0  0  0  0  0
   65.3361  214.7232   50.1765 H   0  0  0  0  0
   64.5360  214.9914   52.1940 H   0  0  0  0  0
   64.4683  212.5929   51.8219 H   0  0  0  0  0
   64.4403  211.3419   48.2312 H   0  0  0  0  0
   69.0946  212.9753   52.6184 H   0  0  0  0  0
   69.3418  210.3153   47.8421 H   0  0  0  0  0
   70.7311  210.6510   48.8806 H   0  0  0  0  0
  1  2  1  0  0  0
  2  3  1  0  0  0
  3  4  1  0  0  0
  4  5  1  0  0  0
  5  6  2  0  0  0
  5  7  1  0  0  0
  7  8  1  0  0  0
  7  9  1  0  0  0
  8 13  1  0  0  0
  9 10  1  0  0  0
  9 11  1  0  0  0
 11 12  1  0  0  0
 11 13  1  0  0  0
 13 14  1  0  0  0
 14 15  4  0  0  0
 14 18  4  0  0  0
 15 16  4  0  0  0
 16 17  4  0  0  0
 17 18  4  0  0  0
 17 22  4  0  0  0
 18 19  4  0  0  0
 19 20  4  0  0  0
 20 21  4  0  0  0
 21 22  4  0  0  0
 22 23  1  0  0  0
  1 24  1  0  0  0
  1 25  1  0  0  0
  1 26  1  0  0  0
  2 27  1  0  0  0
  2 28  1  0  0  0
  3 29  1  0  0  0
  3 30  1  0  0  0
  4 31  1  0  0  0
  7 32  1  0  0  0
  9 33  1  0  0  0
 10 34  1  0  0  0
 11 35  1  0  0  0
 12 36  1  0  0  0
 13 37  1  0  0  0
 15 38  1  0  0  0
 20 39  1  0  0  0
 23 40  1  0  0  0
 23 41  1  0  0  0
M  END
$$$$
