3k5f_ligand
  -I-interpret- 

 83 84  0  0  0  0  0  0  0  0999 V2000
    5.3980   12.3450   27.3600 N   0  0  0  0  0
    4.4390   13.4230   27.5040 C   0  0  0  0  0
    4.9510   14.8010   27.0400 C   0  0  0  0  0
    5.9910   15.2350   27.9560 O   0  0  0  0  0
    5.5030   14.7330   25.6000 C   0  0  0  0  0
    5.4720   16.1790   25.0290 C   0  0  0  0  0
    6.4290   16.3060   23.8230 C   0  0  0  0  0
    4.0800   16.5060   24.5070 C   0  0  0  0  0
    3.3990   15.6480   23.9640 O   0  0  0  0  0
    3.6610   17.7610   24.6840 N   0  0  0  0  0
    2.3260   18.1390   24.1970 C   0  0  0  0  0
    1.9920   19.5650   24.6590 C   0  0  0  0  0
    0.8220   20.1520   23.8200 C   0  0  0  0  0
   -0.5160   19.4390   24.1580 C   0  0  0  0  0
    3.9200   13.5130   28.9450 C   0  0  0  0  0
    3.4990   12.1220   29.4440 C   0  0  0  0  0
    2.5630   11.3550   28.7230 C   0  0  0  0  0
    2.1950   10.0720   29.1780 C   0  0  0  0  0
    2.7570    9.5620   30.3670 C   0  0  0  0  0
    3.6810   10.3360   31.0900 C   0  0  0  0  0
    4.0530   11.6070   30.6260 C   0  0  0  0  0
    5.2480   11.5000   26.3220 C   0  0  0  0  0
    4.3640   11.6110   25.4850 O   0  0  0  0  0
    6.2560   10.3740   26.2340 C   0  0  0  0  0
    5.9140    9.3680   27.3790 C   0  0  0  0  0
    6.8850    8.1560   27.3990 C   0  0  0  0  0
    6.9590    7.4770   25.9830 C   0  0  0  0  0
    7.3610    8.5040   24.8940 C   0  0  0  0  0
    6.2940    9.6490   24.8550 C   0  0  0  0  0
    6.4440    7.1220   28.5230 C   0  0  0  0  0
    6.3920    7.8410   29.8130 N   0  0  0  0  0
    7.5030    8.4410   30.2950 C   0  0  0  0  0
    8.5850    8.3920   29.7250 O   0  0  0  0  0
    7.3570    9.2020   31.5980 C   0  0  0  0  0
    5.0450    6.5250   28.2770 C   0  0  0  0  0
    7.4340    5.9340   28.5790 C   0  0  0  0  0
    6.1631   12.2301   28.0247 H   0  0  0  0  0
    3.6216   13.1621   26.8317 H   0  0  0  0  0
    4.1253   15.5126   27.0412 H   0  0  0  0  0
    5.6356   15.2732   28.8470 H   0  0  0  0  0
    4.8979   14.0646   24.9874 H   0  0  0  0  0
    6.5196   14.3397   25.5961 H   0  0  0  0  0
    5.7648   16.8528   25.8342 H   0  0  0  0  0
    6.1273   15.6038   23.0459 H   0  0  0  0  0
    6.3862   17.3227   23.4323 H   0  0  0  0  0
    7.4464   16.0809   24.1429 H   0  0  0  0  0
    4.2567   18.4460   25.1491 H   0  0  0  0  0
    1.5856   17.4465   24.5973 H   0  0  0  0  0
    2.3139   18.0996   23.1078 H   0  0  0  0  0
    2.8720   20.1944   24.5267 H   0  0  0  0  0
    1.6951   19.5362   25.7074 H   0  0  0  0  0
    1.0405   20.0035   22.7625 H   0  0  0  0  0
    0.7222   21.2123   24.0521 H   0  0  0  0  0
   -0.4253   18.3754   23.9373 H   0  0  0  0  0
   -0.7410   19.5739   25.2160 H   0  0  0  0  0
   -1.3173   19.8691   23.5571 H   0  0  0  0  0
    3.0574   14.1787   28.9731 H   0  0  0  0  0
    4.7125   13.8979   29.5867 H   0  0  0  0  0
    2.1216   11.7547   27.8100 H   0  0  0  0  0
    1.4784    9.4762   28.6126 H   0  0  0  0  0
    2.4757    8.5712   30.7238 H   0  0  0  0  0
    4.1099    9.9478   32.0138 H   0  0  0  0  0
    4.7768   12.1980   31.1872 H   0  0  0  0  0
    7.2543   10.7980   26.3427 H   0  0  0  0  0
    4.9043    8.9927   27.2123 H   0  0  0  0  0
    6.0036    9.8919   28.3306 H   0  0  0  0  0
    7.8872    8.5098   27.6409 H   0  0  0  0  0
    5.9767    7.0735   25.7372 H   0  0  0  0  0
    7.7099    6.6875   26.0129 H   0  0  0  0  0
    7.4071    8.0111   23.9229 H   0  0  0  0  0
    8.3405    8.9219   25.1264 H   0  0  0  0  0
    6.5584   10.3645   24.0764 H   0  0  0  0  0
    5.3133    9.2236   24.6419 H   0  0  0  0  0
    5.5190    7.8844   30.3388 H   0  0  0  0  0
    8.0256    8.7733   32.3445 H   0  0  0  0  0
    7.6141   10.2489   31.4366 H   0  0  0  0  0
    6.3268    9.1291   31.9464 H   0  0  0  0  0
    4.3074    7.3273   28.2568 H   0  0  0  0  0
    5.0384    5.9995   27.3221 H   0  0  0  0  0
    4.8030    5.8274   29.0788 H   0  0  0  0  0
    7.4465    5.4273   27.6140 H   0  0  0  0  0
    8.4327    6.3055   28.8087 H   0  0  0  0  0
    7.1177    5.2353   29.3536 H   0  0  0  0  0
  1  2  1  0  0  0
  1 22  1  0  0  0
  2  3  1  0  0  0
  2 15  1  0  0  0
  3  4  1  0  0  0
  3  5  1  0  0  0
  5  6  1  0  0  0
  6  7  1  0  0  0
  6  8  1  0  0  0
  8  9  2  0  0  0
  8 10  1  0  0  0
 10 11  1  0  0  0
 11 12  1  0  0  0
 12 13  1  0  0  0
 13 14  1  0  0  0
 15 16  1  0  0  0
 16 17  4  0  0  0
 16 21  4  0  0  0
 17 18  4  0  0  0
 18 19  4  0  0  0
 19 20  4  0  0  0
 20 21  4  0  0  0
 22 23  2  0  0  0
 22 24  1  0  0  0
 24 25  1  0  0  0
 24 29  1  0  0  0
 25 26  1  0  0  0
 26 27  1  0  0  0
 26 30  1  0  0  0
 27 28  1  0  0  0
 28 29  1  0  0  0
 30 31  1  0  0  0
 30 35  1  0  0  0
 30 36  1  0  0  0
 31 32  1  0  0  0
 32 33  2  0  0  0
 32 34  1  0  0  0
  1 37  1  0  0  0
  2 38  1  0  0  0
  3 39  1  0  0  0
  4 40  1  0  0  0
  5 41  1  0  0  0
  5 42  1  0  0  0
  6 43  1  0  0  0
  7 44  1  0  0  0
  7 45  1  0  0  0
  7 46  1  0  0  0
 10 47  1  0  0  0
 11 48  1  0  0  0
 11 49  1  0  0  0
 12 50  1  0  0  0
 12 51  1  0  0  0
 13 52  1  0  0  0
 13 53  1  0  0  0
 14 54  1  0  0  0
 14 55  1  0  0  0
 14 56  1  0  0  0
 15 57  1  0  0  0
 15 58  1  0  0  0
 17 59  1  0  0  0
 18 60  1  0  0  0
 19 61  1  0  0  0
 20 62  1  0  0  0
 21 63  1  0  0  0
 24 64  1  0  0  0
 25 65  1  0  0  0
 25 66  1  0  0  0
 26 67  1  0  0  0
 27 68  1  0  0  0
 27 69  1  0  0  0
 28 70  1  0  0  0
 28 71  1  0  0  0
 29 72  1  0  0  0
 29 73  1  0  0  0
 31 74  1  0  0  0
 34 75  1  0  0  0
 34 76  1  0  0  0
 34 77  1  0  0  0
 35 78  1  0  0  0
 35 79  1  0  0  0
 35 80  1  0  0  0
 36 81  1  0  0  0
 36 82  1  0  0  0
 36 83  1  0  0  0
M  END
$$$$
