4qtn_ligand
  -I-interpret- 

 34 35  0  0  0  0  0  0  0  0999 V2000
   46.4540   68.7170   42.6490 O   0  0  0  0  0
   47.6940   68.0370   42.0390 C   0  0  0  0  0
   47.4980   67.9060   40.5320 C   0  0  0  0  0
   46.2340   67.4960   40.2650 O   0  0  0  0  0
   48.4580   66.8060   40.1570 C   0  0  0  0  0
   49.9040   67.4250   39.9330 C   0  0  0  0  0
   50.5750   66.7230   38.8340 O   0  0  0  0  0
   48.4150   65.9630   41.1650 O   0  0  0  0  0
   47.9230   66.8010   42.4590 C   0  0  0  0  0
   48.9700   66.7610   43.5020 N   0  0  0  0  0
   50.2030   66.1950   43.2530 C   0  0  0  0  0
   48.7420   67.3190   44.7360 C   0  0  0  0  0
   49.7370   67.3210   45.7330 C   0  0  0  0  0
   50.9440   66.7610   45.4710 C   0  0  0  0  0
   51.1940   66.2060   44.2500 C   0  0  0  0  0
   52.5600   65.5840   43.9860 C   0  0  0  0  0
   52.6350   64.5460   43.4140 O   0  0  0  0  0
   53.7540   66.2480   44.4330 N   0  0  0  0  0
   46.3670   69.6030   42.2897 H   0  0  0  0  0
   48.5286   68.6699   42.3407 H   0  0  0  0  0
   47.6632   68.8408   39.9964 H   0  0  0  0  0
   45.6164   68.1919   40.5014 H   0  0  0  0  0
   48.2023   66.2977   39.2273 H   0  0  0  0  0
   50.4905   67.3143   40.8450 H   0  0  0  0  0
   49.8108   68.4821   39.6841 H   0  0  0  0  0
   51.4482   67.0993   38.7012 H   0  0  0  0  0
   47.0188   66.3834   42.9018 H   0  0  0  0  0
   50.4087   65.7397   42.2842 H   0  0  0  0  0
   47.7722   67.7691   44.9480 H   0  0  0  0  0
   49.5385   67.7688   46.7067 H   0  0  0  0  0
   51.0108   65.9247   46.1669 H   0  0  0  0  0
   51.6476   67.5906   45.5400 H   0  0  0  0  0
   54.6669   65.8276   44.2590 H   0  0  0  0  0
   53.6883   67.1395   44.9242 H   0  0  0  0  0
  1  2  1  0  0  0
  2  3  1  0  0  0
  2  9  1  0  0  0
  3  4  1  0  0  0
  3  5  1  0  0  0
  5  6  1  0  0  0
  5  8  1  0  0  0
  6  7  1  0  0  0
  8  9  1  0  0  0
  9 10  1  0  0  0
 10 11  1  0  0  0
 10 12  1  0  0  0
 11 15  2  0  0  0
 12 13  2  0  0  0
 13 14  1  0  0  0
 14 15  1  0  0  0
 15 16  1  0  0  0
 16 17  2  0  0  0
 16 18  1  0  0  0
  1 19  1  0  0  0
  2 20  1  0  0  0
  3 21  1  0  0  0
  4 22  1  0  0  0
  5 23  1  0  0  0
  6 24  1  0  0  0
  6 25  1  0  0  0
  7 26  1  0  0  0
  9 27  1  0  0  0
 11 28  1  0  0  0
 12 29  1  0  0  0
 13 30  1  0  0  0
 14 31  1  0  0  0
 14 32  1  0  0  0
 18 33  1  0  0  0
 18 34  1  0  0  0
M  END
$$$$
