### 
### Created by X-TOOL on Mon Sep 10 21:13:24 2018
### 

@<TRIPOS>MOLECULE
4xpj_ligand
   77    77     1     0     0
SMALL
GAST_HUCK


@<TRIPOS>ATOM
      1 P         -10.3420    3.1300   22.3610 P.3       1 LPY         0.2557
      2 O1        -11.4330   -1.6280   26.2860 O.3       1 LPY        -0.3865
      3 O2        -10.9170   -0.9220   23.5790 O.3       1 LPY        -0.3861
      4 O3        -10.1580    1.7870   23.2060 O.3       1 LPY        -0.2454
      5 O4        -10.1740    4.3190   23.2680 O.co2     1 LPY        -0.6177
      6 O5        -11.7190    3.1540   21.7520 O.co2     1 LPY        -0.6177
      7 O7         -6.8130    2.1950   15.6340 O.2       1 LPY        -0.3704
      8 O8        -10.4600    2.6800   18.3400 O.3       1 LPY        -0.3865
      9 O9         -8.8380    1.6980   16.6140 O.3       1 LPY        -0.2742
     10 O10        -9.2370    3.1860   21.1920 O.3       1 LPY        -0.2514
     11 O11       -10.0670    2.6340   25.7810 O.3       1 LPY        -0.3861
     12 O12       -12.2900    2.9420   27.3160 O.3       1 LPY        -0.3865
     13 O13       -13.0600    0.2350   27.6980 O.3       1 LPY        -0.3865
     14 C15        -9.1530    2.6380   18.8400 C.3       1 LPY         0.1111
     15 C16        -9.1700    2.0920   20.2560 C.3       1 LPY         0.1120
     16 C17       -12.0100    0.6310   26.8130 C.3       1 LPY         0.1118
     17 C20       -12.3260    2.0040   26.2600 C.3       1 LPY         0.1122
     18 C26       -11.8730   -0.4090   25.7140 C.3       1 LPY         0.1122
     19 C29       -12.1650    1.7370    1.7310 C.3       1 LPY        -0.0653
     20 C30       -11.2720    0.7250    2.4640 C.3       1 LPY        -0.0559
     21 C31       -11.2700    1.0380    3.9740 C.3       1 LPY        -0.0533
     22 C32       -10.5500   -0.1000    4.7340 C.3       1 LPY        -0.0531
     23 C33       -10.9100   -0.0270    6.2430 C.3       1 LPY        -0.0531
     24 C34        -9.6060   -0.0970    7.0910 C.3       1 LPY        -0.0531
     25 C35        -9.7940    0.7150    8.3930 C.3       1 LPY        -0.0531
     26 C36        -8.8020    0.2120    9.4640 C.3       1 LPY        -0.0531
     27 C37        -8.8750    1.1380   10.7200 C.3       1 LPY        -0.0529
     28 C38        -8.2250    0.4230   11.9220 C.3       1 LPY        -0.0509
     29 C39        -8.1250    1.4000   13.1140 C.3       1 LPY        -0.0348
     30 C40        -8.0980    0.6110   14.4130 C.3       1 LPY         0.0487
     31 C41       -10.8820    0.0200   24.6410 C.3       1 LPY         0.1172
     32 C42        -7.8490    1.5570   15.5780 C.2       1 LPY         0.2338
     33 C43       -11.2000    1.3930   24.0880 C.3       1 LPY         0.1508
     34 C44       -11.3330    2.4310   25.1840 C.3       1 LPY         0.1172
     35 C45        -8.2890    1.7260   17.9460 C.3       1 LPY         0.1051
     36 H1        -11.3452   -2.2831   25.6037 H         1 LPY         0.2100
     37 H2        -11.7933   -0.9530   23.2135 H         1 LPY         0.2100
     38 H3        -10.4480    3.0219   17.4538 H         1 LPY         0.2100
     39 H4         -9.4434    2.9003   25.1157 H         1 LPY         0.2100
     40 H5        -11.4241    2.9441   27.7069 H         1 LPY         0.2100
     41 H6        -12.8684   -0.6266   28.0493 H         1 LPY         0.2100
     42 H7         -8.7298    3.6533   18.8443 H         1 LPY         0.0647
     43 H8        -10.0478    1.4423   20.3879 H         1 LPY         0.0647
     44 H9         -8.2534    1.5111   20.4359 H         1 LPY         0.0647
     45 H10       -11.0631    0.6834   27.3703 H         1 LPY         0.0647
     46 H11       -13.3350    1.9854   25.8224 H         1 LPY         0.0647
     47 H12       -12.8569   -0.5601   25.2460 H         1 LPY         0.0647
     48 H13       -12.1657    1.5128    0.6541 H         1 LPY         0.0230
     49 H14       -11.7773    2.7535    1.8936 H         1 LPY         0.0230
     50 H15       -13.1916    1.6695    2.1202 H         1 LPY         0.0230
     51 H16       -10.2455    0.7926    2.0745 H         1 LPY         0.0263
     52 H17       -11.6599   -0.2914    2.3011 H         1 LPY         0.0263
     53 H18       -12.3065    1.1205    4.3330 H         1 LPY         0.0265
     54 H19       -10.7439    1.9876    4.1512 H         1 LPY         0.0265
     55 H20        -9.4623    0.0087    4.6114 H         1 LPY         0.0265
     56 H21       -10.8696   -1.0710    4.3279 H         1 LPY         0.0265
     57 H22       -11.5639   -0.8717    6.5054 H         1 LPY         0.0265
     58 H23       -11.4319    0.9189    6.4502 H         1 LPY         0.0265
     59 H24        -8.7700    0.3244    6.5136 H         1 LPY         0.0265
     60 H25        -9.3871   -1.1456    7.3412 H         1 LPY         0.0265
     61 H26       -10.8235    0.5874    8.7588 H         1 LPY         0.0265
     62 H27        -9.6059    1.7798    8.1910 H         1 LPY         0.0265
     63 H28        -7.7811    0.2296    9.0548 H         1 LPY         0.0265
     64 H29        -9.0641   -0.8168    9.7517 H         1 LPY         0.0265
     65 H30        -9.9271    1.3611   10.9508 H         1 LPY         0.0265
     66 H31        -8.3374    2.0758   10.5163 H         1 LPY         0.0265
     67 H32        -7.2173    0.0811   11.6434 H         1 LPY         0.0267
     68 H33        -8.8397   -0.4429   12.2090 H         1 LPY         0.0267
     69 H34        -8.9954    2.0725   13.1113 H         1 LPY         0.0291
     70 H35        -7.2029    1.9933   13.0259 H         1 LPY         0.0291
     71 H36        -7.2930   -0.1374   14.3704 H         1 LPY         0.0518
     72 H37        -9.0637    0.1033   14.5534 H         1 LPY         0.0518
     73 H38        -9.8731    0.0399   25.0789 H         1 LPY         0.0651
     74 H39       -12.1483    1.3403   23.5332 H         1 LPY         0.0711
     75 H40       -11.6805    3.3740   24.7369 H         1 LPY         0.0651
     76 H41        -7.2608    2.1153   17.9105 H         1 LPY         0.0640
     77 H42        -8.2813    0.7072   18.3607 H         1 LPY         0.0640
@<TRIPOS>BOND
     1    4    1 1  
     2    1    5 ar 
     3    1    6 ar 
     4    1   10 1  
     5   18    2 1  
     6   31    3 1  
     7   33    4 1  
     8   32    7 2  
     9   14    8 1  
    10    9   32 1  
    11   35    9 1  
    12   10   15 1  
    13   34   11 1  
    14   17   12 1  
    15   16   13 1  
    16   15   14 1  
    17   14   35 1  
    18   16   17 1  
    19   18   16 1  
    20   17   34 1  
    21   31   18 1  
    22   20   19 1  
    23   21   20 1  
    24   22   21 1  
    25   23   22 1  
    26   24   23 1  
    27   25   24 1  
    28   26   25 1  
    29   27   26 1  
    30   28   27 1  
    31   29   28 1  
    32   30   29 1  
    33   32   30 1  
    34   31   33 1  
    35   33   34 1  
    36    2   36 1  
    37    3   37 1  
    38    8   38 1  
    39   11   39 1  
    40   12   40 1  
    41   13   41 1  
    42   14   42 1  
    43   15   43 1  
    44   15   44 1  
    45   16   45 1  
    46   17   46 1  
    47   18   47 1  
    48   19   48 1  
    49   19   49 1  
    50   19   50 1  
    51   20   51 1  
    52   20   52 1  
    53   21   53 1  
    54   21   54 1  
    55   22   55 1  
    56   22   56 1  
    57   23   57 1  
    58   23   58 1  
    59   24   59 1  
    60   24   60 1  
    61   25   61 1  
    62   25   62 1  
    63   26   63 1  
    64   26   64 1  
    65   27   65 1  
    66   27   66 1  
    67   28   67 1  
    68   28   68 1  
    69   29   69 1  
    70   29   70 1  
    71   30   71 1  
    72   30   72 1  
    73   31   73 1  
    74   33   74 1  
    75   34   75 1  
    76   35   76 1  
    77   35   77 1  
@<TRIPOS>SUBSTRUCTURE
     1 LPY         1

