4xpj_ligand
  -I-interpret- 

 78 78  0  0  0  0  0  0  0  0999 V2000
  -10.3420    3.1300   22.3610 P   0  0  0  0  0
  -11.4330   -1.6280   26.2860 O   0  0  0  0  0
  -10.9170   -0.9220   23.5790 O   0  0  0  0  0
  -10.1580    1.7870   23.2060 O   0  0  0  0  0
  -10.1740    4.3190   23.2680 O   0  0  0  0  0
  -11.7190    3.1540   21.7520 O   0  0  0  0  0
   -6.8130    2.1950   15.6340 O   0  0  0  0  0
  -10.4600    2.6800   18.3400 O   0  0  0  0  0
   -8.8380    1.6980   16.6140 O   0  0  0  0  0
   -9.2370    3.1860   21.1920 O   0  0  0  0  0
  -10.0670    2.6340   25.7810 O   0  0  0  0  0
  -12.2900    2.9420   27.3160 O   0  0  0  0  0
  -13.0600    0.2350   27.6980 O   0  0  0  0  0
   -9.1530    2.6380   18.8400 C   0  0  0  0  0
   -9.1700    2.0920   20.2560 C   0  0  0  0  0
  -12.0100    0.6310   26.8130 C   0  0  0  0  0
  -12.3260    2.0040   26.2600 C   0  0  0  0  0
  -11.8730   -0.4090   25.7140 C   0  0  0  0  0
  -12.1650    1.7370    1.7310 C   0  0  0  0  0
  -11.2720    0.7250    2.4640 C   0  0  0  0  0
  -11.2700    1.0380    3.9740 C   0  0  0  0  0
  -10.5500   -0.1000    4.7340 C   0  0  0  0  0
  -10.9100   -0.0270    6.2430 C   0  0  0  0  0
   -9.6060   -0.0970    7.0910 C   0  0  0  0  0
   -9.7940    0.7150    8.3930 C   0  0  0  0  0
   -8.8020    0.2120    9.4640 C   0  0  0  0  0
   -8.8750    1.1380   10.7200 C   0  0  0  0  0
   -8.2250    0.4230   11.9220 C   0  0  0  0  0
   -8.1250    1.4000   13.1140 C   0  0  0  0  0
   -8.0980    0.6110   14.4130 C   0  0  0  0  0
  -10.8820    0.0200   24.6410 C   0  0  0  0  0
   -7.8490    1.5570   15.5780 C   0  0  0  0  0
  -11.2000    1.3930   24.0880 C   0  0  0  0  0
  -11.3330    2.4310   25.1840 C   0  0  0  0  0
   -8.2890    1.7260   17.9460 C   0  0  0  0  0
  -11.3443   -2.2901   25.5965 H   0  0  0  0  0
  -10.2941   -0.6580   22.8979 H   0  0  0  0  0
  -11.8251    2.3952   21.1736 H   0  0  0  0  0
  -10.4478    3.0255   17.4444 H   0  0  0  0  0
   -9.4369    2.9032   25.1086 H   0  0  0  0  0
  -12.4896    3.8161   26.9730 H   0  0  0  0  0
  -12.8664   -0.6357   28.0530 H   0  0  0  0  0
   -8.7332    3.6439   18.8443 H   0  0  0  0  0
  -10.0398    1.4482   20.3867 H   0  0  0  0  0
   -8.2618    1.5163   20.4344 H   0  0  0  0  0
  -11.0565    0.6919   27.3376 H   0  0  0  0  0
  -13.3155    1.9630   25.8048 H   0  0  0  0  0
  -12.8481   -0.5274   25.2414 H   0  0  0  0  0
  -13.1819    1.6692    2.1176 H   0  0  0  0  0
  -11.7798    2.7437    1.8930 H   0  0  0  0  0
  -12.1649    1.5138    0.6641 H   0  0  0  0  0
  -10.2548    0.7925    2.0782 H   0  0  0  0  0
  -11.6568   -0.2820    2.3027 H   0  0  0  0  0
  -12.2970    1.1202    4.3298 H   0  0  0  0  0
  -10.7491    1.9792    4.1497 H   0  0  0  0  0
   -9.4722    0.0086    4.6129 H   0  0  0  0  0
  -10.8676   -1.0620    4.3318 H   0  0  0  0  0
  -11.5581   -0.8639    6.5030 H   0  0  0  0  0
  -11.4274    0.9101    6.4484 H   0  0  0  0  0
   -8.7775    0.3205    6.5188 H   0  0  0  0  0
   -9.3890   -1.1360    7.3389 H   0  0  0  0  0
  -10.8141    0.5877    8.7555 H   0  0  0  0  0
   -9.6068    1.7699    8.1925 H   0  0  0  0  0
   -7.7904    0.2301    9.0584 H   0  0  0  0  0
   -9.0623   -0.8073    9.7493 H   0  0  0  0  0
   -9.9174    1.3598   10.9486 H   0  0  0  0  0
   -8.3429    2.0677   10.5182 H   0  0  0  0  0
   -7.2261    0.0854   11.6457 H   0  0  0  0  0
   -8.8351   -0.4343   12.2066 H   0  0  0  0  0
   -8.9872    2.0669   13.1112 H   0  0  0  0  0
   -7.2116    1.9884   13.0266 H   0  0  0  0  0
   -7.2998   -0.1301   14.3706 H   0  0  0  0  0
   -9.0552    0.1085   14.5521 H   0  0  0  0  0
   -9.8929    0.0628   25.0970 H   0  0  0  0  0
  -12.1549    1.3312   23.5660 H   0  0  0  0  0
  -11.7044    3.3504   24.7314 H   0  0  0  0  0
   -7.2703    2.1120   17.9107 H   0  0  0  0  0
   -8.2817    0.7164   18.3569 H   0  0  0  0  0
  4  1  1  0  0  0
  1  5  2  0  0  0
  1  6  1  0  0  0
  1 10  1  0  0  0
 18  2  1  0  0  0
 31  3  1  0  0  0
 33  4  1  0  0  0
 32  7  2  0  0  0
 14  8  1  0  0  0
  9 32  1  0  0  0
 35  9  1  0  0  0
 10 15  1  0  0  0
 34 11  1  0  0  0
 17 12  1  0  0  0
 16 13  1  0  0  0
 15 14  1  0  0  0
 14 35  1  0  0  0
 16 17  1  0  0  0
 18 16  1  0  0  0
 17 34  1  0  0  0
 31 18  1  0  0  0
 20 19  1  0  0  0
 21 20  1  0  0  0
 22 21  1  0  0  0
 23 22  1  0  0  0
 24 23  1  0  0  0
 25 24  1  0  0  0
 26 25  1  0  0  0
 27 26  1  0  0  0
 28 27  1  0  0  0
 29 28  1  0  0  0
 30 29  1  0  0  0
 32 30  1  0  0  0
 31 33  1  0  0  0
 33 34  1  0  0  0
  2 36  1  0  0  0
  3 37  1  0  0  0
  6 38  1  0  0  0
  8 39  1  0  0  0
 11 40  1  0  0  0
 12 41  1  0  0  0
 13 42  1  0  0  0
 14 43  1  0  0  0
 15 44  1  0  0  0
 15 45  1  0  0  0
 16 46  1  0  0  0
 17 47  1  0  0  0
 18 48  1  0  0  0
 19 49  1  0  0  0
 19 50  1  0  0  0
 19 51  1  0  0  0
 20 52  1  0  0  0
 20 53  1  0  0  0
 21 54  1  0  0  0
 21 55  1  0  0  0
 22 56  1  0  0  0
 22 57  1  0  0  0
 23 58  1  0  0  0
 23 59  1  0  0  0
 24 60  1  0  0  0
 24 61  1  0  0  0
 25 62  1  0  0  0
 25 63  1  0  0  0
 26 64  1  0  0  0
 26 65  1  0  0  0
 27 66  1  0  0  0
 27 67  1  0  0  0
 28 68  1  0  0  0
 28 69  1  0  0  0
 29 70  1  0  0  0
 29 71  1  0  0  0
 30 72  1  0  0  0
 30 73  1  0  0  0
 31 74  1  0  0  0
 33 75  1  0  0  0
 34 76  1  0  0  0
 35 77  1  0  0  0
 35 78  1  0  0  0
M  END
$$$$
