6g9m_ligand
  -I-interpret- 

 67 71  0  0  0  0  0  0  0  0999 V2000
   -0.5160   11.3870   47.8620 C   0  0  0  0  0
    0.7310   10.5430   48.1330 C   0  0  0  0  0
    0.4390    9.5620   49.2730 C   0  0  0  0  0
    1.0180    9.7470   46.9230 N   0  0  0  0  0
    2.1070    8.9680   46.7700 C   0  0  0  0  0
    2.4470    8.5760   45.3420 C   0  0  0  0  0
    6.0020    9.5030   44.7690 C   0  0  0  0  0
    7.1630   10.2360   44.5800 C   0  0  0  0  0
    8.3810    9.5920   44.4350 C   0  0  0  0  0
    8.4730    8.1990   44.4660 C   0  0  0  0  0
    7.2930    7.4630   44.6440 C   0  0  0  0  0
    6.0650    8.1210   44.8090 C   0  0  0  0  0
    4.6930    7.5880   45.0180 C   0  0  0  0  0
    4.3270    6.4310   45.0910 O   0  0  0  0  0
   12.4710    9.6090   41.9460 C   0  0  0  0  0
   13.7560   10.3490   41.6350 C   0  0  0  0  0
   13.4210   11.6240   40.9050 C   0  0  0  0  0
   11.4700   10.7490   39.9390 C   0  0  0  0  0
   11.6320    9.4420   40.6850 C   0  0  0  0  0
    4.3790   12.9170   48.5040 C   0  0  0  0  0
    3.5870   13.0200   47.3770 C   0  0  0  0  0
    2.4250   12.2740   47.2720 C   0  0  0  0  0
    2.8050    8.5810   47.7070 O   0  0  0  0  0
    3.8770    8.6680   45.1190 N   0  0  0  0  0
    4.5800    9.9440   44.9580 C   0  0  0  0  0
    9.7960    7.5390   44.2960 C   0  0  0  0  0
   10.6640    8.2030   43.5240 N   0  0  0  0  0
   11.8740    7.6390   43.3440 C   0  0  0  0  0
   12.7530    8.3070   42.5610 N   0  0  0  0  0
   12.7430   11.3610   39.6750 O   0  0  0  0  0
   12.2950    6.4730   43.8630 N   0  0  0  0  0
   11.4160    5.8420   44.6470 C   0  0  0  0  0
   10.1500    6.3380   44.9020 C   0  0  0  0  0
    9.0880    5.4450   45.9390 Cl  0  0  0  0  0
    2.0300   11.4180   48.2940 C   0  0  0  0  0
    2.8440   11.3150   49.4190 C   0  0  0  0  0
    4.0040   12.0690   49.5260 C   0  0  0  0  0
   -0.6753   12.0746   48.6926 H   0  0  0  0  0
   -0.3767   11.9535   46.9413 H   0  0  0  0  0
   -1.3813   10.7321   47.7597 H   0  0  0  0  0
    1.2681    8.8609   49.3686 H   0  0  0  0  0
    0.3198   10.1149   50.2048 H   0  0  0  0  0
   -0.4779    9.0148   49.0538 H   0  0  0  0  0
    0.3494    9.7894   46.1539 H   0  0  0  0  0
    1.9367    9.2531   44.6570 H   0  0  0  0  0
    2.1264    7.5485   45.1701 H   0  0  0  0  0
    7.1175   11.3245   44.5453 H   0  0  0  0  0
    9.2851   10.1842   44.2940 H   0  0  0  0  0
    7.3299    6.3737   44.6542 H   0  0  0  0  0
   11.9004   10.2016   42.6611 H   0  0  0  0  0
   14.3984    9.7261   41.0126 H   0  0  0  0  0
   14.2804   10.5820   42.5617 H   0  0  0  0  0
   14.3502   12.1482   40.6816 H   0  0  0  0  0
   12.7666   12.2227   41.5386 H   0  0  0  0  0
   10.8793   11.4283   40.5536 H   0  0  0  0  0
   10.9784   10.5467   38.9874 H   0  0  0  0  0
   10.6426    9.0895   40.9765 H   0  0  0  0  0
   12.1379    8.7339   40.0287 H   0  0  0  0  0
    5.2950   13.5022   48.5856 H   0  0  0  0  0
    3.8774   13.6903   46.5681 H   0  0  0  0  0
    1.8112   12.3591   46.3753 H   0  0  0  0  0
    4.2017   10.5407   44.1279 H   0  0  0  0  0
    4.4483   10.6165   45.8056 H   0  0  0  0  0
   13.6636    7.8809   42.3886 H   0  0  0  0  0
   11.7087    4.8970   45.1047 H   0  0  0  0  0
    2.5670   10.6347   50.2244 H   0  0  0  0  0
    4.6214   11.9911   50.4209 H   0  0  0  0  0
  2  1  1  0  0  0
  2  3  1  0  0  0
  4  2  1  0  0  0
  2 35  1  0  0  0
  5  4  1  0  0  0
  6  5  1  0  0  0
  5 23  2  0  0  0
 24  6  1  0  0  0
  8  7  4  0  0  0
 12  7  4  0  0  0
  7 25  1  0  0  0
  9  8  4  0  0  0
 10  9  4  0  0  0
 10 11  4  0  0  0
 26 10  1  0  0  0
 11 12  4  0  0  0
 12 13  1  0  0  0
 13 14  2  0  0  0
 13 24  1  0  0  0
 15 16  1  0  0  0
 15 19  1  0  0  0
 29 15  1  0  0  0
 16 17  1  0  0  0
 17 30  1  0  0  0
 19 18  1  0  0  0
 18 30  1  0  0  0
 21 20  4  0  0  0
 20 37  4  0  0  0
 22 21  4  0  0  0
 35 22  4  0  0  0
 24 25  1  0  0  0
 27 26  4  0  0  0
 26 33  4  0  0  0
 28 27  4  0  0  0
 28 29  1  0  0  0
 28 31  4  0  0  0
 31 32  4  0  0  0
 32 33  4  0  0  0
 33 34  1  0  0  0
 35 36  4  0  0  0
 36 37  4  0  0  0
  1 38  1  0  0  0
  1 39  1  0  0  0
  1 40  1  0  0  0
  3 41  1  0  0  0
  3 42  1  0  0  0
  3 43  1  0  0  0
  4 44  1  0  0  0
  6 45  1  0  0  0
  6 46  1  0  0  0
  8 47  1  0  0  0
  9 48  1  0  0  0
 11 49  1  0  0  0
 15 50  1  0  0  0
 16 51  1  0  0  0
 16 52  1  0  0  0
 17 53  1  0  0  0
 17 54  1  0  0  0
 18 55  1  0  0  0
 18 56  1  0  0  0
 19 57  1  0  0  0
 19 58  1  0  0  0
 20 59  1  0  0  0
 21 60  1  0  0  0
 22 61  1  0  0  0
 25 62  1  0  0  0
 25 63  1  0  0  0
 29 64  1  0  0  0
 32 65  1  0  0  0
 36 66  1  0  0  0
 37 67  1  0  0  0
M  END
$$$$
