4uy1_ligand
  -I-interpret- 

 25 26  0  0  0  0  0  0  0  0999 V2000
    0.0720   -4.5100   -3.6340 C   0  0  0  0  0
    0.4990   -3.9360   -2.3460 C   0  0  0  0  0
   -0.3070   -3.4180   -1.3600 C   0  0  0  0  0
    0.4200   -2.9370   -0.2360 C   0  0  0  0  0
    1.7860   -3.0950   -0.3630 C   0  0  0  0  0
    2.8280   -2.7160    0.5940 C   0  0  0  0  0
    2.1600   -3.8190   -1.8920 S   0  0  0  0  0
   -0.3080   -2.3550    0.8660 C   0  0  0  0  0
    0.0830   -1.2250    1.6350 C   0  0  0  0  0
   -0.9630   -1.0610    2.5220 C   0  0  0  0  0
   -1.8540   -2.0550    2.2280 N   0  0  0  0  0
   -1.4910   -2.8590    1.2210 N   0  0  0  0  0
   -1.2300   -0.1270    3.5650 C   0  0  0  0  0
   -2.1280   -0.3330    4.3550 O   0  0  0  0  0
   -0.4300    0.9960    3.6120 N   0  0  0  0  0
   -0.5797   -5.3644   -3.4513 H   0  0  0  0  0
   -0.4681   -3.7551   -4.2055 H   0  0  0  0  0
    0.9489   -4.8336   -4.1947 H   0  0  0  0  0
   -1.3939   -3.3798   -1.4323 H   0  0  0  0  0
    2.7833   -1.6414    0.7712 H   0  0  0  0  0
    2.6684   -3.2472    1.5323 H   0  0  0  0  0
    3.8050   -2.9783    0.1882 H   0  0  0  0  0
    0.9918   -0.6298    1.5458 H   0  0  0  0  0
   -0.5808    1.6997    4.3348 H   0  0  0  0  0
    0.3123    1.1225    2.9240 H   0  0  0  0  0
  1  2  1  0  0  0
  2  3  4  0  0  0
  2  7  4  0  0  0
  3  4  4  0  0  0
  4  5  4  0  0  0
  4  8  1  0  0  0
  5  6  1  0  0  0
  5  7  4  0  0  0
  8  9  4  0  0  0
  8 12  4  0  0  0
  9 10  4  0  0  0
 10 11  4  0  0  0
 10 13  1  0  0  0
 11 12  4  0  0  0
 13 14  2  0  0  0
 13 15  1  0  0  0
  1 16  1  0  0  0
  1 17  1  0  0  0
  1 18  1  0  0  0
  3 19  1  0  0  0
  6 20  1  0  0  0
  6 21  1  0  0  0
  6 22  1  0  0  0
  9 23  1  0  0  0
 15 24  1  0  0  0
 15 25  1  0  0  0
M  END
$$$$
