3vdb_ligand
  -I-interpret- 

 22 22  0  0  0  0  0  0  0  0999 V2000
  -11.2710  -26.9760  -25.6780 C   0  0  0  0  0
  -10.3110  -28.0180  -25.1710 C   0  0  0  0  0
   -9.5880  -28.6570  -26.3420 C   0  0  0  0  0
  -10.5840  -29.0700  -27.4300 C   0  0  0  0  0
  -11.2610  -27.8410  -28.0290 C   0  0  0  0  0
  -12.4080  -28.2360  -28.9500 C   0  0  0  0  0
  -11.6400  -26.0740  -24.9510 O   0  0  0  0  0
   -9.3310  -27.4540  -24.2930 O   0  0  0  0  0
   -8.8410  -29.7750  -25.8490 O   0  0  0  0  0
  -11.6060  -29.9330  -26.9200 O   0  0  0  0  0
  -11.8230  -26.9900  -27.0270 O   0  0  0  0  0
  -11.9010  -28.7990  -30.1630 O   0  0  0  0  0
  -10.8924  -28.7575  -24.6204 H   0  0  0  0  0
   -8.9028  -27.9446  -26.8014 H   0  0  0  0  0
  -10.0119  -29.6025  -28.1898 H   0  0  0  0  0
  -10.4767  -27.3165  -28.5748 H   0  0  0  0  0
  -12.9944  -27.3485  -29.1880 H   0  0  0  0  0
  -13.0289  -28.9771  -28.4466 H   0  0  0  0  0
   -9.7713  -27.0444  -23.5447 H   0  0  0  0  0
   -8.2300  -29.4764  -25.1714 H   0  0  0  0  0
  -11.2014  -30.7150  -26.5373 H   0  0  0  0  0
  -12.6345  -29.0427  -30.7324 H   0  0  0  0  0
  1  2  1  0  0  0
  1  7  2  0  0  0
  1 11  1  0  0  0
  2  3  1  0  0  0
  2  8  1  0  0  0
  3  4  1  0  0  0
  3  9  1  0  0  0
  4  5  1  0  0  0
  4 10  1  0  0  0
  5  6  1  0  0  0
  5 11  1  0  0  0
  6 12  1  0  0  0
  2 13  1  0  0  0
  3 14  1  0  0  0
  4 15  1  0  0  0
  5 16  1  0  0  0
  6 17  1  0  0  0
  6 18  1  0  0  0
  8 19  1  0  0  0
  9 20  1  0  0  0
 10 21  1  0  0  0
 12 22  1  0  0  0
M  END
$$$$
