3rf4_ligand
  -I-interpret- 

 32 33  0  0  0  0  0  0  0  0999 V2000
  -50.8250   48.7010   12.8980 N   0  0  0  0  0
  -50.1660   47.8100   13.8770 S   0  0  0  0  0
  -51.1520   46.9120   14.5080 O   0  0  0  0  0
  -49.2080   48.5740   14.7760 O   0  0  0  0  0
  -49.1590   46.7810   13.0010 C   0  0  0  0  0
  -48.0870   47.2760   12.0780 C   0  0  0  0  0
  -47.8000   48.7710   11.8270 Cl  0  0  0  0  0
  -47.3210   46.3680   11.3290 C   0  0  0  0  0
  -47.5260   44.9880   11.4800 C   0  0  0  0  0
  -46.7520   44.0570   10.7580 N   0  0  0  0  0
  -45.9250   44.6450    9.6700 C   0  0  0  0  0
  -46.7150   44.9890    8.4510 C   0  0  0  0  0
  -47.4070   44.0500    7.7020 C   0  0  0  0  0
  -48.0280   44.7270    6.6670 C   0  0  0  0  0
  -47.7030   46.0600    6.7940 C   0  0  0  0  0
  -46.9000   46.2720    7.9350 O   0  0  0  0  0
  -48.5390   44.5270   12.4150 C   0  0  0  0  0
  -49.3230   45.4110   13.2360 C   0  0  0  0  0
  -48.6830   43.0520   12.6430 C   0  0  0  0  0
  -49.3420   42.6860   13.6280 O   0  0  0  0  0
  -48.1290   42.2760   11.8520 O   0  0  0  0  0
  -51.8311   48.6341   12.7440 H   0  0  0  0  0
  -50.2735   49.3825   12.3767 H   0  0  0  0  0
  -46.5682   46.7347   10.6312 H   0  0  0  0  0
  -46.7584   43.0583   10.9653 H   0  0  0  0  0
  -45.1809   43.9021    9.3825 H   0  0  0  0  0
  -45.4863   45.5675   10.0504 H   0  0  0  0  0
  -47.4534   42.9778    7.8928 H   0  0  0  0  0
  -48.6580   44.2869    5.8940 H   0  0  0  0  0
  -48.0225   46.8437    6.1070 H   0  0  0  0  0
  -50.0060   45.0351   13.9978 H   0  0  0  0  0
  -49.6751   43.4569   14.0932 H   0  0  0  0  0
  1  2  1  0  0  0
  2  3  2  0  0  0
  2  4  2  0  0  0
  2  5  1  0  0  0
  5  6  4  0  0  0
  5 18  4  0  0  0
  6  7  1  0  0  0
  6  8  4  0  0  0
  8  9  4  0  0  0
  9 10  1  0  0  0
  9 17  4  0  0  0
 10 11  1  0  0  0
 11 12  1  0  0  0
 12 13  4  0  0  0
 12 16  4  0  0  0
 13 14  4  0  0  0
 14 15  4  0  0  0
 15 16  4  0  0  0
 17 18  4  0  0  0
 17 19  1  0  0  0
 19 20  1  0  0  0
 19 21  2  0  0  0
  1 22  1  0  0  0
  1 23  1  0  0  0
  8 24  1  0  0  0
 10 25  1  0  0  0
 11 26  1  0  0  0
 11 27  1  0  0  0
 13 28  1  0  0  0
 14 29  1  0  0  0
 15 30  1  0  0  0
 18 31  1  0  0  0
 20 32  1  0  0  0
M  END
$$$$
