4zun_ligand
  -I-interpret- 

 33 32  0  0  0  0  0  0  0  0999 V2000
  -10.4520    0.8360  -28.1850 C   0  0  0  0  0
  -10.4220    1.7670  -26.9840 C   0  0  0  0  0
  -11.3550    2.9580  -27.1930 C   0  0  0  0  0
  -11.9280    5.1390  -26.0180 C   0  0  0  0  0
  -11.7420    5.8950  -27.3380 C   0  0  0  0  0
  -12.4210    7.2630  -27.2010 C   0  0  0  0  0
  -12.1910    8.2180  -28.3750 C   0  0  0  0  0
  -13.1730    9.3940  -28.2970 C   0  0  0  0  0
   -9.6430   -0.3210  -27.8450 N   0  3  0  0  0
  -11.4250    3.7720  -25.9940 N   0  3  0  0  0
  -13.1460   10.4890  -29.7400 S   0  0  0  0  0
  -10.0583    1.3354  -29.0703 H   0  0  0  0  0
  -11.4745    0.5374  -28.4163 H   0  0  0  0  0
   -9.4052    2.1374  -26.8534 H   0  0  0  0  0
  -10.7514    1.2143  -26.1042 H   0  0  0  0  0
  -12.3532    2.5868  -27.4254 H   0  0  0  0  0
  -10.9701    3.5676  -28.0105 H   0  0  0  0  0
  -13.0029    5.0745  -25.8490 H   0  0  0  0  0
  -11.3618    5.6886  -25.2661 H   0  0  0  0  0
  -12.1881    5.3339  -28.1592 H   0  0  0  0  0
  -10.6809    6.0213  -27.5531 H   0  0  0  0  0
  -11.9944    7.7398  -26.3185 H   0  0  0  0  0
  -13.4941    7.0787  -27.1501 H   0  0  0  0  0
  -12.3495    7.6806  -29.3100 H   0  0  0  0  0
  -11.1710    8.5998  -28.3314 H   0  0  0  0  0
  -12.8846    9.9947  -27.4344 H   0  0  0  0  0
  -14.1753    8.9701  -28.2360 H   0  0  0  0  0
   -9.6378   -0.9731  -28.6293 H   0  0  0  0  0
   -8.6891   -0.0204  -27.6448 H   0  0  0  0  0
  -10.0359   -0.7794  -27.0229 H   0  0  0  0  0
  -10.4484    3.8804  -25.7202 H   0  0  0  0  0
  -12.0986    3.2787  -25.4081 H   0  0  0  0  0
  -14.0298   11.4680  -29.5683 H   0  0  0  0  0
  2  1  1  0  0  0
  1  9  1  0  0  0
  3  2  1  0  0  0
 10  3  1  0  0  0
  4  5  1  0  0  0
  4 10  1  0  0  0
  5  6  1  0  0  0
  6  7  1  0  0  0
  7  8  1  0  0  0
  8 11  1  0  0  0
  1 12  1  0  0  0
  1 13  1  0  0  0
  2 14  1  0  0  0
  2 15  1  0  0  0
  3 16  1  0  0  0
  3 17  1  0  0  0
  4 18  1  0  0  0
  4 19  1  0  0  0
  5 20  1  0  0  0
  5 21  1  0  0  0
  6 22  1  0  0  0
  6 23  1  0  0  0
  7 24  1  0  0  0
  7 25  1  0  0  0
  8 26  1  0  0  0
  8 27  1  0  0  0
  9 28  1  0  0  0
  9 29  1  0  0  0
  9 30  1  0  0  0
 10 31  1  0  0  0
 10 32  1  0  0  0
 11 33  1  0  0  0
M  END
$$$$
