1bnu_ligand
  -I-interpret- 

 34 36  0  0  0  0  0  0  0  0999 V2000
   -5.3870    2.1330   15.8720 C   0  0  0  0  0
   -2.3100    3.0260   12.8700 O   0  0  0  0  0
   -3.3960    5.1670   12.7360 C   0  0  0  0  0
   -2.9520    4.0030   13.6750 C   0  0  0  0  0
   -3.0250    6.6200   14.5750 C   0  0  0  0  0
   -2.4260    7.8850   14.2360 C   0  0  0  0  0
   -2.4300    8.5120   13.0050 C   0  0  0  0  0
   -1.7940    9.7230   13.0680 C   0  0  0  0  0
   -1.2980   10.0360   14.3240 C   0  0  0  0  0
   -5.4610    0.9870   18.1890 O   0  0  0  0  0
   -7.3040    0.8500   16.8940 O   0  0  0  0  0
   -5.3540   -0.3940   16.2360 N   0  0  0  0  0
   -5.8810    0.8350   16.8560 S   0  0  0  0  0
   -4.2640    2.2050   15.1130 C   0  0  0  0  0
   -4.1360    3.3590   14.4010 C   0  0  0  0  0
   -5.2000    4.1940   14.6360 C   0  0  0  0  0
   -6.3430    3.5400   15.7230 S   0  0  0  0  0
   -5.3150    5.8180   14.0610 S   0  0  0  0  0
   -6.2970    5.8260   13.0500 O   0  0  0  0  0
   -5.8480    6.6350   15.1020 O   0  0  0  0  0
   -3.9840    6.2390   13.5360 N   0  0  0  0  0
   -1.6320    8.7810   15.4670 S   0  0  0  0  0
   -1.5669    3.4272   12.4134 H   0  0  0  0  0
   -4.1337    4.7983   12.0233 H   0  0  0  0  0
   -2.5299    5.5493   12.1958 H   0  0  0  0  0
   -2.2855    4.4023   14.4395 H   0  0  0  0  0
   -2.2484    5.8588   14.6489 H   0  0  0  0  0
   -3.5412    6.7074   15.5310 H   0  0  0  0  0
   -2.8799    8.0975   12.1029 H   0  0  0  0  0
   -1.6872   10.3825   12.2067 H   0  0  0  0  0
   -0.7649   10.9566   14.5615 H   0  0  0  0  0
   -4.7555   -1.0205   16.7742 H   0  0  0  0  0
   -5.5879   -0.6180   15.2688 H   0  0  0  0  0
   -3.5250    1.4046   15.0763 H   0  0  0  0  0
  1 17  4  0  0  0
  1 14  4  0  0  0
  1 13  1  0  0  0
 13 10  2  0  0  0
 13 11  2  0  0  0
 13 12  1  0  0  0
 14 15  4  0  0  0
 15 16  4  0  0  0
 15  4  1  0  0  0
  4  3  1  0  0  0
  4  2  1  0  0  0
  3 21  1  0  0  0
 21  5  1  0  0  0
 21 18  1  0  0  0
 18 20  2  0  0  0
 18 19  2  0  0  0
 18 16  1  0  0  0
 16 17  4  0  0  0
  5  6  1  0  0  0
  6 22  4  0  0  0
  6  7  4  0  0  0
  7  8  4  0  0  0
  8  9  4  0  0  0
  9 22  4  0  0  0
  2 23  1  0  0  0
  3 24  1  0  0  0
  3 25  1  0  0  0
  4 26  1  0  0  0
  5 27  1  0  0  0
  5 28  1  0  0  0
  7 29  1  0  0  0
  8 30  1  0  0  0
  9 31  1  0  0  0
 12 32  1  0  0  0
 12 33  1  0  0  0
 14 34  1  0  0  0
M  END
$$$$
