4xg8_ligand
  -I-interpret- 

 52 56  0  0  0  0  0  0  0  0999 V2000
   -4.8740   -6.2340    1.8550 C   0  0  0  0  0
   -5.9340   -5.3380    1.8130 C   0  0  0  0  0
   -5.7110   -4.1450    1.1330 C   0  0  0  0  0
   -4.4840   -3.8150    0.5180 N   0  0  0  0  0
   -3.7290   -5.8300    1.2670 N   0  0  0  0  0
   -1.4660  -10.4920    5.9420 C   0  0  0  0  0
   -1.2140   -9.0690    6.5310 C   0  0  0  0  0
    0.0930   -8.5540    6.2860 O   0  0  0  0  0
   -2.2110   -8.5130    5.5520 C   0  0  0  0  0
   -2.0890   -9.7730    4.7740 N   0  3  0  0  0
   -3.3030  -10.3270    4.1500 C   0  0  0  0  0
   -4.1890   -9.1750    3.6040 C   0  0  0  0  0
   -3.8080   -8.1780    2.8480 C   0  0  0  0  0
   -5.4700   -8.9590    3.7800 C   0  0  0  0  0
   -6.4460   -9.8470    4.5610 C   0  0  0  0  0
   -5.8080   -7.8490    3.1210 N   0  0  0  0  0
   -4.8800   -7.4000    2.5490 N   0  0  0  0  0
   -3.4680   -4.6890    0.6020 C   0  0  0  0  0
   -2.2210   -4.4610    0.0590 N   0  0  0  0  0
   -1.2040   -5.3270    0.3280 C   0  0  0  0  0
    0.1580   -5.2310   -0.0300 C   0  0  0  0  0
    1.0040   -6.2350    0.3470 C   0  0  0  0  0
    2.2780   -6.5420    0.2380 C   0  0  0  0  0
    3.4490   -5.5970   -0.5410 Cl  0  0  0  0  0
    2.5510   -7.7080    0.8390 N   0  0  0  0  0
    1.6050   -8.1350    1.2970 N   0  0  0  0  0
    1.3130   -9.4040    2.0890 C   0  0  0  0  0
    0.6180   -7.2940    1.0410 C   0  0  0  0  0
   -0.6150   -7.4110    1.3850 C   0  0  0  0  0
   -1.4980   -6.4540    1.0340 C   0  0  0  0  0
   -6.8903   -5.5578    2.2877 H   0  0  0  0  0
   -6.5280   -3.4261    1.0718 H   0  0  0  0  0
   -1.9878  -11.2720    6.4964 H   0  0  0  0  0
   -0.6694  -11.2261    5.8214 H   0  0  0  0  0
   -1.2965   -8.9069    7.6057 H   0  0  0  0  0
    0.7068   -8.9251    6.9241 H   0  0  0  0  0
   -2.0500   -7.5447    5.0781 H   0  0  0  0  0
   -3.1841   -8.1540    5.8870 H   0  0  0  0  0
   -1.5887   -9.7676    3.8851 H   0  0  0  0  0
   -3.8649  -10.8907    4.8947 H   0  0  0  0  0
   -3.0173  -10.9820    3.3269 H   0  0  0  0  0
   -2.7873   -7.9992    2.5101 H   0  0  0  0  0
   -6.4728  -10.8391    4.1103 H   0  0  0  0  0
   -6.1146   -9.9257    5.5964 H   0  0  0  0  0
   -7.4420   -9.4052    4.5295 H   0  0  0  0  0
   -2.0613   -3.6505   -0.5393 H   0  0  0  0  0
    0.5265   -4.3747   -0.5948 H   0  0  0  0  0
    1.5671  -10.2746    1.4844 H   0  0  0  0  0
    1.9097   -9.4068    3.0012 H   0  0  0  0  0
    0.2541   -9.4349    2.3459 H   0  0  0  0  0
   -0.9448   -8.2783    1.9569 H   0  0  0  0  0
   -2.5344   -6.5943    1.3412 H   0  0  0  0  0
  1  2  4  0  0  0
  1  5  4  0  0  0
 17  1  1  0  0  0
  2  3  4  0  0  0
  3  4  4  0  0  0
 18  4  4  0  0  0
  5 18  4  0  0  0
  6  7  1  0  0  0
 10  6  1  0  0  0
  7  8  1  0  0  0
  9  7  1  0  0  0
 10  9  1  0  0  0
 11 10  1  0  0  0
 12 11  1  0  0  0
 13 12  4  0  0  0
 12 14  4  0  0  0
 13 17  4  0  0  0
 14 15  1  0  0  0
 14 16  4  0  0  0
 16 17  4  0  0  0
 18 19  1  0  0  0
 19 20  1  0  0  0
 20 21  4  0  0  0
 20 30  4  0  0  0
 21 22  4  0  0  0
 22 23  4  0  0  0
 22 28  4  0  0  0
 23 24  1  0  0  0
 23 25  4  0  0  0
 25 26  4  0  0  0
 26 27  1  0  0  0
 26 28  4  0  0  0
 28 29  4  0  0  0
 29 30  4  0  0  0
  2 31  1  0  0  0
  3 32  1  0  0  0
  6 33  1  0  0  0
  6 34  1  0  0  0
  7 35  1  0  0  0
  8 36  1  0  0  0
  9 37  1  0  0  0
  9 38  1  0  0  0
 10 39  1  0  0  0
 11 40  1  0  0  0
 11 41  1  0  0  0
 13 42  1  0  0  0
 15 43  1  0  0  0
 15 44  1  0  0  0
 15 45  1  0  0  0
 19 46  1  0  0  0
 21 47  1  0  0  0
 27 48  1  0  0  0
 27 49  1  0  0  0
 27 50  1  0  0  0
 29 51  1  0  0  0
 30 52  1  0  0  0
M  END
$$$$
