6bod_ligand
  -I-interpret- 

 42 44  0  0  0  0  0  0  0  0999 V2000
  -25.0090  -18.0320   -2.9650 C   0  0  0  0  0
  -26.2250  -17.1450   -2.7150 C   0  0  0  0  0
  -26.5370  -14.8900   -1.8890 C   0  0  0  0  0
  -26.5670  -13.8920   -0.7780 C   0  0  0  0  0
  -26.4590  -14.2370    0.5700 C   0  0  0  0  0
  -26.4800  -13.3290    1.6240 C   0  0  0  0  0
  -26.3890  -13.6340    3.0900 C   0  0  0  0  0
  -26.2700  -12.5410    4.1120 C   0  0  0  0  0
  -26.0430  -12.7590    5.4800 C   0  0  0  0  0
  -25.9380  -11.7560    6.4510 C   0  0  0  0  0
  -25.6850  -12.0640    7.9510 C   0  0  0  0  0
  -24.6970  -11.1150    8.6380 C   0  0  0  0  0
  -25.2440  -13.5190    8.1990 C   0  0  0  0  0
  -26.0980  -10.4660    5.9420 C   0  0  0  0  0
  -26.3340  -10.1940    4.5840 C   0  0  0  0  0
  -26.4280  -11.2300    3.6240 C   0  0  0  0  0
  -26.6280  -11.9610    1.3010 C   0  0  0  0  0
  -26.7090  -12.4910   -1.0470 C   0  0  0  0  0
  -26.7390  -11.5450   -0.0040 N   0  0  0  0  0
  -26.8200  -12.0640   -2.3210 N   0  0  0  0  0
  -25.9790  -16.1350   -1.7320 O   0  0  0  0  0
  -27.0120  -14.6090   -2.9710 O   0  0  0  0  0
  -26.4090  -14.7930    3.4180 O   0  0  0  0  0
  -26.6710  -10.9680    2.2760 O   0  0  0  0  0
  -24.1794  -17.4184   -3.3162 H   0  0  0  0  0
  -24.7271  -18.5298   -2.0372 H   0  0  0  0  0
  -25.2549  -18.7792   -3.7196 H   0  0  0  0  0
  -27.0322  -17.7792   -2.3484 H   0  0  0  0  0
  -26.4740  -16.6466   -3.6519 H   0  0  0  0  0
  -26.3504  -15.2936    0.8146 H   0  0  0  0  0
  -25.9403  -13.7918    5.8129 H   0  0  0  0  0
  -26.6624  -11.9026    8.4056 H   0  0  0  0  0
  -23.7315  -11.1716    8.1353 H   0  0  0  0  0
  -25.0772  -10.0949    8.5834 H   0  0  0  0  0
  -24.5821  -11.4059    9.6822 H   0  0  0  0  0
  -26.0207  -14.1978    7.8468 H   0  0  0  0  0
  -24.3174  -13.7135    7.6589 H   0  0  0  0  0
  -25.0829  -13.6716    9.2662 H   0  0  0  0  0
  -26.0366   -9.6262    6.6341 H   0  0  0  0  0
  -26.4476   -9.1590    4.2615 H   0  0  0  0  0
  -26.8027  -12.7366   -3.0876 H   0  0  0  0  0
  -26.9213  -11.0684   -2.5182 H   0  0  0  0  0
  2  1  1  0  0  0
 21  2  1  0  0  0
  3  4  1  0  0  0
  3 21  1  0  0  0
  3 22  2  0  0  0
  4  5  4  0  0  0
  4 18  4  0  0  0
  5  6  4  0  0  0
  6  7  1  0  0  0
  6 17  4  0  0  0
  7  8  1  0  0  0
  7 23  2  0  0  0
  8  9  4  0  0  0
  8 16  4  0  0  0
  9 10  4  0  0  0
 10 11  1  0  0  0
 10 14  4  0  0  0
 11 12  1  0  0  0
 11 13  1  0  0  0
 14 15  4  0  0  0
 15 16  4  0  0  0
 16 24  1  0  0  0
 17 19  4  0  0  0
 17 24  1  0  0  0
 18 19  4  0  0  0
 18 20  1  0  0  0
  1 25  1  0  0  0
  1 26  1  0  0  0
  1 27  1  0  0  0
  2 28  1  0  0  0
  2 29  1  0  0  0
  5 30  1  0  0  0
  9 31  1  0  0  0
 11 32  1  0  0  0
 12 33  1  0  0  0
 12 34  1  0  0  0
 12 35  1  0  0  0
 13 36  1  0  0  0
 13 37  1  0  0  0
 13 38  1  0  0  0
 14 39  1  0  0  0
 15 40  1  0  0  0
 20 41  1  0  0  0
 20 42  1  0  0  0
M  END
$$$$
