### 
### Created by X-TOOL on Mon Sep 10 21:12:58 2018
### 

@<TRIPOS>MOLECULE
3d1f_ligand
  143   143     1     0     0
SMALL
GAST_HUCK


@<TRIPOS>ATOM
      1 N          46.9730   97.7320  116.0990 N.4       1 SER         0.2396
      2 CA         46.9340   98.2710  114.7030 C.3       1 SER         0.0885
      3 C          47.0060   99.7950  114.7280 C.2       1 SER         0.2290
      4 O          46.3160  100.4420  115.5190 O.2       1 SER        -0.3906
      5 CB         45.6520   97.8230  114.0000 C.3       1 SER         0.1041
      6 OG         44.5020   98.2120  114.7310 O.3       1 SER        -0.3870
      7 N          47.8420  100.3670  113.8660 N.am      1 GLU        -0.2608
      8 CA         47.9840  101.8170  113.8300 C.3       1 GLU         0.1326
      9 C          46.6330  102.4930  113.6340 C.2       1 GLU         0.2040
     10 O          46.3400  103.5040  114.2710 O.2       1 GLU        -0.3944
     11 CB         48.9580  102.2440  112.7320 C.3       1 GLU        -0.0008
     12 CG         49.3130  103.7210  112.8130 C.3       1 GLU         0.0044
     13 CD         50.5420  104.0860  112.0010 C.2       1 GLU         0.0350
     14 OE1        50.5590  103.8100  110.7860 O.co2     1 GLU        -0.5690
     15 OE2        51.4890  104.6590  112.5810 O.co2     1 GLU        -0.5690
     16 N          45.8150  101.9420  112.7470 N.am      1 GLN        -0.2636
     17 CA         44.4800  102.4850  112.5100 C.3       1 GLN         0.1330
     18 C          43.5090  101.6050  113.2800 C.2       1 GLN         0.2041
     19 O          43.4950  100.3840  113.1050 O.2       1 GLN        -0.3944
     20 CB         44.1260  102.4550  111.0200 C.3       1 GLN         0.0045
     21 CG         42.6540  102.7510  110.7270 C.3       1 GLN         0.0412
     22 CD         42.2160  104.1250  111.2110 C.2       1 GLN         0.1737
     23 OE1        41.2450  104.2530  111.9620 O.2       1 GLN        -0.3973
     24 NE2        42.9310  105.1600  110.7800 N.am      1 GLN        -0.3009
     25 N          42.7100  102.2170  114.1440 N.am      1 VAL        -0.2635
     26 CA         41.7440  101.4610  114.9310 C.3       1 VAL         0.1332
     27 C          40.5160  101.1490  114.0840 C.2       1 VAL         0.2042
     28 O          40.0360  102.0000  113.3380 O.2       1 VAL        -0.3944
     29 CB         41.3220  102.2440  116.1890 C.3       1 VAL        -0.0063
     30 CG1        40.3390  101.4200  117.0040 C.3       1 VAL        -0.0584
     31 CG2        42.5630  102.5870  117.0270 C.3       1 VAL        -0.0584
     32 N          40.0210   99.9210  114.1930 N.am      1 GLU        -0.2636
     33 CA         38.8580   99.4860  113.4280 C.3       1 GLU         0.1325
     34 C          37.5500   99.7960  114.1420 C.2       1 GLU         0.2040
     35 O          37.4610   99.6760  115.3610 O.2       1 GLU        -0.3944
     36 CB         38.9400   97.9750  113.1610 C.3       1 GLU        -0.0008
     37 CG         40.1320   97.5550  112.3150 C.3       1 GLU         0.0044
     38 CD         40.0450   98.0660  110.8870 C.2       1 GLU         0.0350
     39 OE1        41.0990   98.1460  110.2220 O.co2     1 GLU        -0.5690
     40 OE2        38.9240   98.3760  110.4260 O.co2     1 GLU        -0.5690
     41 N          36.5380  100.2000  113.3800 N.am      1 LEU        -0.2637
     42 CA         35.2220  100.4900  113.9420 C.3       1 LEU         0.1312
     43 C          34.6890   99.2040  114.5600 C.2       1 LEU         0.2039
     44 O          34.8460   98.1250  113.9860 O.2       1 LEU        -0.3944
     45 CB         34.2500  100.9500  112.8490 C.3       1 LEU        -0.0101
     46 CG         34.2310  102.4190  112.4240 C.3       1 LEU        -0.0425
     47 CD1        33.3080  102.5910  111.2200 C.3       1 LEU        -0.0625
     48 CD2        33.7470  103.2810  113.5900 C.3       1 LEU        -0.0625
     49 N          34.0580   99.3220  115.7240 N.am      1 GLU        -0.2636
     50 CA         33.5100   98.1610  116.4130 C.3       1 GLU         0.1325
     51 C          31.9860   98.2030  116.4790 C.2       1 GLU         0.2041
     52 O          31.4120   98.8910  117.3250 O.2       1 GLU        -0.3944
     53 CB         34.0920   98.0730  117.8270 C.3       1 GLU        -0.0008
     54 CG         35.6050   97.9060  117.8540 C.3       1 GLU         0.0044
     55 CD         36.1660   97.8090  119.2610 C.2       1 GLU         0.0350
     56 OE1        35.7710   96.8810  119.9980 O.co2     1 GLU        -0.5690
     57 OE2        37.0050   98.6610  119.6290 O.co2     1 GLU        -0.5690
     58 N          31.3370   97.4740  115.5740 N.am      1 PHE        -0.2619
     59 CA         29.8780   97.4180  115.5410 C.3       1 PHE         0.1404
     60 C          29.4030   96.2160  116.3510 C.2       1 PHE         0.2055
     61 O          28.4800   96.3200  117.1590 O.2       1 PHE        -0.3942
     62 CB         29.3600   97.2710  114.1060 C.3       1 PHE         0.0214
     63 CG         29.7840   98.3750  113.1770 C.ar      1 PHE        -0.0386
     64 CD1        31.0280   98.3410  112.5550 C.ar      1 PHE        -0.0601
     65 CD2        28.9230   99.4330  112.8980 C.ar      1 PHE        -0.0601
     66 CE1        31.4080   99.3420  111.6660 C.ar      1 PHE        -0.0686
     67 CE2        29.2950  100.4400  112.0080 C.ar      1 PHE        -0.0686
     68 CZ         30.5390  100.3920  111.3910 C.ar      1 PHE        -0.0687
     69 N          30.0460   95.0750  116.1180 N.am      1 ASP        -0.2678
     70 CA         29.7150   93.8310  116.8040 C.3       1 ASP         0.1058
     71 C          29.8950   93.9890  118.3140 C.2       1 ASP         0.0618
     72 O          30.3210   95.0810  118.7460 O.co2     1 ASP        -0.5665
     73 CB         30.6160   92.7050  116.2830 C.3       1 ASP         0.0351
     74 CG         30.1770   91.3290  116.7550 C.2       1 ASP         0.0387
     75 OD1        30.8900   90.3470  116.4510 O.co2     1 ASP        -0.5688
     76 OD2        29.1240   91.2260  117.4190 O.co2     1 ASP        -0.5688
     77 OXT        29.6130   93.0190  119.0480 O.co2     1 ASP        -0.5665
     78 H1         46.9250   96.7255  116.0720 H         1 SER         0.2016
     79 H2         46.1889   98.0919  116.6202 H         1 SER         0.2016
     80 H3         47.8314   98.0155  116.5448 H         1 SER         0.2016
     81 H4         47.7998   97.8819  114.1472 H         1 SER         0.1122
     82 H5         45.6609   96.7274  113.9022 H         1 SER         0.0640
     83 H6         45.6128   98.2801  113.0003 H         1 SER         0.0640
     84 H7         44.4867   99.1582  114.8152 H         1 SER         0.2099
     85 H8         48.3758   99.7992  113.2394 H         1 GLU         0.1885
     86 H9         48.3934  102.1434  114.7974 H         1 GLU         0.0801
     87 H10        48.4965  102.0449  111.7536 H         1 GLU         0.0330
     88 H11        49.8808  101.6532  112.8292 H         1 GLU         0.0330
     89 H12        49.5007  103.9782  113.8659 H         1 GLU         0.0433
     90 H13        48.4603  104.3065  112.4388 H         1 GLU         0.0433
     91 H14        46.1178  101.1405  112.2313 H         1 GLN         0.1883
     92 H15        44.4270  103.5210  112.8759 H         1 GLN         0.0801
     93 H16        44.3630  101.4551  110.6277 H         1 GLN         0.0337
     94 H17        44.7401  103.2069  110.5028 H         1 GLN         0.0337
     95 H18        42.0371  101.9901  111.2275 H         1 GLN         0.0504
     96 H19        42.4949  102.6952  109.6400 H         1 GLN         0.0504
     97 H20        42.6899  106.0877  111.0652 H         1 GLN         0.1814
     98 H21        43.7098  105.0107  110.1707 H         1 GLN         0.1814
     99 H22        42.7712  103.2087  114.2567 H         1 VAL         0.1883
    100 H23        42.2098  100.5152  115.2449 H         1 VAL         0.0802
    101 H24        40.8316  103.1792  115.8809 H         1 VAL         0.0343
    102 H25        40.0420  101.9845  117.9002 H         1 VAL         0.0234
    103 H26        40.8147  100.4755  117.3066 H         1 VAL         0.0234
    104 H27        39.4488  101.2036  116.3952 H         1 VAL         0.0234
    105 H28        43.2615  103.1826  116.4209 H         1 VAL         0.0234
    106 H29        43.0566  101.6580  117.3484 H         1 VAL         0.0234
    107 H30        42.2595  103.1660  117.9116 H         1 VAL         0.0234
    108 H31        40.4591   99.2754  114.8185 H         1 GLU         0.1883
    109 H32        38.8618  100.0173  112.4649 H         1 GLU         0.0801
    110 H33        38.0216   97.6664  112.6402 H         1 GLU         0.0330
    111 H34        39.0044   97.4566  114.1291 H         1 GLU         0.0330
    112 H35        40.1789   96.4562  112.2935 H         1 GLU         0.0433
    113 H36        41.0484   97.9522  112.7759 H         1 GLU         0.0433
    114 H37        36.6820  100.3080  112.3963 H         1 LEU         0.1883
    115 H38        35.3097  101.2727  114.7099 H         1 LEU         0.0800
    116 H39        33.2364  100.7058  113.1996 H         1 LEU         0.0315
    117 H40        34.4788  100.3602  111.9492 H         1 LEU         0.0315
    118 H41        35.2487  102.7292  112.1447 H         1 LEU         0.0298
    119 H42        33.2955  103.6480  110.9157 H         1 LEU         0.0232
    120 H43        32.2896  102.2753  111.4906 H         1 LEU         0.0232
    121 H44        33.6739  101.9737  110.3863 H         1 LEU         0.0232
    122 H45        34.4206  103.1471  114.4493 H         1 LEU         0.0232
    123 H46        32.7281  102.9775  113.8722 H         1 LEU         0.0232
    124 H47        33.7441  104.3386  113.2877 H         1 LEU         0.0232
    125 H48        33.9572  100.2276  116.1359 H         1 GLU         0.1883
    126 H49        33.8047   97.2597  115.8555 H         1 GLU         0.0801
    127 H50        33.6378   97.2107  118.3370 H         1 GLU         0.0330
    128 H51        33.8344   98.9959  118.3672 H         1 GLU         0.0330
    129 H52        36.0623   98.7721  117.3533 H         1 GLU         0.0433
    130 H53        35.8660   96.9872  117.3085 H         1 GLU         0.0433
    131 H54        31.8609   96.9523  114.9007 H         1 PHE         0.1885
    132 H55        29.4730   98.3421  115.9792 H         1 PHE         0.0823
    133 H56        28.2606   97.2508  114.1373 H         1 PHE         0.0474
    134 H57        29.7329   96.3185  113.7013 H         1 PHE         0.0474
    135 H58        31.7096   97.5248  112.7654 H         1 PHE         0.0557
    136 H59        27.9521   99.4744  113.3783 H         1 PHE         0.0557
    137 H60        32.3804   99.3032  111.1885 H         1 PHE         0.0599
    138 H61        28.6155  101.2581  111.7981 H         1 PHE         0.0599
    139 H62        30.8314  101.1715  110.6967 H         1 PHE         0.0559
    140 H63        30.7861   95.0699  115.4455 H         1 ASP         0.1877
    141 H64        28.6653   93.5763  116.5959 H         1 ASP         0.0745
    142 H65        31.6424   92.8856  116.6350 H         1 ASP         0.0471
    143 H66        30.5973   92.7211  115.1833 H         1 ASP         0.0471
@<TRIPOS>BOND
     1    1    2 1  
     2    2    3 1  
     3    2    5 1  
     4    3    4 2  
     5    3    7 am 
     6    5    6 1  
     7    7    8 1  
     8    8    9 1  
     9    8   11 1  
    10    9   10 2  
    11    9   16 am 
    12   11   12 1  
    13   12   13 1  
    14   13   14 ar 
    15   13   15 ar 
    16   16   17 1  
    17   17   18 1  
    18   17   20 1  
    19   18   19 2  
    20   18   25 am 
    21   20   21 1  
    22   21   22 1  
    23   22   23 2  
    24   22   24 am 
    25   25   26 1  
    26   26   27 1  
    27   26   29 1  
    28   27   28 2  
    29   27   32 am 
    30   29   30 1  
    31   29   31 1  
    32   32   33 1  
    33   33   34 1  
    34   33   36 1  
    35   34   35 2  
    36   34   41 am 
    37   36   37 1  
    38   37   38 1  
    39   38   39 ar 
    40   38   40 ar 
    41   41   42 1  
    42   42   43 1  
    43   42   45 1  
    44   43   44 2  
    45   43   49 am 
    46   45   46 1  
    47   46   47 1  
    48   46   48 1  
    49   49   50 1  
    50   50   51 1  
    51   50   53 1  
    52   51   52 2  
    53   51   58 am 
    54   53   54 1  
    55   54   55 1  
    56   55   56 ar 
    57   55   57 ar 
    58   58   59 1  
    59   59   60 1  
    60   59   62 1  
    61   60   61 2  
    62   60   69 am 
    63   62   63 1  
    64   63   64 ar 
    65   63   65 ar 
    66   64   66 ar 
    67   65   67 ar 
    68   66   68 ar 
    69   67   68 ar 
    70   69   70 1  
    71   70   71 1  
    72   70   73 1  
    73   71   72 ar 
    74   71   77 ar 
    75   73   74 1  
    76   74   75 ar 
    77   74   76 ar 
    78    1   78 1  
    79    1   79 1  
    80    1   80 1  
    81    2   81 1  
    82    5   82 1  
    83    5   83 1  
    84    6   84 1  
    85    7   85 1  
    86    8   86 1  
    87   11   87 1  
    88   11   88 1  
    89   12   89 1  
    90   12   90 1  
    91   16   91 1  
    92   17   92 1  
    93   20   93 1  
    94   20   94 1  
    95   21   95 1  
    96   21   96 1  
    97   24   97 1  
    98   24   98 1  
    99   25   99 1  
   100   26  100 1  
   101   29  101 1  
   102   30  102 1  
   103   30  103 1  
   104   30  104 1  
   105   31  105 1  
   106   31  106 1  
   107   31  107 1  
   108   32  108 1  
   109   33  109 1  
   110   36  110 1  
   111   36  111 1  
   112   37  112 1  
   113   37  113 1  
   114   41  114 1  
   115   42  115 1  
   116   45  116 1  
   117   45  117 1  
   118   46  118 1  
   119   47  119 1  
   120   47  120 1  
   121   47  121 1  
   122   48  122 1  
   123   48  123 1  
   124   48  124 1  
   125   49  125 1  
   126   50  126 1  
   127   53  127 1  
   128   53  128 1  
   129   54  129 1  
   130   54  130 1  
   131   58  131 1  
   132   59  132 1  
   133   62  133 1  
   134   62  134 1  
   135   64  135 1  
   136   65  136 1  
   137   66  137 1  
   138   67  138 1  
   139   68  139 1  
   140   69  140 1  
   141   70  141 1  
   142   73  142 1  
   143   73  143 1  
@<TRIPOS>SUBSTRUCTURE
     1 SER         1

