3d1f_ligand
  -I-interpret- 

148148  0  0  0  0  0  0  0  0999 V2000
   46.9730   97.7320  116.0990 N   0  3  0  0  0
   46.9340   98.2710  114.7030 C   0  0  0  0  0
   47.0060   99.7950  114.7280 C   0  0  0  0  0
   46.3160  100.4420  115.5190 O   0  0  0  0  0
   45.6520   97.8230  114.0000 C   0  0  0  0  0
   44.5020   98.2120  114.7310 O   0  0  0  0  0
   47.8420  100.3670  113.8660 N   0  0  0  0  0
   47.9840  101.8170  113.8300 C   0  0  0  0  0
   46.6330  102.4930  113.6340 C   0  0  0  0  0
   46.3400  103.5040  114.2710 O   0  0  0  0  0
   48.9580  102.2440  112.7320 C   0  0  0  0  0
   49.3130  103.7210  112.8130 C   0  0  0  0  0
   50.5420  104.0860  112.0010 C   0  0  0  0  0
   50.5590  103.8100  110.7860 O   0  0  0  0  0
   51.4890  104.6590  112.5810 O   0  0  0  0  0
   45.8150  101.9420  112.7470 N   0  0  0  0  0
   44.4800  102.4850  112.5100 C   0  0  0  0  0
   43.5090  101.6050  113.2800 C   0  0  0  0  0
   43.4950  100.3840  113.1050 O   0  0  0  0  0
   44.1260  102.4550  111.0200 C   0  0  0  0  0
   42.6540  102.7510  110.7270 C   0  0  0  0  0
   42.2160  104.1250  111.2110 C   0  0  0  0  0
   41.2450  104.2530  111.9620 O   0  0  0  0  0
   42.9310  105.1600  110.7800 N   0  0  0  0  0
   42.7100  102.2170  114.1440 N   0  0  0  0  0
   41.7440  101.4610  114.9310 C   0  0  0  0  0
   40.5160  101.1490  114.0840 C   0  0  0  0  0
   40.0360  102.0000  113.3380 O   0  0  0  0  0
   41.3220  102.2440  116.1890 C   0  0  0  0  0
   40.3390  101.4200  117.0040 C   0  0  0  0  0
   42.5630  102.5870  117.0270 C   0  0  0  0  0
   40.0210   99.9210  114.1930 N   0  0  0  0  0
   38.8580   99.4860  113.4280 C   0  0  0  0  0
   37.5500   99.7960  114.1420 C   0  0  0  0  0
   37.4610   99.6760  115.3610 O   0  0  0  0  0
   38.9400   97.9750  113.1610 C   0  0  0  0  0
   40.1320   97.5550  112.3150 C   0  0  0  0  0
   40.0450   98.0660  110.8870 C   0  0  0  0  0
   41.0990   98.1460  110.2220 O   0  0  0  0  0
   38.9240   98.3760  110.4260 O   0  0  0  0  0
   36.5380  100.2000  113.3800 N   0  0  0  0  0
   35.2220  100.4900  113.9420 C   0  0  0  0  0
   34.6890   99.2040  114.5600 C   0  0  0  0  0
   34.8460   98.1250  113.9860 O   0  0  0  0  0
   34.2500  100.9500  112.8490 C   0  0  0  0  0
   34.2310  102.4190  112.4240 C   0  0  0  0  0
   33.3080  102.5910  111.2200 C   0  0  0  0  0
   33.7470  103.2810  113.5900 C   0  0  0  0  0
   34.0580   99.3220  115.7240 N   0  0  0  0  0
   33.5100   98.1610  116.4130 C   0  0  0  0  0
   31.9860   98.2030  116.4790 C   0  0  0  0  0
   31.4120   98.8910  117.3250 O   0  0  0  0  0
   34.0920   98.0730  117.8270 C   0  0  0  0  0
   35.6050   97.9060  117.8540 C   0  0  0  0  0
   36.1660   97.8090  119.2610 C   0  0  0  0  0
   35.7710   96.8810  119.9980 O   0  0  0  0  0
   37.0050   98.6610  119.6290 O   0  0  0  0  0
   31.3370   97.4740  115.5740 N   0  0  0  0  0
   29.8780   97.4180  115.5410 C   0  0  0  0  0
   29.4030   96.2160  116.3510 C   0  0  0  0  0
   28.4800   96.3200  117.1590 O   0  0  0  0  0
   29.3600   97.2710  114.1060 C   0  0  0  0  0
   29.7840   98.3750  113.1770 C   0  0  0  0  0
   31.0280   98.3410  112.5550 C   0  0  0  0  0
   28.9230   99.4330  112.8980 C   0  0  0  0  0
   31.4080   99.3420  111.6660 C   0  0  0  0  0
   29.2950  100.4400  112.0080 C   0  0  0  0  0
   30.5390  100.3920  111.3910 C   0  0  0  0  0
   30.0460   95.0750  116.1180 N   0  0  0  0  0
   29.7150   93.8310  116.8040 C   0  0  0  0  0
   29.8950   93.9890  118.3140 C   0  0  0  0  0
   30.3210   95.0810  118.7460 O   0  0  0  0  0
   30.6160   92.7050  116.2830 C   0  0  0  0  0
   30.1770   91.3290  116.7550 C   0  0  0  0  0
   30.8900   90.3470  116.4510 O   0  0  0  0  0
   29.1240   91.2260  117.4190 O   0  0  0  0  0
   29.6130   93.0190  119.0480 O   0  0  0  0  0
   47.8320   98.0377  116.5563 H   0  0  0  0  0
   46.1673   98.0796  116.6190 H   0  0  0  0  0
   46.9462   96.7128  116.0695 H   0  0  0  0  0
   47.7922   97.8832  114.1542 H   0  0  0  0  0
   45.6614   96.7360  113.9201 H   0  0  0  0  0
   45.6133   98.2915  113.0166 H   0  0  0  0  0
   43.7147   97.9181  114.2670 H   0  0  0  0  0
   48.3865   99.7878  113.2269 H   0  0  0  0  0
   48.3895  102.1346  114.7906 H   0  0  0  0  0
   48.4799  102.0646  111.7690 H   0  0  0  0  0
   49.8763  101.6695  112.8540 H   0  0  0  0  0
   49.5259  103.9527  113.8566 H   0  0  0  0  0
   48.4718  104.2854  112.4107 H   0  0  0  0  0
   51.2713  104.7752  113.5087 H   0  0  0  0  0
   46.1238  101.1245  112.2210 H   0  0  0  0  0
   44.4328  103.5242  112.8354 H   0  0  0  0  0
   44.3327  101.4479  110.6578 H   0  0  0  0  0
   44.7163  103.2298  110.5307 H   0  0  0  0  0
   42.0549  102.0074  111.2525 H   0  0  0  0  0
   42.5182  102.7210  109.6459 H   0  0  0  0  0
   42.6842  106.1064  111.0696 H   0  0  0  0  0
   43.7263  105.0076  110.1598 H   0  0  0  0  0
   42.7724  103.2286  114.2589 H   0  0  0  0  0
   42.2157  100.5305  115.2470 H   0  0  0  0  0
   40.8340  103.1721  115.8914 H   0  0  0  0  0
   39.4574  101.2062  116.3997 H   0  0  0  0  0
   40.8116  100.4844  117.3032 H   0  0  0  0  0
   40.0455  101.9804  117.8916 H   0  0  0  0  0
   43.0642  101.6662  117.3253 H   0  0  0  0  0
   43.2438  103.1967  116.4330 H   0  0  0  0  0
   42.2584  103.1406  117.9152 H   0  0  0  0  0
   40.4678   99.2625  114.8310 H   0  0  0  0  0
   38.8678  100.0379  112.4881 H   0  0  0  0  0
   38.0412   97.6965  112.6109 H   0  0  0  0  0
   39.0427   97.4827  114.1281 H   0  0  0  0  0
   40.1513   96.4657  112.2805 H   0  0  0  0  0
   41.0294   97.9766  112.7677 H   0  0  0  0  0
   38.2536   98.2404  111.0996 H   0  0  0  0  0
   36.6849  100.3102  112.3767 H   0  0  0  0  0
   35.3103  101.2850  114.6825 H   0  0  0  0  0
   33.2596  100.7713  113.2678 H   0  0  0  0  0
   34.5629  100.4087  111.9561 H   0  0  0  0  0
   35.2367  102.7333  112.1450 H   0  0  0  0  0
   33.6716  101.9789  110.3947 H   0  0  0  0  0
   32.2993  102.2778  111.4894 H   0  0  0  0  0
   33.2964  103.6387  110.9194 H   0  0  0  0  0
   32.7416  102.9719  113.8758 H   0  0  0  0  0
   34.4215  103.1560  114.4371 H   0  0  0  0  0
   33.7340  104.3275  113.2856 H   0  0  0  0  0
   33.9552  100.2457  116.1441 H   0  0  0  0  0
   33.7902   97.2752  115.8429 H   0  0  0  0  0
   33.6577   97.1950  118.3051 H   0  0  0  0  0
   33.8572   99.0079  118.3358 H   0  0  0  0  0
   36.0445   98.7843  117.3811 H   0  0  0  0  0
   35.8459   96.9778  117.3358 H   0  0  0  0  0
   37.1661   99.2799  118.9130 H   0  0  0  0  0
   31.8713   96.9418  114.8872 H   0  0  0  0  0
   29.4938   98.3473  115.9615 H   0  0  0  0  0
   28.2713   97.2941  114.1547 H   0  0  0  0  0
   29.7730   96.3432  113.7101 H   0  0  0  0  0
   31.7134   97.5203  112.7666 H   0  0  0  0  0
   27.9467   99.4746  113.3809 H   0  0  0  0  0
   32.3858   99.3029  111.1858 H   0  0  0  0  0
   28.6117  101.2626  111.7969 H   0  0  0  0  0
   30.8330  101.1758  110.6929 H   0  0  0  0  0
   30.8009   95.0698  115.4320 H   0  0  0  0  0
   28.6724   93.5829  116.6054 H   0  0  0  0  0
   30.4703   95.6788  118.0098 H   0  0  0  0  0
   31.6223   92.8815  116.6628 H   0  0  0  0  0
   30.5651   92.7151  115.1942 H   0  0  0  0  0
   31.6467   90.6476  115.9425 H   0  0  0  0  0
  1  2  1  0  0  0
  2  3  1  0  0  0
  2  5  1  0  0  0
  3  4  2  0  0  0
  3  7  1  0  0  0
  5  6  1  0  0  0
  7  8  1  0  0  0
  8  9  1  0  0  0
  8 11  1  0  0  0
  9 10  2  0  0  0
  9 16  1  0  0  0
 11 12  1  0  0  0
 12 13  1  0  0  0
 13 14  2  0  0  0
 13 15  1  0  0  0
 16 17  1  0  0  0
 17 18  1  0  0  0
 17 20  1  0  0  0
 18 19  2  0  0  0
 18 25  1  0  0  0
 20 21  1  0  0  0
 21 22  1  0  0  0
 22 23  2  0  0  0
 22 24  1  0  0  0
 25 26  1  0  0  0
 26 27  1  0  0  0
 26 29  1  0  0  0
 27 28  2  0  0  0
 27 32  1  0  0  0
 29 30  1  0  0  0
 29 31  1  0  0  0
 32 33  1  0  0  0
 33 34  1  0  0  0
 33 36  1  0  0  0
 34 35  2  0  0  0
 34 41  1  0  0  0
 36 37  1  0  0  0
 37 38  1  0  0  0
 38 39  2  0  0  0
 38 40  1  0  0  0
 41 42  1  0  0  0
 42 43  1  0  0  0
 42 45  1  0  0  0
 43 44  2  0  0  0
 43 49  1  0  0  0
 45 46  1  0  0  0
 46 47  1  0  0  0
 46 48  1  0  0  0
 49 50  1  0  0  0
 50 51  1  0  0  0
 50 53  1  0  0  0
 51 52  2  0  0  0
 51 58  1  0  0  0
 53 54  1  0  0  0
 54 55  1  0  0  0
 55 56  2  0  0  0
 55 57  1  0  0  0
 58 59  1  0  0  0
 59 60  1  0  0  0
 59 62  1  0  0  0
 60 61  2  0  0  0
 60 69  1  0  0  0
 62 63  1  0  0  0
 63 64  4  0  0  0
 63 65  4  0  0  0
 64 66  4  0  0  0
 65 67  4  0  0  0
 66 68  4  0  0  0
 67 68  4  0  0  0
 69 70  1  0  0  0
 70 71  1  0  0  0
 70 73  1  0  0  0
 71 72  1  0  0  0
 71 77  2  0  0  0
 73 74  1  0  0  0
 74 75  1  0  0  0
 74 76  2  0  0  0
  1 78  1  0  0  0
  1 79  1  0  0  0
  1 80  1  0  0  0
  2 81  1  0  0  0
  5 82  1  0  0  0
  5 83  1  0  0  0
  6 84  1  0  0  0
  7 85  1  0  0  0
  8 86  1  0  0  0
 11 87  1  0  0  0
 11 88  1  0  0  0
 12 89  1  0  0  0
 12 90  1  0  0  0
 15 91  1  0  0  0
 16 92  1  0  0  0
 17 93  1  0  0  0
 20 94  1  0  0  0
 20 95  1  0  0  0
 21 96  1  0  0  0
 21 97  1  0  0  0
 24 98  1  0  0  0
 24 99  1  0  0  0
 25100  1  0  0  0
 26101  1  0  0  0
 29102  1  0  0  0
 30103  1  0  0  0
 30104  1  0  0  0
 30105  1  0  0  0
 31106  1  0  0  0
 31107  1  0  0  0
 31108  1  0  0  0
 32109  1  0  0  0
 33110  1  0  0  0
 36111  1  0  0  0
 36112  1  0  0  0
 37113  1  0  0  0
 37114  1  0  0  0
 40115  1  0  0  0
 41116  1  0  0  0
 42117  1  0  0  0
 45118  1  0  0  0
 45119  1  0  0  0
 46120  1  0  0  0
 47121  1  0  0  0
 47122  1  0  0  0
 47123  1  0  0  0
 48124  1  0  0  0
 48125  1  0  0  0
 48126  1  0  0  0
 49127  1  0  0  0
 50128  1  0  0  0
 53129  1  0  0  0
 53130  1  0  0  0
 54131  1  0  0  0
 54132  1  0  0  0
 57133  1  0  0  0
 58134  1  0  0  0
 59135  1  0  0  0
 62136  1  0  0  0
 62137  1  0  0  0
 64138  1  0  0  0
 65139  1  0  0  0
 66140  1  0  0  0
 67141  1  0  0  0
 68142  1  0  0  0
 69143  1  0  0  0
 70144  1  0  0  0
 72145  1  0  0  0
 73146  1  0  0  0
 73147  1  0  0  0
 75148  1  0  0  0
M  END
$$$$
