5n53_ligand
  -I-interpret- 

 23 23  0  0  0  0  0  0  0  0999 V2000
  -27.6740   14.2850    5.1570 C   0  0  0  0  0
  -26.7010   13.8430    6.0360 C   0  0  0  0  0
  -26.1360   14.7140    6.9640 C   0  0  0  0  0
  -24.9940   14.7020    9.0830 C   0  0  0  0  0
  -29.6930   17.1650    4.0000 C   0  0  0  0  0
  -30.6520   17.1660    2.8330 C   0  0  0  0  0
  -29.1160   15.9620    4.2580 N   0  0  0  0  0
  -28.1010   15.6160    5.1910 C   0  0  0  0  0
  -26.5630   16.0390    6.9920 C   0  0  0  0  0
  -27.5380   16.4880    6.1160 C   0  0  0  0  0
  -25.1890   14.1690    7.7730 O   0  0  0  0  0
  -26.1940   12.1700    5.9630 Cl  0  0  0  0  0
  -29.4710   18.1890    4.6620 O   0  0  0  0  0
  -28.1090   13.5933    4.4357 H   0  0  0  0  0
  -24.7129   15.7525    9.0083 H   0  0  0  0  0
  -25.9193   14.6117    9.6520 H   0  0  0  0  0
  -24.2015   14.1473    9.5853 H   0  0  0  0  0
  -31.6439   17.4557    3.1798 H   0  0  0  0  0
  -30.3068   17.8759    2.0813 H   0  0  0  0  0
  -30.6948   16.1672    2.3987 H   0  0  0  0  0
  -29.4656   15.1869    3.6946 H   0  0  0  0  0
  -26.1252   16.7310    7.7114 H   0  0  0  0  0
  -27.8644   17.5273    6.1521 H   0  0  0  0  0
  1  2  4  0  0  0
  8  1  4  0  0  0
  2  3  4  0  0  0
  2 12  1  0  0  0
  3  9  4  0  0  0
  3 11  1  0  0  0
 11  4  1  0  0  0
  5  6  1  0  0  0
  7  5  1  0  0  0
  5 13  2  0  0  0
  7  8  1  0  0  0
  8 10  4  0  0  0
  9 10  4  0  0  0
  1 14  1  0  0  0
  4 15  1  0  0  0
  4 16  1  0  0  0
  4 17  1  0  0  0
  6 18  1  0  0  0
  6 19  1  0  0  0
  6 20  1  0  0  0
  7 21  1  0  0  0
  9 22  1  0  0  0
 10 23  1  0  0  0
M  END
$$$$
