4wr8_ligand
  -I-interpret- 

 34 37  0  0  0  0  0  0  0  0999 V2000
   44.3430  -22.8710   66.7650 O   0  0  0  0  0
   44.5380  -23.4310   67.9980 C   0  0  0  0  0
   45.6630  -23.1480   68.7680 C   0  0  0  0  0
   45.8290  -23.7520   70.0120 C   0  0  0  0  0
   43.5840  -24.3050   68.4800 C   0  0  0  0  0
   43.7400  -24.9120   69.7140 C   0  0  0  0  0
   44.8600  -24.6410   70.4900 C   0  0  0  0  0
   44.9890  -25.2680   71.7670 N   0  0  0  0  0
   43.9740  -25.7900   72.5000 C   0  0  0  0  0
   46.1610  -25.4120   72.4370 N   0  0  0  0  0
   45.9090  -26.0240   73.5650 N   0  0  0  0  0
   44.5730  -26.2360   73.6560 C   0  0  0  0  0
   44.1120  -26.9770   74.8310 C   0  0  0  0  0
   42.7550  -27.1880   75.0270 C   0  0  0  0  0
   45.0260  -27.5190   75.6510 N   0  0  0  0  0
   44.6400  -28.2530   76.7170 C   0  0  0  0  0
   43.2870  -28.4750   76.9790 C   0  0  0  0  0
   42.3310  -27.9360   76.1280 C   0  0  0  0  0
   45.6090  -28.7950   77.5540 C   0  0  0  0  0
   45.2410  -29.5460   78.6570 C   0  0  0  0  0
   43.8920  -29.7670   78.9030 C   0  0  0  0  0
   42.9110  -29.2320   78.0740 C   0  0  0  0  0
   43.5153  -23.1894   66.3974 H   0  0  0  0  0
   46.4154  -22.4523   68.3965 H   0  0  0  0  0
   46.7121  -23.5326   70.6120 H   0  0  0  0  0
   42.6982  -24.5193   67.8821 H   0  0  0  0  0
   42.9816  -25.6050   70.0782 H   0  0  0  0  0
   42.9186  -25.8442   72.2328 H   0  0  0  0  0
   42.0270  -26.7744   74.3291 H   0  0  0  0  0
   41.2689  -28.0938   76.3158 H   0  0  0  0  0
   46.6646  -28.6275   77.3403 H   0  0  0  0  0
   45.9991  -29.9581   79.3230 H   0  0  0  0  0
   43.5965  -30.3706   79.7612 H   0  0  0  0  0
   41.8562  -29.4077   78.2854 H   0  0  0  0  0
  1  2  1  0  0  0
  2  3  4  0  0  0
  2  5  4  0  0  0
  3  4  4  0  0  0
  4  7  4  0  0  0
  5  6  4  0  0  0
  6  7  4  0  0  0
  7  8  1  0  0  0
  8  9  4  0  0  0
  8 10  4  0  0  0
  9 12  4  0  0  0
 10 11  4  0  0  0
 11 12  4  0  0  0
 12 13  1  0  0  0
 13 14  4  0  0  0
 13 15  4  0  0  0
 14 18  4  0  0  0
 15 16  4  0  0  0
 16 17  4  0  0  0
 16 19  4  0  0  0
 17 18  4  0  0  0
 17 22  4  0  0  0
 19 20  4  0  0  0
 20 21  4  0  0  0
 21 22  4  0  0  0
  1 23  1  0  0  0
  3 24  1  0  0  0
  4 25  1  0  0  0
  5 26  1  0  0  0
  6 27  1  0  0  0
  9 28  1  0  0  0
 14 29  1  0  0  0
 18 30  1  0  0  0
 19 31  1  0  0  0
 20 32  1  0  0  0
 21 33  1  0  0  0
 22 34  1  0  0  0
M  END
$$$$
