3uoj_ligand
  -I-interpret- 

 38 40  0  0  0  0  0  0  0  0999 V2000
   -8.8780   36.4680   10.2830 O   0  0  0  0  0
   -9.3420   35.8660   11.2810 C   0  0  0  0  0
   -9.0550   34.4370   11.5480 C   0  0  0  0  0
   -9.7280   33.8400   12.5940 C   0  0  0  0  0
   -9.4860   32.4970   12.8650 C   0  0  0  0  0
   -8.1610   33.6880   10.7710 C   0  0  0  0  0
   -7.9260   32.3440   11.0460 C   0  0  0  0  0
   -8.6000   31.7420   12.1020 C   0  0  0  0  0
   -8.4120   30.3630   12.4630 N   0  0  0  0  0
   -7.8700   29.3670   11.5820 C   0  0  0  0  0
   -7.0240   29.7280   10.6110 N   0  0  0  0  0
   -6.4960   28.8120    9.7760 C   0  0  0  0  0
   -5.5350   29.2030    8.6640 N   0  0  0  0  0
   -5.2060   30.5850    8.4220 C   0  0  0  0  0
   -6.2150   31.4790    8.0760 C   0  0  0  0  0
   -5.8970   32.8110    7.8410 C   0  0  0  0  0
   -4.5790   33.2630    7.9440 C   0  0  0  0  0
   -3.5710   32.3710    8.2930 C   0  0  0  0  0
   -3.8940   31.0350    8.5260 C   0  0  0  0  0
   -2.7810   30.0820    8.8960 C   0  0  0  0  0
   -1.9690   29.4190    9.1570 N   0  0  0  0  0
   -6.8690   27.4710    9.9720 C   0  0  0  0  0
   -7.7430   27.1200   10.9950 C   0  0  0  0  0
   -8.2300   28.0940   11.7870 N   0  0  0  0  0
  -10.1320   36.4840   12.1120 O   0  0  0  0  0
  -10.4357   34.4095   13.1965 H   0  0  0  0  0
  -10.0048   32.0228   13.6982 H   0  0  0  0  0
   -7.6423   34.1648    9.9394 H   0  0  0  0  0
   -7.2228   31.7713   10.4413 H   0  0  0  0  0
   -8.6804   30.0742   13.4037 H   0  0  0  0  0
   -5.1176   28.4771    8.0815 H   0  0  0  0  0
   -7.2464   31.1370    7.9901 H   0  0  0  0  0
   -6.6866   33.5129    7.5726 H   0  0  0  0  0
   -4.3421   34.3094    7.7518 H   0  0  0  0  0
   -2.5398   32.7125    8.3834 H   0  0  0  0  0
   -6.4690   26.6984    9.3154 H   0  0  0  0  0
   -8.0275   26.0796   11.1523 H   0  0  0  0  0
  -10.3926   35.8813   12.8123 H   0  0  0  0  0
  1  2  2  0  0  0
  2  3  1  0  0  0
  2 25  1  0  0  0
  3  4  4  0  0  0
  3  6  4  0  0  0
  4  5  4  0  0  0
  5  8  4  0  0  0
  6  7  4  0  0  0
  7  8  4  0  0  0
  8  9  1  0  0  0
  9 10  1  0  0  0
 10 11  4  0  0  0
 10 24  4  0  0  0
 11 12  4  0  0  0
 12 13  1  0  0  0
 12 22  4  0  0  0
 13 14  1  0  0  0
 14 15  4  0  0  0
 14 19  4  0  0  0
 15 16  4  0  0  0
 16 17  4  0  0  0
 17 18  4  0  0  0
 18 19  4  0  0  0
 19 20  1  0  0  0
 20 21  3  0  0  0
 22 23  4  0  0  0
 23 24  4  0  0  0
  4 26  1  0  0  0
  5 27  1  0  0  0
  6 28  1  0  0  0
  7 29  1  0  0  0
  9 30  1  0  0  0
 13 31  1  0  0  0
 15 32  1  0  0  0
 16 33  1  0  0  0
 17 34  1  0  0  0
 18 35  1  0  0  0
 22 36  1  0  0  0
 23 37  1  0  0  0
 25 38  1  0  0  0
M  END
$$$$
