3skh_ligand
  -I-interpret- 

 42 45  0  0  0  0  0  0  0  0999 V2000
   25.3360   42.9830   49.1900 C   0  0  0  0  0
   21.6070   45.8780   45.1850 F   0  0  0  0  0
   25.2380   43.7040   45.0960 N   0  0  0  0  0
   24.5230   46.9150   43.8280 O   0  0  0  0  0
   25.3050   42.8100   50.9080 Cl  0  0  0  0  0
   25.9900   42.0370   48.4000 C   0  0  0  0  0
   23.7210   45.1040   42.7440 O   0  0  0  0  0
   26.0190   42.1820   47.0050 C   0  0  0  0  0
   24.6860   44.0870   48.6070 C   0  0  0  0  0
   24.5070   44.8850   45.0050 C   0  0  0  0  0
   24.1630   45.2300   46.3190 C   0  0  0  0  0
   24.7030   44.2490   47.1970 C   0  0  0  0  0
   25.3690   43.3000   46.4180 C   0  0  0  0  0
   25.8040   43.0000   43.9530 C   0  0  0  0  0
   24.1850   45.5980   43.7660 C   0  0  0  0  0
   23.3800   46.4020   46.7080 C   0  0  0  0  0
   23.8750   47.2680   47.7010 C   0  0  0  0  0
   23.1280   48.3880   48.0920 C   0  0  0  0  0
   21.8830   48.6560   47.5000 C   0  0  0  0  0
   21.3830   47.8030   46.5180 C   0  0  0  0  0
   22.1230   46.6840   46.1280 C   0  0  0  0  0
   27.1050   43.6310   43.5300 C   0  0  0  0  0
   27.8010   43.1360   42.4150 C   0  0  0  0  0
   29.0100   43.7240   42.0150 C   0  0  0  0  0
   29.5430   44.8050   42.7300 C   0  0  0  0  0
   28.8670   45.3050   43.8470 C   0  0  0  0  0
   27.6560   44.7240   44.2410 C   0  0  0  0  0
   24.8663   47.1153   44.7019 H   0  0  0  0  0
   26.4797   41.1830   48.8680 H   0  0  0  0  0
   26.5317   41.4490   46.3821 H   0  0  0  0  0
   24.1719   44.8142   49.2355 H   0  0  0  0  0
   25.1001   43.0532   43.1225 H   0  0  0  0  0
   25.9901   41.9635   44.2344 H   0  0  0  0  0
   24.8401   47.0676   48.1664 H   0  0  0  0  0
   23.5163   49.0557   48.8611 H   0  0  0  0  0
   21.3088   49.5297   47.8081 H   0  0  0  0  0
   20.4175   48.0082   46.0556 H   0  0  0  0  0
   27.3993   42.2900   41.8573 H   0  0  0  0  0
   29.5380   43.3379   41.1430 H   0  0  0  0  0
   30.4842   45.2558   42.4154 H   0  0  0  0  0
   29.2808   46.1429   44.4081 H   0  0  0  0  0
   27.1288   45.1195   45.1092 H   0  0  0  0  0
  1  5  1  0  0  0
  1  6  4  0  0  0
  9  1  4  0  0  0
 21  2  1  0  0  0
 10  3  4  0  0  0
 13  3  4  0  0  0
  3 14  1  0  0  0
 15  4  1  0  0  0
  8  6  4  0  0  0
 15  7  2  0  0  0
 13  8  4  0  0  0
 12  9  4  0  0  0
 11 10  4  0  0  0
 10 15  1  0  0  0
 11 12  4  0  0  0
 16 11  1  0  0  0
 12 13  4  0  0  0
 14 22  1  0  0  0
 16 17  4  0  0  0
 16 21  4  0  0  0
 17 18  4  0  0  0
 18 19  4  0  0  0
 19 20  4  0  0  0
 20 21  4  0  0  0
 22 23  4  0  0  0
 22 27  4  0  0  0
 23 24  4  0  0  0
 24 25  4  0  0  0
 25 26  4  0  0  0
 26 27  4  0  0  0
  4 28  1  0  0  0
  6 29  1  0  0  0
  8 30  1  0  0  0
  9 31  1  0  0  0
 14 32  1  0  0  0
 14 33  1  0  0  0
 17 34  1  0  0  0
 18 35  1  0  0  0
 19 36  1  0  0  0
 20 37  1  0  0  0
 23 38  1  0  0  0
 24 39  1  0  0  0
 25 40  1  0  0  0
 26 41  1  0  0  0
 27 42  1  0  0  0
M  END
$$$$
