5al3_ligand
  -I-interpret- 

 31 33  0  0  0  0  0  0  0  0999 V2000
  -41.1210   -9.5600   10.7270 Cl  0  0  0  0  0
  -39.5640  -10.2040   10.0770 C   0  0  0  0  0
  -39.2790  -10.0060    8.6990 C   0  0  0  0  0
  -38.0700  -10.4840    8.1820 C   0  0  0  0  0
  -37.6660  -10.3320    6.4480 Cl  0  0  0  0  0
  -37.1560  -11.1520    8.9500 C   0  0  0  0  0
  -37.4520  -11.3610   10.3060 C   0  0  0  0  0
  -38.6080  -10.8940   10.8720 C   0  0  0  0  0
  -38.8080  -11.1870   12.2690 C   0  0  0  0  0
  -37.6430  -10.8460   13.0680 N   0  0  0  0  0
  -37.6780  -11.1580   14.4010 C   0  0  0  0  0
  -36.7430  -10.7680   15.0750 O   0  0  0  0  0
  -38.5750  -12.1500   14.8230 C   0  0  0  0  0
  -38.7720  -12.4170   16.1770 C   0  0  0  0  0
  -39.6360  -13.4570   16.5580 C   0  0  0  0  0
  -40.2770  -14.2270   15.5940 C   0  0  0  0  0
  -40.1080  -13.9360   14.2250 N   0  0  0  0  0
  -39.2700  -12.9220   13.8520 C   0  0  0  0  0
  -39.0830  -12.6220   12.5360 N   0  0  0  0  0
  -40.1550  -13.1230   11.6410 C   0  0  0  0  0
  -39.9910   -9.4899    8.0550 H   0  0  0  0  0
  -36.2217  -11.5127    8.5198 H   0  0  0  0  0
  -36.7425  -11.9099   10.9252 H   0  0  0  0  0
  -39.6725  -10.5824   12.5433 H   0  0  0  0  0
  -36.8302  -10.3916   12.6518 H   0  0  0  0  0
  -38.2596  -11.8234   16.9341 H   0  0  0  0  0
  -39.8048  -13.6615   17.6153 H   0  0  0  0  0
  -40.9126  -15.0588   15.8979 H   0  0  0  0  0
  -41.0665  -12.5502   11.8119 H   0  0  0  0  0
  -39.8424  -13.0097   10.6030 H   0  0  0  0  0
  -40.3409  -14.1759   11.8529 H   0  0  0  0  0
  1  2  1  0  0  0
  2  3  4  0  0  0
  2  8  4  0  0  0
  3  4  4  0  0  0
  4  5  1  0  0  0
  4  6  4  0  0  0
  6  7  4  0  0  0
  7  8  4  0  0  0
  8  9  1  0  0  0
  9 10  1  0  0  0
  9 19  1  0  0  0
 10 11  1  0  0  0
 11 12  2  0  0  0
 11 13  1  0  0  0
 13 14  4  0  0  0
 13 18  4  0  0  0
 14 15  4  0  0  0
 15 16  4  0  0  0
 16 17  4  0  0  0
 17 18  4  0  0  0
 18 19  1  0  0  0
 19 20  1  0  0  0
  3 21  1  0  0  0
  6 22  1  0  0  0
  7 23  1  0  0  0
  9 24  1  0  0  0
 10 25  1  0  0  0
 14 26  1  0  0  0
 15 27  1  0  0  0
 16 28  1  0  0  0
 20 29  1  0  0  0
 20 30  1  0  0  0
 20 31  1  0  0  0
M  END
$$$$
