6frf_ligand
  -I-interpret- 

 57 60  0  0  0  0  0  0  0  0999 V2000
  -16.3600   -4.5920   15.1970 C   0  0  0  0  0
  -12.6330   -3.4780   22.4380 C   0  0  0  0  0
  -14.3630    3.8250   17.4960 C   0  0  0  0  0
  -15.6830   -0.1340   14.5080 C   0  0  0  0  0
  -20.4810    3.2480   22.5140 C   0  0  0  0  0
  -21.1810    2.1840   22.9240 C   0  0  0  0  0
  -19.4530    2.8300   21.7710 C   0  0  0  0  0
  -13.9470   -5.0290   19.2030 C   0  0  0  0  0
  -14.6810   -4.6800   18.0760 C   0  0  0  0  0
  -16.3540   -0.5790   19.7470 C   0  0  0  0  0
  -16.3750    1.4280   18.4140 C   0  0  0  0  0
  -15.0830   -0.4230   17.6890 C   0  0  0  0  0
  -14.2550   -2.8040   20.1060 C   0  0  0  0  0
  -15.4240   -3.4900   15.6640 C   0  0  0  0  0
  -12.9590   -4.5050   21.3250 C   0  0  0  0  0
  -18.6450    0.7160   21.0350 C   0  0  0  0  0
  -16.8010    0.7310   19.5440 C   0  0  0  0  0
  -13.7310   -4.0970   20.2250 C   0  0  0  0  0
  -14.6470    2.8750   16.3270 C   0  0  0  0  0
  -15.5030   -1.1570   18.8070 C   0  0  0  0  0
  -15.5060    0.8880   17.4580 C   0  0  0  0  0
  -15.2070    1.2090   15.0700 C   0  0  0  0  0
  -19.4900    1.5010   21.7140 C   0  0  0  0  0
  -15.1970   -3.3880   17.9660 C   0  0  0  0  0
  -15.0000   -2.4510   18.9710 C   0  0  0  0  0
  -15.1310    1.6080   16.3580 C   0  0  0  0  0
  -14.4100    3.2650   15.0740 N   0  0  0  0  0
  -17.6530    1.3770   20.3620 N   0  0  0  0  0
  -12.4810   -5.6370   21.3630 O   0  0  0  0  0
  -18.8400   -0.5040   21.0270 O   0  0  0  0  0
  -15.9350   -2.9700   16.8990 O   0  0  0  0  0
  -20.5450    1.0430   22.4090 O   0  0  0  0  0
  -14.7690    2.2000   14.2430 O   0  0  0  0  0
  -16.3979   -5.3784   15.9508 H   0  0  0  0  0
  -17.3584   -4.1804   15.0489 H   0  0  0  0  0
  -15.9928   -5.0049   14.2574 H   0  0  0  0  0
  -12.9658   -3.8685   23.3997 H   0  0  0  0  0
  -11.5572   -3.3050   22.4672 H   0  0  0  0  0
  -13.1475   -2.5404   22.2275 H   0  0  0  0  0
  -15.2853    4.0055   18.0481 H   0  0  0  0  0
  -13.6241    3.3736   18.1581 H   0  0  0  0  0
  -13.9784    4.7691   17.1101 H   0  0  0  0  0
  -15.0554   -0.9338   14.9011 H   0  0  0  0  0
  -16.7182   -0.3039   14.8040 H   0  0  0  0  0
  -15.6129   -0.1166   13.4204 H   0  0  0  0  0
  -20.7122    4.2871   22.7483 H   0  0  0  0  0
  -22.0782    2.2000   23.5428 H   0  0  0  0  0
  -18.7103    3.4686   21.2928 H   0  0  0  0  0
  -13.5367   -6.0349   19.2919 H   0  0  0  0  0
  -14.8524   -5.4094   17.2843 H   0  0  0  0  0
  -16.6669   -1.1396   20.6279 H   0  0  0  0  0
  -16.7371    2.4456   18.2673 H   0  0  0  0  0
  -14.4038   -0.8908   16.9763 H   0  0  0  0  0
  -14.0841   -2.0718   20.8952 H   0  0  0  0  0
  -15.3696   -2.6993   14.9157 H   0  0  0  0  0
  -14.4186   -3.8854   15.8086 H   0  0  0  0  0
  -17.5569    2.3852   20.4835 H   0  0  0  0  0
 14  1  1  0  0  0
 15  2  1  0  0  0
 19  3  1  0  0  0
 22  4  1  0  0  0
  6  5  4  0  0  0
  7  5  4  0  0  0
 32  6  4  0  0  0
 23  7  4  0  0  0
  9  8  4  0  0  0
  8 18  4  0  0  0
 24  9  4  0  0  0
 10 17  4  0  0  0
 20 10  4  0  0  0
 17 11  4  0  0  0
 21 11  4  0  0  0
 20 12  4  0  0  0
 12 21  4  0  0  0
 13 18  4  0  0  0
 25 13  4  0  0  0
 31 14  1  0  0  0
 18 15  1  0  0  0
 15 29  2  0  0  0
 16 23  1  0  0  0
 28 16  1  0  0  0
 16 30  2  0  0  0
 17 28  1  0  0  0
 26 19  4  0  0  0
 19 27  4  0  0  0
 25 20  1  0  0  0
 21 26  1  0  0  0
 26 22  4  0  0  0
 22 33  4  0  0  0
 23 32  4  0  0  0
 24 25  4  0  0  0
 24 31  1  0  0  0
 27 33  4  0  0  0
  1 34  1  0  0  0
  1 35  1  0  0  0
  1 36  1  0  0  0
  2 37  1  0  0  0
  2 38  1  0  0  0
  2 39  1  0  0  0
  3 40  1  0  0  0
  3 41  1  0  0  0
  3 42  1  0  0  0
  4 43  1  0  0  0
  4 44  1  0  0  0
  4 45  1  0  0  0
  5 46  1  0  0  0
  6 47  1  0  0  0
  7 48  1  0  0  0
  8 49  1  0  0  0
  9 50  1  0  0  0
 10 51  1  0  0  0
 11 52  1  0  0  0
 12 53  1  0  0  0
 13 54  1  0  0  0
 14 55  1  0  0  0
 14 56  1  0  0  0
 28 57  1  0  0  0
M  END
$$$$
