1bkm_ligand
  -I-interpret- 

 80 81  0  0  0  0  0  0  0  0999 V2000
    0.0490   17.6680   19.9580 C   0  0  0  0  0
    0.5130   19.1040   19.7090 C   0  0  0  0  0
    1.9840   19.1670   19.2470 C   0  0  0  0  0
    2.9170   18.4970   20.2730 C   0  0  0  0  0
    2.4670   17.0430   20.4580 C   0  0  0  0  0
    0.9990   16.9450   20.9150 C   0  0  0  0  0
    4.4180   18.6760   19.9350 C   0  0  0  0  0
    5.3910   18.0650   20.9530 C   0  0  0  0  0
    6.8810   18.0570   20.5390 C   0  0  0  0  0
    7.6150   19.3210   20.9890 C   0  0  0  0  0
    7.3440   16.5630   18.8950 C   0  0  0  0  0
    7.5680   16.4630   17.2550 C   0  0  0  0  0
    6.2560   16.5090   16.5900 C   0  0  0  0  0
    6.4170   16.2580   15.0930 C   0  0  0  0  0
    7.1380   17.4500   14.4580 C   0  0  0  0  0
    9.4820   14.9260   17.4440 C   0  0  0  0  0
   10.1690   13.5830   17.2000 C   0  0  0  0  0
    9.8100   12.6180   18.3570 C   0  0  0  0  0
   10.2920   11.1730   18.1650 C   0  0  0  0  0
    9.5900   10.2970   17.3210 C   0  0  0  0  0
   10.0210    8.9640   17.1990 C   0  0  0  0  0
   11.1380    8.5110   17.9250 C   0  0  0  0  0
   11.8360    9.3820   18.7740 C   0  0  0  0  0
   11.4280   10.7210   18.8670 C   0  0  0  0  0
   12.1110   13.5990   15.8540 C   0  0  0  0  0
   13.6130   13.8620   15.7380 C   0  0  0  0  0
    8.7180   19.6270   20.3290 N   0  0  0  0  0
    7.0850   17.6560   19.0960 N   0  0  0  0  0
    8.3550   15.1370   16.7650 N   0  0  0  0  0
   11.6200   13.7530   17.0710 N   0  0  0  0  0
    7.2270   19.9610   21.9390 O   0  0  0  0  0
    7.3860   15.7290   19.6420 O   0  0  0  0  0
    8.1760   17.2500   13.8290 O   0  0  0  0  0
    6.6930   18.5670   14.5280 O   0  0  0  0  0
    9.9490   15.7270   18.2410 O   0  0  0  0  0
   11.4190   13.2160   14.9150 O   0  0  0  0  0
   11.5880    7.1800   17.7840 O   0  0  0  0  0
   12.0490    7.7110   15.3880 O   0  0  0  0  0
   12.2410    5.4440   16.1350 O   0  0  0  0  0
   13.8830    7.0840   16.8590 O   0  0  0  0  0
   12.4560    6.8530   16.5450 P   0  0  0  0  0
    0.0358   17.1343   19.0077 H   0  0  0  0  0
   -0.9453   17.6934   20.4040 H   0  0  0  0  0
    0.4266   19.6562   20.6448 H   0  0  0  0  0
   -0.1090   19.5306   18.9221 H   0  0  0  0  0
    2.2727   20.2130   19.1442 H   0  0  0  0  0
    2.0741   18.6396   18.2973 H   0  0  0  0  0
    2.8290   18.9988   21.2366 H   0  0  0  0  0
    3.0933   16.5881   21.2254 H   0  0  0  0  0
    2.5594   16.5336   19.4988 H   0  0  0  0  0
    0.7201   15.8916   20.9397 H   0  0  0  0  0
    0.9160   17.4140   21.8954 H   0  0  0  0  0
    4.6110   19.7487   19.9205 H   0  0  0  0  0
    4.5903   18.1631   18.9887 H   0  0  0  0  0
    5.0985   17.0215   21.0704 H   0  0  0  0  0
    5.3242   18.6802   21.8503 H   0  0  0  0  0
    7.3730   17.2577   21.0933 H   0  0  0  0  0
    8.1969   17.3105   16.9823 H   0  0  0  0  0
    5.8125   17.4931   16.7419 H   0  0  0  0  0
    5.6127   15.7383   17.0146 H   0  0  0  0  0
    5.4355   16.1373   14.6345 H   0  0  0  0  0
    7.0001   15.3508   14.9346 H   0  0  0  0  0
    9.8158   13.1567   16.2610 H   0  0  0  0  0
    8.7220   12.5833   18.4135 H   0  0  0  0  0
   10.3031   12.9994   19.2511 H   0  0  0  0  0
    8.7196   10.6469   16.7660 H   0  0  0  0  0
    9.4878    8.2791   16.5396 H   0  0  0  0  0
   12.6856    9.0228   19.3548 H   0  0  0  0  0
   11.9935   11.4170   19.4866 H   0  0  0  0  0
   14.1191   12.9445   15.4376 H   0  0  0  0  0
   13.7884   14.6364   14.9912 H   0  0  0  0  0
   13.9984   14.1919   16.7028 H   0  0  0  0  0
    9.2778   20.4299   20.6158 H   0  0  0  0  0
    9.0097   19.0603   19.5327 H   0  0  0  0  0
    6.9953   18.3313   18.3368 H   0  0  0  0  0
    8.0240   14.5280   16.0167 H   0  0  0  0  0
   12.2128   13.9761   17.8705 H   0  0  0  0  0
    8.3973   16.3166   13.8674 H   0  0  0  0  0
   11.1227    7.5579   15.1878 H   0  0  0  0  0
   11.3120    5.3085   15.9345 H   0  0  0  0  0
  2  1  1  0  0  0
  6  1  1  0  0  0
  3  2  1  0  0  0
  4  3  1  0  0  0
  4  5  1  0  0  0
  7  4  1  0  0  0
  5  6  1  0  0  0
  8  7  1  0  0  0
  9  8  1  0  0  0
  9 10  1  0  0  0
 28  9  1  0  0  0
 10 27  1  0  0  0
 10 31  2  0  0  0
 12 11  1  0  0  0
 11 28  1  0  0  0
 11 32  2  0  0  0
 12 13  1  0  0  0
 29 12  1  0  0  0
 13 14  1  0  0  0
 14 15  1  0  0  0
 15 33  1  0  0  0
 15 34  2  0  0  0
 17 16  1  0  0  0
 16 29  1  0  0  0
 16 35  2  0  0  0
 17 18  1  0  0  0
 30 17  1  0  0  0
 18 19  1  0  0  0
 19 20  4  0  0  0
 19 24  4  0  0  0
 20 21  4  0  0  0
 21 22  4  0  0  0
 23 22  4  0  0  0
 22 37  1  0  0  0
 24 23  4  0  0  0
 25 26  1  0  0  0
 30 25  1  0  0  0
 25 36  2  0  0  0
 37 41  1  0  0  0
 41 40  2  0  0  0
 41 39  1  0  0  0
 41 38  1  0  0  0
  1 42  1  0  0  0
  1 43  1  0  0  0
  2 44  1  0  0  0
  2 45  1  0  0  0
  3 46  1  0  0  0
  3 47  1  0  0  0
  4 48  1  0  0  0
  5 49  1  0  0  0
  5 50  1  0  0  0
  6 51  1  0  0  0
  6 52  1  0  0  0
  7 53  1  0  0  0
  7 54  1  0  0  0
  8 55  1  0  0  0
  8 56  1  0  0  0
  9 57  1  0  0  0
 12 58  1  0  0  0
 13 59  1  0  0  0
 13 60  1  0  0  0
 14 61  1  0  0  0
 14 62  1  0  0  0
 17 63  1  0  0  0
 18 64  1  0  0  0
 18 65  1  0  0  0
 20 66  1  0  0  0
 21 67  1  0  0  0
 23 68  1  0  0  0
 24 69  1  0  0  0
 26 70  1  0  0  0
 26 71  1  0  0  0
 26 72  1  0  0  0
 27 73  1  0  0  0
 27 74  1  0  0  0
 28 75  1  0  0  0
 29 76  1  0  0  0
 30 77  1  0  0  0
 33 78  1  0  0  0
 38 79  1  0  0  0
 39 80  1  0  0  0
M  END
$$$$
