### 
### Created by X-TOOL on Mon Sep 10 21:12:46 2018
### 

@<TRIPOS>MOLECULE
1bkm_ligand
   77    78     1     0     0
SMALL
GAST_HUCK


@<TRIPOS>ATOM
      1 C1          0.0490   17.6680   19.9580 C.3       1 1C5        -0.0530
      2 C2          0.5130   19.1040   19.7090 C.3       1 1C5        -0.0528
      3 C3          1.9840   19.1670   19.2470 C.3       1 1C5        -0.0502
      4 C4          2.9170   18.4970   20.2730 C.3       1 1C5        -0.0408
      5 C5          2.4670   17.0430   20.4580 C.3       1 1C5        -0.0502
      6 C6          0.9990   16.9450   20.9150 C.3       1 1C5        -0.0528
      7 C7          4.4180   18.6760   19.9350 C.3       1 1C5        -0.0460
      8 C8          5.3910   18.0650   20.9530 C.3       1 1C5        -0.0122
      9 C9          6.8810   18.0570   20.5390 C.3       1 1C5         0.1306
     10 C10         7.6150   19.3210   20.9890 C.2       1 1C5         0.1992
     11 C11         7.3440   16.5630   18.8950 C.2       1 1C5         0.2040
     12 C12         7.5680   16.4630   17.2550 C.3       1 1C5         0.1325
     13 C13         6.2560   16.5090   16.5900 C.3       1 1C5        -0.0008
     14 C14         6.4170   16.2580   15.0930 C.3       1 1C5         0.0044
     15 C15         7.1380   17.4500   14.4580 C.2       1 1C5         0.0350
     16 C16         9.4820   14.9260   17.4440 C.2       1 1C5         0.2074
     17 C17        10.1690   13.5830   17.2000 C.3       1 1C5         0.1468
     18 C18         9.8100   12.6180   18.3570 C.3       1 1C5         0.0400
     19 C19        10.2920   11.1730   18.1650 C.ar      1 1C5        -0.0004
     20 C20         9.5900   10.2970   17.3210 C.ar      1 1C5        -0.0239
     21 C21        10.0210    8.9640   17.1990 C.ar      1 1C5         0.0115
     22 C22        11.1380    8.5110   17.9250 C.ar      1 1C5         0.1728
     23 C23        11.8360    9.3820   18.7740 C.ar      1 1C5         0.0115
     24 C24        11.4280   10.7210   18.8670 C.ar      1 1C5        -0.0239
     25 C25        12.1110   13.5990   15.8540 C.2       1 1C5         0.1753
     26 C26        13.6130   13.8620   15.7380 C.3       1 1C5         0.0258
     27 N1          8.7180   19.6270   20.3290 N.am      1 1C5        -0.2990
     28 N2          7.0850   17.6560   19.0960 N.am      1 1C5        -0.2637
     29 N3          8.3550   15.1370   16.7650 N.am      1 1C5        -0.2634
     30 N4         11.6200   13.7530   17.0710 N.am      1 1C5        -0.2628
     31 O1          7.2270   19.9610   21.9390 O.2       1 1C5        -0.3947
     32 O2          7.3860   15.7290   19.6420 O.2       1 1C5        -0.3944
     33 O3          8.1760   17.2500   13.8290 O.co2     1 1C5        -0.5690
     34 O4          6.6930   18.5670   14.5280 O.co2     1 1C5        -0.5690
     35 O5          9.9490   15.7270   18.2410 O.2       1 1C5        -0.3941
     36 O6         11.4190   13.2160   14.9150 O.2       1 1C5        -0.3972
     37 O4P        11.5880    7.1800   17.7840 O.3       1 1C5        -0.2040
     38 O1P        12.0490    7.7110   15.3880 O.co2     1 1C5        -0.6653
     39 O2P        12.2410    5.4440   16.1350 O.co2     1 1C5        -0.6653
     40 O3P        13.8830    7.0840   16.8590 O.co2     1 1C5        -0.6653
     41 P          12.4560    6.8530   16.5450 P.3       1 1C5         0.1348
     42 H1          0.0221   17.1271   19.0005 H         1 1C5         0.0265
     43 H2         -0.9593   17.6864   20.3973 H         1 1C5         0.0265
     44 H3          0.4096   19.6770   20.6422 H         1 1C5         0.0265
     45 H4         -0.1225   19.5522   18.9311 H         1 1C5         0.0265
     46 H5          2.2783   20.2202   19.1280 H         1 1C5         0.0268
     47 H6          2.0799   18.6481   18.2818 H         1 1C5         0.0268
     48 H7          2.7609   19.0048   21.2362 H         1 1C5         0.0301
     49 H8          3.1069   16.5672   21.2157 H         1 1C5         0.0268
     50 H9          2.5765   16.5131   19.5003 H         1 1C5         0.0268
     51 H10         0.7130   15.8840   20.9645 H         1 1C5         0.0265
     52 H11         0.9076   17.3964   21.9139 H         1 1C5         0.0265
     53 H12         4.6264   19.7540   19.8688 H         1 1C5         0.0270
     54 H13         4.6061   18.2055   18.9587 H         1 1C5         0.0270
     55 H14         5.0844   17.0235   21.1299 H         1 1C5         0.0312
     56 H15         5.3038   18.6369   21.8886 H         1 1C5         0.0312
     57 H16         7.3403   17.2445   21.1210 H         1 1C5         0.0800
     58 H17         8.1569   17.3380   16.9426 H         1 1C5         0.0801
     59 H18         5.8036   17.4994   16.7461 H         1 1C5         0.0330
     60 H19         5.6028   15.7356   17.0202 H         1 1C5         0.0330
     61 H20         5.4258   16.1389   14.6311 H         1 1C5         0.0433
     62 H21         7.0077   15.3437   14.9346 H         1 1C5         0.0433
     63 H22         9.7886   13.1584   16.2593 H         1 1C5         0.0840
     64 H23         8.7151   12.6021   18.4618 H         1 1C5         0.0584
     65 H24        10.2612   13.0090   19.2809 H         1 1C5         0.0584
     66 H25         8.7244   10.6450   16.7690 H         1 1C5         0.0703
     67 H26         9.4908    8.2829   16.5432 H         1 1C5         0.0736
     68 H27        12.6809    9.0248   19.3516 H         1 1C5         0.0736
     69 H28        11.9903   11.4132   19.4832 H         1 1C5         0.0703
     70 H29        13.9323   13.7109   14.6963 H         1 1C5         0.0467
     71 H30        14.1586   13.1670   16.3932 H         1 1C5         0.0467
     72 H31        13.8285   14.8972   16.0410 H         1 1C5         0.0467
     73 H32         9.2402   20.4424   20.5788 H         1 1C5         0.1815
     74 H33         9.0306   19.0432   19.5797 H         1 1C5         0.1815
     75 H34         6.9970   18.3181   18.3517 H         1 1C5         0.1883
     76 H35         8.0305   14.5399   16.0314 H         1 1C5         0.1883
     77 H36        12.2012   13.9717   17.8548 H         1 1C5         0.1885
@<TRIPOS>BOND
     1    2    1 1  
     2    6    1 1  
     3    3    2 1  
     4    4    3 1  
     5    4    5 1  
     6    7    4 1  
     7    5    6 1  
     8    8    7 1  
     9    9    8 1  
    10    9   10 1  
    11   28    9 1  
    12    1   42 1  
    13   10   27 am 
    14   10   31 2  
    15   12   11 1  
    16   11   28 am 
    17   11   32 2  
    18   12   13 1  
    19   29   12 1  
    20   13   14 1  
    21   14   15 1  
    22   15   33 ar 
    23   15   34 ar 
    24   17   16 1  
    25   16   29 am 
    26   16   35 2  
    27   17   18 1  
    28   30   17 1  
    29   18   19 1  
    30   19   20 ar 
    31   19   24 ar 
    32   20   21 ar 
    33   21   22 ar 
    34   23   22 ar 
    35   22   37 1  
    36   24   23 ar 
    37   25   26 1  
    38   30   25 am 
    39   25   36 2  
    40    1   43 1  
    41    2   44 1  
    42    2   45 1  
    43    3   46 1  
    44    3   47 1  
    45   37   41 1  
    46   41   40 ar 
    47   41   39 ar 
    48   41   38 ar 
    49    4   48 1  
    50    5   49 1  
    51    5   50 1  
    52    6   51 1  
    53    6   52 1  
    54    7   53 1  
    55    7   54 1  
    56    8   55 1  
    57    8   56 1  
    58    9   57 1  
    59   12   58 1  
    60   13   59 1  
    61   13   60 1  
    62   14   61 1  
    63   14   62 1  
    64   17   63 1  
    65   18   64 1  
    66   18   65 1  
    67   20   66 1  
    68   21   67 1  
    69   23   68 1  
    70   24   69 1  
    71   26   70 1  
    72   26   71 1  
    73   26   72 1  
    74   27   73 1  
    75   27   74 1  
    76   28   75 1  
    77   29   76 1  
    78   30   77 1  
@<TRIPOS>SUBSTRUCTURE
     1 1C5         1

