4zpf_ligand
  -I-interpret- 

 77 81  0  0  0  0  0  0  0  0999 V2000
   29.3880   38.3760    0.4510 C   0  0  0  0  0
   29.4820   39.0890   -0.8100 N   0  0  0  0  0
   28.4990   38.7390   -1.7080 C   0  0  0  0  0
   27.6520   37.8660   -1.1020 N   0  0  0  0  0
   28.1100   37.6410    0.0940 C   0  0  0  0  0
   30.5040   37.3570    0.7180 C   0  0  0  0  0
   31.7970   37.9900    1.2240 C   0  0  0  0  0
   31.5170   38.8690    2.4040 N   0  3  0  0  0
   30.4060   39.8730    2.2400 C   0  0  0  0  0
   29.1240   39.2720    1.6580 C   0  0  0  0  0
   28.4100   39.1170   -2.8650 O   0  0  0  0  0
   27.5260   36.8070    1.0300 N   0  0  0  0  0
   30.4590   40.0380   -1.1720 C   0  0  0  0  0
   26.2570   36.1490    0.7600 C   0  0  0  0  0
   26.4940   34.6900    0.4050 C   0  0  0  0  0
   25.1650   33.9790    0.1260 C   0  0  0  0  0
   24.2340   34.1000    1.3280 C   0  0  0  0  0
   24.0080   35.5640    1.6780 C   0  0  0  0  0
   25.3390   36.2500    1.9670 C   0  0  0  0  0
   30.2510   41.3720   -0.8800 C   0  0  0  0  0
   31.1900   42.3170   -1.2340 C   0  0  0  0  0
   32.3140   41.9380   -1.9350 C   0  0  0  0  0
   32.4980   40.6070   -2.2460 C   0  0  0  0  0
   31.5760   39.6470   -1.8870 C   0  0  0  0  0
   33.5810   40.2490   -2.9350 F   0  0  0  0  0
   32.7650   39.4110    3.0430 C   0  0  0  0  0
   33.4470   40.4730    2.2280 C   0  0  0  0  0
   34.4030   40.1510    1.2770 C   0  0  0  0  0
   35.0070   41.1390    0.5170 C   0  0  0  0  0
   34.6360   42.4570    0.7070 C   0  0  0  0  0
   33.6780   42.7840    1.6530 C   0  0  0  0  0
   33.0910   41.7940    2.4200 C   0  0  0  0  0
   33.3600   44.1370    1.7710 O   0  0  0  0  0
   32.4870   44.4780    2.8650 C   0  0  0  0  0
   31.9640   45.8730    2.5670 C   0  0  0  0  0
   33.3070   44.5620    4.1480 C   0  0  0  0  0
   31.1010   45.8060    1.3640 N   0  3  0  0  0
   30.7291   36.8622   -0.2268 H   0  0  0  0  0
   30.1480   36.6759    1.4910 H   0  0  0  0  0
   32.2347   38.5917    0.4274 H   0  0  0  0  0
   32.4867   37.2008    1.5233 H   0  0  0  0  0
   31.1113   38.2304    3.0881 H   0  0  0  0  0
   30.7545   40.6381    1.5462 H   0  0  0  0  0
   30.1664   40.2623    3.2295 H   0  0  0  0  0
   28.6592   38.6617    2.4323 H   0  0  0  0  0
   28.4874   40.0943    1.3313 H   0  0  0  0  0
   27.9924   36.6508    1.9236 H   0  0  0  0  0
   25.7779   36.6471   -0.0829 H   0  0  0  0  0
   26.9879   34.1986    1.2433 H   0  0  0  0  0
   27.1151   34.6408   -0.4894 H   0  0  0  0  0
   25.3606   32.9241   -0.0665 H   0  0  0  0  0
   24.6897   34.4418   -0.7389 H   0  0  0  0  0
   24.6884   33.5968    2.1814 H   0  0  0  0  0
   23.2760   33.6413    1.0830 H   0  0  0  0  0
   23.3762   35.6248    2.5642 H   0  0  0  0  0
   23.5266   36.0612    0.8359 H   0  0  0  0  0
   25.1568   37.3015    2.1887 H   0  0  0  0  0
   25.8141   35.7612    2.8175 H   0  0  0  0  0
   29.3396   41.6790   -0.3670 H   0  0  0  0  0
   31.0436   43.3618   -0.9600 H   0  0  0  0  0
   33.0497   42.6820   -2.2404 H   0  0  0  0  0
   31.7244   38.6024   -2.1609 H   0  0  0  0  0
   33.4642   38.5815    3.1488 H   0  0  0  0  0
   32.4760   39.8630    3.9918 H   0  0  0  0  0
   34.6825   39.1084    1.1256 H   0  0  0  0  0
   35.7655   40.8804   -0.2218 H   0  0  0  0  0
   35.0992   43.2425    0.1099 H   0  0  0  0  0
   32.3490   42.0555    3.1744 H   0  0  0  0  0
   31.6897   43.7435    2.9789 H   0  0  0  0  0
   32.7977   46.5522    2.3889 H   0  0  0  0  0
   31.3898   46.2438    3.4161 H   0  0  0  0  0
   33.7784   43.5982    4.3402 H   0  0  0  0  0
   34.0747   45.3278    4.0375 H   0  0  0  0  0
   32.6519   44.8198    4.9801 H   0  0  0  0  0
   30.7424   46.7371    1.1520 H   0  0  0  0  0
   31.6472   45.4627    0.5739 H   0  0  0  0  0
   30.3216   45.1723    1.5410 H   0  0  0  0  0
  1  2  1  0  0  0
  1  5  1  0  0  0
  1  6  1  0  0  0
  1 10  1  0  0  0
  2  3  1  0  0  0
  2 13  1  0  0  0
  3  4  1  0  0  0
  3 11  2  0  0  0
  4  5  2  0  0  0
  5 12  1  0  0  0
  6  7  1  0  0  0
  7  8  1  0  0  0
  8  9  1  0  0  0
  8 26  1  0  0  0
  9 10  1  0  0  0
 12 14  1  0  0  0
 13 20  4  0  0  0
 13 24  4  0  0  0
 14 15  1  0  0  0
 14 19  1  0  0  0
 15 16  1  0  0  0
 16 17  1  0  0  0
 17 18  1  0  0  0
 18 19  1  0  0  0
 20 21  4  0  0  0
 21 22  4  0  0  0
 22 23  4  0  0  0
 23 24  4  0  0  0
 23 25  1  0  0  0
 26 27  1  0  0  0
 27 28  4  0  0  0
 27 32  4  0  0  0
 28 29  4  0  0  0
 29 30  4  0  0  0
 30 31  4  0  0  0
 31 32  4  0  0  0
 31 33  1  0  0  0
 33 34  1  0  0  0
 34 35  1  0  0  0
 34 36  1  0  0  0
 35 37  1  0  0  0
  6 38  1  0  0  0
  6 39  1  0  0  0
  7 40  1  0  0  0
  7 41  1  0  0  0
  8 42  1  0  0  0
  9 43  1  0  0  0
  9 44  1  0  0  0
 10 45  1  0  0  0
 10 46  1  0  0  0
 12 47  1  0  0  0
 14 48  1  0  0  0
 15 49  1  0  0  0
 15 50  1  0  0  0
 16 51  1  0  0  0
 16 52  1  0  0  0
 17 53  1  0  0  0
 17 54  1  0  0  0
 18 55  1  0  0  0
 18 56  1  0  0  0
 19 57  1  0  0  0
 19 58  1  0  0  0
 20 59  1  0  0  0
 21 60  1  0  0  0
 22 61  1  0  0  0
 24 62  1  0  0  0
 26 63  1  0  0  0
 26 64  1  0  0  0
 28 65  1  0  0  0
 29 66  1  0  0  0
 30 67  1  0  0  0
 32 68  1  0  0  0
 34 69  1  0  0  0
 35 70  1  0  0  0
 35 71  1  0  0  0
 36 72  1  0  0  0
 36 73  1  0  0  0
 36 74  1  0  0  0
 37 75  1  0  0  0
 37 76  1  0  0  0
 37 77  1  0  0  0
M  END
$$$$
