3f3u_ligand
  -I-interpret- 

 49 51  0  0  0  0  0  0  0  0999 V2000
   -5.1810   35.2550   -8.6540 C   0  0  0  0  0
   -6.2590   36.1180   -8.3890 C   0  0  0  0  0
   -6.7010   36.3220   -7.0720 C   0  0  0  0  0
   -6.0470   35.6660   -6.0310 C   0  0  0  0  0
   -4.9730   34.8050   -6.2990 C   0  0  0  0  0
   -4.5310   34.5940   -7.6100 C   0  0  0  0  0
   -3.5130   33.7850   -7.9020 N   0  0  0  0  0
   -3.0360   32.7990   -7.1270 C   0  0  0  0  0
   -3.4930   32.5360   -6.0070 O   0  0  0  0  0
   -1.9960   32.1470   -7.6780 N   0  0  0  0  0
   -1.3100   31.1030   -7.1560 C   0  0  0  0  0
   -1.8380   30.0230   -6.5880 C   0  0  0  0  0
   -0.7930   29.2670   -6.2560 C   0  0  0  0  0
   -0.8490   27.8950   -5.5550 C   0  0  0  0  0
   -1.9290   27.0950   -6.2720 C   0  0  0  0  0
    0.5120   27.2090   -5.6210 C   0  0  0  0  0
   -1.2040   28.0140   -4.0750 C   0  0  0  0  0
    0.3170   29.8740   -6.6260 N   0  0  0  0  0
    0.0160   30.9420   -7.1570 N   0  0  0  0  0
    0.9390   31.7760   -7.6610 C   0  0  0  0  0
    0.9690   33.1570   -7.3770 C   0  0  0  0  0
    1.9050   31.2140   -8.5200 C   0  0  0  0  0
    2.8970   32.0070   -9.0760 C   0  0  0  0  0
    2.9200   33.3710   -8.7830 C   0  0  0  0  0
    1.9750   33.9560   -7.9460 C   0  0  0  0  0
    2.0510   35.2700   -7.6990 N   0  0  0  0  0
   -4.8506   35.1010   -9.6812 H   0  0  0  0  0
   -6.7552   36.6324   -9.2120 H   0  0  0  0  0
   -7.5428   36.9834   -6.8670 H   0  0  0  0  0
   -6.3721   35.8230   -5.0025 H   0  0  0  0  0
   -4.4757   34.2932   -5.4751 H   0  0  0  0  0
   -3.0524   33.9292   -8.8006 H   0  0  0  0  0
   -1.6895   32.4768   -8.5932 H   0  0  0  0  0
   -2.8940   29.8044   -6.4290 H   0  0  0  0  0
   -2.8820   27.6175   -6.1888 H   0  0  0  0  0
   -1.6624   26.9880   -7.3235 H   0  0  0  0  0
   -2.0127   26.1090   -5.8150 H   0  0  0  0  0
    0.7945   27.0646   -6.6638 H   0  0  0  0  0
    1.2560   27.8321   -5.1247 H   0  0  0  0  0
    0.4546   26.2419   -5.1215 H   0  0  0  0  0
   -0.4526   28.6211   -3.5701 H   0  0  0  0  0
   -2.1816   28.4853   -3.9739 H   0  0  0  0  0
   -1.2304   27.0202   -3.6280 H   0  0  0  0  0
    0.2188   33.6004   -6.7222 H   0  0  0  0  0
    1.8718   30.1488   -8.7487 H   0  0  0  0  0
    3.6491   31.5707   -9.7334 H   0  0  0  0  0
    3.6989   33.9948   -9.2215 H   0  0  0  0  0
    1.3683   35.7138   -7.0847 H   0  0  0  0  0
    2.7916   35.8270   -8.1251 H   0  0  0  0  0
  1  2  4  0  0  0
  1  6  4  0  0  0
  2  3  4  0  0  0
  3  4  4  0  0  0
  4  5  4  0  0  0
  5  6  4  0  0  0
  6  7  1  0  0  0
  7  8  1  0  0  0
  8  9  2  0  0  0
  8 10  1  0  0  0
 10 11  1  0  0  0
 11 12  4  0  0  0
 11 19  4  0  0  0
 12 13  4  0  0  0
 13 14  1  0  0  0
 13 18  4  0  0  0
 14 15  1  0  0  0
 14 16  1  0  0  0
 14 17  1  0  0  0
 18 19  4  0  0  0
 19 20  1  0  0  0
 20 21  4  0  0  0
 20 22  4  0  0  0
 21 25  4  0  0  0
 22 23  4  0  0  0
 23 24  4  0  0  0
 24 25  4  0  0  0
 25 26  1  0  0  0
  1 27  1  0  0  0
  2 28  1  0  0  0
  3 29  1  0  0  0
  4 30  1  0  0  0
  5 31  1  0  0  0
  7 32  1  0  0  0
 10 33  1  0  0  0
 12 34  1  0  0  0
 15 35  1  0  0  0
 15 36  1  0  0  0
 15 37  1  0  0  0
 16 38  1  0  0  0
 16 39  1  0  0  0
 16 40  1  0  0  0
 17 41  1  0  0  0
 17 42  1  0  0  0
 17 43  1  0  0  0
 21 44  1  0  0  0
 22 45  1  0  0  0
 23 46  1  0  0  0
 24 47  1  0  0  0
 26 48  1  0  0  0
 26 49  1  0  0  0
M  END
$$$$
