3ken_ligand
  -I-interpret- 

 48 50  0  0  0  0  0  0  0  0999 V2000
  -20.1060  -10.7830   70.4830 N   0  3  0  0  0
  -20.3150  -10.8790   71.9350 C   0  0  0  0  0
  -21.4080  -11.9120   72.2260 C   0  0  0  0  0
  -19.0050  -11.2760   72.6200 C   0  0  0  0  0
  -19.0220  -11.3950   73.8650 O   0  0  0  0  0
  -18.0060  -11.4420   71.8880 O   0  0  0  0  0
  -23.0380  -11.4490   71.5300 S   0  0  0  0  0
  -25.1310  -13.2220   74.5770 C   0  0  0  0  0
  -25.3720  -12.8930   75.9110 C   0  0  0  0  0
  -24.8850  -11.7010   76.4270 C   0  0  0  0  0
  -24.1570  -10.8350   75.6130 C   0  0  0  0  0
  -23.9230  -11.1720   74.2860 C   0  0  0  0  0
  -24.4060  -12.3680   73.7540 C   0  0  0  0  0
  -24.2030  -12.6650   72.2580 C   0  0  0  0  0
  -23.6290  -14.0590   71.9630 C   0  0  0  0  0
  -23.6270  -14.5440   70.6550 C   0  0  0  0  0
  -23.0470  -15.7710   70.3490 C   0  0  0  0  0
  -22.4590  -16.5320   71.3550 C   0  0  0  0  0
  -22.4530  -16.0590   72.6630 C   0  0  0  0  0
  -23.0360  -14.8310   72.9600 C   0  0  0  0  0
  -25.5690  -12.4590   71.5860 C   0  0  0  0  0
  -26.5600  -13.4410   71.6280 C   0  0  0  0  0
  -27.8170  -13.2070   71.0850 C   0  0  0  0  0
  -28.1020  -11.9820   70.4850 C   0  0  0  0  0
  -27.1220  -11.0000   70.4340 C   0  0  0  0  0
  -25.8630  -11.2410   70.9820 C   0  0  0  0  0
  -20.9815  -10.5183   70.0315 H   0  0  0  0  0
  -19.3952  -10.0777   70.2889 H   0  0  0  0  0
  -19.7969  -11.6866   70.1247 H   0  0  0  0  0
  -20.6318   -9.9117   72.3250 H   0  0  0  0  0
  -21.5178  -11.9821   73.3082 H   0  0  0  0  0
  -21.1061  -12.8524   71.7650 H   0  0  0  0  0
  -19.9072  -11.2159   74.1904 H   0  0  0  0  0
  -25.5156  -14.1595   74.1754 H   0  0  0  0  0
  -25.9417  -13.5710   76.5465 H   0  0  0  0  0
  -25.0717  -11.4416   77.4691 H   0  0  0  0  0
  -23.7731   -9.8977   76.0158 H   0  0  0  0  0
  -23.3541  -10.4926   73.6513 H   0  0  0  0  0
  -24.0861  -13.9536   69.8620 H   0  0  0  0  0
  -23.0531  -16.1361   69.3220 H   0  0  0  0  0
  -22.0052  -17.4945   71.1189 H   0  0  0  0  0
  -21.9920  -16.6497   73.4546 H   0  0  0  0  0
  -23.0287  -14.4676   73.9876 H   0  0  0  0  0
  -26.3449  -14.4033   72.0926 H   0  0  0  0  0
  -28.5815  -13.9827   71.1283 H   0  0  0  0  0
  -29.0877  -11.7961   70.0586 H   0  0  0  0  0
  -27.3371  -10.0398   69.9651 H   0  0  0  0  0
  -25.0990  -10.4649   70.9366 H   0  0  0  0  0
  2  1  1  0  0  0
  3  2  1  0  0  0
  2  4  1  0  0  0
  7  3  1  0  0  0
  4  5  1  0  0  0
  4  6  2  0  0  0
 14  7  1  0  0  0
  8  9  4  0  0  0
 13  8  4  0  0  0
  9 10  4  0  0  0
 11 10  4  0  0  0
 12 11  4  0  0  0
 13 12  4  0  0  0
 13 14  1  0  0  0
 14 15  1  0  0  0
 14 21  1  0  0  0
 15 16  4  0  0  0
 15 20  4  0  0  0
 16 17  4  0  0  0
 17 18  4  0  0  0
 18 19  4  0  0  0
 19 20  4  0  0  0
 21 22  4  0  0  0
 21 26  4  0  0  0
 22 23  4  0  0  0
 23 24  4  0  0  0
 24 25  4  0  0  0
 25 26  4  0  0  0
  1 27  1  0  0  0
  1 28  1  0  0  0
  1 29  1  0  0  0
  2 30  1  0  0  0
  3 31  1  0  0  0
  3 32  1  0  0  0
  5 33  1  0  0  0
  8 34  1  0  0  0
  9 35  1  0  0  0
 10 36  1  0  0  0
 11 37  1  0  0  0
 12 38  1  0  0  0
 16 39  1  0  0  0
 17 40  1  0  0  0
 18 41  1  0  0  0
 19 42  1  0  0  0
 20 43  1  0  0  0
 22 44  1  0  0  0
 23 45  1  0  0  0
 24 46  1  0  0  0
 25 47  1  0  0  0
 26 48  1  0  0  0
M  END
$$$$
