5nk7_ligand
  -I-interpret- 

 57 60  0  0  0  0  0  0  0  0999 V2000
  -81.1290  -12.4910    2.4200 F   0  0  0  0  0
  -80.0380  -12.8840    3.1450 C   0  0  0  0  0
  -78.7730  -12.6730    2.3270 C   0  0  0  0  0
  -77.5850  -13.0910    3.0860 N   0  3  0  0  0
  -77.6910  -14.5160    3.4340 C   0  0  0  0  0
  -78.9140  -14.7680    4.3000 C   0  0  0  0  0
  -80.1590  -14.3540    3.5360 C   0  0  0  0  0
  -81.3310  -14.5170    4.4070 N   0  0  0  0  0
  -82.4220  -15.2200    4.0680 C   0  0  0  0  0
  -82.5700  -15.7960    2.9920 O   0  0  0  0  0
  -83.4210  -15.2050    5.0400 C   0  0  0  0  0
  -84.7680  -15.2310    4.6860 C   0  0  0  0  0
  -83.0530  -15.1320    6.3770 C   0  0  0  0  0
  -84.0300  -15.0990    7.3600 C   0  0  0  0  0
  -85.3710  -15.1220    6.9980 C   0  0  0  0  0
  -85.7650  -15.2060    5.6620 C   0  0  0  0  0
  -87.0510  -15.2250    5.2530 N   0  0  0  0  0
  -88.0710  -15.7650    5.9500 C   0  0  0  0  0
  -88.0670  -16.5640    7.4250 S   0  0  0  0  0
  -89.3410  -15.7350    5.5150 N   0  0  0  0  0
  -90.2370  -16.3240    6.3430 C   0  0  0  0  0
  -89.6930  -16.8460    7.4530 C   0  0  0  0  0
  -90.3390  -17.4840    8.4430 C   0  0  0  0  0
  -89.7270  -17.8380    9.4490 O   0  0  0  0  0
  -91.6640  -17.6900    8.2710 N   0  0  0  0  0
  -92.3540  -18.2940    9.2610 C   0  0  0  0  0
  -92.5230  -19.6820    9.2620 C   0  0  0  0  0
  -91.8540  -20.7200    8.0190 Cl  0  0  0  0  0
  -93.2520  -20.2660   10.2940 C   0  0  0  0  0
  -93.8040  -19.4840   11.3060 C   0  0  0  0  0
  -93.6360  -18.1040   11.2950 C   0  0  0  0  0
  -92.9110  -17.5000   10.2690 C   0  0  0  0  0
  -92.7570  -16.1160   10.2740 C   0  0  0  0  0
  -79.9872  -12.2830    4.0529 H   0  0  0  0  0
  -78.6821  -11.6136    2.0870 H   0  0  0  0  0
  -78.8381  -13.2713    1.4182 H   0  0  0  0  0
  -77.5203  -12.5392    3.9414 H   0  0  0  0  0
  -76.7521  -12.9445    2.5157 H   0  0  0  0  0
  -76.8000  -14.8105    3.9884 H   0  0  0  0  0
  -77.7834  -15.0969    2.5163 H   0  0  0  0  0
  -78.8381  -14.1869    5.2190 H   0  0  0  0  0
  -78.9734  -15.8271    4.5506 H   0  0  0  0  0
  -80.2670  -14.9702    2.6434 H   0  0  0  0  0
  -81.3140  -14.0693    5.3233 H   0  0  0  0  0
  -85.0468  -15.2714    3.6330 H   0  0  0  0  0
  -81.9989  -15.1007    6.6528 H   0  0  0  0  0
  -83.7474  -15.0552    8.4118 H   0  0  0  0  0
  -86.1332  -15.0733    7.7757 H   0  0  0  0  0
  -87.2669  -14.8000    4.3512 H   0  0  0  0  0
  -91.3044  -16.3698    6.1268 H   0  0  0  0  0
  -92.1311  -17.3959    7.4133 H   0  0  0  0  0
  -93.3924  -21.3468   10.3104 H   0  0  0  0  0
  -94.3697  -19.9558   12.1094 H   0  0  0  0  0
  -94.0707  -17.4951   12.0877 H   0  0  0  0  0
  -91.6962  -15.8699   10.3208 H   0  0  0  0  0
  -93.1878  -15.7005    9.3631 H   0  0  0  0  0
  -93.2669  -15.6981   11.1420 H   0  0  0  0  0
  1  2  1  0  0  0
  2  3  1  0  0  0
  2  7  1  0  0  0
  3  4  1  0  0  0
  4  5  1  0  0  0
  5  6  1  0  0  0
  6  7  1  0  0  0
  7  8  1  0  0  0
  8  9  1  0  0  0
  9 10  2  0  0  0
  9 11  1  0  0  0
 11 12  4  0  0  0
 11 13  4  0  0  0
 12 16  4  0  0  0
 13 14  4  0  0  0
 14 15  4  0  0  0
 15 16  4  0  0  0
 16 17  1  0  0  0
 17 18  1  0  0  0
 18 19  4  0  0  0
 18 20  4  0  0  0
 19 22  4  0  0  0
 20 21  4  0  0  0
 21 22  4  0  0  0
 22 23  1  0  0  0
 23 24  2  0  0  0
 23 25  1  0  0  0
 25 26  1  0  0  0
 26 27  4  0  0  0
 26 32  4  0  0  0
 27 28  1  0  0  0
 27 29  4  0  0  0
 29 30  4  0  0  0
 30 31  4  0  0  0
 31 32  4  0  0  0
 32 33  1  0  0  0
  2 34  1  0  0  0
  3 35  1  0  0  0
  3 36  1  0  0  0
  4 37  1  0  0  0
  4 38  1  0  0  0
  5 39  1  0  0  0
  5 40  1  0  0  0
  6 41  1  0  0  0
  6 42  1  0  0  0
  7 43  1  0  0  0
  8 44  1  0  0  0
 12 45  1  0  0  0
 13 46  1  0  0  0
 14 47  1  0  0  0
 15 48  1  0  0  0
 17 49  1  0  0  0
 21 50  1  0  0  0
 25 51  1  0  0  0
 29 52  1  0  0  0
 30 53  1  0  0  0
 31 54  1  0  0  0
 33 55  1  0  0  0
 33 56  1  0  0  0
 33 57  1  0  0  0
M  END
$$$$
