5vsf_ligand
  -I-interpret- 

 63 66  0  0  0  0  0  0  0  0999 V2000
   20.8890  -14.7460   -2.8700 C   0  0  0  0  0
   21.0650  -13.5080   -2.2470 C   0  0  0  0  0
   21.8360  -12.5300   -2.8950 C   0  0  0  0  0
   24.2190  -17.3260   -7.1400 C   0  0  0  0  0
   22.7830  -15.5500   -7.9700 C   0  0  0  0  0
   22.3920  -12.8120   -4.0900 N   0  0  0  0  0
   23.3940  -16.8920   -8.3470 C   0  0  0  0  0
   21.4570  -14.9690   -4.0760 N   0  0  0  0  0
   23.5710  -13.2750   -6.5980 C   0  0  0  0  0
   22.2060  -14.0130   -4.6700 C   0  0  0  0  0
   18.6160  -17.7400   -1.0250 C   0  0  0  0  0
   19.5640  -12.9970    1.6410 C   0  0  0  0  0
   23.9790   -6.2380   -3.7240 C   0  0  0  0  0
   20.1310  -15.7540   -2.2660 C   0  0  0  0  0
   20.4690  -13.2700   -1.0100 C   0  0  0  0  0
   23.7400  -16.4930   -5.9540 C   0  0  0  0  0
   22.5950  -15.6220   -6.4640 C   0  0  0  0  0
   23.7860   -9.6190   -2.0990 C   0  0  0  0  0
   21.8630   -9.3130   -3.6040 C   0  0  0  0  0
   24.4340   -8.3860   -2.7310 C   0  0  0  0  0
   22.5820   -8.1110   -4.2100 C   0  0  0  0  0
   19.5410  -15.5090   -1.0290 C   0  0  0  0  0
   19.7160  -14.2800   -0.4080 C   0  0  0  0  0
   22.8700  -10.3270   -3.0960 C   0  0  0  0  0
   22.7890  -14.2890   -5.9020 N   0  0  0  0  0
   22.0540  -11.3030   -2.3610 N   0  0  0  0  0
   23.3830   -7.4600   -3.1640 N   0  3  0  0  0
   18.7820  -16.4630   -0.3980 O   0  0  0  0  0
   19.1260  -14.0790    0.8070 O   0  0  0  0  0
   25.2821  -17.1669   -7.3205 H   0  0  0  0  0
   24.0876  -18.3901   -6.9438 H   0  0  0  0  0
   21.8416  -15.3712   -8.4895 H   0  0  0  0  0
   23.4217  -14.7160   -8.2609 H   0  0  0  0  0
   22.6239  -17.6255   -8.5856 H   0  0  0  0  0
   24.0121  -16.8094   -9.2410 H   0  0  0  0  0
   22.9422  -12.4077   -6.7991 H   0  0  0  0  0
   24.4143  -12.9773   -5.9749 H   0  0  0  0  0
   23.9393  -13.6843   -7.5387 H   0  0  0  0  0
   18.1399  -17.6072   -1.9965 H   0  0  0  0  0
   19.5916  -18.2076   -1.1580 H   0  0  0  0  0
   17.9907  -18.3736   -0.3960 H   0  0  0  0  0
   20.6206  -13.1256    1.8758 H   0  0  0  0  0
   19.4196  -12.0532    1.1152 H   0  0  0  0  0
   18.9834  -12.9930    2.5635 H   0  0  0  0  0
   24.5910   -5.7525   -2.9639 H   0  0  0  0  0
   24.6003   -6.4981   -4.5810 H   0  0  0  0  0
   23.1859   -5.5607   -4.0408 H   0  0  0  0  0
   20.0038  -16.7187   -2.7571 H   0  0  0  0  0
   20.5894  -12.3051   -0.5174 H   0  0  0  0  0
   24.5490  -15.8788   -5.5587 H   0  0  0  0  0
   23.4066  -17.1344   -5.1382 H   0  0  0  0  0
   21.6094  -16.0038   -6.1977 H   0  0  0  0  0
   23.1917   -9.3016   -1.2421 H   0  0  0  0  0
   24.5720  -10.3100   -1.7942 H   0  0  0  0  0
   21.2428   -9.7798   -4.3692 H   0  0  0  0  0
   21.2460   -8.9760   -2.7711 H   0  0  0  0  0
   25.0341   -8.6869   -3.5898 H   0  0  0  0  0
   25.0771   -7.8949   -2.0007 H   0  0  0  0  0
   21.8517   -7.4063   -4.6077 H   0  0  0  0  0
   23.2317   -8.4401   -5.0210 H   0  0  0  0  0
   23.4691  -10.7790   -3.8865 H   0  0  0  0  0
   21.6541  -11.0591   -1.4549 H   0  0  0  0  0
   22.8024   -7.2150   -2.3619 H   0  0  0  0  0
  2  1  4  0  0  0
  1  8  4  0  0  0
  1 14  4  0  0  0
  3  2  4  0  0  0
  2 15  4  0  0  0
  3  6  4  0  0  0
 26  3  1  0  0  0
  4  7  1  0  0  0
 16  4  1  0  0  0
  5  7  1  0  0  0
 17  5  1  0  0  0
  6 10  4  0  0  0
 10  8  4  0  0  0
 25  9  1  0  0  0
 10 25  1  0  0  0
 28 11  1  0  0  0
 29 12  1  0  0  0
 27 13  1  0  0  0
 14 22  4  0  0  0
 15 23  4  0  0  0
 17 16  1  0  0  0
 25 17  1  0  0  0
 18 20  1  0  0  0
 24 18  1  0  0  0
 19 21  1  0  0  0
 24 19  1  0  0  0
 20 27  1  0  0  0
 21 27  1  0  0  0
 23 22  4  0  0  0
 22 28  1  0  0  0
 23 29  1  0  0  0
 24 26  1  0  0  0
  4 30  1  0  0  0
  4 31  1  0  0  0
  5 32  1  0  0  0
  5 33  1  0  0  0
  7 34  1  0  0  0
  7 35  1  0  0  0
  9 36  1  0  0  0
  9 37  1  0  0  0
  9 38  1  0  0  0
 11 39  1  0  0  0
 11 40  1  0  0  0
 11 41  1  0  0  0
 12 42  1  0  0  0
 12 43  1  0  0  0
 12 44  1  0  0  0
 13 45  1  0  0  0
 13 46  1  0  0  0
 13 47  1  0  0  0
 14 48  1  0  0  0
 15 49  1  0  0  0
 16 50  1  0  0  0
 16 51  1  0  0  0
 17 52  1  0  0  0
 18 53  1  0  0  0
 18 54  1  0  0  0
 19 55  1  0  0  0
 19 56  1  0  0  0
 20 57  1  0  0  0
 20 58  1  0  0  0
 21 59  1  0  0  0
 21 60  1  0  0  0
 24 61  1  0  0  0
 26 62  1  0  0  0
 27 63  1  0  0  0
M  END
$$$$
