### 
### Created by X-TOOL on Mon Sep 10 21:12:57 2018
### 

@<TRIPOS>MOLECULE
3exf_ligand
   42    43     1     0     0
SMALL
GAST_HUCK


@<TRIPOS>ATOM
      1 N1'       -14.6010   -2.3310   -6.6860 N.ar      1 TPP        -0.2938
      2 C2'       -15.1920   -2.4600   -7.9250 C.ar      1 TPP         0.0758
      3 CM2       -16.0820   -3.6090   -8.2100 C.3       1 TPP        -0.0029
      4 N3'       -14.9940   -1.5550   -8.9210 N.ar      1 TPP        -0.2610
      5 C4'       -14.1650   -0.4830   -8.6830 C.ar      1 TPP         0.1223
      6 N4'       -13.9830    0.4110   -9.6730 N.pl3     1 TPP        -0.3187
      7 C5'       -13.5670   -0.3510   -7.4150 C.ar      1 TPP         0.0328
      8 C6'       -13.7860   -1.2720   -6.4250 C.ar      1 TPP         0.0074
      9 C7'       -12.6380    0.7790   -7.0830 C.3       1 TPP         0.0562
     10 N3        -11.4280    0.4920   -7.8110 N.2       1 TPP        -0.2745
     11 C2        -11.1540    1.0830   -9.0280 C.2       1 TPP         0.1352
     12 S1         -9.7660    0.6080   -9.6790 S.3       1 TPP         0.1156
     13 C5         -9.4470   -0.3770   -8.4380 C.2       1 TPP         0.1730
     14 C4        -10.4350   -0.3640   -7.4530 C.2       1 TPP         0.1309
     15 CM4       -10.3760   -1.1810   -6.2030 C.3       1 TPP         0.0228
     16 C6         -8.1350   -1.1350   -8.5130 C.3       1 TPP         0.0829
     17 C7         -7.9540   -2.2350   -9.5550 C.3       1 TPP         0.1135
     18 O7         -6.5480   -2.4540   -9.6790 O.3       1 TPP        -0.2401
     19 PA         -5.8580   -3.4270  -10.7850 P.3       1 TPP         0.3279
     20 O1A        -6.7200   -4.6130  -11.0810 O.co2     1 TPP        -0.5556
     21 O2A        -4.4680   -3.8120  -10.3720 O.co2     1 TPP        -0.5556
     22 O3A        -5.9560   -2.5820  -12.1550 O.3       1 TPP        -0.1548
     23 PB         -4.9580   -1.3750  -12.5350 P.3       1 TPP         0.2069
     24 O1B        -3.6010   -1.6930  -11.9530 O.co2     1 TPP        -0.5891
     25 O2B        -5.0170   -1.1610  -14.0350 O.co2     1 TPP        -0.5891
     26 O3B        -5.4030   -0.0790  -11.9280 O.co2     1 TPP        -0.5891
     27 H1        -16.1473   -4.2518   -7.3198 H         1 TPP         0.0449
     28 H2        -15.6746   -4.1885   -9.0516 H         1 TPP         0.0449
     29 H3        -17.0851   -3.2401   -8.4703 H         1 TPP         0.0449
     30 H4        -13.3684    1.2243   -9.5259 H         1 TPP         0.1789
     31 H5        -14.4584    0.2817  -10.5775 H         1 TPP         0.1789
     32 H6        -13.3196   -1.1599   -5.4529 H         1 TPP         0.0791
     33 H7        -12.4400    0.8120   -6.0015 H         1 TPP         0.0563
     34 H8        -13.0657    1.7393   -7.4069 H         1 TPP         0.0563
     35 H9        -11.8178    1.8044   -9.5022 H         1 TPP         0.1655
     36 H10        -9.4502   -1.7750   -6.1966 H         1 TPP         0.0599
     37 H11       -11.2444   -1.8551   -6.1642 H         1 TPP         0.0599
     38 H12       -10.3899   -0.5143   -5.3282 H         1 TPP         0.0599
     39 H13        -7.9789   -1.6000   -7.5284 H         1 TPP         0.0773
     40 H14        -7.3466   -0.3901   -8.6959 H         1 TPP         0.0773
     41 H15        -8.3748   -1.9163  -10.5201 H         1 TPP         0.0687
     42 H16        -8.4537   -3.1572   -9.2237 H         1 TPP         0.0687
@<TRIPOS>BOND
     1    1    2 ar 
     2    1    8 ar 
     3    2    3 1  
     4    2    4 ar 
     5    4    5 ar 
     6    5    6 1  
     7    5    7 ar 
     8    7    8 ar 
     9    7    9 1  
    10    9   10 1  
    11   10   11 2  
    12   10   14 1  
    13   11   12 1  
    14   12   13 1  
    15   13   14 2  
    16   13   16 1  
    17   14   15 1  
    18   16   17 1  
    19   17   18 1  
    20   18   19 1  
    21   19   20 ar 
    22   19   21 ar 
    23   19   22 1  
    24   22   23 1  
    25   23   24 ar 
    26   23   25 ar 
    27   23   26 ar 
    28    3   27 1  
    29    3   28 1  
    30    3   29 1  
    31    6   30 1  
    32    6   31 1  
    33    8   32 1  
    34    9   33 1  
    35    9   34 1  
    36   11   35 1  
    37   15   36 1  
    38   15   37 1  
    39   15   38 1  
    40   16   39 1  
    41   16   40 1  
    42   17   41 1  
    43   17   42 1  
@<TRIPOS>SUBSTRUCTURE
     1 TPP         1

