4qab_ligand
  -I-interpret- 

 38 40  0  0  0  0  0  0  0  0999 V2000
  -31.4430   -5.4130  -11.1710 C   0  0  0  0  0
  -30.6890   -5.9420   -9.9590 C   0  0  0  0  0
  -29.4520   -5.3130   -9.8860 O   0  0  0  0  0
  -29.5590   -3.9380   -9.6810 C   0  0  0  0  0
  -30.4250   -3.2670  -10.7930 C   0  0  0  0  0
  -31.6700   -3.9960  -11.0630 N   0  0  0  0  0
  -33.0350   -3.5560  -10.9430 C   0  0  0  0  0
  -34.1410   -4.4450  -10.7800 C   0  0  0  0  0
  -33.2270   -2.1970  -10.9910 N   0  0  0  0  0
  -34.5410   -1.7860  -10.8690 C   0  0  0  0  0
  -34.7590   -0.4490  -10.8950 N   0  0  0  0  0
  -35.6190   -2.5570  -10.7250 N   0  0  0  0  0
  -35.4200   -3.8870  -10.6870 C   0  0  0  0  0
  -36.6650   -4.6220  -10.5060 C   0  0  0  0  0
  -37.2170   -4.8510   -9.2400 C   0  0  0  0  0
  -38.4370   -5.5140   -9.0690 C   0  0  0  0  0
  -39.1580   -5.9480  -10.1730 C   0  0  0  0  0
  -40.4710   -6.6570   -9.9650 C   0  0  0  0  0
  -41.2210   -6.1170   -8.9800 F   0  0  0  0  0
  -40.3570   -7.9610   -9.6280 F   0  0  0  0  0
  -41.2570   -6.7020  -11.0760 F   0  0  0  0  0
  -38.6460   -5.7130  -11.4500 C   0  0  0  0  0
  -37.4270   -5.0480  -11.6120 C   0  0  0  0  0
  -32.4077   -5.9171  -11.2286 H   0  0  0  0  0
  -30.8463   -5.6034  -12.0631 H   0  0  0  0  0
  -30.5489   -7.0187  -10.0544 H   0  0  0  0  0
  -31.2595   -5.7374   -9.0530 H   0  0  0  0  0
  -28.5598   -3.5034   -9.7086 H   0  0  0  0  0
  -30.0372   -3.7662   -8.7167 H   0  0  0  0  0
  -29.8385   -3.2569  -11.7117 H   0  0  0  0  0
  -30.6916   -2.2672  -10.4502 H   0  0  0  0  0
  -33.9929   -5.5237  -10.7297 H   0  0  0  0  0
  -33.9740    0.1938  -11.0003 H   0  0  0  0  0
  -35.7081   -0.0853  -10.8093 H   0  0  0  0  0
  -36.6788   -4.5014   -8.3590 H   0  0  0  0  0
  -38.8229   -5.6905   -8.0650 H   0  0  0  0  0
  -39.1999   -6.0500  -12.3262 H   0  0  0  0  0
  -37.0569   -4.8543  -12.6188 H   0  0  0  0  0
  1  2  1  0  0  0
  1  6  1  0  0  0
  2  3  1  0  0  0
  3  4  1  0  0  0
  4  5  1  0  0  0
  5  6  1  0  0  0
  6  7  1  0  0  0
  7  8  4  0  0  0
  7  9  4  0  0  0
  8 13  4  0  0  0
  9 10  4  0  0  0
 10 11  1  0  0  0
 10 12  4  0  0  0
 12 13  4  0  0  0
 13 14  1  0  0  0
 14 15  4  0  0  0
 14 23  4  0  0  0
 15 16  4  0  0  0
 16 17  4  0  0  0
 17 18  1  0  0  0
 17 22  4  0  0  0
 18 19  1  0  0  0
 18 20  1  0  0  0
 18 21  1  0  0  0
 22 23  4  0  0  0
  1 24  1  0  0  0
  1 25  1  0  0  0
  2 26  1  0  0  0
  2 27  1  0  0  0
  4 28  1  0  0  0
  4 29  1  0  0  0
  5 30  1  0  0  0
  5 31  1  0  0  0
  8 32  1  0  0  0
 11 33  1  0  0  0
 11 34  1  0  0  0
 15 35  1  0  0  0
 16 36  1  0  0  0
 22 37  1  0  0  0
 23 38  1  0  0  0
M  END
$$$$
