6cqt_ligand
  -I-interpret- 

 14 13  0  0  0  0  0  0  0  0999 V2000
   53.5370   25.5020   22.5960 P   0  0  0  0  0
   53.5280   25.7760   24.0810 O   0  0  0  0  0
   54.4550   24.1690   22.2890 O   0  0  0  0  0
   51.7960   25.2040   22.0100 C   0  0  0  0  0
   54.8320   23.3560   23.3640 C   0  0  0  0  0
   53.7590   22.2960   23.6010 C   0  0  0  0  0
   51.3789   24.3453   22.5361 H   0  0  0  0  0
   51.1894   26.0864   22.2137 H   0  0  0  0  0
   51.8036   25.0063   20.9381 H   0  0  0  0  0
   54.9436   23.9668   24.2599 H   0  0  0  0  0
   55.7801   22.8688   23.1362 H   0  0  0  0  0
   52.8116   22.7845   23.8288 H   0  0  0  0  0
   53.6484   21.6860   22.7045 H   0  0  0  0  0
   54.0536   21.6635   24.4384 H   0  0  0  0  0
  1  2  2  0  0  0
  1  3  1  0  0  0
  1  4  1  0  0  0
  3  5  1  0  0  0
  5  6  1  0  0  0
  4  7  1  0  0  0
  4  8  1  0  0  0
  4  9  1  0  0  0
  5 10  1  0  0  0
  5 11  1  0  0  0
  6 12  1  0  0  0
  6 13  1  0  0  0
  6 14  1  0  0  0
M  END
$$$$
