2jbo_ligand
  -I-interpret- 

 41 45  0  0  0  0  0  0  0  0999 V2000
  238.7100   82.5570  184.3310 C   0  0  0  0  0
  240.0870   82.5030  184.4560 C   0  0  0  0  0
  240.6770   81.6990  185.4610 C   0  0  0  0  0
  242.0680   81.6300  185.5780 C   0  0  0  0  0
  242.8590   82.3760  184.6830 C   0  0  0  0  0
  242.2770   83.1840  183.6910 C   0  0  0  0  0
  240.8790   83.2520  183.5760 C   0  0  0  0  0
  240.3050   84.0120  182.6250 N   0  0  0  0  0
  238.9860   84.0740  182.5080 C   0  0  0  0  0
  238.1380   83.3530  183.3540 C   0  0  0  0  0
  236.7370   83.4480  183.2370 C   0  0  0  0  0
  235.9010   82.4200  183.6750 C   0  0  0  0  0
  236.2050   84.5760  182.7390 N   0  0  0  0  0
  234.9080   84.7320  182.6130 C   0  0  0  0  0
  234.0300   83.7360  183.0090 C   0  0  0  0  0
  234.5300   82.5580  183.5370 C   0  0  0  0  0
  233.6580   81.5490  183.9320 C   0  0  0  0  0
  232.3460   81.5060  183.6830 C   0  0  0  0  0
  231.8450   80.4050  184.2380 C   0  0  0  0  0
  230.5730   79.8520  184.3170 C   0  0  0  0  0
  229.5960   80.5450  184.0770 O   0  0  0  0  0
  230.4150   78.5170  184.7020 N   0  0  0  0  0
  231.6120   77.6180  185.0130 C   0  0  0  0  0
  232.7830   78.4170  185.5990 C   0  0  0  0  0
  232.8980   79.7480  184.8610 C   0  0  0  0  0
  233.9970   80.4660  184.6400 N   0  0  0  0  0
  238.0774   81.9741  185.0004 H   0  0  0  0  0
  240.0450   81.1326  186.1450 H   0  0  0  0  0
  242.5313   81.0112  186.3465 H   0  0  0  0  0
  243.9450   82.3258  184.7612 H   0  0  0  0  0
  242.9093   83.7566  183.0125 H   0  0  0  0  0
  238.5511   84.7037  181.7318 H   0  0  0  0  0
  236.3223   81.5189  184.1206 H   0  0  0  0  0
  234.5162   85.6576  182.1911 H   0  0  0  0  0
  232.9543   83.8788  182.9056 H   0  0  0  0  0
  231.7806   82.2484  183.1196 H   0  0  0  0  0
  229.4736   78.1317  184.7776 H   0  0  0  0  0
  231.9434   77.1532  184.0844 H   0  0  0  0  0
  231.3019   76.8741  185.7469 H   0  0  0  0  0
  233.7076   77.8517  185.4821 H   0  0  0  0  0
  232.6083   78.5994  186.6593 H   0  0  0  0  0
  1  2  4  0  0  0
  1 10  4  0  0  0
  2  3  4  0  0  0
  2  7  4  0  0  0
  3  4  4  0  0  0
  4  5  4  0  0  0
  5  6  4  0  0  0
  6  7  4  0  0  0
  7  8  4  0  0  0
  8  9  4  0  0  0
  9 10  4  0  0  0
 10 11  1  0  0  0
 11 12  4  0  0  0
 11 13  4  0  0  0
 12 16  4  0  0  0
 13 14  4  0  0  0
 14 15  4  0  0  0
 15 16  4  0  0  0
 16 17  1  0  0  0
 17 18  4  0  0  0
 17 26  4  0  0  0
 18 19  4  0  0  0
 19 20  1  0  0  0
 19 25  4  0  0  0
 20 21  2  0  0  0
 20 22  1  0  0  0
 22 23  1  0  0  0
 23 24  1  0  0  0
 24 25  1  0  0  0
 25 26  4  0  0  0
  1 27  1  0  0  0
  3 28  1  0  0  0
  4 29  1  0  0  0
  5 30  1  0  0  0
  6 31  1  0  0  0
  9 32  1  0  0  0
 12 33  1  0  0  0
 14 34  1  0  0  0
 15 35  1  0  0  0
 18 36  1  0  0  0
 22 37  1  0  0  0
 23 38  1  0  0  0
 23 39  1  0  0  0
 24 40  1  0  0  0
 24 41  1  0  0  0
M  END
$$$$
