4wlb_ligand
  -I-interpret- 

 64 66  0  0  0  0  0  0  0  0999 V2000
  -23.9550    5.5260   -5.9280 C   0  0  0  0  0
  -21.6750    5.5060   -5.1260 C   0  0  0  0  0
  -20.5100    3.3780   -2.1940 C   0  0  0  0  0
  -21.1010    5.0740   -3.7880 C   0  0  0  0  0
  -20.6110    6.0350   -2.9190 C   0  0  0  0  0
  -20.0770    5.6740   -1.6970 C   0  0  0  0  0
  -20.0240    4.3430   -1.3230 C   0  0  0  0  0
  -21.0480    3.7410   -3.4200 C   0  0  0  0  0
  -25.2110    5.1690   -3.7880 C   0  0  0  0  0
  -25.8640    6.9780   -5.3520 C   0  0  0  0  0
  -24.6790    6.2100   -4.7680 C   0  0  0  0  0
  -22.8340    4.6830   -5.4940 N   0  0  0  0  0
  -19.4890    3.9950   -0.1210 F   0  0  0  0  0
  -22.4410    3.6900   -6.7790 S   0  0  0  0  0
  -21.1120    3.2330   -6.5590 O   0  0  0  0  0
  -23.5790    2.8460   -6.9000 O   0  0  0  0  0
  -22.3750    4.5910   -8.2910 C   0  0  0  0  0
  -21.1460    5.0150   -8.7790 C   0  0  0  0  0
  -21.1220    5.6900   -9.9900 C   0  0  0  0  0
  -22.3050    5.9260  -10.6680 C   0  0  0  0  0
  -23.4620    5.5040  -10.1680 N   0  0  0  0  0
  -23.5220    4.8520   -9.0210 C   0  0  0  0  0
  -22.2740    6.6170  -11.8790 N   0  0  0  0  0
  -23.4620    6.5780  -12.7390 C   0  0  0  0  0
  -24.3920    7.7610  -12.4530 C   0  0  0  0  0
  -23.7660    9.1150  -12.8420 C   0  0  0  0  0
  -23.0540    9.0950  -14.1400 N   0  0  0  0  0
  -22.3270    7.8870  -14.5680 C   0  0  0  0  0
  -23.0570    6.5870  -14.2140 C   0  0  0  0  0
  -22.8910   10.4870  -15.0450 S   0  0  0  0  0
  -22.6990   10.1120  -16.4060 O   0  0  0  0  0
  -23.9230   11.3990  -14.6840 O   0  0  0  0  0
  -21.2610   11.1020  -14.4820 C   0  0  0  0  0
  -23.5507    6.3073   -6.5716 H   0  0  0  0  0
  -24.6753    4.8829   -6.4336 H   0  0  0  0  0
  -20.9065    5.3879   -5.8899 H   0  0  0  0  0
  -21.9951    6.5451   -5.0493 H   0  0  0  0  0
  -20.4686    2.3258   -1.9123 H   0  0  0  0  0
  -20.6471    7.0869   -3.2022 H   0  0  0  0  0
  -19.6954    6.4418   -1.0240 H   0  0  0  0  0
  -21.4297    2.9748   -4.0948 H   0  0  0  0  0
  -25.7596    5.6698   -2.9903 H   0  0  0  0  0
  -25.8762    4.4837   -4.3134 H   0  0  0  0  0
  -24.3761    4.6123   -3.3625 H   0  0  0  0  0
  -26.5259    6.2836   -5.8695 H   0  0  0  0  0
  -26.4093    7.4696   -4.5464 H   0  0  0  0  0
  -25.4991    7.7266   -6.0552 H   0  0  0  0  0
  -23.9918    6.8724   -4.2416 H   0  0  0  0  0
  -20.2266    4.8227   -8.2260 H   0  0  0  0  0
  -20.1750    6.0334  -10.4063 H   0  0  0  0  0
  -24.4876    4.5149   -8.6441 H   0  0  0  0  0
  -21.4436    7.1381  -12.1606 H   0  0  0  0  0
  -23.9982    5.6547  -12.5194 H   0  0  0  0  0
  -24.5916    7.7793  -11.3816 H   0  0  0  0  0
  -25.2968    7.6272  -13.0458 H   0  0  0  0  0
  -23.0342    9.3667  -12.0744 H   0  0  0  0  0
  -24.5793    9.8354  -12.9291 H   0  0  0  0  0
  -21.3672    7.8784  -14.0515 H   0  0  0  0  0
  -22.2297    7.9267  -15.6529 H   0  0  0  0  0
  -23.9554    6.5097  -14.8263 H   0  0  0  0  0
  -22.3892    5.7460  -14.4009 H   0  0  0  0  0
  -20.5212   10.3074  -14.5786 H   0  0  0  0  0
  -20.9639   11.9532  -15.0946 H   0  0  0  0  0
  -21.3309   11.4102  -13.4388 H   0  0  0  0  0
  1 11  1  0  0  0
 12  1  1  0  0  0
  4  2  1  0  0  0
  2 12  1  0  0  0
  3  7  4  0  0  0
  8  3  4  0  0  0
  4  5  4  0  0  0
  4  8  4  0  0  0
  5  6  4  0  0  0
  6  7  4  0  0  0
  7 13  1  0  0  0
 11  9  1  0  0  0
 11 10  1  0  0  0
 12 14  1  0  0  0
 14 15  2  0  0  0
 14 16  2  0  0  0
 14 17  1  0  0  0
 17 18  4  0  0  0
 17 22  4  0  0  0
 18 19  4  0  0  0
 19 20  4  0  0  0
 20 21  4  0  0  0
 20 23  1  0  0  0
 21 22  4  0  0  0
 23 24  1  0  0  0
 24 25  1  0  0  0
 24 29  1  0  0  0
 25 26  1  0  0  0
 26 27  1  0  0  0
 27 28  1  0  0  0
 27 30  1  0  0  0
 28 29  1  0  0  0
 30 31  2  0  0  0
 30 32  2  0  0  0
 30 33  1  0  0  0
  1 34  1  0  0  0
  1 35  1  0  0  0
  2 36  1  0  0  0
  2 37  1  0  0  0
  3 38  1  0  0  0
  5 39  1  0  0  0
  6 40  1  0  0  0
  8 41  1  0  0  0
  9 42  1  0  0  0
  9 43  1  0  0  0
  9 44  1  0  0  0
 10 45  1  0  0  0
 10 46  1  0  0  0
 10 47  1  0  0  0
 11 48  1  0  0  0
 18 49  1  0  0  0
 19 50  1  0  0  0
 22 51  1  0  0  0
 23 52  1  0  0  0
 24 53  1  0  0  0
 25 54  1  0  0  0
 25 55  1  0  0  0
 26 56  1  0  0  0
 26 57  1  0  0  0
 28 58  1  0  0  0
 28 59  1  0  0  0
 29 60  1  0  0  0
 29 61  1  0  0  0
 33 62  1  0  0  0
 33 63  1  0  0  0
 33 64  1  0  0  0
M  END
$$$$
