5vkf_ligand
  -I-interpret- 

 18 19  0  0  0  0  0  0  0  0999 V2000
   47.7200   31.8800   14.2640 C   0  0  0  0  0
   47.9900   31.8760   15.6290 C   0  0  0  0  0
   49.2990   31.8180   16.1040 C   0  0  0  0  0
   50.3820   31.7610   15.2320 C   0  0  0  0  0
   50.1600   31.7630   13.8630 C   0  0  0  0  0
   51.2080   31.7080   12.9560 C   0  0  0  0  0
   50.9380   31.7120   11.5910 C   0  0  0  0  0
   49.6300   31.7710   11.1150 C   0  0  0  0  0
   48.5470   31.8270   11.9880 C   0  0  0  0  0
   48.7680   31.8250   13.3570 C   0  0  0  0  0
   46.6903   31.9261   13.9093 H   0  0  0  0  0
   47.1639   31.9190   16.3387 H   0  0  0  0  0
   49.4779   31.8173   17.1792 H   0  0  0  0  0
   51.3986   31.7151   15.6226 H   0  0  0  0  0
   52.2377   31.6619   13.3107 H   0  0  0  0  0
   51.7644   31.6682   10.8816 H   0  0  0  0  0
   49.4514   31.7734   10.0397 H   0  0  0  0  0
   47.5304   31.8722   11.5974 H   0  0  0  0  0
  1  2  4  0  0  0
  1 10  4  0  0  0
  2  3  4  0  0  0
  3  4  4  0  0  0
  4  5  4  0  0  0
  5  6  4  0  0  0
  5 10  4  0  0  0
  6  7  4  0  0  0
  7  8  4  0  0  0
  8  9  4  0  0  0
  9 10  4  0  0  0
  1 11  1  0  0  0
  2 12  1  0  0  0
  3 13  1  0  0  0
  4 14  1  0  0  0
  6 15  1  0  0  0
  7 16  1  0  0  0
  8 17  1  0  0  0
  9 18  1  0  0  0
M  END
$$$$
