5tt3_ligand
  -I-interpret- 

 26 27  0  0  0  0  0  0  0  0999 V2000
   51.3810   40.4670   91.5590 N   0  0  0  0  0
   53.7480   41.7170   87.6900 C   0  0  0  0  0
   54.4630   42.8220   88.2390 C   0  0  0  0  0
   55.0690   43.7420   87.3950 C   0  0  0  0  0
   54.9780   43.5830   86.0080 C   0  0  0  0  0
   55.7340   44.8280   84.1550 C   0  0  0  0  0
   53.4480   41.3330   92.7620 O   0  0  0  0  0
   53.6700   39.3710   91.7440 O   0  0  0  0  0
   53.0130   40.6390   91.5810 S   0  0  0  0  0
   53.5630   41.4640   90.1110 C   0  0  0  0  0
   53.1740   40.8510   88.8870 N   0  0  0  0  0
   54.3840   42.7210   89.7730 S   0  0  0  0  0
   54.2720   42.4900   85.4650 C   0  0  0  0  0
   53.6600   41.5630   86.3140 C   0  0  0  0  0
   55.7060   44.6950   85.5570 O   0  0  0  0  0
   57.1350   44.5590   83.6510 C   0  0  0  0  0
   50.8190   40.8352   92.3264 H   0  0  0  0  0
   50.9287   39.9919   90.7779 H   0  0  0  0  0
   55.6154   44.5878   87.8124 H   0  0  0  0  0
   55.4369   45.8400   83.8799 H   0  0  0  0  0
   55.0435   44.1127   83.7082 H   0  0  0  0  0
   54.2034   42.3678   84.3840 H   0  0  0  0  0
   53.1132   40.7185   85.8945 H   0  0  0  0  0
   57.8244   45.2749   84.0984 H   0  0  0  0  0
   57.4308   43.5468   83.9266 H   0  0  0  0  0
   57.1555   44.6622   82.5661 H   0  0  0  0  0
  9  1  1  0  0  0
  2  3  4  0  0  0
 11  2  4  0  0  0
  2 14  4  0  0  0
  3  4  4  0  0  0
  3 12  4  0  0  0
  4  5  4  0  0  0
  5 13  4  0  0  0
  5 15  1  0  0  0
 15  6  1  0  0  0
  6 16  1  0  0  0
  9  7  2  0  0  0
  9  8  2  0  0  0
 10  9  1  0  0  0
 10 11  4  0  0  0
 10 12  4  0  0  0
 13 14  4  0  0  0
  1 17  1  0  0  0
  1 18  1  0  0  0
  4 19  1  0  0  0
  6 20  1  0  0  0
  6 21  1  0  0  0
 13 22  1  0  0  0
 14 23  1  0  0  0
 16 24  1  0  0  0
 16 25  1  0  0  0
 16 26  1  0  0  0
M  END
$$$$
