2ze1_ligand
  -I-interpret- 

 55 58  0  0  0  0  0  0  0  0999 V2000
   18.5940  -12.7900   17.4350 C   0  0  0  0  0
   18.3740  -12.0040   18.5730 C   0  0  0  0  0
   17.1320  -11.3770   18.7670 C   0  0  0  0  0
   16.0990  -11.5420   17.8250 C   0  0  0  0  0
   16.3330  -12.3370   16.6850 C   0  0  0  0  0
   17.5750  -12.9590   16.4900 C   0  0  0  0  0
   14.8060  -10.8820   18.0270 C   0  0  0  0  0
   13.8310  -11.1330   18.9800 C   0  0  0  0  0
   12.7590  -10.2290   18.7730 C   0  0  0  0  0
   13.0690   -9.4330   17.6780 C   0  0  0  0  0
   14.3250   -9.8470   17.2390 N   0  0  0  0  0
   15.0440   -9.2570   16.1150 C   0  0  0  0  0
   15.6880   -7.9890   16.6060 C   0  0  0  0  0
   16.0210   -7.7870   17.7680 O   0  0  0  0  0
   15.8600   -7.0120   15.5670 N   0  0  0  0  0
   16.4280   -5.7510   15.7390 C   0  0  0  0  0
   16.8700   -5.3650   16.9960 N   0  0  0  0  0
   16.5700   -4.8920   14.6690 N   0  0  0  0  0
   12.2920   -8.3410   17.0640 C   0  0  0  0  0
   11.1580   -8.5590   16.2590 C   0  0  0  0  0
   10.4620   -7.4720   15.6880 C   0  0  0  0  0
   10.9050   -6.1540   15.9110 C   0  0  0  0  0
   12.0340   -5.9480   16.7170 C   0  0  0  0  0
   12.7200   -7.0220   17.2810 C   0  0  0  0  0
   10.3130   -4.9520   15.4400 N   0  0  0  0  0
    8.9580   -4.6400   15.3730 C   0  0  0  0  0
    8.0090   -5.3460   15.6830 O   0  0  0  0  0
    8.6370   -3.2810   14.8720 C   0  0  0  0  0
    7.5310   -2.5690   15.3760 C   0  0  0  0  0
    7.2490   -1.2820   14.9020 C   0  0  0  0  0
    8.0650   -0.7050   13.9250 C   0  0  0  0  0
    9.1650   -1.4180   13.4370 C   0  0  0  0  0
    9.4610   -2.7010   13.8970 C   0  0  0  0  0
   10.2770   -0.6500   12.1210 Br  0  0  0  0  0
   19.5605  -13.2711   17.2847 H   0  0  0  0  0
   19.1678  -11.8785   19.3094 H   0  0  0  0  0
   16.9675  -10.7602   19.6505 H   0  0  0  0  0
   15.5412  -12.4698   15.9478 H   0  0  0  0  0
   17.7463  -13.5722   15.6052 H   0  0  0  0  0
   13.8804  -11.8961   19.7568 H   0  0  0  0  0
   11.8489  -10.1690   19.3699 H   0  0  0  0  0
   14.3594   -9.0438   15.2940 H   0  0  0  0  0
   15.7992   -9.9480   15.7405 H   0  0  0  0  0
   16.7783   -6.0026   17.7869 H   0  0  0  0  0
   17.2867   -4.4436   17.1294 H   0  0  0  0  0
   16.2579   -5.1775   13.7408 H   0  0  0  0  0
   10.8142   -9.5768   16.0749 H   0  0  0  0  0
    9.5802   -7.6530   15.0734 H   0  0  0  0  0
   12.3804   -4.9318   16.9053 H   0  0  0  0  0
   13.5991   -6.8355   17.8978 H   0  0  0  0  0
   10.9569   -4.2321   15.1120 H   0  0  0  0  0
    6.8937   -3.0206   16.1362 H   0  0  0  0  0
    6.3943   -0.7309   15.2944 H   0  0  0  0  0
    7.8458    0.2933   13.5461 H   0  0  0  0  0
   10.3202   -3.2448   13.5043 H   0  0  0  0  0
  1  2  4  0  0  0
  1  6  4  0  0  0
  2  3  4  0  0  0
  3  4  4  0  0  0
  4  5  4  0  0  0
  4  7  1  0  0  0
  5  6  4  0  0  0
  7  8  4  0  0  0
  7 11  4  0  0  0
  8  9  4  0  0  0
  9 10  4  0  0  0
 10 11  4  0  0  0
 10 19  1  0  0  0
 11 12  1  0  0  0
 12 13  1  0  0  0
 13 14  2  0  0  0
 13 15  1  0  0  0
 15 16  4  0  0  0
 16 17  1  0  0  0
 16 18  2  0  0  0
 19 20  4  0  0  0
 19 24  4  0  0  0
 20 21  4  0  0  0
 21 22  4  0  0  0
 22 23  4  0  0  0
 22 25  1  0  0  0
 23 24  4  0  0  0
 25 26  1  0  0  0
 26 27  2  0  0  0
 26 28  1  0  0  0
 28 29  4  0  0  0
 28 33  4  0  0  0
 29 30  4  0  0  0
 30 31  4  0  0  0
 31 32  4  0  0  0
 32 33  4  0  0  0
 32 34  1  0  0  0
  1 35  1  0  0  0
  2 36  1  0  0  0
  3 37  1  0  0  0
  5 38  1  0  0  0
  6 39  1  0  0  0
  8 40  1  0  0  0
  9 41  1  0  0  0
 12 42  1  0  0  0
 12 43  1  0  0  0
 17 44  1  0  0  0
 17 45  1  0  0  0
 18 46  1  0  0  0
 20 47  1  0  0  0
 21 48  1  0  0  0
 23 49  1  0  0  0
 24 50  1  0  0  0
 25 51  1  0  0  0
 29 52  1  0  0  0
 30 53  1  0  0  0
 31 54  1  0  0  0
 33 55  1  0  0  0
M  END
$$$$
