5xii_ligand
  -I-interpret- 

 41 43  0  0  0  0  0  0  0  0999 V2000
   12.7810   -2.6770   -9.1970 C   0  0  0  0  0
   13.8650   -1.4260   -7.3250 C   0  0  0  0  0
   13.5090   -0.6420   -6.0600 C   0  0  0  0  0
   13.0310    1.5250   -5.1530 C   0  0  0  0  0
   12.0980   -0.9500   -5.6610 C   0  0  0  0  0
   11.8080   -2.0480   -5.1890 O   0  0  0  0  0
   11.0390    0.1080   -5.8480 C   0  0  0  0  0
   11.4870    1.4290   -5.1760 C   0  0  0  0  0
   13.6330    0.8020   -6.2850 N   0  3  0  0  0
   12.6480   -1.4820   -8.2510 C   0  0  0  0  0
   12.3230   -2.3270  -10.5610 N   0  0  0  0  0
   13.2340   -1.8890  -11.5060 C   0  0  0  0  0
   14.4240   -1.7910  -11.2110 O   0  0  0  0  0
   12.7880   -1.5680  -12.7700 C   0  0  0  0  0
   13.6840   -1.1260  -13.7370 C   0  0  0  0  0
   13.2280   -0.8040  -15.0090 C   0  0  0  0  0
   14.3370   -0.2550  -16.2110 Cl  0  0  0  0  0
   11.8770   -0.9250  -15.3130 C   0  0  0  0  0
   11.4290   -0.6100  -16.5600 F   0  0  0  0  0
   10.9830   -1.3680  -14.3440 C   0  0  0  0  0
   11.4420   -1.6890  -13.0720 C   0  0  0  0  0
   10.5450   -2.1340  -12.0980 N   0  0  0  0  0
   10.9610   -2.4400  -10.8970 C   0  0  0  0  0
   12.1642   -3.4925   -8.8193 H   0  0  0  0  0
   13.8297   -2.9705   -9.2446 H   0  0  0  0  0
   14.1610   -2.4391   -7.0529 H   0  0  0  0  0
   14.6895   -0.9314   -7.8386 H   0  0  0  0  0
   14.2000   -0.9370   -5.2703 H   0  0  0  0  0
   13.3911    1.0776   -4.2266 H   0  0  0  0  0
   13.3129    2.5755   -5.2249 H   0  0  0  0  0
   10.1092   -0.2301   -5.3905 H   0  0  0  0  0
   10.8883    0.2805   -6.9136 H   0  0  0  0  0
   11.0872    2.2695   -5.7432 H   0  0  0  0  0
   11.1144    1.4508   -4.1519 H   0  0  0  0  0
   13.1506    1.0556   -7.1472 H   0  0  0  0  0
   14.6188    1.0516   -6.3638 H   0  0  0  0  0
   11.7423   -1.5902   -7.6543 H   0  0  0  0  0
   12.5921   -0.5623   -8.8333 H   0  0  0  0  0
   14.7432   -1.0323  -13.4972 H   0  0  0  0  0
    9.9236   -1.4633  -14.5819 H   0  0  0  0  0
   10.2469   -2.7856  -10.1495 H   0  0  0  0  0
 10  1  1  0  0  0
  1 11  1  0  0  0
  3  2  1  0  0  0
  2 10  1  0  0  0
  3  5  1  0  0  0
  9  3  1  0  0  0
  4  8  1  0  0  0
  4  9  1  0  0  0
  5  6  2  0  0  0
  5  7  1  0  0  0
  7  8  1  0  0  0
 11 12  1  0  0  0
 11 23  1  0  0  0
 12 13  2  0  0  0
 12 14  1  0  0  0
 14 15  4  0  0  0
 14 21  4  0  0  0
 15 16  4  0  0  0
 16 17  1  0  0  0
 16 18  4  0  0  0
 18 19  1  0  0  0
 18 20  4  0  0  0
 20 21  4  0  0  0
 21 22  1  0  0  0
 22 23  2  0  0  0
  1 24  1  0  0  0
  1 25  1  0  0  0
  2 26  1  0  0  0
  2 27  1  0  0  0
  3 28  1  0  0  0
  4 29  1  0  0  0
  4 30  1  0  0  0
  7 31  1  0  0  0
  7 32  1  0  0  0
  8 33  1  0  0  0
  8 34  1  0  0  0
  9 35  1  0  0  0
  9 36  1  0  0  0
 10 37  1  0  0  0
 10 38  1  0  0  0
 15 39  1  0  0  0
 20 40  1  0  0  0
 23 41  1  0  0  0
M  END
$$$$
