2r3o_ligand
  -I-interpret- 

 42 45  0  0  0  0  0  0  0  0999 V2000
   -0.0540   30.2160    7.7490 C   0  0  0  0  0
    0.6020   28.9950    7.8950 C   0  0  0  0  0
    1.7780   29.0840    7.1770 N   0  0  0  0  0
    1.9170   30.3150    6.5840 N   0  0  0  0  0
    0.8220   30.9850    6.9580 C   0  0  0  0  0
    0.2480   27.8560    8.5870 N   0  0  0  0  0
    1.0980   26.8520    8.5280 C   0  0  0  0  0
    2.3780   26.8690    7.7730 C   0  0  0  0  0
    2.6950   28.0040    7.1190 C   0  0  0  0  0
    3.8440   28.2050    6.3850 N   0  0  0  0  0
    0.8040   25.5880    9.2790 C   0  0  0  0  0
    5.0900   27.4830    6.4370 C   0  0  0  0  0
    5.1650   26.4260    5.3850 C   0  0  0  0  0
    5.4210   26.7710    4.0640 C   0  0  0  0  0
    5.5310   25.8790    3.0490 N   0  0  0  0  0
    5.3490   24.5760    3.3650 C   0  0  0  0  0
    5.0690   24.1300    4.6540 C   0  0  0  0  0
    5.0000   25.0710    5.6700 C   0  0  0  0  0
   -0.5290   25.2590    9.5360 C   0  0  0  0  0
   -0.8380   24.0870   10.2480 C   0  0  0  0  0
    0.1860   23.2520   10.7070 C   0  0  0  0  0
    1.5250   23.5760   10.4510 C   0  0  0  0  0
    1.8350   24.7470    9.7380 C   0  0  0  0  0
   -1.3830   30.6080    8.2920 C   0  0  0  0  0
   -1.3460   30.9080    9.6870 O   0  0  0  0  0
    0.6271   32.0206    6.6793 H   0  0  0  0  0
    3.0339   25.9987    7.7492 H   0  0  0  0  0
    3.8074   28.9706    5.7120 H   0  0  0  0  0
    5.1655   27.0011    7.4118 H   0  0  0  0  0
    5.9022   28.1903    6.2695 H   0  0  0  0  0
    5.5413   27.8283    3.8280 H   0  0  0  0  0
    5.4256   23.8362    2.5682 H   0  0  0  0  0
    4.9086   23.0714    4.8585 H   0  0  0  0  0
    4.8161   24.7504    6.6954 H   0  0  0  0  0
   -1.3290   25.9106    9.1847 H   0  0  0  0  0
   -1.8787   23.8281   10.4430 H   0  0  0  0  0
   -0.0580   22.3478   11.2647 H   0  0  0  0  0
    2.3231   22.9225   10.8034 H   0  0  0  0  0
    2.8756   25.0042    9.5402 H   0  0  0  0  0
   -2.0620   29.7672    8.1500 H   0  0  0  0  0
   -1.7056   31.5068    7.7664 H   0  0  0  0  0
   -2.2253   31.1536    9.9838 H   0  0  0  0  0
  1  2  4  0  0  0
  1  5  4  0  0  0
  1 24  1  0  0  0
  2  3  4  0  0  0
  2  6  4  0  0  0
  3  4  4  0  0  0
  3  9  4  0  0  0
  4  5  4  0  0  0
  6  7  4  0  0  0
  7  8  4  0  0  0
  7 11  1  0  0  0
  8  9  4  0  0  0
  9 10  1  0  0  0
 10 12  1  0  0  0
 11 19  4  0  0  0
 11 23  4  0  0  0
 12 13  1  0  0  0
 13 14  4  0  0  0
 13 18  4  0  0  0
 14 15  4  0  0  0
 15 16  4  0  0  0
 16 17  4  0  0  0
 17 18  4  0  0  0
 19 20  4  0  0  0
 20 21  4  0  0  0
 21 22  4  0  0  0
 22 23  4  0  0  0
 24 25  1  0  0  0
  5 26  1  0  0  0
  8 27  1  0  0  0
 10 28  1  0  0  0
 12 29  1  0  0  0
 12 30  1  0  0  0
 14 31  1  0  0  0
 16 32  1  0  0  0
 17 33  1  0  0  0
 18 34  1  0  0  0
 19 35  1  0  0  0
 20 36  1  0  0  0
 21 37  1  0  0  0
 22 38  1  0  0  0
 23 39  1  0  0  0
 24 40  1  0  0  0
 24 41  1  0  0  0
 25 42  1  0  0  0
M  END
$$$$
