1met_ligand
  -I-interpret- 

 80 84  0  0  0  0  0  0  0  0999 V2000
   -8.7770   15.3010   27.8890 C   0  0  0  0  0
   -8.7100   17.6000   26.9240 C   0  0  0  0  0
  -10.0870   18.1860   27.1820 C   0  0  0  0  0
  -10.4930   17.9640   28.6200 C   0  0  0  0  0
  -10.7880   16.4950   28.8410 C   0  0  0  0  0
   -8.0250   15.5160   25.6460 C   0  0  0  0  0
   -8.5450   15.9430   24.3020 C   0  0  0  0  0
   -9.9210   15.9490   23.9570 C   0  0  0  0  0
  -10.3040   16.2940   22.6350 C   0  0  0  0  0
   -9.3040   16.6360   21.6830 C   0  0  0  0  0
   -7.9440   16.6210   22.0570 C   0  0  0  0  0
   -7.5640   16.2850   23.3600 C   0  0  0  0  0
   -9.6800   17.0140   20.2630 C   0  0  0  0  0
   -7.5900   18.1460   27.8350 C   0  0  0  0  0
   -6.2190   17.9960   27.2150 C   0  0  0  0  0
   -5.3030   17.0730   27.7590 C   0  0  0  0  0
   -4.0530   16.8940   27.1410 C   0  0  0  0  0
   -3.7290   17.6330   25.9840 C   0  0  0  0  0
   -4.6440   18.5670   25.4400 C   0  0  0  0  0
   -5.8920   18.7560   26.0610 C   0  0  0  0  0
  -11.9060   15.9210   27.9330 C   0  0  0  0  0
  -12.3890   14.6450   28.5370 C   0  0  0  0  0
  -12.9630   14.6720   29.8380 C   0  0  0  0  0
  -13.2290   13.4580   30.5050 C   0  0  0  0  0
  -12.9400   12.2340   29.8530 C   0  0  0  0  0
  -12.3970   12.2170   28.5470 C   0  0  0  0  0
  -12.1190   13.4290   27.8840 C   0  0  0  0  0
   -9.4760   14.6790   30.0410 C   0  0  0  0  0
   -9.5560   15.3150   31.3880 C   0  0  0  0  0
  -10.3360   14.6180   32.3230 C   0  0  0  0  0
  -10.4310   15.1130   33.6230 C   0  0  0  0  0
   -9.7550   16.3000   33.9910 C   0  0  0  0  0
   -8.9690   17.0130   33.0410 C   0  0  0  0  0
   -8.8710   16.5100   31.7250 C   0  0  0  0  0
   -9.8550   16.7910   35.4140 C   0  0  0  0  0
   -8.5940   16.1300   26.8430 N   0  0  0  0  0
   -9.6380   15.5530   28.8930 N   0  0  0  0  0
   -8.1270   14.2670   27.9320 O   0  0  0  0  0
   -9.9770   19.5490   26.8670 O   0  0  0  0  0
  -11.6980   18.5880   28.9110 O   0  0  0  0  0
   -8.8040   18.0230   19.7360 O   0  0  0  0  0
  -11.1570   16.5280   35.9670 O   0  0  0  0  0
   -8.5623   17.9682   25.9088 H   0  0  0  0  0
  -10.8616   17.7119   26.5792 H   0  0  0  0  0
   -9.6771   18.3475   29.2326 H   0  0  0  0  0
  -11.1517   16.5445   29.8674 H   0  0  0  0  0
   -8.2739   14.4576   25.7238 H   0  0  0  0  0
   -6.9744   15.8065   25.6496 H   0  0  0  0  0
  -10.6761   15.6913   24.6996 H   0  0  0  0  0
  -11.3564   16.2969   22.3512 H   0  0  0  0  0
   -7.1803   16.8743   21.3216 H   0  0  0  0  0
   -6.5111   16.2889   23.6420 H   0  0  0  0  0
  -10.6961   17.4084   20.2688 H   0  0  0  0  0
   -9.5988   16.1256   19.6367 H   0  0  0  0  0
   -7.6040   17.5773   28.7648 H   0  0  0  0  0
   -7.7734   19.2084   27.9955 H   0  0  0  0  0
   -5.5616   16.5029   28.6513 H   0  0  0  0  0
   -3.3356   16.1855   27.5551 H   0  0  0  0  0
   -2.7625   17.4833   25.5028 H   0  0  0  0  0
   -4.3833   19.1351   24.5470 H   0  0  0  0  0
   -6.6018   19.4795   25.6599 H   0  0  0  0  0
  -11.5175   15.7376   26.9312 H   0  0  0  0  0
  -12.7276   16.6330   27.8552 H   0  0  0  0  0
  -13.1956   15.6236   30.3160 H   0  0  0  0  0
  -13.6517   13.4616   31.5097 H   0  0  0  0  0
  -13.1388   11.2924   30.3648 H   0  0  0  0  0
  -12.1936   11.2666   28.0535 H   0  0  0  0  0
  -11.7000   13.4241   26.8778 H   0  0  0  0  0
   -8.4696   14.2675   29.9639 H   0  0  0  0  0
  -10.3023   13.9696   29.9957 H   0  0  0  0  0
  -10.8588   13.7050   32.0380 H   0  0  0  0  0
  -11.0308   14.5812   34.3616 H   0  0  0  0  0
   -8.4526   17.9301   33.3245 H   0  0  0  0  0
   -8.2759   17.0341   30.9772 H   0  0  0  0  0
   -9.6852   17.8677   35.4225 H   0  0  0  0  0
   -9.1106   16.2683   36.0147 H   0  0  0  0  0
   -9.7181   19.6439   25.9474 H   0  0  0  0  0
  -11.6021   19.5362   28.7957 H   0  0  0  0  0
   -9.0690   18.2384   18.8388 H   0  0  0  0  0
  -11.1907   16.8505   36.8706 H   0  0  0  0  0
  1 38  2  0  0  0
  1 37  1  0  0  0
  1 36  1  0  0  0
 36  6  1  0  0  0
 36  2  1  0  0  0
  2 14  1  0  0  0
  2  3  1  0  0  0
  3 39  1  0  0  0
  3  4  1  0  0  0
  4 40  1  0  0  0
  4  5  1  0  0  0
  5 37  1  0  0  0
  5 21  1  0  0  0
 21 22  1  0  0  0
 22 27  4  0  0  0
 22 23  4  0  0  0
 23 24  4  0  0  0
 24 25  4  0  0  0
 25 26  4  0  0  0
 26 27  4  0  0  0
 37 28  1  0  0  0
 28 29  1  0  0  0
 29 34  4  0  0  0
 29 30  4  0  0  0
 30 31  4  0  0  0
 31 32  4  0  0  0
 32 35  1  0  0  0
 32 33  4  0  0  0
 33 34  4  0  0  0
 35 42  1  0  0  0
 14 15  1  0  0  0
 15 20  4  0  0  0
 15 16  4  0  0  0
 16 17  4  0  0  0
 17 18  4  0  0  0
 18 19  4  0  0  0
 19 20  4  0  0  0
  6  7  1  0  0  0
  7 12  4  0  0  0
  7  8  4  0  0  0
  8  9  4  0  0  0
  9 10  4  0  0  0
 10 13  1  0  0  0
 10 11  4  0  0  0
 11 12  4  0  0  0
 13 41  1  0  0  0
  2 43  1  0  0  0
  3 44  1  0  0  0
  4 45  1  0  0  0
  5 46  1  0  0  0
  6 47  1  0  0  0
  6 48  1  0  0  0
  8 49  1  0  0  0
  9 50  1  0  0  0
 11 51  1  0  0  0
 12 52  1  0  0  0
 13 53  1  0  0  0
 13 54  1  0  0  0
 14 55  1  0  0  0
 14 56  1  0  0  0
 16 57  1  0  0  0
 17 58  1  0  0  0
 18 59  1  0  0  0
 19 60  1  0  0  0
 20 61  1  0  0  0
 21 62  1  0  0  0
 21 63  1  0  0  0
 23 64  1  0  0  0
 24 65  1  0  0  0
 25 66  1  0  0  0
 26 67  1  0  0  0
 27 68  1  0  0  0
 28 69  1  0  0  0
 28 70  1  0  0  0
 30 71  1  0  0  0
 31 72  1  0  0  0
 33 73  1  0  0  0
 34 74  1  0  0  0
 35 75  1  0  0  0
 35 76  1  0  0  0
 39 77  1  0  0  0
 40 78  1  0  0  0
 41 79  1  0  0  0
 42 80  1  0  0  0
M  END
$$$$
