1inc_ligand
  -I-interpret- 

 47 47  0  0  0  0  0  0  0  0999 V2000
   -8.9960   23.0670   37.9320 C   0  0  0  0  0
   -8.3630   22.0120   38.0610 O   0  0  0  0  0
  -10.1330   23.2110   37.1540 C   0  0  0  0  0
  -11.1320   24.0910   37.6090 C   0  0  0  0  0
  -10.8240   25.0840   38.8990 Cl  0  0  0  0  0
  -12.3700   24.0940   36.9590 C   0  0  0  0  0
  -12.5750   23.2980   35.8160 C   0  0  0  0  0
  -11.5620   22.4680   35.3270 C   0  0  0  0  0
  -10.3410   22.4040   35.9910 C   0  0  0  0  0
   -9.3560   21.7460   35.2840 N   0  0  0  0  0
   -8.1010   22.2410   35.1240 C   0  0  0  0  0
   -7.7730   23.4010   35.4460 O   0  0  0  0  0
   -7.1340   21.5450   34.1840 C   0  0  0  0  0
   -6.2000   20.7240   35.1080 C   0  0  0  0  0
   -4.7220   20.9070   34.7410 C   0  0  0  0  0
   -6.6380   19.2570   35.1590 C   0  0  0  0  0
   -6.3520   22.6080   33.4580 N   0  0  0  0  0
   -6.6410   23.0840   32.2170 C   0  0  0  0  0
   -7.5490   22.6600   31.4700 O   0  0  0  0  0
   -5.8010   24.0860   31.9550 O   0  0  0  0  0
   -5.9300   24.8150   30.6550 C   0  0  0  0  0
   -7.3650   25.3830   30.4960 C   0  0  0  0  0
   -5.5730   23.9320   29.4390 C   0  0  0  0  0
   -4.9110   25.9710   30.7100 C   0  0  0  0  0
   -8.6338   23.9444   38.4679 H   0  0  0  0  0
  -13.1805   24.7158   37.3392 H   0  0  0  0  0
  -13.5373   23.3293   35.3051 H   0  0  0  0  0
  -11.7281   21.8732   34.4288 H   0  0  0  0  0
   -9.5806   20.8452   34.8614 H   0  0  0  0  0
   -7.6213   20.9073   33.4465 H   0  0  0  0  0
   -6.2945   21.1136   36.1216 H   0  0  0  0  0
   -4.5605   20.5783   33.7144 H   0  0  0  0  0
   -4.4536   21.9594   34.8334 H   0  0  0  0  0
   -4.1053   20.3129   35.4153 H   0  0  0  0  0
   -7.6560   19.1963   35.5438 H   0  0  0  0  0
   -6.6017   18.8332   34.1554 H   0  0  0  0  0
   -5.9669   18.7013   35.8140 H   0  0  0  0  0
   -5.5412   23.0023   33.9349 H   0  0  0  0  0
   -8.0833   24.5634   30.5178 H   0  0  0  0  0
   -7.5740   26.0728   31.3137 H   0  0  0  0  0
   -7.4423   25.9104   29.5452 H   0  0  0  0  0
   -4.5420   23.5900   29.5301 H   0  0  0  0  0
   -6.2412   23.0714   29.4079 H   0  0  0  0  0
   -5.6847   24.5136   28.5240 H   0  0  0  0  0
   -5.1474   26.6223   31.5515 H   0  0  0  0  0
   -3.9077   25.5636   30.8348 H   0  0  0  0  0
   -4.9601   26.5414   29.7825 H   0  0  0  0  0
  1  2  2  0  0  0
  1  3  1  0  0  0
  3  4  4  0  0  0
  3  9  4  0  0  0
  4  5  1  0  0  0
  4  6  4  0  0  0
  6  7  4  0  0  0
  7  8  4  0  0  0
  8  9  4  0  0  0
  9 10  1  0  0  0
 10 11  1  0  0  0
 11 12  2  0  0  0
 11 13  1  0  0  0
 13 14  1  0  0  0
 13 17  1  0  0  0
 14 15  1  0  0  0
 14 16  1  0  0  0
 17 18  1  0  0  0
 18 19  2  0  0  0
 18 20  1  0  0  0
 20 21  1  0  0  0
 21 22  1  0  0  0
 21 23  1  0  0  0
 21 24  1  0  0  0
  1 25  1  0  0  0
  6 26  1  0  0  0
  7 27  1  0  0  0
  8 28  1  0  0  0
 10 29  1  0  0  0
 13 30  1  0  0  0
 14 31  1  0  0  0
 15 32  1  0  0  0
 15 33  1  0  0  0
 15 34  1  0  0  0
 16 35  1  0  0  0
 16 36  1  0  0  0
 16 37  1  0  0  0
 17 38  1  0  0  0
 22 39  1  0  0  0
 22 40  1  0  0  0
 22 41  1  0  0  0
 23 42  1  0  0  0
 23 43  1  0  0  0
 23 44  1  0  0  0
 24 45  1  0  0  0
 24 46  1  0  0  0
 24 47  1  0  0  0
M  END
$$$$
