3py0_ligand
  -I-interpret- 

 28 30  0  0  0  0  0  0  0  0999 V2000
  -89.8660   82.2950   84.6310 N   0  0  0  0  0
  -88.8190   82.6620   83.9150 C   0  0  0  0  0
  -88.7660   81.9930   82.7400 N   0  0  0  0  0
  -89.8570   81.1500   82.7200 C   0  0  0  0  0
  -90.5300   81.3540   83.9130 C   0  0  0  0  0
  -91.7360   80.6270   84.2720 C   0  0  0  0  0
  -92.5100   80.7020   85.4120 C   0  0  0  0  0
  -92.3520   81.5810   86.6120 C   0  0  0  0  0
  -91.5040   82.4490   86.8480 O   0  0  0  0  0
  -93.3500   81.2880   87.5190 N   0  0  0  0  0
  -94.1610   80.2770   86.9960 C   0  0  0  0  0
  -95.2970   79.6550   87.5760 C   0  0  0  0  0
  -95.9440   78.6400   86.8200 C   0  0  0  0  0
  -95.5000   78.2250   85.5130 C   0  0  0  0  0
  -96.2200   77.2280   84.8840 O   0  0  0  0  0
  -95.5890   76.4120   83.8990 C   0  0  0  0  0
  -94.3440   78.8800   84.9680 C   0  0  0  0  0
  -93.6840   79.8950   85.7040 C   0  0  0  0  0
  -88.0902   83.4087   84.2303 H   0  0  0  0  0
  -90.1346   80.4599   81.9232 H   0  0  0  0  0
  -92.0827   79.9122   83.5257 H   0  0  0  0  0
  -93.4757   81.7374   88.4260 H   0  0  0  0  0
  -95.6592   79.9442   88.5625 H   0  0  0  0  0
  -96.8186   78.1516   87.2496 H   0  0  0  0  0
  -95.2340   77.0400   83.0819 H   0  0  0  0  0
  -94.7458   75.8880   84.3490 H   0  0  0  0  0
  -96.3067   75.6865   83.5160 H   0  0  0  0  0
  -93.9726   78.5950   83.9836 H   0  0  0  0  0
  1  2  4  0  0  0
  1  5  4  0  0  0
  2  3  4  0  0  0
  3  4  4  0  0  0
  4  5  4  0  0  0
  5  6  1  0  0  0
  6  7  2  0  0  0
  7  8  1  0  0  0
  7 18  1  0  0  0
  8  9  2  0  0  0
  8 10  1  0  0  0
 10 11  1  0  0  0
 11 12  4  0  0  0
 11 18  4  0  0  0
 12 13  4  0  0  0
 13 14  4  0  0  0
 14 15  1  0  0  0
 14 17  4  0  0  0
 15 16  1  0  0  0
 17 18  4  0  0  0
  2 19  1  0  0  0
  4 20  1  0  0  0
  6 21  1  0  0  0
 10 22  1  0  0  0
 12 23  1  0  0  0
 13 24  1  0  0  0
 16 25  1  0  0  0
 16 26  1  0  0  0
 16 27  1  0  0  0
 17 28  1  0  0  0
M  END
$$$$
