1bp0_ligand
  -I-interpret- 

 33 34  0  0  0  0  0  0  0  0999 V2000
   14.6320   49.3690  -54.0670 N   0  0  0  0  0
   13.7590   48.3600  -53.6130 C   0  0  0  0  0
   12.9080   48.7720  -52.6010 N   0  0  0  0  0
   12.8720   50.0530  -52.0340 C   0  0  0  0  0
   13.8180   51.0080  -52.5780 C   0  0  0  0  0
   14.6710   50.5960  -53.5940 C   0  0  0  0  0
   13.6830   47.1930  -54.0040 O   0  0  0  0  0
   12.0820   50.3120  -51.1310 O   0  0  0  0  0
   15.5860   49.1780  -55.1500 C   0  0  0  0  0
   14.9980   48.8780  -56.5280 C   0  0  0  0  0
   16.2310   49.0110  -57.4080 C   0  0  0  0  0
   16.9300   50.3020  -56.9630 C   0  0  0  0  0
   17.0860   47.8970  -57.0730 O   0  0  0  0  0
   16.5220   50.3020  -55.5030 O   0  0  0  0  0
   16.3330   51.5210  -57.6790 C   0  0  0  0  0
   16.7830   51.5820  -59.0900 O   0  0  0  0  0
   15.8340   52.2120  -60.1670 P   0  0  0  0  0
   14.7850   51.2090  -60.2900 O   0  0  0  0  0
   15.2740   53.4900  -59.6740 O   0  0  0  0  0
   16.3700   52.4670  -61.5100 O   0  0  0  0  0
   12.2501   48.0830  -52.2366 H   0  0  0  0  0
   13.8589   52.0286  -52.1973 H   0  0  0  0  0
   15.3881   51.3046  -54.0083 H   0  0  0  0  0
   16.0975   48.3438  -54.6697 H   0  0  0  0  0
   14.1812   49.5417  -56.8118 H   0  0  0  0  0
   14.5115   47.9050  -56.5964 H   0  0  0  0  0
   16.0016   49.0280  -58.4734 H   0  0  0  0  0
   18.0008   50.3474  -57.1615 H   0  0  0  0  0
   17.8838   47.9360  -57.6055 H   0  0  0  0  0
   16.6648   52.4242  -57.1670 H   0  0  0  0  0
   15.2462   51.4387  -57.6620 H   0  0  0  0  0
   15.9777   54.1386  -59.5989 H   0  0  0  0  0
   17.0653   53.1268  -61.4559 H   0  0  0  0  0
  1  2  1  0  0  0
  1  6  1  0  0  0
  1  9  1  0  0  0
  2  3  1  0  0  0
  2  7  2  0  0  0
  3  4  1  0  0  0
  4  5  1  0  0  0
  4  8  2  0  0  0
  5  6  2  0  0  0
  9 10  1  0  0  0
  9 14  1  0  0  0
 10 11  1  0  0  0
 11 12  1  0  0  0
 11 13  1  0  0  0
 12 14  1  0  0  0
 12 15  1  0  0  0
 15 16  1  0  0  0
 16 17  1  0  0  0
 17 18  2  0  0  0
 17 19  1  0  0  0
 17 20  1  0  0  0
  3 21  1  0  0  0
  5 22  1  0  0  0
  6 23  1  0  0  0
  9 24  1  0  0  0
 10 25  1  0  0  0
 10 26  1  0  0  0
 11 27  1  0  0  0
 12 28  1  0  0  0
 13 29  1  0  0  0
 15 30  1  0  0  0
 15 31  1  0  0  0
 19 32  1  0  0  0
 20 33  1  0  0  0
M  END
$$$$
