4xas_ligand
  -I-interpret- 

 29 31  0  0  0  0  0  0  0  0999 V2000
  -24.2620   28.7320  -26.8920 O   0  0  0  0  0
  -29.1540   32.4510  -27.9990 C   0  0  0  0  0
  -30.0500   30.7770  -25.0910 O   0  0  0  0  0
  -27.7360   32.8450  -28.3750 C   0  0  0  0  0
  -27.6890   31.2160  -24.9170 C   0  0  0  0  0
  -27.9680   31.9400  -27.2220 C   0  0  0  0  0
  -27.5610   30.4760  -27.2860 C   0  0  0  0  0
  -26.1780   30.1220  -26.7540 C   0  0  0  0  0
  -27.4090   30.0110  -25.8460 C   0  0  0  0  0
  -29.2740   31.2220  -23.0980 O   0  0  0  0  0
  -29.0430   31.0780  -24.2600 C   0  0  0  0  0
  -26.6630   31.3450  -23.8670 N   0  3  0  0  0
  -25.5930   28.7970  -27.0430 C   0  0  0  0  0
  -26.2220   27.7590  -27.3630 O   0  0  0  0  0
  -27.7490   32.4610  -25.8430 C   0  0  0  0  0
  -23.9260   29.5977  -26.6487 H   0  0  0  0  0
  -30.0605   32.0716  -28.4706 H   0  0  0  0  0
  -30.1228   32.9172  -27.8195 H   0  0  0  0  0
  -29.7112   30.6934  -25.9853 H   0  0  0  0  0
  -27.1739   33.7513  -28.6002 H   0  0  0  0  0
  -27.1102   32.8861  -29.2665 H   0  0  0  0  0
  -28.0693   30.1844  -28.2051 H   0  0  0  0  0
  -25.2278   30.6549  -26.7881 H   0  0  0  0  0
  -27.7693   29.2120  -25.1980 H   0  0  0  0  0
  -26.8813   32.1477  -23.2768 H   0  0  0  0  0
  -26.6506   30.4975  -23.2995 H   0  0  0  0  0
  -25.7495   31.4787  -24.3006 H   0  0  0  0  0
  -26.8284   33.0415  -25.7828 H   0  0  0  0  0
  -28.5516   33.1355  -25.5447 H   0  0  0  0  0
 13  1  1  0  0  0
  4  2  1  0  0  0
  6  2  1  0  0  0
 11  3  1  0  0  0
  6  4  1  0  0  0
  9  5  1  0  0  0
  5 11  1  0  0  0
  5 12  1  0  0  0
  5 15  1  0  0  0
  7  6  1  0  0  0
  6 15  1  0  0  0
  8  7  1  0  0  0
  9  7  1  0  0  0
  8  9  1  0  0  0
  8 13  1  0  0  0
 11 10  2  0  0  0
 13 14  2  0  0  0
  1 16  1  0  0  0
  2 17  1  0  0  0
  2 18  1  0  0  0
  3 19  1  0  0  0
  4 20  1  0  0  0
  4 21  1  0  0  0
  7 22  1  0  0  0
  8 23  1  0  0  0
  9 24  1  0  0  0
 12 25  1  0  0  0
 12 26  1  0  0  0
 12 27  1  0  0  0
 15 28  1  0  0  0
 15 29  1  0  0  0
M  END
$$$$
