1wbn_ligand
  -I-interpret- 

 49 51  0  0  0  0  0  0  0  0999 V2000
    4.6140   14.2610   41.5920 C   0  0  0  0  0
    5.8450   15.1930   41.5340 C   0  0  0  0  0
    5.6740   16.3200   42.5570 C   0  0  0  0  0
    7.1040   14.3520   41.9250 C   0  0  0  0  0
    6.0560   15.7640   40.1200 C   0  0  0  0  0
    6.0610   15.0720   38.9340 C   0  0  0  0  0
    6.3100   15.9840   37.9150 C   0  0  0  0  0
    6.3900   15.7740   36.5020 N   0  0  0  0  0
    6.1000   14.6060   35.8160 C   0  0  0  0  0
    5.5610   13.6520   36.3430 O   0  0  0  0  0
    6.4220   14.5830   34.4770 N   0  0  0  0  0
    6.2570   13.5100   33.5470 C   0  0  0  0  0
    7.3000   13.3640   32.5670 C   0  0  0  0  0
    7.2450   12.3610   31.5820 C   0  0  0  0  0
    6.1150   11.4670   31.5390 C   0  0  0  0  0
    6.1290   10.2730   30.2850 Cl  0  0  0  0  0
    5.0540   11.5830   32.5100 C   0  0  0  0  0
    3.8350   10.6570   32.4930 C   0  0  0  0  0
    3.0610   10.9960   31.3230 O   0  0  0  0  0
    2.0590   10.0990   30.9970 C   0  0  0  0  0
    1.1460   10.4820   29.9550 C   0  0  0  0  0
    0.0820    9.6050   29.5550 C   0  0  0  0  0
   -0.0400    8.3630   30.2040 C   0  0  0  0  0
    0.8350    8.0040   31.1960 N   0  0  0  0  0
    1.8600    8.7960   31.6140 C   0  0  0  0  0
    5.1170   12.6090   33.5070 C   0  0  0  0  0
    6.4480   17.1660   38.4640 N   0  0  0  0  0
    6.2940   17.0560   39.8300 N   0  0  0  0  0
    3.7225   14.8207   41.3093 H   0  0  0  0  0
    4.7566   13.4295   40.9018 H   0  0  0  0  0
    4.4976   13.8776   42.6057 H   0  0  0  0  0
    6.5670   16.9449   42.5599 H   0  0  0  0  0
    4.8072   16.9240   42.2888 H   0  0  0  0  0
    5.5265   15.8903   43.5478 H   0  0  0  0  0
    7.2321   13.5386   41.2108 H   0  0  0  0  0
    7.9860   14.9923   41.9104 H   0  0  0  0  0
    6.9684   13.9409   42.9254 H   0  0  0  0  0
    5.8990   14.0009   38.8134 H   0  0  0  0  0
    6.6929   16.5693   35.9397 H   0  0  0  0  0
    6.8295   15.4395   34.1017 H   0  0  0  0  0
    8.1509   14.0449   32.5881 H   0  0  0  0  0
    8.0517   12.2605   30.8559 H   0  0  0  0  0
    3.2411   10.7860   33.3979 H   0  0  0  0  0
    4.1455    9.6127   32.4597 H   0  0  0  0  0
    1.2626   11.4479   29.4636 H   0  0  0  0  0
   -0.6141    9.8945   28.7678 H   0  0  0  0  0
   -0.8383    7.6793   29.9151 H   0  0  0  0  0
    2.5276    8.4565   32.4059 H   0  0  0  0  0
    4.3119   12.7141   34.2343 H   0  0  0  0  0
  1  2  1  0  0  0
  2  3  1  0  0  0
  2  4  1  0  0  0
  2  5  1  0  0  0
  5  6  4  0  0  0
  5 28  4  0  0  0
  6  7  4  0  0  0
  7  8  1  0  0  0
  7 27  4  0  0  0
  8  9  1  0  0  0
  9 10  2  0  0  0
  9 11  1  0  0  0
 11 12  1  0  0  0
 12 13  4  0  0  0
 12 26  4  0  0  0
 13 14  4  0  0  0
 14 15  4  0  0  0
 15 16  1  0  0  0
 15 17  4  0  0  0
 17 18  1  0  0  0
 17 26  4  0  0  0
 18 19  1  0  0  0
 19 20  1  0  0  0
 20 21  4  0  0  0
 20 25  4  0  0  0
 21 22  4  0  0  0
 22 23  4  0  0  0
 23 24  4  0  0  0
 24 25  4  0  0  0
 27 28  4  0  0  0
  1 29  1  0  0  0
  1 30  1  0  0  0
  1 31  1  0  0  0
  3 32  1  0  0  0
  3 33  1  0  0  0
  3 34  1  0  0  0
  4 35  1  0  0  0
  4 36  1  0  0  0
  4 37  1  0  0  0
  6 38  1  0  0  0
  8 39  1  0  0  0
 11 40  1  0  0  0
 13 41  1  0  0  0
 14 42  1  0  0  0
 18 43  1  0  0  0
 18 44  1  0  0  0
 21 45  1  0  0  0
 22 46  1  0  0  0
 23 47  1  0  0  0
 25 48  1  0  0  0
 26 49  1  0  0  0
M  END
$$$$
