3f9n_ligand
  -I-interpret- 

 74 78  0  0  0  0  0  0  0  0999 V2000
   21.9150  -10.0200   26.5790 C   0  0  0  0  0
   22.7720  -10.4020   27.6140 C   0  0  0  0  0
   24.0580   -9.8790   27.6790 C   0  0  0  0  0
   24.4750   -8.9320   26.7520 C   0  0  0  0  0
   23.6520   -8.5590   25.7450 C   0  0  0  0  0
   22.3450   -9.1150   25.6140 C   0  0  0  0  0
   24.1370   -7.5530   24.7720 C   0  0  0  0  0
   23.3920   -7.1880   23.8960 O   0  0  0  0  0
   25.4080   -7.0150   24.9700 N   0  3  0  0  0
   25.7400   -8.3660   26.8550 N   0  0  0  0  0
   26.1610   -7.4120   25.9810 C   0  0  0  0  0
   27.7240   -6.6650   26.1310 S   0  0  0  0  0
   28.6690   -7.5120   27.3140 C   0  0  0  0  0
   27.9600   -7.4310   28.6900 C   0  0  0  0  0
   29.9630   -6.7130   27.2780 C   0  0  0  0  0
   27.6000   -6.3540   29.1270 O   0  0  0  0  0
   27.7420   -8.5720   29.4400 N   0  0  0  0  0
   31.1220   -7.4690   27.8670 C   0  0  0  0  0
   32.4240   -6.6460   27.7490 C   0  0  0  0  0
   32.6760   -5.8450   29.0350 C   0  0  0  0  0
   28.1920   -9.8760   28.9430 C   0  0  0  0  0
   29.3320  -10.3090   29.9030 C   0  0  0  0  0
   28.9650  -10.1700   31.4080 C   0  0  0  0  0
   28.1280   -8.9390   31.8260 C   0  0  0  0  0
   27.0810   -8.5550   30.7810 C   0  0  0  0  0
   29.1460   -7.8310   32.0880 C   0  0  0  0  0
   27.4370   -9.2580   33.1920 C   0  0  0  0  0
   26.8430   -8.0120   33.8000 C   0  0  0  0  0
   28.6570   -6.6580   32.8550 N   0  3  0  0  0
   27.9920   -7.0720   34.1610 C   0  0  0  0  0
   25.8180   -6.0450   24.1030 C   0  0  0  0  0
   26.9190   -6.1850   23.2330 C   0  0  0  0  0
   27.2750   -5.1640   22.3420 C   0  0  0  0  0
   26.5520   -3.9640   22.3130 C   0  0  0  0  0
   25.4750   -3.8430   23.1740 C   0  0  0  0  0
   25.0790   -4.8660   24.0640 C   0  0  0  0  0
   24.5440   -2.3910   23.1880 Cl  0  0  0  0  0
   20.9072  -10.4320   26.5275 H   0  0  0  0  0
   22.4323  -11.1098   28.3701 H   0  0  0  0  0
   24.7415  -10.2129   28.4597 H   0  0  0  0  0
   21.7003   -8.8381   24.7799 H   0  0  0  0  0
   26.3653   -8.6718   27.6006 H   0  0  0  0  0
   28.8202   -8.5760   27.1321 H   0  0  0  0  0
   29.8165   -5.8082   27.8679 H   0  0  0  0  0
   30.1966   -6.4974   26.2354 H   0  0  0  0  0
   31.2457   -8.4057   27.3234 H   0  0  0  0  0
   30.9197   -7.6610   28.9207 H   0  0  0  0  0
   32.3286   -5.9521   26.9138 H   0  0  0  0  0
   33.2592   -7.3277   27.5882 H   0  0  0  0  0
   31.8420   -5.1646   29.2071 H   0  0  0  0  0
   32.7665   -6.5312   29.8771 H   0  0  0  0  0
   33.5978   -5.2727   28.9303 H   0  0  0  0  0
   28.5381   -9.8144   27.9112 H   0  0  0  0  0
   27.3798  -10.6028   28.9311 H   0  0  0  0  0
   30.1846   -9.6571   29.7129 H   0  0  0  0  0
   29.5372  -11.3624   29.7126 H   0  0  0  0  0
   29.9145  -10.0725   31.9344 H   0  0  0  0  0
   28.3484  -11.0379   31.6417 H   0  0  0  0  0
   26.2508   -9.2610   30.8015 H   0  0  0  0  0
   26.6826   -7.5628   30.9928 H   0  0  0  0  0
   29.4418   -7.4525   31.1096 H   0  0  0  0  0
   29.9358   -8.2801   32.6902 H   0  0  0  0  0
   28.1838   -9.6599   33.8767 H   0  0  0  0  0
   26.6377   -9.9789   33.0201 H   0  0  0  0  0
   26.2674   -8.2640   34.6907 H   0  0  0  0  0
   26.1696   -7.5302   33.0912 H   0  0  0  0  0
   27.9670   -6.1681   32.2856 H   0  0  0  0  0
   29.4564   -6.0646   33.0768 H   0  0  0  0  0
   28.7064   -7.5706   34.8160 H   0  0  0  0  0
   27.6213   -6.1991   34.6983 H   0  0  0  0  0
   27.5039   -7.1045   23.2541 H   0  0  0  0  0
   28.1195   -5.3040   21.6673 H   0  0  0  0  0
   26.8278   -3.1549   21.6367 H   0  0  0  0  0
   24.2101   -4.7345   24.7088 H   0  0  0  0  0
  1  2  4  0  0  0
  1  6  4  0  0  0
  2  3  4  0  0  0
  3  4  4  0  0  0
  4  5  4  0  0  0
  4 10  1  0  0  0
  5  6  4  0  0  0
  5  7  1  0  0  0
  7  8  2  0  0  0
  7  9  1  0  0  0
  9 11  2  0  0  0
  9 31  1  0  0  0
 10 11  1  0  0  0
 11 12  1  0  0  0
 12 13  1  0  0  0
 13 14  1  0  0  0
 13 15  1  0  0  0
 14 16  2  0  0  0
 14 17  1  0  0  0
 15 18  1  0  0  0
 17 21  1  0  0  0
 17 25  1  0  0  0
 18 19  1  0  0  0
 19 20  1  0  0  0
 21 22  1  0  0  0
 22 23  1  0  0  0
 23 24  1  0  0  0
 24 25  1  0  0  0
 24 26  1  0  0  0
 24 27  1  0  0  0
 26 29  1  0  0  0
 27 28  1  0  0  0
 28 30  1  0  0  0
 29 30  1  0  0  0
 31 32  4  0  0  0
 31 36  4  0  0  0
 32 33  4  0  0  0
 33 34  4  0  0  0
 34 35  4  0  0  0
 35 36  4  0  0  0
 35 37  1  0  0  0
  1 38  1  0  0  0
  2 39  1  0  0  0
  3 40  1  0  0  0
  6 41  1  0  0  0
 10 42  1  0  0  0
 13 43  1  0  0  0
 15 44  1  0  0  0
 15 45  1  0  0  0
 18 46  1  0  0  0
 18 47  1  0  0  0
 19 48  1  0  0  0
 19 49  1  0  0  0
 20 50  1  0  0  0
 20 51  1  0  0  0
 20 52  1  0  0  0
 21 53  1  0  0  0
 21 54  1  0  0  0
 22 55  1  0  0  0
 22 56  1  0  0  0
 23 57  1  0  0  0
 23 58  1  0  0  0
 25 59  1  0  0  0
 25 60  1  0  0  0
 26 61  1  0  0  0
 26 62  1  0  0  0
 27 63  1  0  0  0
 27 64  1  0  0  0
 28 65  1  0  0  0
 28 66  1  0  0  0
 29 67  1  0  0  0
 29 68  1  0  0  0
 30 69  1  0  0  0
 30 70  1  0  0  0
 32 71  1  0  0  0
 33 72  1  0  0  0
 34 73  1  0  0  0
 36 74  1  0  0  0
M  END
$$$$
