1ux7_ligand
  -I-interpret- 

 40 41  0  0  0  0  0  0  0  0999 V2000
    9.3790   19.4890   -9.6130 O   0  0  0  0  0
   10.6620   18.9130   -9.4020 C   0  0  0  0  0
    8.3760   18.5440  -10.0490 C   0  0  0  0  0
    7.2340   18.5170   -9.0460 C   0  0  0  0  0
    6.0850   17.6320   -9.5300 C   0  0  0  0  0
    5.6580   18.0060  -10.9420 C   0  0  0  0  0
    6.9110   17.9990  -11.8070 C   0  0  0  0  0
    7.6490   18.1440   -7.7450 O   0  0  0  0  0
    4.9840   17.7580   -8.6460 O   0  0  0  0  0
    4.7090   17.0830  -11.4410 O   0  0  0  0  0
    7.8580   18.8910  -11.2550 O   0  0  0  0  0
    3.6560   17.6650  -12.2230 C   0  0  0  0  0
    3.1210   16.5640  -13.0950 C   0  0  0  0  0
    1.8730   16.9810  -13.8770 C   0  0  0  0  0
    0.8550   17.6270  -12.9250 C   0  0  0  0  0
    1.5720   18.6860  -12.1110 C   0  0  0  0  0
    4.1530   16.1290  -13.9550 O   0  0  0  0  0
    1.3350   15.8340  -14.5210 O   0  0  0  0  0
   -0.2370   18.2660  -13.5600 O   0  0  0  0  0
    2.6480   18.0990  -11.4260 O   0  0  0  0  0
   10.5908   18.1413   -8.6356 H   0  0  0  0  0
   11.0179   18.4709  -10.3326 H   0  0  0  0  0
   11.3572   19.6869   -9.0767 H   0  0  0  0  0
    8.8560   17.5687  -10.1290 H   0  0  0  0  0
    6.8699   19.5419   -8.9748 H   0  0  0  0  0
    6.4310   16.5985   -9.5439 H   0  0  0  0  0
    5.1869   18.9889  -10.9496 H   0  0  0  0  0
    6.6592   18.3120  -12.8203 H   0  0  0  0  0
    7.3294   16.9930  -11.8387 H   0  0  0  0  0
    8.3695   18.7132   -7.4647 H   0  0  0  0  0
    5.2596   17.5208   -7.7575 H   0  0  0  0  0
    4.0343   18.5122  -12.7950 H   0  0  0  0  0
    2.8002   15.7404  -12.4572 H   0  0  0  0  0
    2.1264   17.7202  -14.6369 H   0  0  0  0  0
    0.4470   16.8100  -12.3299 H   0  0  0  0  0
    0.8789   19.1241  -11.3928 H   0  0  0  0  0
    1.9453   19.4650  -12.7757 H   0  0  0  0  0
    3.8233   15.4247  -14.5180 H   0  0  0  0  0
    0.5508   16.0841  -15.0151 H   0  0  0  0  0
   -0.8191   18.6393  -12.8941 H   0  0  0  0  0
  1  2  1  0  0  0
  1  3  1  0  0  0
  3  4  1  0  0  0
  3 11  1  0  0  0
  4  5  1  0  0  0
  4  8  1  0  0  0
  5  6  1  0  0  0
  5  9  1  0  0  0
  6  7  1  0  0  0
  6 10  1  0  0  0
  7 11  1  0  0  0
 10 12  1  0  0  0
 12 13  1  0  0  0
 12 20  1  0  0  0
 13 14  1  0  0  0
 13 17  1  0  0  0
 14 15  1  0  0  0
 14 18  1  0  0  0
 15 16  1  0  0  0
 15 19  1  0  0  0
 16 20  1  0  0  0
  2 21  1  0  0  0
  2 22  1  0  0  0
  2 23  1  0  0  0
  3 24  1  0  0  0
  4 25  1  0  0  0
  5 26  1  0  0  0
  6 27  1  0  0  0
  7 28  1  0  0  0
  7 29  1  0  0  0
  8 30  1  0  0  0
  9 31  1  0  0  0
 12 32  1  0  0  0
 13 33  1  0  0  0
 14 34  1  0  0  0
 15 35  1  0  0  0
 16 36  1  0  0  0
 16 37  1  0  0  0
 17 38  1  0  0  0
 18 39  1  0  0  0
 19 40  1  0  0  0
M  END
$$$$
