4ql1_ligand
  -I-interpret- 

 66 69  0  0  0  0  0  0  0  0999 V2000
   -5.8380  -26.1890    3.5510 F   0  0  0  0  0
   -7.0350  -26.2520    2.9040 C   0  0  0  0  0
   -6.8220  -25.6520    1.6530 F   0  0  0  0  0
   -7.8610  -25.6120    3.5820 F   0  0  0  0  0
   -7.4850  -27.5690    2.7200 C   0  0  0  0  0
   -6.6490  -28.6260    3.0970 C   0  0  0  0  0
   -7.0290  -29.9560    2.9490 C   0  0  0  0  0
   -6.2850  -30.8920    3.2660 O   0  0  0  0  0
   -8.2970  -30.2270    2.4240 N   0  0  0  0  0
   -9.1130  -29.2280    2.0950 C   0  0  0  0  0
   -8.7820  -27.8760    2.2240 C   0  0  0  0  0
   -9.7520  -26.9360    1.7700 C   0  0  0  0  0
   -9.4580  -26.0450    0.9640 O   0  0  0  0  0
  -11.0000  -27.1000    2.2290 N   0  0  0  0  0
  -12.0790  -26.4350    1.7060 C   0  0  0  0  0
  -12.4290  -26.6720    0.3740 C   0  0  0  0  0
  -12.9150  -25.6380    2.5190 C   0  0  0  0  0
  -12.6320  -25.3300    3.8080 N   0  0  0  0  0
  -13.6850  -24.9960    4.7670 C   0  0  0  0  0
  -13.1630  -24.9010    6.1760 C   0  0  0  0  0
  -11.9840  -24.0620    6.3580 N   0  3  0  0  0
  -11.5470  -24.0630    7.7730 C   0  0  0  0  0
  -10.8920  -24.5710    5.5470 C   0  0  0  0  0
  -11.3410  -24.6700    4.0860 C   0  0  0  0  0
  -14.0830  -25.0790    1.9350 C   0  0  0  0  0
  -14.3820  -25.3080    0.5930 C   0  0  0  0  0
  -13.5690  -26.1000   -0.2120 C   0  0  0  0  0
  -13.8430  -26.3100   -1.5890 C   0  0  0  0  0
  -12.7500  -26.4690   -2.4740 C   0  0  0  0  0
  -15.1290  -26.2990   -2.1140 C   0  0  0  0  0
  -15.3150  -26.4950   -3.4850 C   0  0  0  0  0
  -14.2410  -26.6730   -4.3360 C   0  0  0  0  0
  -12.9490  -26.6760   -3.8440 C   0  0  0  0  0
  -11.8920  -26.8240   -4.7300 C   0  0  0  0  0
  -11.3090  -28.1630   -4.6050 N   0  3  0  0  0
  -10.1900  -28.3480   -5.5500 C   0  0  0  0  0
   -5.6700  -28.4003    3.5196 H   0  0  0  0  0
  -10.0980  -29.4792    1.7016 H   0  0  0  0  0
   -8.7281  -26.9748    2.8347 H   0  0  0  0  0
  -11.1542  -27.7480    3.0014 H   0  0  0  0  0
  -11.7960  -27.3224   -0.2297 H   0  0  0  0  0
  -14.4347  -25.7866    4.7360 H   0  0  0  0  0
  -14.0978  -24.0253    4.4925 H   0  0  0  0  0
  -12.8714  -25.9104    6.4660 H   0  0  0  0  0
  -13.9578  -24.4498    6.7700 H   0  0  0  0  0
  -12.2287  -23.1120    6.0788 H   0  0  0  0  0
  -12.3511  -23.6788    8.4005 H   0  0  0  0  0
  -11.3030  -25.0813    8.0758 H   0  0  0  0  0
  -10.6664  -23.4297    7.8804 H   0  0  0  0  0
  -10.6043  -25.5593    5.9056 H   0  0  0  0  0
  -10.0406  -23.8942    5.6195 H   0  0  0  0  0
  -11.4607  -23.6409    3.7473 H   0  0  0  0  0
  -10.5877  -25.2823    3.5902 H   0  0  0  0  0
  -14.7505  -24.4663    2.5409 H   0  0  0  0  0
  -15.2755  -24.8551    0.1632 H   0  0  0  0  0
  -11.7340  -26.4295   -2.0813 H   0  0  0  0  0
  -15.9870  -26.1386   -1.4611 H   0  0  0  0  0
  -16.3265  -26.5077   -3.8909 H   0  0  0  0  0
  -14.4137  -26.8121   -5.4032 H   0  0  0  0  0
  -11.1287  -26.0802   -4.5016 H   0  0  0  0  0
  -12.2583  -26.6884   -5.7476 H   0  0  0  0  0
  -12.0301  -28.8531   -4.8150 H   0  0  0  0  0
  -10.9553  -28.2769   -3.6551 H   0  0  0  0  0
  -10.5524  -28.2196   -6.5699 H   0  0  0  0  0
   -9.4152  -27.6098   -5.3427 H   0  0  0  0  0
   -9.7790  -29.3507   -5.4327 H   0  0  0  0  0
  1  2  1  0  0  0
  2  3  1  0  0  0
  2  4  1  0  0  0
  2  5  1  0  0  0
  5  6  2  0  0  0
  5 11  1  0  0  0
  6  7  1  0  0  0
  7  8  2  0  0  0
  7  9  1  0  0  0
  9 10  2  0  0  0
 10 11  1  0  0  0
 11 12  1  0  0  0
 12 13  2  0  0  0
 12 14  1  0  0  0
 14 15  1  0  0  0
 15 16  4  0  0  0
 15 17  4  0  0  0
 16 27  4  0  0  0
 17 18  1  0  0  0
 17 25  4  0  0  0
 18 19  1  0  0  0
 18 24  1  0  0  0
 19 20  1  0  0  0
 20 21  1  0  0  0
 21 22  1  0  0  0
 21 23  1  0  0  0
 23 24  1  0  0  0
 25 26  4  0  0  0
 26 27  4  0  0  0
 27 28  1  0  0  0
 28 29  4  0  0  0
 28 30  4  0  0  0
 29 33  4  0  0  0
 30 31  4  0  0  0
 31 32  4  0  0  0
 32 33  4  0  0  0
 33 34  1  0  0  0
 34 35  1  0  0  0
 35 36  1  0  0  0
  6 37  1  0  0  0
 10 38  1  0  0  0
 11 39  1  0  0  0
 14 40  1  0  0  0
 16 41  1  0  0  0
 19 42  1  0  0  0
 19 43  1  0  0  0
 20 44  1  0  0  0
 20 45  1  0  0  0
 21 46  1  0  0  0
 22 47  1  0  0  0
 22 48  1  0  0  0
 22 49  1  0  0  0
 23 50  1  0  0  0
 23 51  1  0  0  0
 24 52  1  0  0  0
 24 53  1  0  0  0
 25 54  1  0  0  0
 26 55  1  0  0  0
 29 56  1  0  0  0
 30 57  1  0  0  0
 31 58  1  0  0  0
 32 59  1  0  0  0
 34 60  1  0  0  0
 34 61  1  0  0  0
 35 62  1  0  0  0
 35 63  1  0  0  0
 36 64  1  0  0  0
 36 65  1  0  0  0
 36 66  1  0  0  0
M  END
$$$$
