6dn6_ligand
  -I-interpret- 

 74 74  0  0  0  0  0  0  0  0999 V2000
   13.6090   10.1110   10.0510 N   0  0  0  0  0
   14.1240    9.5520    8.8110 C   0  0  0  0  0
   13.0050    9.5590    7.7580 C   0  0  0  0  0
   11.8520    9.8770    8.0670 O   0  0  0  0  0
   14.7060    8.1180    8.9930 C   0  0  0  0  0
   13.5930    7.1050    9.3990 C   0  0  0  0  0
   15.9060    8.1260    9.9850 C   0  0  0  0  0
   14.0230    5.5940    9.2710 C   0  0  0  0  0
   13.3650    9.1600    6.5300 N   0  0  0  0  0
   12.3930    9.1120    5.4130 C   0  0  0  0  0
   11.7520   10.4770    5.1460 C   0  0  0  0  0
   10.6310   10.5460    4.6180 O   0  0  0  0  0
   11.3150    8.0060    5.6310 C   0  0  0  0  0
   11.8760    6.6460    5.3220 C   0  0  0  0  0
   12.5980    6.4760    4.3300 O   0  0  0  0  0
   11.5210    5.6530    6.1430 N   0  0  0  0  0
   12.4870   11.5830    5.4930 N   0  0  0  0  0
   12.0380   12.9400    5.2300 C   0  0  0  0  0
   10.7380   13.2450    5.9860 C   0  0  0  0  0
    9.9720   14.1160    5.5610 O   0  0  0  0  0
   11.8850   13.2010    3.7180 C   0  0  0  0  0
   11.9270   14.6730    3.3370 C   0  0  0  0  0
   12.5920   15.5110    3.9760 O   0  0  0  0  0
   11.1720   15.0370    2.3170 N   0  0  0  0  0
   10.5210   12.5570    7.1220 N   0  0  0  0  0
    9.3200   12.7470    7.9480 C   0  0  0  0  0
    9.6370   13.3280    9.3470 C   0  0  0  0  0
    8.6930   13.5940   10.0780 O   0  0  0  0  0
    8.5830   11.4170    8.1380 C   0  0  0  0  0
    8.1140   10.8300    6.8320 C   0  0  0  0  0
    7.5360   11.5360    6.0030 O   0  0  0  0  0
    8.3700    9.5310    6.6420 N   0  0  0  0  0
   10.9310   13.4310    9.6870 N   0  0  0  0  0
   11.2440   13.8450   11.1170 C   0  0  0  0  0
   12.6260   13.4230   11.5490 C   0  0  0  0  0
   12.8780   11.9210   11.4700 C   0  0  0  0  0
   13.3130   11.4330   10.1060 C   0  0  0  0  0
   13.4150   12.2050    9.1440 O   0  0  0  0  0
   13.4723    9.5164   10.8684 H   0  0  0  0  0
   14.9545   10.1745    8.4782 H   0  0  0  0  0
   15.0955    7.7792    8.0330 H   0  0  0  0  0
   12.7524    7.2602    8.7226 H   0  0  0  0  0
   13.3579    7.2864   10.4478 H   0  0  0  0  0
   15.5523    8.3999   10.9790 H   0  0  0  0  0
   16.3547    7.1332   10.0184 H   0  0  0  0  0
   16.6481    8.8505    9.6497 H   0  0  0  0  0
   14.2913    5.3803    8.2364 H   0  0  0  0  0
   14.8809    5.4058    9.9165 H   0  0  0  0  0
   13.1931    4.9547    9.5720 H   0  0  0  0  0
   14.3318    8.8826    6.3605 H   0  0  0  0  0
   12.9567    8.8453    4.5190 H   0  0  0  0  0
   10.4737    8.1989    4.9653 H   0  0  0  0  0
   10.9961    8.0263    6.6731 H   0  0  0  0  0
   11.8471    4.7030    5.9652 H   0  0  0  0  0
   10.9239    5.8451    6.9474 H   0  0  0  0  0
   13.3862   11.4468    5.9549 H   0  0  0  0  0
   12.8051   13.6207    5.5993 H   0  0  0  0  0
   10.9088   12.8178    3.4209 H   0  0  0  0  0
   12.7229   12.7139    3.2193 H   0  0  0  0  0
   11.1264   16.0178    2.0407 H   0  0  0  0  0
   10.6343   14.3374    1.8053 H   0  0  0  0  0
   11.2184   11.8759    7.4222 H   0  0  0  0  0
    8.6973   13.4629    7.4115 H   0  0  0  0  0
    7.7066   11.6023    8.7590 H   0  0  0  0  0
    9.2745   10.7103    8.5969 H   0  0  0  0  0
    8.0830    9.0761    5.7754 H   0  0  0  0  0
    8.8522    8.9953    7.3638 H   0  0  0  0  0
   11.6738   13.2397    9.0147 H   0  0  0  0  0
   10.5225   13.3593   11.7740 H   0  0  0  0  0
   11.1909   14.9323   11.1723 H   0  0  0  0  0
   12.7372   13.7120   12.5941 H   0  0  0  0  0
   13.3335   13.9026   10.8726 H   0  0  0  0  0
   11.9354   11.4253   11.7021 H   0  0  0  0  0
   13.6872   11.6949   12.1643 H   0  0  0  0  0
  1  2  1  0  0  0
  1 37  1  0  0  0
  2  3  1  0  0  0
  2  5  1  0  0  0
  3  4  2  0  0  0
  3  9  1  0  0  0
  5  6  1  0  0  0
  5  7  1  0  0  0
  6  8  1  0  0  0
  9 10  1  0  0  0
 10 11  1  0  0  0
 10 13  1  0  0  0
 11 12  2  0  0  0
 11 17  1  0  0  0
 13 14  1  0  0  0
 14 15  2  0  0  0
 14 16  1  0  0  0
 17 18  1  0  0  0
 18 19  1  0  0  0
 18 21  1  0  0  0
 19 20  2  0  0  0
 19 25  1  0  0  0
 21 22  1  0  0  0
 22 23  2  0  0  0
 22 24  1  0  0  0
 25 26  1  0  0  0
 26 27  1  0  0  0
 26 29  1  0  0  0
 27 28  2  0  0  0
 27 33  1  0  0  0
 29 30  1  0  0  0
 30 31  2  0  0  0
 30 32  1  0  0  0
 33 34  1  0  0  0
 34 35  1  0  0  0
 35 36  1  0  0  0
 36 37  1  0  0  0
 37 38  2  0  0  0
  1 39  1  0  0  0
  2 40  1  0  0  0
  5 41  1  0  0  0
  6 42  1  0  0  0
  6 43  1  0  0  0
  7 44  1  0  0  0
  7 45  1  0  0  0
  7 46  1  0  0  0
  8 47  1  0  0  0
  8 48  1  0  0  0
  8 49  1  0  0  0
  9 50  1  0  0  0
 10 51  1  0  0  0
 13 52  1  0  0  0
 13 53  1  0  0  0
 16 54  1  0  0  0
 16 55  1  0  0  0
 17 56  1  0  0  0
 18 57  1  0  0  0
 21 58  1  0  0  0
 21 59  1  0  0  0
 24 60  1  0  0  0
 24 61  1  0  0  0
 25 62  1  0  0  0
 26 63  1  0  0  0
 29 64  1  0  0  0
 29 65  1  0  0  0
 32 66  1  0  0  0
 32 67  1  0  0  0
 33 68  1  0  0  0
 34 69  1  0  0  0
 34 70  1  0  0  0
 35 71  1  0  0  0
 35 72  1  0  0  0
 36 73  1  0  0  0
 36 74  1  0  0  0
M  END
$$$$
