5dro_ligand
  -I-interpret- 

 47 48  0  0  0  0  0  0  0  0999 V2000
  -30.0170    6.2110   19.3970 C   0  0  0  0  0
  -32.0540    9.3920   19.8060 C   0  0  0  0  0
  -33.5070   11.5660   19.1080 C   0  0  0  0  0
  -35.2660   13.5150   18.3250 C   0  0  0  0  0
  -37.0670   15.4700   17.5480 C   0  0  0  0  0
  -35.8010   15.4620   17.0090 C   0  0  0  0  0
  -31.2910    7.5980   21.4360 C   0  0  0  0  0
  -29.3400    1.2490   20.3640 C   0  0  0  0  0
  -30.4420    1.3480   19.5030 C   0  0  0  0  0
  -27.7930    1.9270   18.0570 O   0  0  0  0  0
  -27.5360    1.9370   19.2540 C   0  0  0  0  0
  -26.2220    1.6770   19.6660 N   0  0  0  0  0
  -25.2750    1.4120   18.7570 O   0  0  0  0  0
  -28.4980    2.2120   20.2140 C   0  0  0  0  0
  -29.1300    3.3950   19.9620 N   0  0  0  0  0
  -29.2460    4.4060   21.0050 C   0  0  0  0  0
  -28.7940    4.2040   22.1020 O   0  0  0  0  0
  -29.9800    5.7260   20.6980 C   0  0  0  0  0
  -30.6930    7.4000   19.1190 C   0  0  0  0  0
  -31.3220    8.0890   20.1300 C   0  0  0  0  0
  -32.6450   10.4020   19.5190 C   0  0  0  0  0
  -34.2770   12.4510   18.7490 C   0  0  0  0  0
  -36.5310   13.5230   18.8640 C   0  0  0  0  0
  -37.4370   14.4930   18.4840 C   0  0  0  0  0
  -37.9800   16.4520   17.1630 N   0  0  0  0  0
  -34.8970   14.4940   17.3880 C   0  0  0  0  0
  -30.6200    6.4140   21.7140 C   0  0  0  0  0
  -28.7470    0.0690   20.1970 O   0  0  0  0  0
  -29.5196    5.6647   18.5956 H   0  0  0  0  0
  -35.5134   16.2216   16.2821 H   0  0  0  0  0
  -31.7923    8.1425   22.2362 H   0  0  0  0  0
  -29.7135    1.3303   21.3848 H   0  0  0  0  0
  -30.9686    2.2829   19.6949 H   0  0  0  0  0
  -30.0966    1.3296   18.4693 H   0  0  0  0  0
  -31.1146    0.5082   19.6777 H   0  0  0  0  0
  -25.9869    1.6896   20.6585 H   0  0  0  0  0
  -24.4389    1.2584   19.2031 H   0  0  0  0  0
  -27.9703    2.3107   21.1626 H   0  0  0  0  0
  -29.5236    3.5726   19.0379 H   0  0  0  0  0
  -30.7226    7.7833   18.0991 H   0  0  0  0  0
  -36.8184   12.7636   19.5912 H   0  0  0  0  0
  -38.4397   14.4996   18.9113 H   0  0  0  0  0
  -37.7086   17.1623   16.4831 H   0  0  0  0  0
  -38.9190   16.4597   17.5614 H   0  0  0  0  0
  -33.8944   14.4879   16.9603 H   0  0  0  0  0
  -30.5975    6.0267   22.7326 H   0  0  0  0  0
  -27.9931    0.0045   20.7878 H   0  0  0  0  0
 18  1  4  0  0  0
  1 19  4  0  0  0
 20  2  1  0  0  0
  2 21  3  0  0  0
 21  3  1  0  0  0
  3 22  3  0  0  0
 22  4  1  0  0  0
  4 23  4  0  0  0
  4 26  4  0  0  0
  6  5  4  0  0  0
  5 24  4  0  0  0
  5 25  1  0  0  0
 26  6  4  0  0  0
  7 20  4  0  0  0
 27  7  4  0  0  0
  8  9  1  0  0  0
 14  8  1  0  0  0
  8 28  1  0  0  0
 11 10  2  0  0  0
 11 12  1  0  0  0
 14 11  1  0  0  0
 12 13  1  0  0  0
 15 14  1  0  0  0
 16 15  1  0  0  0
 16 17  2  0  0  0
 18 16  1  0  0  0
 18 27  4  0  0  0
 19 20  4  0  0  0
 23 24  4  0  0  0
  1 29  1  0  0  0
  6 30  1  0  0  0
  7 31  1  0  0  0
  8 32  1  0  0  0
  9 33  1  0  0  0
  9 34  1  0  0  0
  9 35  1  0  0  0
 12 36  1  0  0  0
 13 37  1  0  0  0
 14 38  1  0  0  0
 15 39  1  0  0  0
 19 40  1  0  0  0
 23 41  1  0  0  0
 24 42  1  0  0  0
 25 43  1  0  0  0
 25 44  1  0  0  0
 26 45  1  0  0  0
 27 46  1  0  0  0
 28 47  1  0  0  0
M  END
$$$$
