2e9u_ligand
  -I-interpret- 

 41 43  0  0  0  0  0  0  0  0999 V2000
   -0.7220    8.0620  -18.4090 C   0  0  0  0  0
   -2.0890    8.4990  -18.2990 C   0  0  0  0  0
   -2.5220    9.6350  -19.0550 C   0  0  0  0  0
   -1.5840   10.3100  -19.9000 C   0  0  0  0  0
   -0.2530    9.8530  -19.9820 C   0  0  0  0  0
    0.1910    8.7380  -19.2490 C   0  0  0  0  0
    0.8580   10.6870  -21.0100 Cl  0  0  0  0  0
   -3.0670    7.8880  -17.4890 O   0  0  0  0  0
   -2.6230    7.1160  -16.3810 C   0  0  0  0  0
   -3.8570   10.0630  -18.9460 N   0  0  0  0  0
   -4.4910   11.0210  -19.7270 C   0  0  0  0  0
   -5.7980   11.2770  -19.4340 N   0  0  0  0  0
   -3.9380   11.6280  -20.6380 O   0  0  0  0  0
   -6.6400   10.7530  -18.4770 C   0  0  0  0  0
   -6.3130    9.5120  -17.9960 N   0  0  0  0  0
   -7.1220    8.9440  -17.0440 C   0  0  0  0  0
   -8.2790    9.6390  -16.5680 C   0  0  0  0  0
   -8.6090   10.8730  -17.0400 N   0  0  0  0  0
   -7.7980   11.4260  -17.9880 C   0  0  0  0  0
   -6.7120    7.6720  -16.6140 O   0  0  0  0  0
   -6.7320    7.3930  -15.2070 C   0  0  0  0  0
   -5.4230    7.8650  -14.5490 C   0  0  0  0  0
   -3.7500    6.2040  -15.9100 C   0  0  0  0  0
   -4.3770    6.7850  -14.6370 C   0  0  0  0  0
   -0.3865    7.1974  -17.8362 H   0  0  0  0  0
   -1.8990   11.1774  -20.4800 H   0  0  0  0  0
    1.2244    8.4003  -19.3278 H   0  0  0  0  0
   -2.3320    7.7819  -15.5686 H   0  0  0  0  0
   -1.7677    6.5103  -16.6806 H   0  0  0  0  0
   -4.4189    9.6238  -18.2168 H   0  0  0  0  0
   -6.2300   11.9830  -20.0301 H   0  0  0  0  0
   -8.9092    9.1708  -15.8119 H   0  0  0  0  0
   -8.0428   12.4119  -18.3833 H   0  0  0  0  0
   -6.8367    6.3182  -15.0592 H   0  0  0  0  0
   -7.5695    7.9216  -14.7517 H   0  0  0  0  0
   -5.6131    8.0927  -13.5001 H   0  0  0  0  0
   -5.0630    8.7532  -15.0682 H   0  0  0  0  0
   -3.3512    5.2117  -15.6991 H   0  0  0  0  0
   -4.5089    6.1311  -16.6890 H   0  0  0  0  0
   -4.9236    5.9236  -14.2532 H   0  0  0  0  0
   -3.5191    7.2778  -14.1796 H   0  0  0  0  0
  1  2  4  0  0  0
  1  6  4  0  0  0
  2  3  4  0  0  0
  2  8  1  0  0  0
  3  4  4  0  0  0
  3 10  1  0  0  0
  4  5  4  0  0  0
  5  6  4  0  0  0
  5  7  1  0  0  0
  8  9  1  0  0  0
  9 23  1  0  0  0
 10 11  1  0  0  0
 11 12  1  0  0  0
 11 13  2  0  0  0
 12 14  1  0  0  0
 14 15  4  0  0  0
 14 19  4  0  0  0
 15 16  4  0  0  0
 16 17  4  0  0  0
 16 20  1  0  0  0
 17 18  4  0  0  0
 18 19  4  0  0  0
 20 21  1  0  0  0
 21 22  1  0  0  0
 22 24  1  0  0  0
 23 24  1  0  0  0
  1 25  1  0  0  0
  4 26  1  0  0  0
  6 27  1  0  0  0
  9 28  1  0  0  0
  9 29  1  0  0  0
 10 30  1  0  0  0
 12 31  1  0  0  0
 17 32  1  0  0  0
 19 33  1  0  0  0
 21 34  1  0  0  0
 21 35  1  0  0  0
 22 36  1  0  0  0
 22 37  1  0  0  0
 23 38  1  0  0  0
 23 39  1  0  0  0
 24 40  1  0  0  0
 24 41  1  0  0  0
M  END
$$$$
