5wew_ligand
  -I-interpret- 

 36 40  0  0  0  0  0  0  0  0999 V2000
  -37.0350  -13.0640  -17.0550 C   0  0  0  0  0
  -40.6110  -15.9690  -13.8210 C   0  0  0  0  0
  -39.8740  -17.0890  -13.4250 C   0  0  0  0  0
  -37.6170  -15.0630  -13.2210 O   0  0  0  0  0
  -38.1940  -14.0190  -13.9580 N   0  0  0  0  0
  -37.8690  -12.9120  -13.7350 O   0  0  0  0  0
  -39.1800  -14.3020  -14.9900 C   0  0  0  0  0
  -40.2480  -15.1880  -14.9050 C   0  0  0  0  0
  -40.9020  -15.1530  -16.0500 N   0  0  0  0  0
  -40.2850  -14.2740  -16.8850 N   0  0  0  0  0
  -39.2400  -13.7530  -16.2670 C   0  0  0  0  0
  -38.3910  -12.8090  -16.8270 C   0  0  0  0  0
  -36.2740  -12.1170  -17.6000 N   0  0  0  0  0
  -36.7960  -10.9120  -17.9420 C   0  0  0  0  0
  -38.0590  -10.6360  -17.7490 N   0  0  0  0  0
  -38.8870  -11.5590  -17.1960 C   0  0  0  0  0
  -38.3090   -9.3260  -18.1960 N   0  0  0  0  0
  -37.1890   -8.8060  -18.6620 C   0  0  0  0  0
  -37.0500   -7.7190  -19.1140 O   0  0  0  0  0
  -36.1930   -9.7570  -18.5310 C   0  0  0  0  0
  -34.3440   -9.5220  -19.0600 Br  0  0  0  0  0
  -40.2890  -17.7890  -12.3770 N   0  0  0  0  0
  -41.4120  -17.4380  -11.7000 C   0  0  0  0  0
  -42.1300  -16.4070  -12.0400 N   0  0  0  0  0
  -41.7540  -15.6510  -13.1010 C   0  0  0  0  0
  -43.2210  -16.2940  -11.1640 N   0  0  0  0  0
  -43.1550  -17.2780  -10.2800 C   0  0  0  0  0
  -43.9230  -17.4750   -9.4040 O   0  0  0  0  0
  -42.0310  -18.0410  -10.5650 C   0  0  0  0  0
  -41.4320  -19.6140   -9.5990 Br  0  0  0  0  0
  -36.6048  -14.0295  -16.7889 H   0  0  0  0  0
  -38.9749  -17.3818  -13.9672 H   0  0  0  0  0
  -39.9397  -11.3229  -17.0404 H   0  0  0  0  0
  -39.2122   -8.8531  -18.1650 H   0  0  0  0  0
  -42.3534  -14.7878  -13.3903 H   0  0  0  0  0
  -43.9433  -15.5748  -11.2019 H   0  0  0  0  0
 12  1  1  0  0  0
  1 13  2  0  0  0
  2  3  1  0  0  0
  8  2  1  0  0  0
  2 25  2  0  0  0
  3 22  2  0  0  0
  5  4  2  0  0  0
  5  6  2  0  0  0
  7  5  1  0  0  0
  7  8  4  0  0  0
 11  7  4  0  0  0
  9  8  4  0  0  0
 10  9  4  0  0  0
 11 10  4  0  0  0
 11 12  1  0  0  0
 12 16  2  0  0  0
 13 14  1  0  0  0
 14 15  1  0  0  0
 14 20  2  0  0  0
 15 16  1  0  0  0
 15 17  1  0  0  0
 17 18  1  0  0  0
 18 19  2  0  0  0
 18 20  1  0  0  0
 20 21  1  0  0  0
 22 23  1  0  0  0
 23 24  1  0  0  0
 23 29  2  0  0  0
 24 25  1  0  0  0
 24 26  1  0  0  0
 26 27  1  0  0  0
 27 28  2  0  0  0
 27 29  1  0  0  0
 29 30  1  0  0  0
  1 31  1  0  0  0
  3 32  1  0  0  0
 16 33  1  0  0  0
 17 34  1  0  0  0
 25 35  1  0  0  0
 26 36  1  0  0  0
M  END
$$$$
