6bqa_ligand
  -I-interpret- 

 45 47  0  0  0  0  0  0  0  0999 V2000
  -42.9660  -23.2260    2.2060 C   0  0  0  0  0
  -48.7040  -30.2150    2.9640 N   0  0  0  0  0
  -50.3920  -30.1630    4.5100 O   0  0  0  0  0
  -43.3380  -25.5310    1.5490 C   0  0  0  0  0
  -48.8630  -27.9840    5.9310 N   0  0  0  0  0
  -43.7220  -26.9320    1.9050 C   0  0  0  0  0
  -44.9770  -27.2200    2.4440 C   0  0  0  0  0
  -45.3640  -28.5430    2.6610 C   0  0  0  0  0
  -44.4760  -29.5710    2.3450 C   0  0  0  0  0
  -43.2250  -29.2850    1.8280 C   0  0  0  0  0
  -42.8470  -27.9740    1.6120 C   0  0  0  0  0
  -46.7200  -28.8720    3.1750 C   0  0  0  0  0
  -47.4550  -29.8230    2.5450 C   0  0  0  0  0
  -49.3110  -29.7140    4.1260 C   0  0  0  0  0
  -49.4390  -31.2450    2.2120 C   0  0  0  0  0
  -50.6750  -30.6810    1.5040 C   0  0  0  0  0
  -50.3140  -29.7100    0.4160 C   0  0  0  0  0
  -50.9690  -28.6110    0.1070 C   0  0  0  0  0
  -48.5720  -28.6960    4.7900 C   0  0  0  0  0
  -47.8430  -27.1170    6.2090 C   0  0  0  0  0
  -46.8700  -27.2480    5.2560 C   0  0  0  0  0
  -47.3160  -28.2430    4.3400 C   0  0  0  0  0
  -43.0350  -25.2720    0.3960 O   0  0  0  0  0
  -43.2820  -24.6150    2.5270 N   0  0  0  0  0
  -43.4230  -24.8930    3.9570 C   0  0  0  0  0
  -43.7604  -22.5788    2.5776 H   0  0  0  0  0
  -42.0219  -22.9514    2.6766 H   0  0  0  0  0
  -42.8806  -23.1146    1.1251 H   0  0  0  0  0
  -45.6581  -26.4074    2.6967 H   0  0  0  0  0
  -44.7700  -30.6081    2.5067 H   0  0  0  0  0
  -42.5362  -30.0958    1.5906 H   0  0  0  0  0
  -41.8580  -27.7543    1.2099 H   0  0  0  0  0
  -47.0330  -30.3008    1.6608 H   0  0  0  0  0
  -49.7726  -32.0048    2.9188 H   0  0  0  0  0
  -48.7703  -31.6492    1.4521 H   0  0  0  0  0
  -51.2770  -30.1527    2.2433 H   0  0  0  0  0
  -51.2143  -31.5126    1.0504 H   0  0  0  0  0
  -49.4256  -29.9371   -0.1733 H   0  0  0  0  0
  -51.8646  -28.3355    0.6639 H   0  0  0  0  0
  -50.6158  -27.9763   -0.7058 H   0  0  0  0  0
  -47.8102  -26.4307    7.0552 H   0  0  0  0  0
  -45.9316  -26.6956    5.2072 H   0  0  0  0  0
  -44.3992  -25.3403    4.1443 H   0  0  0  0  0
  -42.6395  -25.5828    4.2707 H   0  0  0  0  0
  -43.3349  -23.9621    4.5172 H   0  0  0  0  0
 24  1  1  0  0  0
  2 13  1  0  0  0
 14  2  1  0  0  0
  2 15  1  0  0  0
 14  3  2  0  0  0
  6  4  1  0  0  0
  4 23  2  0  0  0
  4 24  1  0  0  0
 19  5  4  0  0  0
  5 20  4  0  0  0
  7  6  4  0  0  0
  6 11  4  0  0  0
  8  7  4  0  0  0
  8  9  4  0  0  0
 12  8  1  0  0  0
  9 10  4  0  0  0
 10 11  4  0  0  0
 13 12  2  0  0  0
 12 22  1  0  0  0
 14 19  1  0  0  0
 15 16  1  0  0  0
 16 17  1  0  0  0
 17 18  2  0  0  0
 19 22  4  0  0  0
 20 21  4  0  0  0
 21 22  4  0  0  0
 24 25  1  0  0  0
  1 26  1  0  0  0
  1 27  1  0  0  0
  1 28  1  0  0  0
  7 29  1  0  0  0
  9 30  1  0  0  0
 10 31  1  0  0  0
 11 32  1  0  0  0
 13 33  1  0  0  0
 15 34  1  0  0  0
 15 35  1  0  0  0
 16 36  1  0  0  0
 16 37  1  0  0  0
 17 38  1  0  0  0
 18 39  1  0  0  0
 18 40  1  0  0  0
 20 41  1  0  0  0
 21 42  1  0  0  0
 25 43  1  0  0  0
 25 44  1  0  0  0
 25 45  1  0  0  0
M  END
$$$$
