5j7g_ligand
  -I-interpret- 

 79 83  0  0  0  0  0  0  0  0999 V2000
   54.1270   18.9170   -3.7980 O   0  0  0  0  0
   54.2540   18.4480   -2.7020 C   0  0  0  0  0
   55.3520   17.7450   -2.4540 O   0  0  0  0  0
   53.1590   18.6850   -1.6830 C   0  0  0  0  0
   52.5300   17.3410   -1.4800 C   0  0  0  0  0
   51.9400   17.1080   -0.1200 C   0  0  0  0  0
   52.6420   16.7510    0.8070 O   0  0  0  0  0
   50.6200   17.1750   -0.0140 N   0  0  0  0  0
   49.9820   16.7290    1.1830 C   0  0  0  0  0
   48.6140   17.3710    1.3110 C   0  0  0  0  0
   47.8170   16.5660    2.3060 C   0  0  0  0  0
   46.4660   17.1620    2.5950 C   0  0  0  0  0
   45.7360   16.1660    3.4890 C   0  0  0  0  0
   45.6950   16.5330    4.9350 C   0  0  0  0  0
   45.6950   17.9610    5.1580 O   0  0  0  0  0
   44.7240   18.4490    5.9890 C   0  0  0  0  0
   43.7830   17.8360    6.4290 O   0  0  0  0  0
   44.8380   19.8460    6.2950 C   0  0  0  0  0
   44.0120   20.5300    7.0440 N   0  0  0  0  0
   44.4030   21.7980    7.1440 C   0  0  0  0  0
   43.8490   22.8930    7.7830 C   0  0  0  0  0
   44.4390   24.0880    7.6270 C   0  0  0  0  0
   43.7460   25.4480    8.5390 Cl  0  0  0  0  0
   45.8370   20.6970    5.7320 C   0  0  0  0  0
   45.5430   22.0090    6.2670 C   0  0  0  0  0
   46.1470   23.2190    6.1710 C   0  0  0  0  0
   45.5730   24.2810    6.8480 C   0  0  0  0  0
   47.0010   20.4380    4.8410 C   0  0  0  0  0
   48.1020   19.8540    5.2650 N   0  0  0  0  0
   48.3460   19.1870    6.5270 C   0  0  0  0  0
   48.2630   20.0610    7.7350 C   0  0  0  0  0
   47.6850   19.5490    8.9020 C   0  0  0  0  0
   47.6880   20.3590   10.0500 C   0  0  0  0  0
   48.2530   21.6150    9.9860 C   0  0  0  0  0
   48.3070   22.7340   11.3820 Cl  0  0  0  0  0
   48.8300   22.1130    8.8100 C   0  0  0  0  0
   48.8350   21.3000    7.7010 C   0  0  0  0  0
   48.9770   19.8890    4.2630 C   0  0  0  0  0
   48.5020   20.5860    3.2200 N   0  0  0  0  0
   47.2490   20.9860    3.5140 C   0  0  0  0  0
   46.4170   21.6870    2.6000 C   0  0  0  0  0
   45.0500   21.4570    2.6190 C   0  0  0  0  0
   44.2460   22.0900    1.7410 C   0  0  0  0  0
   44.8490   22.9640    0.8550 C   0  0  0  0  0
   44.0530   23.5560   -0.0410 F   0  0  0  0  0
   46.2220   23.1780    0.8340 C   0  0  0  0  0
   47.0380   22.5380    1.7070 C   0  0  0  0  0
   55.3300   17.4282   -1.5480 H   0  0  0  0  0
   52.4359   19.4241   -2.0280 H   0  0  0  0  0
   53.5517   19.0946   -0.7524 H   0  0  0  0  0
   53.3222   16.6032   -1.6071 H   0  0  0  0  0
   51.7086   17.2699   -2.1930 H   0  0  0  0  0
   50.0625   17.5437   -0.7845 H   0  0  0  0  0
   50.5922   17.0105    2.0412 H   0  0  0  0  0
   49.8680   15.6456    1.1466 H   0  0  0  0  0
   48.1102   17.3830    0.3445 H   0  0  0  0  0
   48.7107   18.4024    1.6502 H   0  0  0  0  0
   48.3774   16.5436    3.2406 H   0  0  0  0  0
   47.6591   15.5746    1.8813 H   0  0  0  0  0
   45.9118   17.3382    1.6731 H   0  0  0  0  0
   46.5635   18.1297    3.0871 H   0  0  0  0  0
   46.2770   15.2224    3.4180 H   0  0  0  0  0
   44.7030   16.1294    3.1431 H   0  0  0  0  0
   46.5891   16.1244    5.4058 H   0  0  0  0  0
   44.7709   16.1327    5.3521 H   0  0  0  0  0
   42.9553   22.7875    8.3980 H   0  0  0  0  0
   47.0538   23.3510    5.5807 H   0  0  0  0  0
   46.0134   25.2750    6.7695 H   0  0  0  0  0
   49.3661   18.8049    6.4868 H   0  0  0  0  0
   47.5702   18.4291    6.6354 H   0  0  0  0  0
   47.2456   18.5516    8.9199 H   0  0  0  0  0
   47.2488   19.9987   10.9803 H   0  0  0  0  0
   49.2613   23.1134    8.7755 H   0  0  0  0  0
   49.3028   21.6502    6.7809 H   0  0  0  0  0
   49.9565   19.4114    4.2868 H   0  0  0  0  0
   44.6247   20.7636    3.3446 H   0  0  0  0  0
   43.1693   21.9205    1.7300 H   0  0  0  0  0
   46.6480   23.8690    0.1066 H   0  0  0  0  0
   48.1179   22.6860    1.7043 H   0  0  0  0  0
  1  2  2  0  0  0
  2  3  1  0  0  0
  2  4  1  0  0  0
  4  5  1  0  0  0
  5  6  1  0  0  0
  6  7  2  0  0  0
  6  8  1  0  0  0
  8  9  1  0  0  0
  9 10  1  0  0  0
 10 11  1  0  0  0
 11 12  1  0  0  0
 12 13  1  0  0  0
 13 14  1  0  0  0
 14 15  1  0  0  0
 15 16  1  0  0  0
 16 17  2  0  0  0
 16 18  1  0  0  0
 18 19  4  0  0  0
 18 24  4  0  0  0
 19 20  4  0  0  0
 20 21  4  0  0  0
 20 25  4  0  0  0
 21 22  4  0  0  0
 22 23  1  0  0  0
 22 27  4  0  0  0
 24 25  4  0  0  0
 24 28  1  0  0  0
 25 26  4  0  0  0
 26 27  4  0  0  0
 28 29  4  0  0  0
 28 40  4  0  0  0
 29 30  1  0  0  0
 29 38  4  0  0  0
 30 31  1  0  0  0
 31 32  4  0  0  0
 31 37  4  0  0  0
 32 33  4  0  0  0
 33 34  4  0  0  0
 34 35  1  0  0  0
 34 36  4  0  0  0
 36 37  4  0  0  0
 38 39  4  0  0  0
 39 40  4  0  0  0
 40 41  1  0  0  0
 41 42  4  0  0  0
 41 47  4  0  0  0
 42 43  4  0  0  0
 43 44  4  0  0  0
 44 45  1  0  0  0
 44 46  4  0  0  0
 46 47  4  0  0  0
  3 48  1  0  0  0
  4 49  1  0  0  0
  4 50  1  0  0  0
  5 51  1  0  0  0
  5 52  1  0  0  0
  8 53  1  0  0  0
  9 54  1  0  0  0
  9 55  1  0  0  0
 10 56  1  0  0  0
 10 57  1  0  0  0
 11 58  1  0  0  0
 11 59  1  0  0  0
 12 60  1  0  0  0
 12 61  1  0  0  0
 13 62  1  0  0  0
 13 63  1  0  0  0
 14 64  1  0  0  0
 14 65  1  0  0  0
 21 66  1  0  0  0
 26 67  1  0  0  0
 27 68  1  0  0  0
 30 69  1  0  0  0
 30 70  1  0  0  0
 32 71  1  0  0  0
 33 72  1  0  0  0
 36 73  1  0  0  0
 37 74  1  0  0  0
 38 75  1  0  0  0
 42 76  1  0  0  0
 43 77  1  0  0  0
 46 78  1  0  0  0
 47 79  1  0  0  0
M  END
$$$$
