3udj_ligand
  -I-interpret- 

 33 35  0  0  0  0  0  0  0  0999 V2000
   26.5680   37.9470   40.7340 C   0  0  0  0  0
   27.1800   38.0940   41.9620 C   0  0  0  0  0
   25.2530   37.5350   40.6460 C   0  0  0  0  0
   26.4810   37.8640   43.1210 C   0  0  0  0  0
   24.5560   37.3140   41.8080 C   0  0  0  0  0
   25.1750   37.4580   43.0100 C   0  0  0  0  0
   23.0870   36.6850   43.5070 C   0  0  0  0  0
   19.8920   36.6300   41.9450 C   0  0  0  0  0
   22.0930   37.8460   41.5830 C   0  0  0  0  0
   22.9010   35.5610   41.2460 C   0  0  0  0  0
   20.9790   37.0180   40.9760 C   0  0  0  0  0
   23.1530   36.8500   42.0050 C   0  0  0  0  0
   18.4560   37.1840   43.5940 C   0  0  0  0  0
   24.2900   37.1190   44.0420 N   0  0  0  0  0
   21.6360   35.7770   40.4760 N   0  3  0  0  0
   22.0830   36.3650   44.1350 O   0  0  0  0  0
   19.4620   35.4960   42.0550 O   0  0  0  0  0
   19.3960   37.6790   42.6440 O   0  0  0  0  0
   27.1287   38.1584   39.8235 H   0  0  0  0  0
   28.2264   38.3950   42.0122 H   0  0  0  0  0
   24.7789   37.3885   39.6755 H   0  0  0  0  0
   26.9478   37.9994   44.0966 H   0  0  0  0  0
   21.7380   38.4343   42.4292 H   0  0  0  0  0
   22.4866   38.5703   40.8698 H   0  0  0  0  0
   22.8099   34.7137   41.9257 H   0  0  0  0  0
   23.7323   35.3247   40.5818 H   0  0  0  0  0
   20.4842   37.6093   40.2055 H   0  0  0  0  0
   17.6498   36.6694   43.0713 H   0  0  0  0  0
   18.9552   36.4887   44.2688 H   0  0  0  0  0
   18.0466   38.0167   44.1659 H   0  0  0  0  0
   24.4996   37.1821   45.0382 H   0  0  0  0  0
   21.0127   34.9796   40.6025 H   0  0  0  0  0
   21.8468   35.8724   39.4826 H   0  0  0  0  0
  1  2  4  0  0  0
  3  1  4  0  0  0
  4  2  4  0  0  0
  5  3  4  0  0  0
  6  4  4  0  0  0
  5  6  4  0  0  0
 12  5  1  0  0  0
 14  6  1  0  0  0
 12  7  1  0  0  0
  7 14  1  0  0  0
  7 16  2  0  0  0
 11  8  1  0  0  0
  8 17  2  0  0  0
  8 18  1  0  0  0
  9 11  1  0  0  0
  9 12  1  0  0  0
 12 10  1  0  0  0
 10 15  1  0  0  0
 11 15  1  0  0  0
 18 13  1  0  0  0
  1 19  1  0  0  0
  2 20  1  0  0  0
  3 21  1  0  0  0
  4 22  1  0  0  0
  9 23  1  0  0  0
  9 24  1  0  0  0
 10 25  1  0  0  0
 10 26  1  0  0  0
 11 27  1  0  0  0
 13 28  1  0  0  0
 13 29  1  0  0  0
 13 30  1  0  0  0
 14 31  1  0  0  0
 15 32  1  0  0  0
 15 33  1  0  0  0
M  END
$$$$
