4obq_ligand
  -I-interpret- 

 48 51  0  0  0  0  0  0  0  0999 V2000
  -17.2270   -5.5050   27.7590 C   0  0  0  0  0
  -16.3360   -4.5110   28.0570 C   0  0  0  0  0
  -15.5460   -4.5790   29.2260 C   0  0  0  0  0
  -15.6740   -5.7170   30.0620 C   0  0  0  0  0
  -16.6390   -6.6820   29.7400 C   0  0  0  0  0
  -17.4300   -6.5880   28.6190 C   0  0  0  0  0
  -18.4420   -7.6320   28.3360 C   0  0  0  0  0
  -19.0310   -7.7590   27.0710 C   0  0  0  0  0
  -20.0120   -8.7210   26.8350 C   0  0  0  0  0
  -20.4250   -9.5640   27.8650 C   0  0  0  0  0
  -19.8650   -9.3860   29.1040 C   0  0  0  0  0
  -18.8840   -8.4640   29.3660 C   0  0  0  0  0
  -20.6270   -8.8230   25.5630 N   0  0  0  0  0
  -21.9510   -8.8540   25.2910 C   0  0  0  0  0
  -22.8340   -8.6480   26.1230 O   0  0  0  0  0
  -22.2910   -9.1970   23.8530 C   0  0  0  0  0
  -23.5400   -9.9460   23.7390 N   0  3  0  0  0
  -23.5940  -11.0630   22.7930 C   0  0  0  0  0
  -25.0740  -11.3850   22.6920 C   0  0  0  0  0
  -25.7940  -10.1470   23.1270 C   0  0  0  0  0
  -24.7050   -9.1280   23.3950 C   0  0  0  0  0
  -14.7660   -5.7700   31.1880 C   0  0  0  0  0
  -13.9540   -4.7510   31.4550 N   0  0  0  0  0
  -13.9570   -3.7070   30.6170 C   0  0  0  0  0
  -14.6750   -3.5540   29.5030 N   0  0  0  0  0
  -14.6440   -6.8990   31.9180 N   0  0  0  0  0
  -20.3600  -10.1060   30.1480 F   0  0  0  0  0
  -17.7923   -5.4513   26.8286 H   0  0  0  0  0
  -16.2346   -3.6581   27.3859 H   0  0  0  0  0
  -16.7669   -7.5381   30.4025 H   0  0  0  0  0
  -18.7187   -7.0982   26.2624 H   0  0  0  0  0
  -21.1699  -10.3406   27.6912 H   0  0  0  0  0
  -18.4554   -8.3821   30.3648 H   0  0  0  0  0
  -19.9995   -8.8795   24.7609 H   0  0  0  0  0
  -21.4881   -9.8180   23.4557 H   0  0  0  0  0
  -22.4062   -8.2636   23.3020 H   0  0  0  0  0
  -23.5668  -10.3120   24.6907 H   0  0  0  0  0
  -23.0064  -11.9178   23.1280 H   0  0  0  0  0
  -23.1590  -10.8082   21.8266 H   0  0  0  0  0
  -25.3372  -12.2367   23.3192 H   0  0  0  0  0
  -25.3492  -11.6661   21.6755 H   0  0  0  0  0
  -26.4037  -10.3264   24.0125 H   0  0  0  0  0
  -26.4919   -9.7990   22.3655 H   0  0  0  0  0
  -24.5202   -8.4819   22.5368 H   0  0  0  0  0
  -24.9735   -8.4323   24.1900 H   0  0  0  0  0
  -13.2927   -2.8825   30.8761 H   0  0  0  0  0
  -15.1941   -7.7236   31.6777 H   0  0  0  0  0
  -14.0017   -6.9274   32.7098 H   0  0  0  0  0
  1  2  4  0  0  0
  1  6  4  0  0  0
  2  3  4  0  0  0
  3  4  4  0  0  0
  3 25  4  0  0  0
  4  5  4  0  0  0
  4 22  4  0  0  0
  5  6  4  0  0  0
  6  7  1  0  0  0
  7  8  4  0  0  0
  7 12  4  0  0  0
  8  9  4  0  0  0
  9 10  4  0  0  0
  9 13  1  0  0  0
 10 11  4  0  0  0
 11 12  4  0  0  0
 11 27  1  0  0  0
 13 14  1  0  0  0
 14 15  2  0  0  0
 14 16  1  0  0  0
 16 17  1  0  0  0
 17 18  1  0  0  0
 17 21  1  0  0  0
 18 19  1  0  0  0
 19 20  1  0  0  0
 20 21  1  0  0  0
 22 23  4  0  0  0
 22 26  1  0  0  0
 23 24  4  0  0  0
 24 25  4  0  0  0
  1 28  1  0  0  0
  2 29  1  0  0  0
  5 30  1  0  0  0
  8 31  1  0  0  0
 10 32  1  0  0  0
 12 33  1  0  0  0
 13 34  1  0  0  0
 16 35  1  0  0  0
 16 36  1  0  0  0
 17 37  1  0  0  0
 18 38  1  0  0  0
 18 39  1  0  0  0
 19 40  1  0  0  0
 19 41  1  0  0  0
 20 42  1  0  0  0
 20 43  1  0  0  0
 21 44  1  0  0  0
 21 45  1  0  0  0
 24 46  1  0  0  0
 26 47  1  0  0  0
 26 48  1  0  0  0
M  END
$$$$
