5ylu_ligand
  -I-interpret- 

 41 43  0  0  0  0  0  0  0  0999 V2000
   49.3660  -16.0720   -2.7750 C   0  0  0  0  0
   49.2150  -17.2790   -3.6420 C   0  0  0  0  0
   48.4400  -14.5220   -5.4710 C   0  0  0  0  0
   49.0760  -14.0340   -1.8820 C   0  0  0  0  0
   49.9830  -14.7130   -1.0670 C   0  0  0  0  0
   50.1520  -15.9790   -1.6290 C   0  0  0  0  0
   50.2790  -17.8580   -4.3190 C   0  0  0  0  0
   47.9500  -17.8680   -3.7010 C   0  0  0  0  0
   48.3140  -15.5900   -6.3740 C   0  0  0  0  0
   49.2600  -13.4700   -5.8790 C   0  0  0  0  0
   50.6700  -14.1690    0.1870 C   0  0  0  0  0
   50.0410  -19.0060   -5.0640 C   0  0  0  0  0
   47.6960  -19.0030   -4.4420 C   0  0  0  0  0
   49.8980  -13.5090   -7.1250 C   0  0  0  0  0
   48.7620  -19.5700   -5.1240 C   0  0  0  0  0
   49.7240  -14.6000   -7.9690 C   0  0  0  0  0
   49.7320  -15.7150    1.7400 C   0  0  0  0  0
   51.5290  -17.3450   -4.2840 F   0  0  0  0  0
   48.7500  -14.8940   -2.8570 N   0  0  0  0  0
   48.9300  -15.6090   -7.5800 N   0  0  0  0  0
   49.8300  -14.2880    1.3960 N   0  3  0  0  0
   47.1860  -13.2050   -3.6850 O   0  0  0  0  0
   46.5170  -15.3380   -3.9840 O   0  0  0  0  0
   47.6960  -14.5050   -4.0190 S   0  0  0  0  0
   48.7090  -13.0158   -1.7525 H   0  0  0  0  0
   50.7944  -16.7667   -1.2353 H   0  0  0  0  0
   47.1330  -17.4136   -3.1405 H   0  0  0  0  0
   47.6935  -16.4406   -6.0921 H   0  0  0  0  0
   49.4052  -12.6114   -5.2233 H   0  0  0  0  0
   50.8732  -13.1106    0.0242 H   0  0  0  0  0
   51.5762  -14.7520    0.3511 H   0  0  0  0  0
   50.8612  -19.4734   -5.6089 H   0  0  0  0  0
   46.6973  -19.4370   -4.4897 H   0  0  0  0  0
   50.5342  -12.6799   -7.4347 H   0  0  0  0  0
   48.6008  -20.4703   -5.7169 H   0  0  0  0  0
   50.2268  -14.6352   -8.9355 H   0  0  0  0  0
   49.2787  -16.2572    0.9101 H   0  0  0  0  0
   50.7294  -16.1104    1.9325 H   0  0  0  0  0
   49.1155  -15.8310    2.6314 H   0  0  0  0  0
   48.9021  -13.9024    1.2208 H   0  0  0  0  0
   50.2457  -13.7664    2.1677 H   0  0  0  0  0
  1  2  1  0  0  0
  1  6  4  0  0  0
 19  1  4  0  0  0
  2  7  4  0  0  0
  2  8  4  0  0  0
  3  9  4  0  0  0
  3 10  4  0  0  0
 24  3  1  0  0  0
  4  5  4  0  0  0
 19  4  4  0  0  0
  5  6  4  0  0  0
  5 11  1  0  0  0
  7 12  4  0  0  0
  7 18  1  0  0  0
  8 13  4  0  0  0
  9 20  4  0  0  0
 10 14  4  0  0  0
 11 21  1  0  0  0
 12 15  4  0  0  0
 13 15  4  0  0  0
 14 16  4  0  0  0
 20 16  4  0  0  0
 21 17  1  0  0  0
 19 24  1  0  0  0
 24 22  2  0  0  0
 24 23  2  0  0  0
  4 25  1  0  0  0
  6 26  1  0  0  0
  8 27  1  0  0  0
  9 28  1  0  0  0
 10 29  1  0  0  0
 11 30  1  0  0  0
 11 31  1  0  0  0
 12 32  1  0  0  0
 13 33  1  0  0  0
 14 34  1  0  0  0
 15 35  1  0  0  0
 16 36  1  0  0  0
 17 37  1  0  0  0
 17 38  1  0  0  0
 17 39  1  0  0  0
 21 40  1  0  0  0
 21 41  1  0  0  0
M  END
$$$$
