### 
### Created by X-TOOL on Mon Sep 10 21:13:27 2018
### 

@<TRIPOS>MOLECULE
5elz_ligand
   52    53     1     0     0
SMALL
GAST_HUCK


@<TRIPOS>ATOM
      1 O1         18.6060   16.8460    5.5810 O.co2     1 3V9        -0.5537
      2 O2         16.9440   17.0780    3.7520 O.co2     1 3V9        -0.5537
      3 O3         18.0580   14.8220    4.1670 O.co2     1 3V9        -0.5537
      4 P          17.6740   16.1740    4.6490 P.3       1 3V9         0.2007
      5 O01        16.4810   15.7720    5.7230 O.3       1 3V9        -0.2753
      6 C02        16.7090   15.0710    6.9600 C.3       1 3V9         0.0880
      7 C03        15.8540   13.7600    7.0420 C.3       1 3V9         0.0360
      8 C04        14.3450   14.1010    7.1140 C.3       1 3V9        -0.0529
      9 C25        16.2380   12.9930    8.3060 C.3       1 3V9        -0.0529
     10 C05        16.1420   12.8580    5.7950 C.3       1 3V9         0.1510
     11 O24        17.5600   12.6660    5.6110 O.3       1 3V9        -0.3708
     12 C06        15.4780   11.4700    5.9250 C.2       1 3V9         0.2057
     13 O23        14.2650   11.3470    5.8860 O.2       1 3V9        -0.3942
     14 N07        16.3050   10.4460    6.0580 N.am      1 3V9        -0.2826
     15 C08        15.8470    9.0510    6.1730 C.3       1 3V9         0.0477
     16 C09        15.3460    8.7090    7.5920 C.3       1 3V9         0.0575
     17 C10        14.6700    7.3500    7.5560 C.2       1 3V9         0.1796
     18 O22        13.4760    7.2790    7.2690 O.2       1 3V9        -0.3969
     19 N11        15.4350    6.2920    7.8410 N.am      1 3V9        -0.2773
     20 C12        14.9110    4.9410    7.7330 C.3       1 3V9         0.0572
     21 C13        15.4700    4.0050    8.6650 C.ar      1 3V9        -0.0407
     22 C21        16.0050    4.3410    9.9230 C.ar      1 3V9        -0.0378
     23 C17        16.4770    3.3660   10.7520 C.ar      1 3V9         0.1170
     24 O18        17.0430    3.4950   11.9950 O.3       1 3V9        -0.2927
     25 C19        17.4490    2.1750   12.3640 C.3       1 3V9         0.1854
     26 O20        16.9210    1.2600   11.3630 O.3       1 3V9        -0.2956
     27 C16        16.4160    2.0690   10.3970 C.ar      1 3V9         0.1160
     28 C15        15.9010    1.6980    9.2070 C.ar      1 3V9        -0.0477
     29 C14        15.4070    2.6580    8.3350 C.ar      1 3V9        -0.0782
     30 H1         16.4370   15.7283    7.7990 H         1 3V9         0.0620
     31 H2         17.7747   14.8079    7.0308 H         1 3V9         0.0620
     32 H3         13.7612   13.1705    7.1710 H         1 3V9         0.0238
     33 H4         14.0527   14.6628    6.2146 H         1 3V9         0.0238
     34 H5         14.1493   14.7119    8.0076 H         1 3V9         0.0238
     35 H6         17.3085   12.7422    8.2717 H         1 3V9         0.0238
     36 H7         15.6464   12.0677    8.3674 H         1 3V9         0.0238
     37 H8         16.0357   13.6168    9.1891 H         1 3V9         0.0238
     38 H9         15.7337   13.3618    4.9065 H         1 3V9         0.0844
     39 H10        17.9783   13.5089    5.4807 H         1 3V9         0.2133
     40 H11        17.2880   10.6279    6.0816 H         1 3V9         0.1853
     41 H12        16.6847    8.3829    5.9241 H         1 3V9         0.0545
     42 H13        15.0249    8.8896    5.4602 H         1 3V9         0.0545
     43 H14        14.6262    9.4716    7.9241 H         1 3V9         0.0522
     44 H15        16.1972    8.6805    8.2881 H         1 3V9         0.0522
     45 H16        16.3812    6.4320    8.1326 H         1 3V9         0.1875
     46 H17        15.1146    4.5748    6.7159 H         1 3V9         0.0661
     47 H18        13.8241    4.9808    7.8977 H         1 3V9         0.0661
     48 H19        16.0420    5.3787   10.2342 H         1 3V9         0.0451
     49 H20        17.0454    1.9210   13.3552 H         1 3V9         0.0970
     50 H21        18.5469    2.1125   12.3881 H         1 3V9         0.0970
     51 H22        15.8729    0.6499    8.9316 H         1 3V9         0.0493
     52 H23        14.9695    2.3543    7.3909 H         1 3V9         0.0437
@<TRIPOS>BOND
     1    1    4 ar 
     2    4    2 ar 
     3    4    3 ar 
     4    4    5 1  
     5    5    6 1  
     6    6    7 1  
     7    7    8 1  
     8    7    9 1  
     9    7   10 1  
    10   10   11 1  
    11   10   12 1  
    12   12   13 2  
    13   12   14 am 
    14   14   15 1  
    15   15   16 1  
    16   16   17 1  
    17   17   18 2  
    18   17   19 am 
    19   19   20 1  
    20   20   21 1  
    21   21   22 ar 
    22   21   29 ar 
    23   22   23 ar 
    24   23   24 1  
    25   23   27 ar 
    26   24   25 1  
    27   25   26 1  
    28   26   27 1  
    29   27   28 ar 
    30   28   29 ar 
    31    6   30 1  
    32    6   31 1  
    33    8   32 1  
    34    8   33 1  
    35    8   34 1  
    36    9   35 1  
    37    9   36 1  
    38    9   37 1  
    39   10   38 1  
    40   11   39 1  
    41   14   40 1  
    42   15   41 1  
    43   15   42 1  
    44   16   43 1  
    45   16   44 1  
    46   19   45 1  
    47   20   46 1  
    48   20   47 1  
    49   22   48 1  
    50   25   49 1  
    51   25   50 1  
    52   28   51 1  
    53   29   52 1  
@<TRIPOS>SUBSTRUCTURE
     1 3V9         1

