5elz_ligand
  -I-interpret- 

 54 55  0  0  0  0  0  0  0  0999 V2000
   18.6060   16.8460    5.5810 O   0  0  0  0  0
   16.9440   17.0780    3.7520 O   0  0  0  0  0
   18.0580   14.8220    4.1670 O   0  0  0  0  0
   17.6740   16.1740    4.6490 P   0  0  0  0  0
   16.4810   15.7720    5.7230 O   0  0  0  0  0
   16.7090   15.0710    6.9600 C   0  0  0  0  0
   15.8540   13.7600    7.0420 C   0  0  0  0  0
   14.3450   14.1010    7.1140 C   0  0  0  0  0
   16.2380   12.9930    8.3060 C   0  0  0  0  0
   16.1420   12.8580    5.7950 C   0  0  0  0  0
   17.5600   12.6660    5.6110 O   0  0  0  0  0
   15.4780   11.4700    5.9250 C   0  0  0  0  0
   14.2650   11.3470    5.8860 O   0  0  0  0  0
   16.3050   10.4460    6.0580 N   0  0  0  0  0
   15.8470    9.0510    6.1730 C   0  0  0  0  0
   15.3460    8.7090    7.5920 C   0  0  0  0  0
   14.6700    7.3500    7.5560 C   0  0  0  0  0
   13.4760    7.2790    7.2690 O   0  0  0  0  0
   15.4350    6.2920    7.8410 N   0  0  0  0  0
   14.9110    4.9410    7.7330 C   0  0  0  0  0
   15.4700    4.0050    8.6650 C   0  0  0  0  0
   16.0050    4.3410    9.9230 C   0  0  0  0  0
   16.4770    3.3660   10.7520 C   0  0  0  0  0
   17.0430    3.4950   11.9950 O   0  0  0  0  0
   17.4490    2.1750   12.3640 C   0  0  0  0  0
   16.9210    1.2600   11.3630 O   0  0  0  0  0
   16.4160    2.0690   10.3970 C   0  0  0  0  0
   15.9010    1.6980    9.2070 C   0  0  0  0  0
   15.4070    2.6580    8.3350 C   0  0  0  0  0
   19.0398   16.1873    6.1283 H   0  0  0  0  0
   18.5254   14.3558    4.8640 H   0  0  0  0  0
   16.4218   15.7231    7.7849 H   0  0  0  0  0
   17.7634   14.8000    7.0145 H   0  0  0  0  0
   13.7681   13.1785    7.1800 H   0  0  0  0  0
   14.1540   14.7143    7.9946 H   0  0  0  0  0
   14.0546   14.6493    6.2179 H   0  0  0  0  0
   16.0371   13.6121    9.1803 H   0  0  0  0  0
   15.6511   12.0764    8.3656 H   0  0  0  0  0
   17.2988   12.7451    8.2708 H   0  0  0  0  0
   15.7207   13.3786    4.9350 H   0  0  0  0  0
   17.7095   12.1110    4.8421 H   0  0  0  0  0
   17.3077   10.6315    6.0820 H   0  0  0  0  0
   16.6919    8.3999    5.9485 H   0  0  0  0  0
   15.0170    8.9112    5.4804 H   0  0  0  0  0
   14.6369    9.4662    7.9265 H   0  0  0  0  0
   16.1865    8.6859    8.2856 H   0  0  0  0  0
   16.4002    6.4348    8.1385 H   0  0  0  0  0
   15.1614    4.5825    6.7346 H   0  0  0  0  0
   13.8427    4.9974    7.9421 H   0  0  0  0  0
   16.0422    5.3845   10.2359 H   0  0  0  0  0
   17.0669    1.9207   13.3527 H   0  0  0  0  0
   18.5361    2.1081   12.4064 H   0  0  0  0  0
   15.8728    0.6441    8.9301 H   0  0  0  0  0
   14.9670    2.3527    7.3856 H   0  0  0  0  0
  1  4  1  0  0  0
  4  2  2  0  0  0
  4  3  1  0  0  0
  4  5  1  0  0  0
  5  6  1  0  0  0
  6  7  1  0  0  0
  7  8  1  0  0  0
  7  9  1  0  0  0
  7 10  1  0  0  0
 10 11  1  0  0  0
 10 12  1  0  0  0
 12 13  2  0  0  0
 12 14  1  0  0  0
 14 15  1  0  0  0
 15 16  1  0  0  0
 16 17  1  0  0  0
 17 18  2  0  0  0
 17 19  1  0  0  0
 19 20  1  0  0  0
 20 21  1  0  0  0
 21 22  4  0  0  0
 21 29  4  0  0  0
 22 23  4  0  0  0
 23 24  1  0  0  0
 23 27  4  0  0  0
 24 25  1  0  0  0
 25 26  1  0  0  0
 26 27  1  0  0  0
 27 28  4  0  0  0
 28 29  4  0  0  0
  1 30  1  0  0  0
  3 31  1  0  0  0
  6 32  1  0  0  0
  6 33  1  0  0  0
  8 34  1  0  0  0
  8 35  1  0  0  0
  8 36  1  0  0  0
  9 37  1  0  0  0
  9 38  1  0  0  0
  9 39  1  0  0  0
 10 40  1  0  0  0
 11 41  1  0  0  0
 14 42  1  0  0  0
 15 43  1  0  0  0
 15 44  1  0  0  0
 16 45  1  0  0  0
 16 46  1  0  0  0
 19 47  1  0  0  0
 20 48  1  0  0  0
 20 49  1  0  0  0
 22 50  1  0  0  0
 25 51  1  0  0  0
 25 52  1  0  0  0
 28 53  1  0  0  0
 29 54  1  0  0  0
M  END
$$$$
