5afk_ligand
  -I-interpret- 

 28 29  0  0  0  0  0  0  0  0999 V2000
  -50.6760   -0.9890  -23.2510 O   0  0  0  0  0
  -51.6980   -1.5910  -22.9560 C   0  0  0  0  0
  -52.5610   -2.1420  -23.9740 N   0  0  0  0  0
  -52.3460   -2.0990  -25.4030 C   0  0  0  0  0
  -51.0710   -2.0510  -25.9650 C   0  0  0  0  0
  -50.9050   -2.0380  -27.3450 C   0  0  0  0  0
  -52.0200   -2.0960  -28.1690 C   0  0  0  0  0
  -51.8690   -2.0880  -29.4840 F   0  0  0  0  0
  -53.2920   -2.1540  -27.6260 C   0  0  0  0  0
  -53.4490   -2.1670  -26.2440 C   0  0  0  0  0
  -54.6670   -2.2320  -25.7130 F   0  0  0  0  0
  -52.0070   -1.7270  -21.5620 N   0  0  0  0  0
  -51.1990   -1.2020  -20.4970 C   0  0  0  0  0
  -52.0740   -1.0590  -19.3040 C   0  0  0  0  0
  -53.2880   -1.8740  -19.5970 C   0  0  0  0  0
  -53.1380   -2.3860  -20.9900 C   0  0  0  0  0
  -53.4087   -2.6092  -23.6522 H   0  0  0  0  0
  -50.1958   -2.0234  -25.3159 H   0  0  0  0  0
  -49.9058   -1.9826  -27.7770 H   0  0  0  0  0
  -54.1652   -2.1893  -28.2774 H   0  0  0  0  0
  -50.7760   -0.2376  -20.7782 H   0  0  0  0  0
  -50.3671   -1.8728  -20.2823 H   0  0  0  0  0
  -52.3295   -0.0155  -19.1201 H   0  0  0  0  0
  -51.5728   -1.4020  -18.3989 H   0  0  0  0  0
  -54.1914   -1.2717  -19.5008 H   0  0  0  0  0
  -53.3816   -2.6978  -18.8894 H   0  0  0  0  0
  -52.9930   -3.4663  -20.9886 H   0  0  0  0  0
  -54.0364   -2.1827  -21.5728 H   0  0  0  0  0
  1  2  2  0  0  0
  2  3  1  0  0  0
  2 12  1  0  0  0
  3  4  1  0  0  0
  4  5  4  0  0  0
  4 10  4  0  0  0
  5  6  4  0  0  0
  6  7  4  0  0  0
  7  8  1  0  0  0
  7  9  4  0  0  0
  9 10  4  0  0  0
 10 11  1  0  0  0
 12 13  1  0  0  0
 12 16  1  0  0  0
 13 14  1  0  0  0
 14 15  1  0  0  0
 15 16  1  0  0  0
  3 17  1  0  0  0
  5 18  1  0  0  0
  6 19  1  0  0  0
  9 20  1  0  0  0
 13 21  1  0  0  0
 13 22  1  0  0  0
 14 23  1  0  0  0
 14 24  1  0  0  0
 15 25  1  0  0  0
 15 26  1  0  0  0
 16 27  1  0  0  0
 16 28  1  0  0  0
M  END
$$$$
