5t9u_ligand
  -I-interpret- 

 97 99  0  0  0  0  0  0  0  0999 V2000
   72.8350   51.6620   66.8570 C   0  0  0  0  0
   73.4490   51.9900   65.4480 C   0  0  0  0  0
   72.7410   53.1370   64.6570 C   0  0  0  0  0
   73.3690   53.2950   63.2290 C   0  0  0  0  0
   72.7630   54.5130   62.5710 C   0  0  0  0  0
   75.2780   61.6520   64.7360 C   0  0  0  0  0
   75.2170   62.0430   66.2200 C   0  0  0  0  0
   75.7920   60.9490   67.1150 C   0  0  0  0  0
   75.1860   59.6650   66.7520 N   0  0  0  0  0
   75.3650   59.2010   65.4350 N   0  3  0  0  0
   74.8550   60.1970   64.4540 C   0  0  0  0  0
   75.2180   59.7280   63.0470 C   0  0  0  0  0
   74.3650   60.2510   62.1160 O   0  0  0  0  0
   76.1390   58.9830   62.7590 O   0  0  0  0  0
   74.6560   59.8650   60.7540 C   0  0  0  0  0
   73.6390   58.8330   60.2450 C   0  0  0  0  0
   73.9250   57.5330   60.9130 C   0  0  0  0  0
   73.0270   56.6750   61.4100 C   0  0  0  0  0
   73.5210   55.4700   62.0330 C   0  0  0  0  0
   73.0640   52.7480   67.9210 C   0  0  0  0  0
   72.1770   53.1360   68.6620 O   0  0  0  0  0
   73.4090   50.3690   67.4520 C   0  0  0  0  0
   72.7210   54.5210   65.3540 C   0  0  0  0  0
   73.1370   52.1020   62.4630 O   0  0  0  0  0
   74.8550   52.3070   65.5180 O   0  0  0  0  0
   74.0700   51.9060   61.4040 C   0  0  0  0  0
   75.6990   51.3870   64.8190 C   0  0  0  0  0
   74.3630   53.2740   67.9490 N   0  0  0  0  0
   74.7630   54.3360   68.8780 C   0  0  0  0  0
   74.9260   55.4910   67.8930 C   0  0  0  0  0
   75.8130   55.5410   67.0280 O   0  0  0  0  0
   75.9860   54.1180   69.7900 C   0  0  0  0  0
   76.2260   55.3770   70.6390 C   0  0  0  0  0
   75.7560   52.8890   70.6670 C   0  0  0  0  0
   74.4370   58.9380   67.6410 C   0  0  0  0  0
   73.8140   57.6240   67.1620 C   0  0  0  0  0
   74.2270   59.2960   68.8080 O   0  0  0  0  0
   72.3090   57.7220   66.8410 C   0  0  0  0  0
   71.8880   58.9030   66.0270 C   0  0  0  0  0
   71.8600   58.8480   64.6190 C   0  0  0  0  0
   71.4830   59.9840   63.8860 C   0  0  0  0  0
   71.1290   61.1580   64.5710 C   0  0  0  0  0
   71.1450   61.2060   65.9630 C   0  0  0  0  0
   71.5300   60.0770   66.6940 C   0  0  0  0  0
   70.7690   62.3630   66.6010 O   0  0  0  0  0
   73.9890   56.4700   67.9900 N   0  0  0  0  0
   71.7695   51.5774   66.6434 H   0  0  0  0  0
   73.2861   51.0615   64.9008 H   0  0  0  0  0
   71.7010   52.8154   64.6011 H   0  0  0  0  0
   74.4480   53.4353   63.2939 H   0  0  0  0  0
   71.6781   54.6122   62.5350 H   0  0  0  0  0
   76.3150   61.7552   64.4165 H   0  0  0  0  0
   74.5834   62.3003   64.2017 H   0  0  0  0  0
   74.1728   62.1965   66.4924 H   0  0  0  0  0
   75.8072   62.9484   66.3615 H   0  0  0  0  0
   75.5731   61.1760   68.1584 H   0  0  0  0  0
   76.8724   60.8956   66.9809 H   0  0  0  0  0
   74.8486   58.3290   65.3191 H   0  0  0  0  0
   76.3606   59.0541   65.2691 H   0  0  0  0  0
   73.7704   60.2381   64.5546 H   0  0  0  0  0
   75.6509   59.4209   60.7214 H   0  0  0  0  0
   74.6024   60.7505   60.1206 H   0  0  0  0  0
   73.7218   58.7258   59.1635 H   0  0  0  0  0
   72.6250   59.1592   60.4764 H   0  0  0  0  0
   74.9739   57.2517   61.0066 H   0  0  0  0  0
   71.9581   56.8789   61.3467 H   0  0  0  0  0
   74.6015   55.3307   62.0666 H   0  0  0  0  0
   74.4707   50.5052   67.6576 H   0  0  0  0  0
   72.8855   50.1332   68.3785 H   0  0  0  0  0
   73.2770   49.5535   66.7409 H   0  0  0  0  0
   73.7401   54.8982   65.4392 H   0  0  0  0  0
   72.1234   55.2153   64.7633 H   0  0  0  0  0
   72.2855   54.4195   66.3481 H   0  0  0  0  0
   74.0173   52.7485   60.7145 H   0  0  0  0  0
   75.0764   51.8349   61.8166 H   0  0  0  0  0
   73.8275   50.9851   60.8736 H   0  0  0  0  0
   75.5740   50.3894   65.2400 H   0  0  0  0  0
   75.4254   51.3745   63.7640 H   0  0  0  0  0
   76.7383   51.6988   64.9224 H   0  0  0  0  0
   75.0563   52.9041   67.2986 H   0  0  0  0  0
   74.0327   54.4629   69.6772 H   0  0  0  0  0
   76.8762   53.9422   69.1860 H   0  0  0  0  0
   76.4099   56.2271   69.9820 H   0  0  0  0  0
   75.3463   55.5735   71.2519 H   0  0  0  0  0
   77.0914   55.2200   71.2829 H   0  0  0  0  0
   74.8681   53.0428   71.2802 H   0  0  0  0  0
   75.6143   52.0135   70.0334 H   0  0  0  0  0
   76.6220   52.7367   71.3111 H   0  0  0  0  0
   74.4047   57.4715   66.2587 H   0  0  0  0  0
   71.7970   57.8124   67.7990 H   0  0  0  0  0
   72.0641   56.8397   66.2496 H   0  0  0  0  0
   72.1299   57.9274   64.1016 H   0  0  0  0  0
   71.4651   59.9555   62.7965 H   0  0  0  0  0
   70.8379   62.0433   64.0057 H   0  0  0  0  0
   71.5506   60.1134   67.7832 H   0  0  0  0  0
   70.8330   62.2387   67.5508 H   0  0  0  0  0
   73.3215   56.3691   68.7546 H   0  0  0  0  0
  2  1  1  0  0  0
  1 20  1  0  0  0
  1 22  1  0  0  0
  3  2  1  0  0  0
  2 25  1  0  0  0
  4  3  1  0  0  0
  3 23  1  0  0  0
  5  4  1  0  0  0
  4 24  1  0  0  0
 19  5  2  0  0  0
  6  7  1  0  0  0
 11  6  1  0  0  0
  7  8  1  0  0  0
  9  8  1  0  0  0
 10  9  1  0  0  0
  9 35  1  0  0  0
 11 10  1  0  0  0
 12 11  1  0  0  0
 13 12  1  0  0  0
 12 14  2  0  0  0
 15 13  1  0  0  0
 16 15  1  0  0  0
 17 16  1  0  0  0
 18 17  2  0  0  0
 18 19  1  0  0  0
 20 21  2  0  0  0
 20 28  1  0  0  0
 24 26  1  0  0  0
 25 27  1  0  0  0
 28 29  1  0  0  0
 29 30  1  0  0  0
 29 32  1  0  0  0
 30 31  2  0  0  0
 30 46  1  0  0  0
 32 33  1  0  0  0
 32 34  1  0  0  0
 35 36  1  0  0  0
 35 37  2  0  0  0
 36 38  1  0  0  0
 36 46  1  0  0  0
 38 39  1  0  0  0
 39 40  4  0  0  0
 39 44  4  0  0  0
 40 41  4  0  0  0
 41 42  4  0  0  0
 42 43  4  0  0  0
 43 44  4  0  0  0
 43 45  1  0  0  0
  1 47  1  0  0  0
  2 48  1  0  0  0
  3 49  1  0  0  0
  4 50  1  0  0  0
  5 51  1  0  0  0
  6 52  1  0  0  0
  6 53  1  0  0  0
  7 54  1  0  0  0
  7 55  1  0  0  0
  8 56  1  0  0  0
  8 57  1  0  0  0
 10 58  1  0  0  0
 10 59  1  0  0  0
 11 60  1  0  0  0
 15 61  1  0  0  0
 15 62  1  0  0  0
 16 63  1  0  0  0
 16 64  1  0  0  0
 17 65  1  0  0  0
 18 66  1  0  0  0
 19 67  1  0  0  0
 22 68  1  0  0  0
 22 69  1  0  0  0
 22 70  1  0  0  0
 23 71  1  0  0  0
 23 72  1  0  0  0
 23 73  1  0  0  0
 26 74  1  0  0  0
 26 75  1  0  0  0
 26 76  1  0  0  0
 27 77  1  0  0  0
 27 78  1  0  0  0
 27 79  1  0  0  0
 28 80  1  0  0  0
 29 81  1  0  0  0
 32 82  1  0  0  0
 33 83  1  0  0  0
 33 84  1  0  0  0
 33 85  1  0  0  0
 34 86  1  0  0  0
 34 87  1  0  0  0
 34 88  1  0  0  0
 36 89  1  0  0  0
 38 90  1  0  0  0
 38 91  1  0  0  0
 40 92  1  0  0  0
 41 93  1  0  0  0
 42 94  1  0  0  0
 44 95  1  0  0  0
 45 96  1  0  0  0
 46 97  1  0  0  0
M  END
$$$$
