4x3r_ligand
  -I-interpret- 

 91 94  0  0  0  0  0  0  0  0999 V2000
   32.7370    9.4930   33.7220 C   0  0  0  0  0
   31.4920    9.1140   34.2100 C   0  0  0  0  0
   30.3550    9.9140   34.0050 C   0  0  0  0  0
   32.8360   10.6950   33.0280 C   0  0  0  0  0
   31.7050   11.5020   32.8230 C   0  0  0  0  0
   30.4450   11.1170   33.2990 C   0  0  0  0  0
   29.3080   11.9590   33.1150 N   0  0  0  0  0
   27.9470   11.3950   33.1300 C   0  0  0  0  0
   26.8730   12.3430   32.5660 C   0  0  0  0  0
   29.5860   13.4000   33.0320 C   0  0  0  0  0
   28.4960   14.1700   32.2910 C   0  0  0  0  0
   27.2340   13.7230   32.8580 N   0  0  0  0  0
   26.4030   14.5690   33.6480 C   0  0  0  0  0
   25.4180   13.9840   34.4230 C   0  0  0  0  0
   24.5790   14.7480   35.2250 C   0  0  0  0  0
   26.5290   15.9410   33.6920 N   0  0  0  0  0
   25.7090   16.7220   34.4540 C   0  0  0  0  0
   24.7090   16.1430   35.2510 C   0  0  0  0  0
   23.7640   16.9610   36.1000 C   0  0  0  0  0
   22.5510   17.0200   35.8400 O   0  0  0  0  0
   24.1870   17.6370   37.1560 N   0  0  0  0  0
   25.5660   17.6550   37.6070 C   0  0  0  0  0
   25.9270   16.2640   38.0300 C   0  0  0  0  0
   26.8020   15.5110   37.2300 C   0  0  0  0  0
   27.1750   14.2180   37.5990 C   0  0  0  0  0
   26.6550   13.6760   38.7760 C   0  0  0  0  0
   27.1610   11.9150   39.2870 Br  0  0  0  0  0
   25.7810   14.4280   39.5740 C   0  0  0  0  0
   25.4250   15.7360   39.2110 C   0  0  0  0  0
   23.2170   18.3870   37.9490 C   0  0  0  0  0
   23.1480   19.8110   37.4130 C   0  0  0  0  0
   22.2980   19.9720   36.1300 C   0  0  0  0  0
   20.8400   19.6050   36.3410 C   0  0  0  0  0
   19.8980   20.1860   35.2670 C   0  0  0  0  0
   20.1570   19.5350   33.9340 C   0  0  0  0  0
   20.7890   20.0560   33.0350 O   0  0  0  0  0
   19.6610   18.3320   33.7150 O   0  0  0  0  0
   18.5560   19.9060   35.7030 N   0  0  0  0  0
   17.8660   20.6550   36.5700 C   0  0  0  0  0
   18.3160   21.6920   37.0770 O   0  0  0  0  0
   16.6550   20.2110   36.8950 N   0  0  0  0  0
   16.0220   20.7060   38.0820 C   0  0  0  0  0
   16.9790   20.5180   39.2330 C   0  0  0  0  0
   17.8590   19.6200   39.2930 O   0  0  0  0  0
   16.8210   21.3640   40.2250 O   0  0  0  0  0
   14.7300   20.0120   38.5180 C   0  0  0  0  0
   14.9300   18.5170   38.6140 C   0  0  0  0  0
   13.7810   17.7690   39.2700 C   0  0  0  0  0
   12.8960   18.2860   39.9840 O   0  0  0  0  0
   13.7170   16.4520   39.0560 O   0  0  0  0  0
   33.6136    8.8645   33.8790 H   0  0  0  0  0
   31.3958    8.1790   34.7619 H   0  0  0  0  0
   29.3917    9.5927   34.4011 H   0  0  0  0  0
   33.8029   11.0141   32.6388 H   0  0  0  0  0
   31.8094   12.4439   32.2844 H   0  0  0  0  0
   27.6899   11.1960   34.1704 H   0  0  0  0  0
   27.9576   10.5056   32.5000 H   0  0  0  0  0
   25.9121   12.1156   33.0275 H   0  0  0  0  0
   26.8033   12.2085   31.4866 H   0  0  0  0  0
   30.5186   13.5293   32.4828 H   0  0  0  0  0
   29.6379   13.7894   34.0487 H   0  0  0  0  0
   28.5369   13.9788   31.2187 H   0  0  0  0  0
   28.6229   15.2461   32.4091 H   0  0  0  0  0
   25.2974   12.9009   34.4042 H   0  0  0  0  0
   23.8182   14.2612   35.8351 H   0  0  0  0  0
   25.8318   17.8050   34.4436 H   0  0  0  0  0
   25.6825   18.3467   38.4413 H   0  0  0  0  0
   26.2227   17.9889   36.8037 H   0  0  0  0  0
   27.1947   15.9421   36.3091 H   0  0  0  0  0
   27.8608   13.6408   36.9788 H   0  0  0  0  0
   25.3737   13.9919   40.4862 H   0  0  0  0  0
   24.7653   16.3272   39.8460 H   0  0  0  0  0
   23.5228   18.3987   38.9952 H   0  0  0  0  0
   22.2365   17.9160   37.8784 H   0  0  0  0  0
   24.1663   20.1070   37.1608 H   0  0  0  0  0
   22.6791   20.4206   38.1854 H   0  0  0  0  0
   22.7051   19.3014   35.3733 H   0  0  0  0  0
   22.3389   21.0195   35.8315 H   0  0  0  0  0
   20.5342   20.0171   37.3027 H   0  0  0  0  0
   20.7648   18.5188   36.2899 H   0  0  0  0  0
   20.0582   21.2572   35.1450 H   0  0  0  0  0
   19.1881   18.0351   34.4959 H   0  0  0  0  0
   18.0980   19.0772   35.3239 H   0  0  0  0  0
   16.1819   19.5257   36.3059 H   0  0  0  0  0
   15.7637   21.7362   37.8368 H   0  0  0  0  0
   16.1121   21.9755   40.0127 H   0  0  0  0  0
   13.9548   20.2162   37.7795 H   0  0  0  0  0
   14.4405   20.3916   39.4979 H   0  0  0  0  0
   15.8126   18.3520   39.2320 H   0  0  0  0  0
   15.0157   18.1403   37.5948 H   0  0  0  0  0
   14.4495   16.1839   38.4964 H   0  0  0  0  0
  1  2  4  0  0  0
  1  4  4  0  0  0
  2  3  4  0  0  0
  3  6  4  0  0  0
  4  5  4  0  0  0
  5  6  4  0  0  0
  6  7  1  0  0  0
  7  8  1  0  0  0
  7 10  1  0  0  0
  8  9  1  0  0  0
  9 12  1  0  0  0
 10 11  1  0  0  0
 11 12  1  0  0  0
 12 13  1  0  0  0
 13 14  4  0  0  0
 13 16  4  0  0  0
 14 15  4  0  0  0
 15 18  4  0  0  0
 16 17  4  0  0  0
 17 18  4  0  0  0
 18 19  1  0  0  0
 19 20  2  0  0  0
 19 21  1  0  0  0
 21 22  1  0  0  0
 21 30  1  0  0  0
 22 23  1  0  0  0
 23 24  4  0  0  0
 23 29  4  0  0  0
 24 25  4  0  0  0
 25 26  4  0  0  0
 26 27  1  0  0  0
 26 28  4  0  0  0
 28 29  4  0  0  0
 30 31  1  0  0  0
 31 32  1  0  0  0
 32 33  1  0  0  0
 33 34  1  0  0  0
 34 35  1  0  0  0
 34 38  1  0  0  0
 35 36  2  0  0  0
 35 37  1  0  0  0
 38 39  1  0  0  0
 39 40  2  0  0  0
 39 41  1  0  0  0
 41 42  1  0  0  0
 42 43  1  0  0  0
 42 46  1  0  0  0
 43 44  2  0  0  0
 43 45  1  0  0  0
 46 47  1  0  0  0
 47 48  1  0  0  0
 48 49  2  0  0  0
 48 50  1  0  0  0
  1 51  1  0  0  0
  2 52  1  0  0  0
  3 53  1  0  0  0
  4 54  1  0  0  0
  5 55  1  0  0  0
  8 56  1  0  0  0
  8 57  1  0  0  0
  9 58  1  0  0  0
  9 59  1  0  0  0
 10 60  1  0  0  0
 10 61  1  0  0  0
 11 62  1  0  0  0
 11 63  1  0  0  0
 14 64  1  0  0  0
 15 65  1  0  0  0
 17 66  1  0  0  0
 22 67  1  0  0  0
 22 68  1  0  0  0
 24 69  1  0  0  0
 25 70  1  0  0  0
 28 71  1  0  0  0
 29 72  1  0  0  0
 30 73  1  0  0  0
 30 74  1  0  0  0
 31 75  1  0  0  0
 31 76  1  0  0  0
 32 77  1  0  0  0
 32 78  1  0  0  0
 33 79  1  0  0  0
 33 80  1  0  0  0
 34 81  1  0  0  0
 37 82  1  0  0  0
 38 83  1  0  0  0
 41 84  1  0  0  0
 42 85  1  0  0  0
 45 86  1  0  0  0
 46 87  1  0  0  0
 46 88  1  0  0  0
 47 89  1  0  0  0
 47 90  1  0  0  0
 50 91  1  0  0  0
M  END
$$$$
