2oei_ligand
  -I-interpret- 

131138  0  0  0  0  0  0  0  0999 V2000
    1.8360   -1.9260   15.2780 N   0  3  0  0  0
    3.0590   -1.2800   15.6830 C   0  0  0  0  0
    2.8950    0.2340   15.8520 C   0  0  0  0  0
    1.8640    0.7750   15.4500 O   0  0  0  0  0
    4.0050   -1.5450   14.5030 C   0  0  0  0  0
    3.5200   -2.7430   13.8830 C   0  0  0  0  0
    2.0550   -2.8900   14.1860 C   0  0  0  0  0
    3.8820    0.9080   16.4520 N   0  0  0  0  0
    3.7750    2.3590   16.5300 C   0  0  0  0  0
    3.8960    2.9500   15.1270 C   0  0  0  0  0
    4.3190    2.2690   14.1830 O   0  0  0  0  0
    4.9750    2.7700   17.3830 C   0  0  0  0  0
    5.6640    1.4400   17.7810 C   0  0  0  0  0
    5.1550    0.3950   16.9950 C   0  0  0  0  0
    3.5360    4.2220   14.9800 N   0  0  0  0  0
    3.5960    4.8450   13.6590 C   0  0  0  0  0
    5.0080    5.0320   13.1520 C   0  0  0  0  0
    6.0010    4.9650   13.9210 O   0  0  0  0  0
    2.9720    6.2100   13.9040 C   0  0  0  0  0
    3.2060    6.4960   15.3380 C   0  0  0  0  0
    3.1260    5.1660   16.0280 C   0  0  0  0  0
    5.1390    5.3220   11.8420 N   0  0  0  0  0
    6.4660    5.5880   11.3410 C   0  0  0  0  0
    7.0930    6.7800   12.0400 C   0  0  0  0  0
    6.4050    7.7690   12.3120 O   0  0  0  0  0
    6.2450    5.8090    9.8360 C   0  0  0  0  0
    4.8460    5.9900    9.6830 C   0  0  0  0  0
    4.1080    5.4120   10.7910 C   0  0  0  0  0
    8.3950    6.6950   12.3380 N   0  0  0  0  0
    9.0340    7.8160   12.9920 C   0  0  0  0  0
    9.2940    8.9990   12.0330 C   0  0  0  0  0
    9.2100    8.8640   10.8070 O   0  0  0  0  0
   10.4050    7.2350   13.3950 C   0  0  0  0  0
   10.6390    6.1070   12.4760 C   0  0  0  0  0
    9.3300    5.5920   12.0740 C   0  0  0  0  0
    9.5430   10.1610   12.5730 N   0  0  0  0  0
    9.9050   11.3060   11.6980 C   0  0  0  0  0
   11.3060   11.0720   11.1580 C   0  0  0  0  0
   12.0960   10.2830   11.7420 O   0  0  0  0  0
   10.0170   12.4590   12.6740 C   0  0  0  0  0
   10.3300   11.7530   13.9900 C   0  0  0  0  0
    9.5520   10.5170   14.0030 C   0  0  0  0  0
   11.6370   11.8020   10.1060 N   0  0  0  0  0
   12.9710   11.7630    9.5840 C   0  0  0  0  0
   13.8290   12.5900   10.4300 C   0  0  0  0  0
   13.4200   13.6840   10.8660 O   0  0  0  0  0
   13.0730   12.3230    8.1800 C   0  0  0  0  0
   12.4630   11.5240    7.0680 C   0  0  0  0  0
   12.5940   12.3440    5.7580 C   0  0  0  0  0
   13.1210   10.1340    6.8410 C   0  0  0  0  0
   15.0600   12.1070   10.7080 N   0  0  0  0  0
   15.9520   12.8850   11.5390 C   0  0  0  0  0
   16.4170   14.0850   10.7510 C   0  0  0  0  0
   16.3100   14.0710    9.5140 O   0  0  0  0  0
   17.1330   11.9530   11.7900 C   0  0  0  0  0
   17.0510   10.9130   10.7360 C   0  0  0  0  0
   15.6340   10.8020   10.3150 C   0  0  0  0  0
   16.9570   15.1120   11.4470 N   0  0  0  0  0
   17.4150   16.3620   10.8290 C   0  0  0  0  0
   18.4040   16.1610    9.6700 C   0  0  0  0  0
   18.3820   16.9290    8.7060 O   0  0  0  0  0
   18.0960   17.1150   11.9900 C   0  0  0  0  0
   18.2170   16.1370   13.1090 C   0  0  0  0  0
   17.1290   15.1330   12.9070 C   0  0  0  0  0
   19.2347   15.2142    9.7050 O   0  0  0  0  0
    1.1920   -1.2085   14.9451 H   0  0  0  0  0
    1.4628   -2.4331   16.0805 H   0  0  0  0  0
    3.4068   -1.6562   16.6451 H   0  0  0  0  0
    5.0366   -1.6579   14.8364 H   0  0  0  0  0
    4.0138   -0.7092   13.8034 H   0  0  0  0  0
    4.0644   -3.6044   14.2701 H   0  0  0  0  0
    3.6691   -2.6860   12.8048 H   0  0  0  0  0
    1.4253   -2.6916   13.3187 H   0  0  0  0  0
    1.7845   -3.9084   14.4649 H   0  0  0  0  0
    2.8286    2.7021   16.9480 H   0  0  0  0  0
    4.6691    3.3425   18.2586 H   0  0  0  0  0
    5.6520    3.4259   16.8357 H   0  0  0  0  0
    6.4264    1.3329   18.5526 H   0  0  0  0  0
    5.6028   -0.5837   16.8227 H   0  0  0  0  0
    3.0988    4.2318   12.9074 H   0  0  0  0  0
    1.9090    6.2139   13.6627 H   0  0  0  0  0
    3.4155    6.9739   13.2654 H   0  0  0  0  0
    2.4693    7.1961   15.7319 H   0  0  0  0  0
    4.1731    6.9725   15.4984 H   0  0  0  0  0
    3.7581    5.1123   16.9144 H   0  0  0  0  0
    2.1315    4.9540   16.4206 H   0  0  0  0  0
    7.1721    4.7788   11.5271 H   0  0  0  0  0
    7.0025    5.8236    9.0523 H   0  0  0  0  0
    4.3830    6.4999    8.8381 H   0  0  0  0  0
    3.2439    6.0065   11.0875 H   0  0  0  0  0
    3.6560    4.4499   10.5500 H   0  0  0  0  0
    8.4182    8.2021   13.8043 H   0  0  0  0  0
   10.4115    6.9108   14.4356 H   0  0  0  0  0
   11.1942    7.9830   13.3189 H   0  0  0  0  0
   11.2216    5.3280   12.9677 H   0  0  0  0  0
   11.2047    6.4354   11.6041 H   0  0  0  0  0
    9.3168    5.2909   11.0265 H   0  0  0  0  0
    9.0613    4.6915   12.6262 H   0  0  0  0  0
    9.2027   11.4586   10.8785 H   0  0  0  0  0
    9.1131   13.0664   12.7211 H   0  0  0  0  0
   10.7779   13.1856   12.3891 H   0  0  0  0  0
   10.0683   12.3839   14.8394 H   0  0  0  0  0
   11.3959   11.5402   14.0710 H   0  0  0  0  0
    9.9741    9.7422   14.6431 H   0  0  0  0  0
    8.5559   10.6326   14.4303 H   0  0  0  0  0
   10.9374   12.3974    9.6628 H   0  0  0  0  0
   13.2718   10.7155    9.5661 H   0  0  0  0  0
   14.1395   12.3657    7.9588 H   0  0  0  0  0
   12.5235   13.2641    8.1997 H   0  0  0  0  0
   11.4273   11.3343    7.3497 H   0  0  0  0  0
   12.0698   13.2930    5.8709 H   0  0  0  0  0
   13.6478   12.5318    5.5523 H   0  0  0  0  0
   12.1561   11.7815    4.9334 H   0  0  0  0  0
   14.1748   10.2678    6.5966 H   0  0  0  0  0
   13.0302    9.5378    7.7490 H   0  0  0  0  0
   12.6178    9.6251    6.0189 H   0  0  0  0  0
   15.4908   13.2354   12.4624 H   0  0  0  0  0
   17.0897   11.5144   12.7869 H   0  0  0  0  0
   18.0806   12.4900   11.7472 H   0  0  0  0  0
   17.4067    9.9570   11.1204 H   0  0  0  0  0
   17.6770   11.1862    9.8865 H   0  0  0  0  0
   15.5272   10.6001    9.2492 H   0  0  0  0  0
   15.1220    9.9604   10.7816 H   0  0  0  0  0
   16.5799   16.8959   10.3756 H   0  0  0  0  0
   17.5108   17.9841   12.2904 H   0  0  0  0  0
   19.0740   17.4930   11.6921 H   0  0  0  0  0
   18.1194   16.6322   14.0751 H   0  0  0  0  0
   19.1967   15.6593   13.1083 H   0  0  0  0  0
   17.3799   14.1537   13.3146 H   0  0  0  0  0
   16.2119   15.3954   13.4344 H   0  0  0  0  0
   19.1175   14.7170   10.5178 H   0  0  0  0  0
  1  2  1  0  0  0
  1  7  1  0  0  0
  2  3  1  0  0  0
  2  5  1  0  0  0
  3  4  2  0  0  0
  3  8  1  0  0  0
  5  6  1  0  0  0
  6  7  1  0  0  0
  8  9  1  0  0  0
  8 14  1  0  0  0
  9 10  1  0  0  0
  9 12  1  0  0  0
 10 11  2  0  0  0
 10 15  1  0  0  0
 12 13  1  0  0  0
 13 14  2  0  0  0
 15 16  1  0  0  0
 15 21  1  0  0  0
 16 17  1  0  0  0
 16 19  1  0  0  0
 17 18  2  0  0  0
 17 22  1  0  0  0
 19 20  1  0  0  0
 20 21  1  0  0  0
 22 23  1  0  0  0
 22 28  1  0  0  0
 23 24  1  0  0  0
 23 26  1  0  0  0
 24 25  2  0  0  0
 24 29  1  0  0  0
 26 27  2  0  0  0
 27 28  1  0  0  0
 29 30  1  0  0  0
 29 35  1  0  0  0
 30 31  1  0  0  0
 30 33  1  0  0  0
 31 32  2  0  0  0
 31 36  1  0  0  0
 33 34  1  0  0  0
 34 35  1  0  0  0
 36 37  1  0  0  0
 36 42  1  0  0  0
 37 38  1  0  0  0
 37 40  1  0  0  0
 38 39  2  0  0  0
 38 43  1  0  0  0
 40 41  1  0  0  0
 41 42  1  0  0  0
 43 44  1  0  0  0
 44 45  1  0  0  0
 44 47  1  0  0  0
 45 46  2  0  0  0
 45 51  1  0  0  0
 47 48  1  0  0  0
 48 49  1  0  0  0
 48 50  1  0  0  0
 51 52  1  0  0  0
 51 57  1  0  0  0
 52 53  1  0  0  0
 52 55  1  0  0  0
 53 54  2  0  0  0
 53 58  1  0  0  0
 55 56  1  0  0  0
 56 57  1  0  0  0
 58 59  1  0  0  0
 58 64  1  0  0  0
 59 60  1  0  0  0
 59 62  1  0  0  0
 60 61  2  0  0  0
 62 63  1  0  0  0
 63 64  1  0  0  0
 60 65  1  0  0  0
  1 66  1  0  0  0
  1 67  1  0  0  0
  2 68  1  0  0  0
  5 69  1  0  0  0
  5 70  1  0  0  0
  6 71  1  0  0  0
  6 72  1  0  0  0
  7 73  1  0  0  0
  7 74  1  0  0  0
  9 75  1  0  0  0
 12 76  1  0  0  0
 12 77  1  0  0  0
 13 78  1  0  0  0
 14 79  1  0  0  0
 16 80  1  0  0  0
 19 81  1  0  0  0
 19 82  1  0  0  0
 20 83  1  0  0  0
 20 84  1  0  0  0
 21 85  1  0  0  0
 21 86  1  0  0  0
 23 87  1  0  0  0
 26 88  1  0  0  0
 27 89  1  0  0  0
 28 90  1  0  0  0
 28 91  1  0  0  0
 30 92  1  0  0  0
 33 93  1  0  0  0
 33 94  1  0  0  0
 34 95  1  0  0  0
 34 96  1  0  0  0
 35 97  1  0  0  0
 35 98  1  0  0  0
 37 99  1  0  0  0
 40100  1  0  0  0
 40101  1  0  0  0
 41102  1  0  0  0
 41103  1  0  0  0
 42104  1  0  0  0
 42105  1  0  0  0
 43106  1  0  0  0
 44107  1  0  0  0
 47108  1  0  0  0
 47109  1  0  0  0
 48110  1  0  0  0
 49111  1  0  0  0
 49112  1  0  0  0
 49113  1  0  0  0
 50114  1  0  0  0
 50115  1  0  0  0
 50116  1  0  0  0
 52117  1  0  0  0
 55118  1  0  0  0
 55119  1  0  0  0
 56120  1  0  0  0
 56121  1  0  0  0
 57122  1  0  0  0
 57123  1  0  0  0
 59124  1  0  0  0
 62125  1  0  0  0
 62126  1  0  0  0
 63127  1  0  0  0
 63128  1  0  0  0
 64129  1  0  0  0
 64130  1  0  0  0
 65131  1  0  0  0
M  END
$$$$
