4lm2_ligand
  -I-interpret- 

 22 23  0  0  0  0  0  0  0  0999 V2000
    5.3340   12.2930   48.0430 O   0  0  0  0  0
    4.2710   12.9400   47.3470 C   0  0  0  0  0
    4.4550   12.8250   45.8530 C   0  0  0  0  0
    5.0880   11.6930   45.3360 C   0  0  0  0  0
    5.2640   11.5670   43.9580 C   0  0  0  0  0
    4.8050   12.5800   43.1150 C   0  0  0  0  0
    4.9780   12.4500   41.7980 O   0  0  0  0  0
    4.1540   13.2160   40.8650 C   0  0  0  0  0
    3.9790   14.6500   41.3780 C   0  0  0  0  0
    3.7400   14.6830   42.8160 O   0  0  0  0  0
    4.1670   13.7210   43.6350 C   0  0  0  0  0
    3.9890   13.8530   45.0140 C   0  0  0  0  0
    5.1950   12.3795   48.9889 H   0  0  0  0  0
    4.2659   13.9955   47.6189 H   0  0  0  0  0
    3.3307   12.4621   47.6217 H   0  0  0  0  0
    5.4433   10.9107   46.0067 H   0  0  0  0  0
    5.7550   10.6864   43.5439 H   0  0  0  0  0
    3.1755   12.7435   40.7786 H   0  0  0  0  0
    4.6424   13.2401   39.8908 H   0  0  0  0  0
    3.1177   15.0914   40.8765 H   0  0  0  0  0
    4.8945   15.2035   41.1693 H   0  0  0  0  0
    3.4997   14.7334   45.4307 H   0  0  0  0  0
  1  2  1  0  0  0
  2  3  1  0  0  0
  3  4  4  0  0  0
  3 12  4  0  0  0
  4  5  4  0  0  0
  5  6  4  0  0  0
  6  7  1  0  0  0
  6 11  4  0  0  0
  7  8  1  0  0  0
  8  9  1  0  0  0
  9 10  1  0  0  0
 10 11  1  0  0  0
 11 12  4  0  0  0
  1 13  1  0  0  0
  2 14  1  0  0  0
  2 15  1  0  0  0
  4 16  1  0  0  0
  5 17  1  0  0  0
  8 18  1  0  0  0
  8 19  1  0  0  0
  9 20  1  0  0  0
  9 21  1  0  0  0
 12 22  1  0  0  0
M  END
$$$$
