5vo6_ligand
  -I-interpret- 

 56 59  0  0  0  0  0  0  0  0999 V2000
    3.7060  -17.0300   -5.0420 C   0  0  0  0  0
    2.8990  -16.9330   -6.3550 C   0  0  0  0  0
    2.1860  -15.5200   -6.2450 C   0  0  0  0  0
    1.6780  -15.7170   -4.8130 C   0  0  0  0  0
    2.8960  -16.2050   -4.0300 C   0  0  0  0  0
    3.0990  -14.2910   -6.4740 C   0  0  0  0  0
    1.0180  -15.3530   -7.2300 C   0  0  0  0  0
   -4.1220  -18.7720   -2.2530 C   0  0  0  0  0
   -4.6870  -20.0360   -2.1510 C   0  0  0  0  0
    0.2560  -11.8040   -3.9990 C   0  0  0  0  0
   -2.4970  -19.6250   -3.7980 C   0  0  0  0  0
   -1.1210  -15.3570   -3.5970 C   0  0  0  0  0
   -2.4080  -14.9700   -3.2270 N   0  0  0  0  0
   -2.8720  -13.6870   -3.0860 N   0  0  0  0  0
   -1.9840  -12.7870   -3.3470 C   0  0  0  0  0
   -0.6390  -12.9810   -3.7540 C   0  0  0  0  0
   -0.1790  -14.3080   -3.8830 C   0  0  0  0  0
   -1.1370  -16.7540   -3.6180 C   0  0  0  0  0
   -2.4740  -17.1750   -3.2590 C   0  0  0  0  0
   -3.2200  -16.0440   -3.0380 C   0  0  0  0  0
    1.0960  -14.5500   -4.1810 N   0  0  0  0  0
   -0.1510  -10.6110   -3.5770 N   0  0  0  0  0
    1.3500  -11.9280   -4.5750 O   0  0  0  0  0
   -3.0180  -18.5480   -3.0810 C   0  0  0  0  0
    3.8560  -17.0270   -7.4790 N   0  3  0  0  0
   -4.1650  -21.0940   -2.8730 C   0  0  0  0  0
   -3.0750  -20.8880   -3.6990 C   0  0  0  0  0
    1.9830  -18.1390   -6.5290 C   0  0  0  0  0
    4.7215  -16.6512   -5.1579 H   0  0  0  0  0
    3.8348  -18.0625   -4.7172 H   0  0  0  0  0
    0.8456  -16.4205   -4.8289 H   0  0  0  0  0
    3.4764  -15.3768   -3.6235 H   0  0  0  0  0
    2.6098  -16.7961   -3.1600 H   0  0  0  0  0
    3.4464  -14.2856   -7.5071 H   0  0  0  0  0
    2.5360  -13.3794   -6.2739 H   0  0  0  0  0
    3.9552  -14.3457   -5.8017 H   0  0  0  0  0
    0.4940  -14.4216   -7.0156 H   0  0  0  0  0
    1.4044  -15.3278   -8.2489 H   0  0  0  0  0
    0.3302  -16.1916   -7.1216 H   0  0  0  0  0
   -4.5437  -17.9453   -1.6813 H   0  0  0  0  0
   -5.5458  -20.1954   -1.4990 H   0  0  0  0  0
   -1.6298  -19.4767   -4.4415 H   0  0  0  0  0
   -2.3073  -11.7514   -3.2418 H   0  0  0  0  0
   -0.2977  -17.4060   -3.8600 H   0  0  0  0  0
   -4.2737  -16.0126   -2.7609 H   0  0  0  0  0
    1.7539  -13.8121   -3.9298 H   0  0  0  0  0
    0.4359   -9.7901   -3.7253 H   0  0  0  0  0
   -1.0502  -10.5165   -3.1049 H   0  0  0  0  0
    4.5106  -16.2462   -7.4328 H   0  0  0  0  0
    4.3688  -17.9064   -7.4147 H   0  0  0  0  0
    3.3462  -16.9930   -8.3618 H   0  0  0  0  0
   -4.6106  -22.0854   -2.7914 H   0  0  0  0  0
   -2.6665  -21.7182   -4.2752 H   0  0  0  0  0
    1.4823  -18.0770   -7.4952 H   0  0  0  0  0
    2.5751  -19.0530   -6.4832 H   0  0  0  0  0
    1.2389  -18.1463   -5.7326 H   0  0  0  0  0
  1  2  1  0  0  0
  5  1  1  0  0  0
  3  2  1  0  0  0
  2 25  1  0  0  0
  2 28  1  0  0  0
  4  3  1  0  0  0
  3  6  1  0  0  0
  3  7  1  0  0  0
  4  5  1  0  0  0
 21  4  1  0  0  0
  8  9  4  0  0  0
 24  8  4  0  0  0
  9 26  4  0  0  0
 16 10  1  0  0  0
 10 22  1  0  0  0
 10 23  2  0  0  0
 24 11  4  0  0  0
 11 27  4  0  0  0
 13 12  4  0  0  0
 12 17  4  0  0  0
 18 12  4  0  0  0
 13 14  4  0  0  0
 20 13  4  0  0  0
 14 15  4  0  0  0
 15 16  4  0  0  0
 17 16  4  0  0  0
 17 21  1  0  0  0
 19 18  4  0  0  0
 19 20  4  0  0  0
 19 24  1  0  0  0
 26 27  4  0  0  0
  1 29  1  0  0  0
  1 30  1  0  0  0
  4 31  1  0  0  0
  5 32  1  0  0  0
  5 33  1  0  0  0
  6 34  1  0  0  0
  6 35  1  0  0  0
  6 36  1  0  0  0
  7 37  1  0  0  0
  7 38  1  0  0  0
  7 39  1  0  0  0
  8 40  1  0  0  0
  9 41  1  0  0  0
 11 42  1  0  0  0
 15 43  1  0  0  0
 18 44  1  0  0  0
 20 45  1  0  0  0
 21 46  1  0  0  0
 22 47  1  0  0  0
 22 48  1  0  0  0
 25 49  1  0  0  0
 25 50  1  0  0  0
 25 51  1  0  0  0
 26 52  1  0  0  0
 27 53  1  0  0  0
 28 54  1  0  0  0
 28 55  1  0  0  0
 28 56  1  0  0  0
M  END
$$$$
