3lkz_ligand
  -I-interpret- 

 52 54  0  0  0  0  0  0  0  0999 V2000
   -2.1130    2.5730   -5.1940 N   0  3  0  0  0
   -2.3880    3.8800   -5.8150 C   0  0  0  0  0
   -1.2350    4.2330   -6.7210 C   0  0  0  0  0
   -0.2610    3.5330   -6.7710 O   0  0  0  0  0
   -1.3150    5.3200   -7.4960 O   0  0  0  0  0
   -2.5560    4.9560   -4.7200 C   0  0  0  0  0
   -3.7800    4.6030   -3.8590 C   0  0  0  0  0
   -4.0100    5.6520   -2.7610 C   0  0  0  0  0
   -2.8500    5.6510   -1.8610 N   0  3  0  0  0
   -5.2700    5.3080   -1.9440 C   0  0  0  0  0
   -6.5350    5.5520   -2.8030 C   0  0  0  0  0
   -7.6760    4.8580   -2.2710 O   0  0  0  0  0
   -6.9130    7.0470   -2.8900 C   0  0  0  0  0
   -6.7840    7.5370   -4.2250 O   0  0  0  0  0
   -8.3680    7.1070   -2.3880 C   0  0  0  0  0
   -9.1300    8.0560   -3.1350 O   0  0  0  0  0
   -8.8490    5.6580   -2.5870 C   0  0  0  0  0
   -9.9540    5.2970   -1.6780 N   0  0  0  0  0
  -10.1150    5.6600   -0.3590 C   0  0  0  0  0
  -11.2060    5.1430    0.1200 N   0  0  0  0  0
  -11.8230    4.4220   -0.8440 C   0  0  0  0  0
  -13.0050    3.6390   -0.9210 C   0  0  0  0  0
  -13.8300    3.4980    0.1760 N   0  0  0  0  0
  -13.3130    3.0360   -2.0930 N   0  0  0  0  0
  -12.5290    3.1500   -3.1680 C   0  0  0  0  0
  -11.4100    3.8700   -3.1370 N   0  0  0  0  0
  -11.0200    4.5070   -2.0130 C   0  0  0  0  0
   -2.0033    1.8679   -5.9229 H   0  0  0  0  0
   -1.2554    2.6325   -4.6450 H   0  0  0  0  0
   -2.8905    2.3167   -4.5856 H   0  0  0  0  0
   -3.3097    3.8325   -6.3949 H   0  0  0  0  0
   -2.1503    5.7651   -7.3357 H   0  0  0  0  0
   -2.6996    5.9327   -5.1820 H   0  0  0  0  0
   -1.6632    4.9889   -4.0955 H   0  0  0  0  0
   -3.6045    3.6371   -3.3853 H   0  0  0  0  0
   -4.6600    4.5742   -4.5016 H   0  0  0  0  0
   -4.1416    6.6304   -3.2231 H   0  0  0  0  0
   -2.9906    6.3444   -1.1263 H   0  0  0  0  0
   -2.7467    4.7266   -1.4424 H   0  0  0  0  0
   -2.0096    5.8813   -2.3912 H   0  0  0  0  0
   -5.3087    5.9411   -1.0576 H   0  0  0  0  0
   -5.2323    4.2597   -1.6477 H   0  0  0  0  0
   -6.2820    5.1778   -3.7950 H   0  0  0  0  0
   -6.2552    7.6792   -2.2936 H   0  0  0  0  0
   -7.0248    8.4660   -4.2484 H   0  0  0  0  0
   -8.4721    7.4401   -1.3554 H   0  0  0  0  0
  -10.0306    8.0739   -2.8031 H   0  0  0  0  0
   -9.2362    5.5047   -3.5943 H   0  0  0  0  0
   -9.4256    6.2907    0.2023 H   0  0  0  0  0
  -13.5934    3.9589    1.0546 H   0  0  0  0  0
  -14.6764    2.9329    0.1083 H   0  0  0  0  0
  -12.8115    2.6426   -4.0904 H   0  0  0  0  0
  1  2  1  0  0  0
  2  3  1  0  0  0
  2  6  1  0  0  0
  3  4  2  0  0  0
  3  5  1  0  0  0
  6  7  1  0  0  0
  7  8  1  0  0  0
  8  9  1  0  0  0
  8 10  1  0  0  0
 10 11  1  0  0  0
 11 12  1  0  0  0
 11 13  1  0  0  0
 12 17  1  0  0  0
 13 14  1  0  0  0
 13 15  1  0  0  0
 15 16  1  0  0  0
 15 17  1  0  0  0
 17 18  1  0  0  0
 18 19  4  0  0  0
 18 27  4  0  0  0
 19 20  4  0  0  0
 20 21  4  0  0  0
 21 22  4  0  0  0
 21 27  4  0  0  0
 22 23  1  0  0  0
 22 24  4  0  0  0
 24 25  4  0  0  0
 25 26  4  0  0  0
 26 27  4  0  0  0
  1 28  1  0  0  0
  1 29  1  0  0  0
  1 30  1  0  0  0
  2 31  1  0  0  0
  5 32  1  0  0  0
  6 33  1  0  0  0
  6 34  1  0  0  0
  7 35  1  0  0  0
  7 36  1  0  0  0
  8 37  1  0  0  0
  9 38  1  0  0  0
  9 39  1  0  0  0
  9 40  1  0  0  0
 10 41  1  0  0  0
 10 42  1  0  0  0
 11 43  1  0  0  0
 13 44  1  0  0  0
 14 45  1  0  0  0
 15 46  1  0  0  0
 16 47  1  0  0  0
 17 48  1  0  0  0
 19 49  1  0  0  0
 23 50  1  0  0  0
 23 51  1  0  0  0
 25 52  1  0  0  0
M  END
$$$$
