### 
### Created by X-TOOL on Mon Sep 10 21:13:23 2018
### 

@<TRIPOS>MOLECULE
4qvn_ligand
   53    54     1     0     0
SMALL
GAST_HUCK


@<TRIPOS>ATOM
      1 N1         62.0130 -133.2360   36.1080 N.ar      1 BO2        -0.2509
      2 C2         61.4910 -134.4520   36.3270 C.ar      1 BO2         0.1532
      3 C3         61.5630 -135.4380   35.3450 C.ar      1 BO2         0.0620
      4 N4         62.1860 -135.1560   34.1260 N.ar      1 BO2        -0.2653
      5 C5         62.7270 -133.8850   33.9020 C.ar      1 BO2         0.0462
      6 C6         62.6390 -132.9220   34.8980 C.ar      1 BO2         0.0475
      7 C7         60.8870 -134.7000   37.5540 C.2       1 BO2         0.2349
      8 O8         60.1050 -133.8830   38.0390 O.2       1 BO2        -0.3755
      9 N9         61.2340 -135.8540   38.1470 N.am      1 BO2        -0.2600
     10 C10        60.7270 -136.2210   39.4740 C.3       1 BO2         0.1378
     11 C11        60.0300 -137.5600   39.4530 C.3       1 BO2         0.0213
     12 C12        58.8500 -137.3820   38.7050 C.ar      1 BO2        -0.0385
     13 C13        58.6960 -137.9950   37.4580 C.ar      1 BO2        -0.0601
     14 C14        57.5230 -137.8160   36.7250 C.ar      1 BO2        -0.0686
     15 C15        56.4920 -137.0270   37.2270 C.ar      1 BO2        -0.0687
     16 C16        56.6360 -136.4160   38.4680 C.ar      1 BO2        -0.0686
     17 C17        57.8070 -136.5960   39.2050 C.ar      1 BO2        -0.0601
     18 C18        61.9570 -136.2780   40.3660 C.2       1 BO2         0.1755
     19 O19        63.0760 -136.3930   39.8700 O.2       1 BO2        -0.3969
     20 N20        61.7260 -136.1450   41.6750 N.am      1 BO2        -0.4361
     21 C21        62.8420 -136.1350   42.6320 C.3       1 BO2        -0.2261
     22 C22        62.8940 -134.8250   43.3870 C.3       1 BO2        -0.1585
     23 C23        62.8210 -133.6410   42.4020 C.3       1 BO2        -0.0721
     24 C24        62.5020 -132.3670   43.2030 C.3       1 BO2        -0.0649
     25 C25        64.1370 -133.4880   41.6210 C.3       1 BO2        -0.0649
     26 B26        62.6810 -137.2530   43.6690 B         1 BO2         3.0000
     27 O27        61.4210 -137.1140   44.3530 O.3       1 BO2        -0.8710
     28 O28        62.7390 -138.5320   43.0270 O.3       1 BO2        -0.8710
     29 H          61.1380 -136.4187   35.5256 H         1 BO2         0.0978
     30 H          63.2103 -133.6546   32.9595 H         1 BO2         0.0958
     31 H          63.0530 -131.9329   34.7386 H         1 BO2         0.0941
     32 H          61.8536 -136.4789   37.6721 H         1 BO2         0.1883
     33 H          60.0253 -135.4554   39.8367 H         1 BO2         0.0823
     34 H          59.7867 -137.8784   40.4774 H         1 BO2         0.0474
     35 H          60.6720 -138.3157   38.9768 H         1 BO2         0.0474
     36 H          59.4924 -138.6126   37.0587 H         1 BO2         0.0557
     37 H          57.4136 -138.2943   35.7584 H         1 BO2         0.0599
     38 H          55.5821 -136.8896   36.6540 H         1 BO2         0.0559
     39 H          55.8372 -135.7989   38.8633 H         1 BO2         0.0599
     40 H          57.9093 -136.1220   40.1745 H         1 BO2         0.0557
     41 H          60.7871 -136.0516   42.0064 H         1 BO2         0.1459
     42 H          63.7865 -136.2733   42.0854 H         1 BO2        -0.1822
     43 H          63.8352 -134.7690   43.9536 H         1 BO2        -0.0063
     44 H          62.0435 -134.7722   44.0826 H         1 BO2        -0.0063
     45 H          62.0093 -133.8239   41.6825 H         1 BO2         0.0272
     46 H          62.4452 -131.5080   42.5182 H         1 BO2         0.0232
     47 H          63.2948 -132.1924   43.9452 H         1 BO2         0.0232
     48 H          61.5379 -132.4896   43.7182 H         1 BO2         0.0232
     49 H          64.3393 -134.4117   41.0590 H         1 BO2         0.0232
     50 H          64.9611 -133.2990   42.3246 H         1 BO2         0.0232
     51 H          64.0518 -132.6440   40.9207 H         1 BO2         0.0232
     52 H          61.3387 -137.7998   45.0052 H         1 BO2        -0.1290
     53 H          62.6559 -139.2169   43.6800 H         1 BO2        -0.1290
@<TRIPOS>BOND
     1    1    2 ar 
     2    1    6 ar 
     3    2    3 ar 
     4    2    7 1  
     5    3    4 ar 
     6    4    5 ar 
     7    5    6 ar 
     8    7    8 2  
     9    7    9 am 
    10    9   10 1  
    11   10   11 1  
    12   10   18 1  
    13   11   12 1  
    14   12   13 ar 
    15   12   17 ar 
    16   13   14 ar 
    17   14   15 ar 
    18   15   16 ar 
    19   16   17 ar 
    20   18   19 2  
    21   18   20 am 
    22   20   21 1  
    23   21   22 1  
    24   21   26 1  
    25   22   23 1  
    26   23   24 1  
    27   23   25 1  
    28   26   27 1  
    29   26   28 1  
    30    3   29 1  
    31    5   30 1  
    32    6   31 1  
    33    9   32 1  
    34   10   33 1  
    35   11   34 1  
    36   11   35 1  
    37   13   36 1  
    38   14   37 1  
    39   15   38 1  
    40   16   39 1  
    41   17   40 1  
    42   20   41 1  
    43   21   42 1  
    44   22   43 1  
    45   22   44 1  
    46   23   45 1  
    47   24   46 1  
    48   24   47 1  
    49   24   48 1  
    50   25   49 1  
    51   25   50 1  
    52   25   51 1  
    53   27   52 1  
    54   28   53 1  
@<TRIPOS>SUBSTRUCTURE
     1 BO2         1

