4qvn_ligand
  -I-interpret- 

 53 54  0  0  0  0  0  0  0  0999 V2000
   62.0130 -133.2360   36.1080 N   0  0  0  0  0
   61.4910 -134.4520   36.3270 C   0  0  0  0  0
   61.5630 -135.4380   35.3450 C   0  0  0  0  0
   62.1860 -135.1560   34.1260 N   0  0  0  0  0
   62.7270 -133.8850   33.9020 C   0  0  0  0  0
   62.6390 -132.9220   34.8980 C   0  0  0  0  0
   60.8870 -134.7000   37.5540 C   0  0  0  0  0
   60.1050 -133.8830   38.0390 O   0  0  0  0  0
   61.2340 -135.8540   38.1470 N   0  0  0  0  0
   60.7270 -136.2210   39.4740 C   0  0  0  0  0
   60.0300 -137.5600   39.4530 C   0  0  0  0  0
   58.8500 -137.3820   38.7050 C   0  0  0  0  0
   58.6960 -137.9950   37.4580 C   0  0  0  0  0
   57.5230 -137.8160   36.7250 C   0  0  0  0  0
   56.4920 -137.0270   37.2270 C   0  0  0  0  0
   56.6360 -136.4160   38.4680 C   0  0  0  0  0
   57.8070 -136.5960   39.2050 C   0  0  0  0  0
   61.9570 -136.2780   40.3660 C   0  0  0  0  0
   63.0760 -136.3930   39.8700 O   0  0  0  0  0
   61.7260 -136.1450   41.6750 N   0  0  0  0  0
   62.8420 -136.1350   42.6320 C   0  0  0  0  0
   62.8940 -134.8250   43.3870 C   0  0  0  0  0
   62.8210 -133.6410   42.4020 C   0  0  0  0  0
   62.5020 -132.3670   43.2030 C   0  0  0  0  0
   64.1370 -133.4880   41.6210 C   0  0  0  0  0
   62.6810 -137.2530   43.6690 B   0  0  0  0  0
   61.4210 -137.1140   44.3530 O   0  0  0  0  0
   62.7390 -138.5320   43.0270 O   0  0  0  0  0
   61.1357 -136.4242   35.5266 H   0  0  0  0  0
   63.2130 -133.6533   32.9543 H   0  0  0  0  0
   63.0553 -131.9275   34.7377 H   0  0  0  0  0
   61.8660 -136.4914   37.6626 H   0  0  0  0  0
   59.9881 -135.5019   39.8277 H   0  0  0  0  0
   59.8049 -137.8998   40.4639 H   0  0  0  0  0
   60.6651 -138.3247   39.0058 H   0  0  0  0  0
   59.4968 -138.6160   37.0565 H   0  0  0  0  0
   57.4130 -138.2969   35.7530 H   0  0  0  0  0
   55.5771 -136.8888   36.6508 H   0  0  0  0  0
   55.8328 -135.7955   38.8655 H   0  0  0  0  0
   57.9098 -136.1194   40.1799 H   0  0  0  0  0
   60.7684 -136.0497   42.0130 H   0  0  0  0  0
   63.7554 -136.2781   42.0547 H   0  0  0  0  0
   63.8299 -134.7700   43.9430 H   0  0  0  0  0
   62.0471 -134.7732   44.0713 H   0  0  0  0  0
   62.0365 -133.8212   41.6671 H   0  0  0  0  0
   61.5465 -132.4897   43.7130 H   0  0  0  0  0
   63.2883 -132.1951   43.9381 H   0  0  0  0  0
   62.4460 -131.5166   42.5234 H   0  0  0  0  0
   64.9543 -133.3107   42.3200 H   0  0  0  0  0
   64.3313 -134.4001   41.0567 H   0  0  0  0  0
   64.0548 -132.6452   40.9347 H   0  0  0  0  0
   61.3297 -137.8178   44.9994 H   0  0  0  0  0
   62.6372 -139.2238   43.6847 H   0  0  0  0  0
  1  2  4  0  0  0
  1  6  4  0  0  0
  2  3  4  0  0  0
  2  7  1  0  0  0
  3  4  4  0  0  0
  4  5  4  0  0  0
  5  6  4  0  0  0
  7  8  2  0  0  0
  7  9  1  0  0  0
  9 10  1  0  0  0
 10 11  1  0  0  0
 10 18  1  0  0  0
 11 12  1  0  0  0
 12 13  4  0  0  0
 12 17  4  0  0  0
 13 14  4  0  0  0
 14 15  4  0  0  0
 15 16  4  0  0  0
 16 17  4  0  0  0
 18 19  2  0  0  0
 18 20  1  0  0  0
 20 21  1  0  0  0
 21 22  1  0  0  0
 21 26  1  0  0  0
 22 23  1  0  0  0
 23 24  1  0  0  0
 23 25  1  0  0  0
 26 27  1  0  0  0
 26 28  1  0  0  0
  3 29  1  0  0  0
  5 30  1  0  0  0
  6 31  1  0  0  0
  9 32  1  0  0  0
 10 33  1  0  0  0
 11 34  1  0  0  0
 11 35  1  0  0  0
 13 36  1  0  0  0
 14 37  1  0  0  0
 15 38  1  0  0  0
 16 39  1  0  0  0
 17 40  1  0  0  0
 20 41  1  0  0  0
 21 42  1  0  0  0
 22 43  1  0  0  0
 22 44  1  0  0  0
 23 45  1  0  0  0
 24 46  1  0  0  0
 24 47  1  0  0  0
 24 48  1  0  0  0
 25 49  1  0  0  0
 25 50  1  0  0  0
 25 51  1  0  0  0
 27 52  1  0  0  0
 28 53  1  0  0  0
M  END
$$$$
