5nuu_ligand
  -I-interpret- 

 69 73  0  0  0  0  0  0  0  0999 V2000
  117.8950  126.3780  177.6320 C   0  0  0  0  0
  116.7410  126.9470  176.8300 C   0  0  0  0  0
  116.5260  128.4160  177.0720 C   0  0  0  0  0
  116.1600  128.6040  178.5660 C   0  0  0  0  0
  117.0430  127.9310  179.4370 C   0  0  0  0  0
  117.8720  126.9030  178.9970 C   0  0  0  0  0
  118.7050  126.3300  179.8830 N   0  0  0  0  0
  118.7860  126.7160  181.1640 C   0  0  0  0  0
  119.6810  126.0820  182.0060 C   0  0  0  0  0
  119.7920  126.4650  183.3360 C   0  0  0  0  0
  120.8570  125.6930  184.2910 Cl  0  0  0  0  0
  119.0370  127.5030  183.8290 C   0  0  0  0  0
  118.1490  128.1440  182.9690 C   0  0  0  0  0
  118.0220  127.7460  181.6410 C   0  0  0  0  0
  117.1400  128.3460  180.7650 C   0  0  0  0  0
  116.3670  129.3650  181.2110 N   0  0  0  0  0
  114.9600  129.1620  181.5780 C   0  0  0  0  0
  114.7520  129.6590  183.0230 C   0  0  0  0  0
  113.2340  129.5400  183.2680 C   0  0  0  0  0
  112.8850  128.9780  184.6920 C   0  0  0  0  0
  112.0750  127.6620  184.5070 C   0  0  0  0  0
  111.7590  126.8940  185.7880 C   0  0  0  0  0
  110.7100  127.6090  186.5230 N   0  0  0  0  0
  109.9870  127.0400  187.5180 C   0  0  0  0  0
  110.1550  125.8760  187.9150 O   0  0  0  0  0
  108.9120  128.0100  188.1070 C   0  0  0  0  0
  108.2900  128.7020  186.9520 N   0  3  0  0  0
  107.9050  127.3150  189.0480 C   0  0  0  0  0
  106.5530  128.1320  189.2410 C   0  0  0  0  0
  106.3300  129.4770  189.3910 C   0  0  0  0  0
  107.1300  130.5840  189.3900 C   0  0  0  0  0
  106.6010  131.8860  189.5560 C   0  0  0  0  0
  105.2180  132.0520  189.7120 C   0  0  0  0  0
  104.4280  130.8860  189.7070 C   0  0  0  0  0
  104.9860  129.6510  189.5510 C   0  0  0  0  0
  104.4230  128.4310  189.5180 N   0  0  0  0  0
  105.3720  127.5060  189.3280 C   0  0  0  0  0
  118.6360  125.6777  177.2464 H   0  0  0  0  0
  116.1308  126.3535  176.1491 H   0  0  0  0  0
  116.6124  129.2080  176.3281 H   0  0  0  0  0
  115.3098  129.1941  178.9081 H   0  0  0  0  0
  120.3047  125.2746  181.6224 H   0  0  0  0  0
  119.1314  127.8167  184.8686 H   0  0  0  0  0
  117.5438  128.9705  183.3415 H   0  0  0  0  0
  116.7728  130.2971  181.2940 H   0  0  0  0  0
  114.7074  128.1039  181.5094 H   0  0  0  0  0
  114.3150  129.7181  180.8977 H   0  0  0  0  0
  115.1045  130.6820  183.1542 H   0  0  0  0  0
  115.3253  129.0713  183.7400 H   0  0  0  0  0
  112.8317  128.8466  182.5294 H   0  0  0  0  0
  112.8058  130.5394  183.1912 H   0  0  0  0  0
  112.2962  129.7064  185.2495 H   0  0  0  0  0
  113.7988  128.7811  185.2526 H   0  0  0  0  0
  112.6919  127.0030  183.8960 H   0  0  0  0  0
  111.1165  127.9477  184.0738 H   0  0  0  0  0
  112.6553  126.8192  186.4038 H   0  0  0  0  0
  111.4166  125.8892  185.5407 H   0  0  0  0  0
  110.5159  128.5788  186.2738 H   0  0  0  0  0
  109.3770  128.7415  188.7679 H   0  0  0  0  0
  107.5775  129.3496  187.2886 H   0  0  0  0  0
  109.0059  129.2181  186.4406 H   0  0  0  0  0
  107.8603  128.0125  186.3352 H   0  0  0  0  0
  108.3773  127.2254  190.0263 H   0  0  0  0  0
  107.6476  126.3543  188.6020 H   0  0  0  0  0
  108.2050  130.4613  189.2578 H   0  0  0  0  0
  107.2630  132.7519  189.5625 H   0  0  0  0  0
  104.7735  133.0400  189.8319 H   0  0  0  0  0
  103.3484  130.9722  189.8303 H   0  0  0  0  0
  105.2115  126.4303  189.2565 H   0  0  0  0  0
  1  2  4  0  0  0
  1  6  4  0  0  0
  2  3  4  0  0  0
  3  4  4  0  0  0
  4  5  4  0  0  0
  5  6  4  0  0  0
  5 15  4  0  0  0
  6  7  4  0  0  0
  7  8  4  0  0  0
  8  9  4  0  0  0
  8 14  4  0  0  0
  9 10  4  0  0  0
 10 11  1  0  0  0
 10 12  4  0  0  0
 12 13  4  0  0  0
 13 14  4  0  0  0
 14 15  4  0  0  0
 15 16  1  0  0  0
 16 17  1  0  0  0
 17 18  1  0  0  0
 18 19  1  0  0  0
 19 20  1  0  0  0
 20 21  1  0  0  0
 21 22  1  0  0  0
 22 23  1  0  0  0
 23 24  1  0  0  0
 24 25  2  0  0  0
 24 26  1  0  0  0
 26 27  1  0  0  0
 26 28  1  0  0  0
 28 29  1  0  0  0
 29 30  4  0  0  0
 29 37  4  0  0  0
 30 31  4  0  0  0
 30 35  4  0  0  0
 31 32  4  0  0  0
 32 33  4  0  0  0
 33 34  4  0  0  0
 34 35  4  0  0  0
 35 36  4  0  0  0
 36 37  4  0  0  0
  1 38  1  0  0  0
  2 39  1  0  0  0
  3 40  1  0  0  0
  4 41  1  0  0  0
  9 42  1  0  0  0
 12 43  1  0  0  0
 13 44  1  0  0  0
 16 45  1  0  0  0
 17 46  1  0  0  0
 17 47  1  0  0  0
 18 48  1  0  0  0
 18 49  1  0  0  0
 19 50  1  0  0  0
 19 51  1  0  0  0
 20 52  1  0  0  0
 20 53  1  0  0  0
 21 54  1  0  0  0
 21 55  1  0  0  0
 22 56  1  0  0  0
 22 57  1  0  0  0
 23 58  1  0  0  0
 26 59  1  0  0  0
 27 60  1  0  0  0
 27 61  1  0  0  0
 27 62  1  0  0  0
 28 63  1  0  0  0
 28 64  1  0  0  0
 31 65  1  0  0  0
 32 66  1  0  0  0
 33 67  1  0  0  0
 34 68  1  0  0  0
 37 69  1  0  0  0
M  END
$$$$
