4ycv_ligand
  -I-interpret- 

 41 43  0  0  0  0  0  0  0  0999 V2000
   16.0940  -10.6280   63.3360 O   0  0  0  0  0
   15.6120  -11.7490   63.3340 C   0  0  0  0  0
   15.4970  -12.5810   64.5760 C   0  0  0  0  0
   14.7030  -13.8240   64.5090 C   0  0  0  0  0
   14.5950  -14.6120   65.6480 C   0  0  0  0  0
   15.2200  -14.2440   66.8420 C   0  0  0  0  0
   15.0910  -15.0410   67.9380 O   0  0  0  0  0
   15.9800  -13.0820   66.9540 C   0  0  0  0  0
   16.1450  -12.2330   65.8660 C   0  0  0  0  0
   16.8880  -11.0980   65.9790 O   0  0  0  0  0
   15.1160  -12.3240   62.0960 O   0  0  0  0  0
   13.8650  -12.9770   62.3150 C   0  0  0  0  0
   14.0340  -14.2080   63.2080 C   0  0  0  0  0
   13.3010  -13.3790   60.9590 C   0  0  0  0  0
   13.0940  -12.1100   60.1330 C   0  0  0  0  0
   11.9730  -11.3680   60.6330 O   0  0  0  0  0
   10.7510  -12.1050   60.5820 C   0  0  0  0  0
    9.6480  -11.3210   61.2730 C   0  0  0  0  0
   10.4000  -12.3310   59.1210 C   0  0  0  0  0
   11.5150  -13.1400   58.4750 C   0  0  0  0  0
   12.8620  -12.4520   58.6650 C   0  0  0  0  0
   14.0129  -15.5328   65.6094 H   0  0  0  0  0
   15.5744  -14.6546   68.6719 H   0  0  0  0  0
   16.4507  -12.8357   67.9058 H   0  0  0  0  0
   17.2304  -11.0287   66.8732 H   0  0  0  0  0
   13.1814  -12.2988   62.8258 H   0  0  0  0  0
   13.0520  -14.6293   63.4233 H   0  0  0  0  0
   14.6542  -14.9404   62.6912 H   0  0  0  0  0
   12.3530  -13.9015   61.0873 H   0  0  0  0  0
   13.9929  -14.0494   60.4491 H   0  0  0  0  0
   13.9956  -11.5031   60.2160 H   0  0  0  0  0
   10.8606  -13.0619   61.0923 H   0  0  0  0  0
    9.9231  -11.1495   62.3137 H   0  0  0  0  0
    9.5137  -10.3639   60.7689 H   0  0  0  0  0
    8.7187  -11.8891   61.2303 H   0  0  0  0  0
   10.2929  -11.3731   58.6120 H   0  0  0  0  0
    9.4565  -12.8715   59.0447 H   0  0  0  0  0
   11.3126  -13.2282   57.4076 H   0  0  0  0  0
   11.5531  -14.1233   58.9438 H   0  0  0  0  0
   13.6509  -13.1267   58.3327 H   0  0  0  0  0
   12.8704  -11.5298   58.0840 H   0  0  0  0  0
  1  2  2  0  0  0
  2  3  1  0  0  0
  2 11  1  0  0  0
  3  4  4  0  0  0
  3  9  4  0  0  0
  4  5  4  0  0  0
  4 13  1  0  0  0
  5  6  4  0  0  0
  6  7  1  0  0  0
  6  8  4  0  0  0
  8  9  4  0  0  0
  9 10  1  0  0  0
 11 12  1  0  0  0
 12 13  1  0  0  0
 12 14  1  0  0  0
 14 15  1  0  0  0
 15 16  1  0  0  0
 15 21  1  0  0  0
 16 17  1  0  0  0
 17 18  1  0  0  0
 17 19  1  0  0  0
 19 20  1  0  0  0
 20 21  1  0  0  0
  5 22  1  0  0  0
  7 23  1  0  0  0
  8 24  1  0  0  0
 10 25  1  0  0  0
 12 26  1  0  0  0
 13 27  1  0  0  0
 13 28  1  0  0  0
 14 29  1  0  0  0
 14 30  1  0  0  0
 15 31  1  0  0  0
 17 32  1  0  0  0
 18 33  1  0  0  0
 18 34  1  0  0  0
 18 35  1  0  0  0
 19 36  1  0  0  0
 19 37  1  0  0  0
 20 38  1  0  0  0
 20 39  1  0  0  0
 21 40  1  0  0  0
 21 41  1  0  0  0
M  END
$$$$
