3ske_ligand
  -I-interpret- 

 49 53  0  0  0  0  0  0  0  0999 V2000
   25.0430   43.0600   48.2020 C   0  0  0  0  0
   25.7560   42.1080   47.4560 C   0  0  0  0  0
   25.8550   42.1990   46.0740 C   0  0  0  0  0
   24.3970   44.1490   47.5740 C   0  0  0  0  0
   24.4790   44.2550   46.1740 C   0  0  0  0  0
   25.2030   43.2830   45.4620 C   0  0  0  0  0
   25.1170   43.6210   44.1430 N   0  0  0  0  0
   24.3820   44.7640   43.9420 C   0  0  0  0  0
   23.9700   45.1650   45.2100 C   0  0  0  0  0
   24.1360   45.3220   42.6090 C   0  0  0  0  0
   24.0140   44.6840   41.5810 O   0  0  0  0  0
   23.8830   46.6450   42.6070 O   0  0  0  0  0
   25.7230   42.8710   43.0650 C   0  0  0  0  0
   26.9830   43.4960   42.5530 C   0  0  0  0  0
   24.9910   42.8640   49.6830 C   0  0  0  0  0
   27.5400   42.8900   41.4280 C   0  0  0  0  0
   28.7030   43.4120   40.9010 C   0  0  0  0  0
   29.3590   44.4710   41.4310 N   0  0  0  0  0
   28.8350   45.0360   42.5490 C   0  0  0  0  0
   27.6510   44.5820   43.1370 C   0  0  0  0  0
   23.1910   46.3090   45.4330 N   0  0  0  0  0
   21.8730   46.2930   44.8800 C   0  0  0  0  0
   21.1600   47.4710   45.0010 N   0  0  0  0  0
   23.8400   47.3680   46.0900 C   0  0  0  0  0
   24.9800   47.3180   46.5450 O   0  0  0  0  0
   21.3720   45.2880   44.3400 O   0  0  0  0  0
   23.3810   49.7890   46.6620 C   0  0  0  0  0
   23.0220   48.5760   46.1250 C   0  0  0  0  0
   21.7130   48.6050   45.5870 C   0  0  0  0  0
   21.1090   49.8300   45.7190 C   0  0  0  0  0
   22.1390   50.9640   46.5040 S   0  0  0  0  0
   24.4840   41.6520   50.0050 F   0  0  0  0  0
   26.2170   42.9170   50.2440 F   0  0  0  0  0
   24.2690   43.7760   50.3610 F   0  0  0  0  0
   29.5120   46.1120   43.1280 N   0  0  0  0  0
   26.2420   41.2802   47.9725 H   0  0  0  0  0
   26.4118   41.4648   45.4917 H   0  0  0  0  0
   23.8494   44.8875   48.1595 H   0  0  0  0  0
   24.0246   46.9981   43.4884 H   0  0  0  0  0
   25.0099   42.8390   42.2412 H   0  0  0  0  0
   25.9752   41.8826   43.4492 H   0  0  0  0  0
   27.0656   42.0203   40.9734 H   0  0  0  0  0
   29.1173   42.9454   40.0073 H   0  0  0  0  0
   27.2548   45.0625   44.0316 H   0  0  0  0  0
   20.2026   47.5098   44.6512 H   0  0  0  0  0
   24.3441   49.9830   47.1342 H   0  0  0  0  0
   20.1016   50.0569   45.3700 H   0  0  0  0  0
   30.3774   46.4542   42.7105 H   0  0  0  0  0
   29.1409   46.5554   43.9683 H   0  0  0  0  0
  1  2  4  0  0  0
  1  4  4  0  0  0
  1 15  1  0  0  0
  2  3  4  0  0  0
  3  6  4  0  0  0
  4  5  4  0  0  0
  5  6  4  0  0  0
  5  9  4  0  0  0
  6  7  4  0  0  0
  7  8  4  0  0  0
  7 13  1  0  0  0
  8  9  4  0  0  0
  8 10  1  0  0  0
  9 21  1  0  0  0
 10 11  2  0  0  0
 10 12  1  0  0  0
 13 14  1  0  0  0
 14 16  4  0  0  0
 14 20  4  0  0  0
 15 32  1  0  0  0
 15 33  1  0  0  0
 15 34  1  0  0  0
 16 17  4  0  0  0
 17 18  4  0  0  0
 18 19  4  0  0  0
 19 20  4  0  0  0
 19 35  1  0  0  0
 21 22  1  0  0  0
 21 24  1  0  0  0
 22 23  1  0  0  0
 22 26  2  0  0  0
 23 29  1  0  0  0
 24 25  2  0  0  0
 24 28  1  0  0  0
 28 27  4  0  0  0
 27 31  4  0  0  0
 28 29  4  0  0  0
 29 30  4  0  0  0
 30 31  4  0  0  0
  2 36  1  0  0  0
  3 37  1  0  0  0
  4 38  1  0  0  0
 12 39  1  0  0  0
 13 40  1  0  0  0
 13 41  1  0  0  0
 16 42  1  0  0  0
 17 43  1  0  0  0
 20 44  1  0  0  0
 23 45  1  0  0  0
 27 46  1  0  0  0
 30 47  1  0  0  0
 35 48  1  0  0  0
 35 49  1  0  0  0
M  END
$$$$
