2qv7_ligand
  -I-interpret- 

 42 44  0  0  0  0  0  0  0  0999 V2000
   70.4880   42.0690   27.0210 P   0  0  0  0  0
   70.8080   43.5390   27.1680 O   0  0  0  0  0
   70.6270   41.5660   25.6060 O   0  0  0  0  0
   71.1460   41.1530   28.0250 O   0  0  0  0  0
   67.9850   40.7810   27.7640 P   0  0  0  0  0
   68.7400   39.5050   27.5200 O   0  0  0  0  0
   66.6410   40.9810   27.1110 O   0  0  0  0  0
   68.9060   42.0640   27.3840 O   0  0  0  0  0
   67.7130   40.9590   29.3380 O   0  0  0  0  0
   68.7080   40.7000   30.3260 C   0  0  0  0  0
   68.0500   40.2100   31.6140 C   0  0  0  0  0
   67.5430   41.3110   32.3770 O   0  0  0  0  0
   66.8570   39.2950   31.3610 C   0  0  0  0  0
   67.2400   37.9170   31.4470 O   0  0  0  0  0
   65.8590   39.6420   32.4460 C   0  0  0  0  0
   65.7960   38.5660   33.3790 O   0  0  0  0  0
   66.4010   40.8880   33.1350 C   0  0  0  0  0
   65.4110   41.9940   33.2010 N   0  0  0  0  0
   64.1820   42.0220   32.6460 C   0  0  0  0  0
   63.5550   43.1980   32.8950 N   0  0  0  0  0
   64.3920   43.9540   33.6230 C   0  0  0  0  0
   64.3600   45.3070   34.2210 C   0  0  0  0  0
   63.2700   46.0990   34.0770 N   0  0  0  0  0
   65.4530   45.7240   34.9120 N   0  0  0  0  0
   66.5440   44.9430   35.0540 C   0  0  0  0  0
   66.6380   43.7030   34.5330 N   0  0  0  0  0
   65.6150   43.1590   33.8240 C   0  0  0  0  0
   70.7019   43.7982   28.0863 H   0  0  0  0  0
   71.0319   41.5128   28.9077 H   0  0  0  0  0
   66.2888   41.8380   27.3622 H   0  0  0  0  0
   69.2574   41.6188   30.5311 H   0  0  0  0  0
   69.3888   39.9330   29.9568 H   0  0  0  0  0
   68.8331   39.6668   32.1430 H   0  0  0  0  0
   66.4429   39.4354   30.3625 H   0  0  0  0  0
   66.4736   37.3623   31.2844 H   0  0  0  0  0
   64.8602   39.8129   32.0443 H   0  0  0  0  0
   65.1647   38.7796   34.0700 H   0  0  0  0  0
   66.6502   40.6438   34.1677 H   0  0  0  0  0
   63.7484   41.2039   32.0709 H   0  0  0  0  0
   62.4618   45.7640   33.5526 H   0  0  0  0  0
   63.2577   47.0302   34.4930 H   0  0  0  0  0
   67.3911   45.3338   35.6177 H   0  0  0  0  0
  1  2  1  0  0  0
  1  3  2  0  0  0
  1  4  1  0  0  0
  8  1  1  0  0  0
  5  6  2  0  0  0
  5  7  1  0  0  0
  5  8  1  0  0  0
  5  9  1  0  0  0
  9 10  1  0  0  0
 10 11  1  0  0  0
 11 12  1  0  0  0
 11 13  1  0  0  0
 12 17  1  0  0  0
 13 14  1  0  0  0
 13 15  1  0  0  0
 15 16  1  0  0  0
 15 17  1  0  0  0
 17 18  1  0  0  0
 18 19  4  0  0  0
 18 27  4  0  0  0
 19 20  4  0  0  0
 20 21  4  0  0  0
 21 22  4  0  0  0
 21 27  4  0  0  0
 22 23  1  0  0  0
 22 24  4  0  0  0
 24 25  4  0  0  0
 25 26  4  0  0  0
 26 27  4  0  0  0
  2 28  1  0  0  0
  4 29  1  0  0  0
  7 30  1  0  0  0
 10 31  1  0  0  0
 10 32  1  0  0  0
 11 33  1  0  0  0
 13 34  1  0  0  0
 14 35  1  0  0  0
 15 36  1  0  0  0
 16 37  1  0  0  0
 17 38  1  0  0  0
 19 39  1  0  0  0
 23 40  1  0  0  0
 23 41  1  0  0  0
 25 42  1  0  0  0
M  END
$$$$
