### 
### Created by X-TOOL on Mon Sep 10 21:12:58 2018
### 

@<TRIPOS>MOLECULE
2qv7_ligand
   39    41     1     0     0
SMALL
GAST_HUCK


@<TRIPOS>ATOM
      1 PB         70.4880   42.0690   27.0210 P.3       1 ADP         0.2069
      2 O1B        70.8080   43.5390   27.1680 O.co2     1 ADP        -0.5891
      3 O2B        70.6270   41.5660   25.6060 O.co2     1 ADP        -0.5891
      4 O3B        71.1460   41.1530   28.0250 O.co2     1 ADP        -0.5891
      5 PA         67.9850   40.7810   27.7640 P.3       1 ADP         0.3276
      6 O1A        68.7400   39.5050   27.5200 O.co2     1 ADP        -0.5556
      7 O2A        66.6410   40.9810   27.1110 O.co2     1 ADP        -0.5556
      8 O3A        68.9060   42.0640   27.3840 O.3       1 ADP        -0.1548
      9 O5'        67.7130   40.9590   29.3380 O.3       1 ADP        -0.2436
     10 C5'        68.7080   40.7000   30.3260 C.3       1 ADP         0.1132
     11 C4'        68.0500   40.2100   31.6140 C.3       1 ADP         0.1189
     12 O4'        67.5430   41.3110   32.3770 O.3       1 ADP        -0.3364
     13 C3'        66.8570   39.2950   31.3610 C.3       1 ADP         0.1149
     14 O3'        67.2400   37.9170   31.4470 O.3       1 ADP        -0.3864
     15 C2'        65.8590   39.6420   32.4460 C.3       1 ADP         0.1385
     16 O2'        65.7960   38.5660   33.3790 O.3       1 ADP        -0.3836
     17 C1'        66.4010   40.8880   33.1350 C.3       1 ADP         0.2010
     18 N9         65.4110   41.9940   33.2010 N.pl3     1 ADP        -0.1919
     19 C8         64.1820   42.0220   32.6460 C.2       1 ADP         0.1123
     20 N7         63.5550   43.1980   32.8950 N.2       1 ADP        -0.2958
     21 C5         64.3920   43.9540   33.6230 C.ar      1 ADP         0.1045
     22 C6         64.3600   45.3070   34.2210 C.ar      1 ADP         0.1298
     23 N6         63.2700   46.0990   34.0770 N.pl3     1 ADP        -0.3152
     24 N1         65.4530   45.7240   34.9120 N.ar      1 ADP        -0.2698
     25 C2         66.5440   44.9430   35.0540 C.ar      1 ADP         0.0533
     26 N3         66.6380   43.7030   34.5330 N.ar      1 ADP        -0.2714
     27 C4         65.6150   43.1590   33.8240 C.ar      1 ADP         0.1613
     28 H1         69.2668   41.6249   30.5315 H         1 ADP         0.0648
     29 H2         69.3989   39.9292   29.9539 H         1 ADP         0.0648
     30 H3         68.8047   39.6676   32.2024 H         1 ADP         0.0651
     31 H4         66.4278   39.4910   30.3674 H         1 ADP         0.0648
     32 H5         67.5832   37.7384   32.3147 H         1 ADP         0.2100
     33 H6         64.8638   39.8336   32.0185 H         1 ADP         0.0676
     34 H7         65.5207   37.7751   32.9305 H         1 ADP         0.2101
     35 H8         66.7068   40.6298   34.1596 H         1 ADP         0.0996
     36 H9         63.7488   41.2046   32.0714 H         1 ADP         0.1349
     37 H10        63.2575   47.0393   34.4971 H         1 ADP         0.1820
     38 H11        62.4539   45.7607   33.5474 H         1 ADP         0.1820
     39 H12        67.3865   45.3316   35.6146 H         1 ADP         0.0996
@<TRIPOS>BOND
     1    1    2 ar 
     2    1    3 ar 
     3    1    4 ar 
     4    8    1 1  
     5    5    6 ar 
     6    5    7 ar 
     7    5    8 1  
     8    5    9 1  
     9    9   10 1  
    10   10   11 1  
    11   11   12 1  
    12   11   13 1  
    13   12   17 1  
    14   13   14 1  
    15   13   15 1  
    16   15   16 1  
    17   15   17 1  
    18   17   18 1  
    19   18   19 1  
    20   18   27 1  
    21   19   20 2  
    22   20   21 1  
    23   21   22 ar 
    24   21   27 ar 
    25   22   23 1  
    26   22   24 ar 
    27   24   25 ar 
    28   25   26 ar 
    29   26   27 ar 
    30   10   28 1  
    31   10   29 1  
    32   11   30 1  
    33   13   31 1  
    34   14   32 1  
    35   15   33 1  
    36   16   34 1  
    37   17   35 1  
    38   19   36 1  
    39   23   37 1  
    40   23   38 1  
    41   25   39 1  
@<TRIPOS>SUBSTRUCTURE
     1 ADP         1

