1oit_ligand
  -I-interpret- 

 40 43  0  0  0  0  0  0  0  0999 V2000
    8.7010  -11.7790   10.8180 C   0  0  0  0  0
   14.2760   -8.0000   10.5420 N   0  0  0  0  0
   13.6440   -8.7730    9.6490 C   0  0  0  0  0
   15.0850   -7.0060   10.2360 C   0  0  0  0  0
   15.3610   -6.6730    8.9220 C   0  0  0  0  0
   14.7240   -7.4570    7.9590 C   0  0  0  0  0
   13.8620   -8.5060    8.3010 C   0  0  0  0  0
   13.8370   -9.4040   13.9460 C   0  0  0  0  0
   13.4260   -9.0330   12.6760 C   0  0  0  0  0
   14.2300   -8.0450   11.8910 C   0  0  0  0  0
   15.0280   -7.0750   12.3850 C   0  0  0  0  0
   13.0600  -10.3220   14.6380 C   0  0  0  0  0
    9.7240  -10.8810   11.1420 C   0  0  0  0  0
   11.5570  -10.4680   12.8310 C   0  0  0  0  0
   12.3030   -9.5790   12.1380 N   0  0  0  0  0
    9.8970   -9.7540   10.3420 C   0  0  0  0  0
    9.1070   -9.5620    9.2060 C   0  0  0  0  0
    8.1190  -10.4800    8.8680 C   0  0  0  0  0
    6.0810   -9.4490    7.9890 O   0  0  0  0  0
    7.1980  -10.2430    7.5750 S   0  0  0  0  0
    6.7240  -11.4980    7.0520 O   0  0  0  0  0
    8.0040   -9.4540    6.4390 N   0  0  0  0  0
    7.9130  -11.5920    9.6840 C   0  0  0  0  0
   10.4440  -11.0810   12.3350 N   0  0  0  0  0
   11.9590  -10.8300   14.0680 N   0  0  0  0  0
   15.5600   -6.4310   11.4210 N   0  0  0  0  0
    8.5176  -12.6384   11.4628 H   0  0  0  0  0
   12.9841   -9.5804    9.9663 H   0  0  0  0  0
   16.0301   -5.8544    8.6569 H   0  0  0  0  0
   14.9036   -7.2455    6.9049 H   0  0  0  0  0
   13.3729   -9.0999    7.5289 H   0  0  0  0  0
   14.7424   -8.9878   14.3877 H   0  0  0  0  0
   15.1923   -6.8733   13.4435 H   0  0  0  0  0
   13.3450  -10.6295   15.6441 H   0  0  0  0  0
   10.6549   -9.0159   10.6045 H   0  0  0  0  0
    9.2666   -8.6847    8.5790 H   0  0  0  0  0
    8.1114   -9.8644    5.5114 H   0  0  0  0  0
    8.4102   -8.5408    6.6428 H   0  0  0  0  0
    7.1359  -12.3146    9.4349 H   0  0  0  0  0
   10.0664  -11.8144   12.9350 H   0  0  0  0  0
 13  1  4  0  0  0
  1 23  4  0  0  0
  2  3  4  0  0  0
  2  4  4  0  0  0
 10  2  4  0  0  0
  3  7  4  0  0  0
  4  5  4  0  0  0
  5  6  4  0  0  0
  7  6  4  0  0  0
  9  8  4  0  0  0
  9 10  1  0  0  0
 10 11  4  0  0  0
  8 12  4  0  0  0
 13 16  4  0  0  0
 24 13  1  0  0  0
 15 14  4  0  0  0
 14 24  1  0  0  0
 14 25  4  0  0  0
 15  9  4  0  0  0
 16 17  4  0  0  0
 17 18  4  0  0  0
 18 20  1  0  0  0
 18 23  4  0  0  0
 20 21  2  0  0  0
 20 22  1  0  0  0
 25 12  4  0  0  0
  4 26  4  0  0  0
 26 11  4  0  0  0
 20 19  2  0  0  0
  1 27  1  0  0  0
  3 28  1  0  0  0
  5 29  1  0  0  0
  6 30  1  0  0  0
  7 31  1  0  0  0
  8 32  1  0  0  0
 11 33  1  0  0  0
 12 34  1  0  0  0
 16 35  1  0  0  0
 17 36  1  0  0  0
 22 37  1  0  0  0
 22 38  1  0  0  0
 23 39  1  0  0  0
 24 40  1  0  0  0
M  END
$$$$
