### 
### Created by X-TOOL on Mon Aug  2 16:17:08 2021
### 

@<TRIPOS>MOLECULE
6r8i_ligand
  263   271     1     0     0
SMALL
GAST_HUCK


@<TRIPOS>ATOM
      1 N          20.8940   35.2930   38.7680 N.4       1 SER         0.2396
      2 CA         22.1230   35.3110   37.9820 C.3       1 SER         0.0885
      3 C          23.3460   35.4890   38.8730 C.2       1 SER         0.2290
      4 O          23.2720   36.1320   39.9210 O.2       1 SER        -0.3906
      5 CB         22.0770   36.4310   36.9400 C.3       1 SER         0.1041
      6 OG         21.5970   37.6370   37.5100 O.3       1 SER        -0.3870
      7 N          24.4650   34.9100   38.4560 N.am      1 SER        -0.2609
      8 CA         25.7300   35.2230   39.0960 C.3       1 SER         0.1315
      9 C          26.3220   36.4890   38.4810 C.2       1 SER         0.2064
     10 O          26.1410   36.7510   37.2890 O.2       1 SER        -0.3942
     11 CB         26.7170   34.0700   38.9390 C.3       1 SER        -0.0101
     12 CG         26.6440   32.9080   39.9310 C.3       1 SER        -0.0425
     13 CD1        27.9900   32.1980   40.0210 C.3       1 SER        -0.0625
     14 CD2        26.1930   33.3900   41.3010 C.3       1 SER        -0.0625
     15 N          27.0220   37.3000   39.2780 N.am      1 SER        -0.2498
     16 CA         27.6920   38.4850   38.7180 C.3       1 SER         0.1338
     17 C          28.6970   38.1150   37.6340 C.2       1 SER         0.2042
     18 O          28.6160   38.5860   36.4930 O.2       1 SER        -0.3944
     19 CB         28.3740   39.1160   39.9420 C.3       1 SER        -0.0104
     20 CG         27.6230   38.5770   41.1220 C.3       1 SER        -0.0281
     21 CD         27.1640   37.2100   40.7410 C.3       1 SER         0.0369
     22 N          29.6310   37.2400   37.9940 N.am      1 SER        -0.2619
     23 CA         30.6990   36.7520   37.1330 C.3       1 SER         0.1404
     24 C          30.7650   35.2420   37.2950 C.2       1 SER         0.2060
     25 O          30.2070   34.6750   38.2400 O.2       1 SER        -0.3942
     26 CB         32.0400   37.3510   37.5460 C.3       1 SER         0.0214
     27 CG         32.2130   37.3260   39.0200 C.ar      1 SER        -0.0386
     28 CD1        31.8940   38.4390   39.7770 C.ar      1 SER        -0.0601
     29 CD2        32.5640   36.1530   39.6650 C.ar      1 SER        -0.0601
     30 CE1        31.9940   38.4120   41.1390 C.ar      1 SER        -0.0686
     31 CE2        32.6520   36.1140   41.0290 C.ar      1 SER        -0.0686
     32 CZ         32.3540   37.2480   41.7640 C.ar      1 SER        -0.0687
     33 N          31.5180   34.5890   36.4170 N.am      1 SER        -0.2612
     34 CA         31.6540   33.1460   36.5570 C.3       1 SER         0.1565
     35 C          32.9300   32.7360   37.2790 C.2       1 SER         0.2066
     36 O          32.9080   31.8120   38.1010 O.2       1 SER        -0.3943
     37 CB         31.6190   32.4750   35.1860 C.3       1 SER         0.0924
     38 OG1        30.3920   32.7980   34.5200 O.3       1 SER        -0.3874
     39 CG2        31.7260   30.9800   35.3390 C.3       1 SER        -0.0346
     40 N          34.0450   33.3950   36.9870 N.am      1 SER        -0.2619
     41 CA         35.3500   32.8920   37.3770 C.3       1 SER         0.1404
     42 C          35.9680   33.7750   38.4460 C.2       1 SER         0.2060
     43 O          36.2570   34.9550   38.2030 O.2       1 SER        -0.3942
     44 CB         36.2680   32.7810   36.1640 C.3       1 SER         0.0214
     45 CG         35.8040   31.7490   35.1790 C.ar      1 SER        -0.0386
     46 CD1        35.8420   30.4150   35.5140 C.ar      1 SER        -0.0601
     47 CD2        35.2720   32.1240   33.9520 C.ar      1 SER        -0.0601
     48 CE1        35.3840   29.4540   34.6190 C.ar      1 SER        -0.0686
     49 CE2        34.8310   31.1760   33.0550 C.ar      1 SER        -0.0686
     50 CZ         34.8920   29.8430   33.3880 C.ar      1 SER        -0.0687
     51 N          36.1650   33.1850   39.6160 N.am      1 SER        -0.2636
     52 CA         37.0040   33.7760   40.6350 C.3       1 SER         0.1310
     53 C          38.4490   33.8410   40.1520 C.2       1 SER         0.2039
     54 O          38.8610   33.1270   39.2300 O.2       1 SER        -0.3944
     55 CB         36.9140   32.9580   41.9210 C.3       1 SER        -0.0122
     56 CG         35.5030   32.8960   42.5330 C.3       1 SER        -0.0440
     57 CD         35.5570   32.2750   43.9120 C.3       1 SER        -0.0124
     58 CE         34.1880   32.1750   44.5620 C.3       1 SER        -0.0354
     59 NZ         33.3520   31.1210   43.9280 N.4       1 SER         0.2185
     60 N          39.2210   34.7190   40.7890 N.am      1 SER        -0.2635
     61 CA         40.6550   34.8510   40.5470 C.3       1 SER         0.1334
     62 C          41.3390   34.7560   41.9050 C.2       1 SER         0.2066
     63 O          40.7680   35.2080   42.9110 O.2       1 SER        -0.3942
     64 CB         40.9750   36.1740   39.8250 C.3       1 SER        -0.0062
     65 CG1        40.6710   37.3730   40.7200 C.3       1 SER        -0.0584
     66 CG2        42.3960   36.2350   39.3390 C.3       1 SER        -0.0584
     67 N          42.5230   34.1610   42.0060 N.am      1 SER        -0.2498
     68 CA         43.2060   34.1250   43.3030 C.3       1 SER         0.1338
     69 C          43.6250   35.5170   43.7290 C.2       1 SER         0.2041
     70 O          43.6940   36.4550   42.9320 O.2       1 SER        -0.3944
     71 CB         44.4330   33.2370   43.0670 C.3       1 SER        -0.0104
     72 CG         44.2160   32.5760   41.7500 C.3       1 SER        -0.0281
     73 CD         43.2660   33.4360   40.9610 C.3       1 SER         0.0369
     74 N          43.8840   35.6230   45.0230 N.am      1 SER        -0.2640
     75 CA         44.4040   36.8560   45.5850 C.3       1 SER         0.1284
     76 C          45.7930   37.1480   45.0240 C.2       1 SER         0.2061
     77 O          46.5880   36.2250   44.8280 O.2       1 SER        -0.3942
     78 CB         44.4830   36.7390   47.1060 C.3       1 SER        -0.0244
     79 N          46.1370   38.4120   44.8070 N.am      1 SER        -0.2498
     80 CA         47.5260   38.7550   44.4980 C.3       1 SER         0.1340
     81 C          48.4020   38.5150   45.7150 C.2       1 SER         0.2066
     82 O          48.0950   39.0130   46.8090 O.2       1 SER        -0.3942
     83 CB         47.4560   40.2520   44.1390 C.3       1 SER        -0.0104
     84 CG         45.9940   40.5570   43.9620 C.3       1 SER        -0.0281
     85 CD         45.2760   39.6060   44.8610 C.3       1 SER         0.0369
     86 N          49.4700   37.7360   45.5730 N.am      1 SER        -0.2498
     87 CA         50.2930   37.3720   46.7300 C.3       1 SER         0.1340
     88 C          51.2020   38.5090   47.1450 C.2       1 SER         0.2066
     89 O          51.7410   39.2470   46.3000 O.2       1 SER        -0.3942
     90 CB         51.1130   36.1840   46.2090 C.3       1 SER        -0.0104
     91 CG         51.2470   36.4790   44.7400 C.3       1 SER        -0.0281
     92 CD         49.9280   37.0640   44.3400 C.3       1 SER         0.0369
     93 N          51.4310   38.6730   48.4380 N.am      1 SER        -0.2498
     94 CA         52.3910   39.6730   48.8960 C.3       1 SER         0.1338
     95 C          53.8190   39.1960   48.6800 C.2       1 SER         0.2042
     96 O          54.0870   37.9990   48.5410 O.2       1 SER        -0.3944
     97 CB         52.0740   39.8070   50.3820 C.3       1 SER        -0.0104
     98 CG         51.6100   38.3830   50.7630 C.3       1 SER        -0.0281
     99 CD         50.8280   37.9040   49.5460 C.3       1 SER         0.0369
    100 N          54.7320   40.1690   48.6640 N.am      1 SER        -0.2616
    101 CA         56.1610   39.8670   48.6170 C.3       1 SER         0.1539
    102 C          56.6030   39.1630   49.8870 C.2       1 SER         0.2062
    103 O          57.4160   38.2330   49.8360 O.2       1 SER        -0.3943
    104 CB         56.9640   41.1640   48.4370 C.3       1 SER         0.0843
    105 OG         56.8020   41.6510   47.1370 O.3       1 SER        -0.3903
    106 N          56.0740   39.5950   51.0260 N.am      1 SER        -0.2636
    107 CA         56.3640   39.1250   52.3740 C.3       1 SER         0.1314
    108 C          55.0640   38.8100   53.1100 C.2       1 SER         0.2064
    109 O          54.1200   39.6180   53.0920 O.2       1 SER        -0.3942
    110 CB         57.1250   40.1950   53.1670 C.3       1 SER        -0.0101
    111 CG         58.4970   40.6490   52.6840 C.3       1 SER        -0.0425
    112 CD1        58.9100   41.8730   53.4760 C.3       1 SER        -0.0625
    113 CD2        59.5180   39.5390   52.8370 C.3       1 SER        -0.0625
    114 N          54.9800   37.6560   53.7750 N.am      1 SER        -0.2498
    115 CA         55.8790   36.4960   53.7940 C.3       1 SER         0.1339
    116 C          55.7370   35.5700   52.6000 C.2       1 SER         0.2060
    117 O          54.6660   35.5250   52.0020 O.2       1 SER        -0.3942
    118 CB         55.4500   35.7470   55.0520 C.3       1 SER        -0.0104
    119 CG         54.0940   36.2460   55.3680 C.3       1 SER        -0.0281
    120 CD         54.0690   37.6580   54.9320 C.3       1 SER         0.0369
    121 N          56.7990   34.8190   52.2690 N.am      1 SER        -0.2556
    122 CA         56.6470   33.7420   51.2860 C.3       1 SER         0.0972
    123 C          55.9420   32.5270   51.8820 C.2       1 SER         0.0603
    124 O          55.0590   31.9620   51.2370 O.co2     1 SER        -0.5666
    125 CB         58.0910   33.4060   50.9050 C.3       1 SER        -0.0159
    126 CG         58.8890   33.7900   52.1010 C.3       1 SER        -0.0288
    127 CD         58.2000   34.9950   52.6900 C.3       1 SER         0.0362
    128 OXT        56.2650   32.1270   53.0000 O.co2     1 SER        -0.5666
    129 H1         20.1039   35.1743   38.1535 H         1 SER         0.2016
    130 H2         20.8025   36.1631   39.2686 H         1 SER         0.2016
    131 H3         20.9264   34.5292   39.4249 H         1 SER         0.2016
    132 H4         22.2115   34.3479   37.4579 H         1 SER         0.1122
    133 H5         21.4095   36.1309   36.1188 H         1 SER         0.0640
    134 H6         23.0905   36.5978   36.5464 H         1 SER         0.0640
    135 H7         21.5780   38.3149   36.8446 H         1 SER         0.2099
    136 H8         24.4368   34.2568   37.6994 H         1 SER         0.1885
    137 H9         25.5517   35.3943   40.1678 H         1 SER         0.0800
    138 H10        27.7286   34.4960   39.0115 H         1 SER         0.0315
    139 H11        26.5676   33.6489   37.9338 H         1 SER         0.0315
    140 H12        25.9000   32.1873   39.5607 H         1 SER         0.0298
    141 H13        27.9188   31.3666   40.7378 H         1 SER         0.0232
    142 H14        28.7578   32.9092   40.3595 H         1 SER         0.0232
    143 H15        28.2646   31.8057   39.0307 H         1 SER         0.0232
    144 H16        25.2215   33.8978   41.2095 H         1 SER         0.0232
    145 H17        26.9369   34.0919   41.7060 H         1 SER         0.0232
    146 H18        26.0943   32.5290   41.9785 H         1 SER         0.0232
    147 H19        26.9520   39.1780   38.2912 H         1 SER         0.0802
    148 H20        28.2996   40.2128   39.9040 H         1 SER         0.0313
    149 H21        29.4328   38.8217   39.9898 H         1 SER         0.0313
    150 H22        26.7589   39.2189   41.3485 H         1 SER         0.0287
    151 H23        28.2821   38.5256   42.0012 H         1 SER         0.0287
    152 H24        27.9103   36.4513   41.0192 H         1 SER         0.0524
    153 H25        26.2018   36.9698   41.2169 H         1 SER         0.0524
    154 H26        29.5974   36.8894   38.9299 H         1 SER         0.1885
    155 H27        30.4845   37.0135   36.0863 H         1 SER         0.0823
    156 H28        32.0891   38.3932   37.1975 H         1 SER         0.0474
    157 H29        32.8500   36.7702   37.0807 H         1 SER         0.0474
    158 H30        31.5603   39.3443   39.2829 H         1 SER         0.0557
    159 H31        32.7703   35.2603   39.0858 H         1 SER         0.0557
    160 H32        31.7902   39.3042   41.7200 H         1 SER         0.0599
    161 H33        32.9530   35.2015   41.5309 H         1 SER         0.0599
    162 H34        32.4061   37.2145   42.8462 H         1 SER         0.0559
    163 H35        31.9808   35.0771   35.6770 H         1 SER         0.1884
    164 H36        30.7985   32.7837   37.1459 H         1 SER         0.0826
    165 H37        32.4653   32.8388   34.5847 H         1 SER         0.0639
    166 H38        30.3754   32.3782   33.6679 H         1 SER         0.2101
    167 H39        31.6998   30.5070   34.3462 H         1 SER         0.0257
    168 H40        30.8834   30.6119   35.9428 H         1 SER         0.0257
    169 H41        32.6729   30.7295   35.8396 H         1 SER         0.0257
    170 H42        33.9846   34.2586   36.4864 H         1 SER         0.1885
    171 H43        35.2176   31.8850   37.7994 H         1 SER         0.0823
    172 H44        37.2763   32.5093   36.5095 H         1 SER         0.0474
    173 H45        36.3041   33.7578   35.6594 H         1 SER         0.0474
    174 H46        36.2305   30.1118   36.4795 H         1 SER         0.0557
    175 H47        35.2030   33.1754   33.6971 H         1 SER         0.0557
    176 H48        35.4129   28.4039   34.8862 H         1 SER         0.0599
    177 H49        34.4378   31.4792   32.0914 H         1 SER         0.0599
    178 H50        34.5525   29.0942   32.6815 H         1 SER         0.0559
    179 H51        35.7217   32.3076   39.7993 H         1 SER         0.1883
    180 H52        36.6513   34.7979   40.8381 H         1 SER         0.0800
    181 H53        37.5920   33.4056   42.6625 H         1 SER         0.0312
    182 H54        37.2392   31.9308   41.6997 H         1 SER         0.0312
    183 H55        34.8531   32.2883   41.8863 H         1 SER         0.0269
    184 H56        35.0952   33.9147   42.6093 H         1 SER         0.0269
    185 H57        36.2060   32.8919   44.5509 H         1 SER         0.0317
    186 H58        35.9810   31.2636   43.8265 H         1 SER         0.0317
    187 H59        33.6754   33.1433   44.4636 H         1 SER         0.0813
    188 H60        34.3164   31.9346   45.6277 H         1 SER         0.0813
    189 H61        32.4541   31.0845   44.3846 H         1 SER         0.1994
    190 H62        33.8113   30.2283   44.0182 H         1 SER         0.1994
    191 H63        33.2239   31.3358   42.9515 H         1 SER         0.1994
    192 H64        38.7972   35.3187   41.4678 H         1 SER         0.1883
    193 H65        40.9962   34.0200   39.9122 H         1 SER         0.0803
    194 H66        40.3195   36.2355   38.9438 H         1 SER         0.0343
    195 H67        40.9079   38.3022   40.1811 H         1 SER         0.0234
    196 H68        41.2813   37.3130   41.6332 H         1 SER         0.0234
    197 H69        39.6048   37.3677   40.9905 H         1 SER         0.0234
    198 H70        42.6012   35.3663   38.6961 H         1 SER         0.0234
    199 H71        43.0792   36.2227   40.2010 H         1 SER         0.0234
    200 H72        42.5475   37.1605   38.7641 H         1 SER         0.0234
    201 H73        42.5532   33.6880   44.0730 H         1 SER         0.0802
    202 H74        44.5177   32.4830   43.8634 H         1 SER         0.0313
    203 H75        45.3474   33.8479   43.0416 H         1 SER         0.0313
    204 H76        43.7817   31.5764   41.8989 H         1 SER         0.0287
    205 H77        45.1722   32.4842   41.2141 H         1 SER         0.0287
    206 H78        43.8132   34.1335   40.3098 H         1 SER         0.0524
    207 H79        42.5892   32.8194   40.3513 H         1 SER         0.0524
    208 H80        43.7186   34.8405   45.6232 H         1 SER         0.1883
    209 H81        43.7285   37.6830   45.3211 H         1 SER         0.0797
    210 H82        44.8776   37.6761   47.5258 H         1 SER         0.0277
    211 H83        45.1500   35.9069   47.3756 H         1 SER         0.0277
    212 H84        43.4783   36.5499   47.5119 H         1 SER         0.0277
    213 H85        47.9026   38.1651   43.6493 H         1 SER         0.0802
    214 H86        48.0051   40.4494   43.2065 H         1 SER         0.0313
    215 H87        47.8800   40.8618   44.9504 H         1 SER         0.0313
    216 H88        45.6923   40.3992   42.9160 H         1 SER         0.0287
    217 H89        45.7802   41.5962   44.2525 H         1 SER         0.0287
    218 H90        45.2068   40.0013   45.8852 H         1 SER         0.0524
    219 H91        44.2663   39.3865   44.4837 H         1 SER         0.0524
    220 H92        49.6642   37.0762   47.5827 H         1 SER         0.0802
    221 H93        50.5819   35.2350   46.3742 H         1 SER         0.0313
    222 H94        52.0991   36.1417   46.6946 H         1 SER         0.0313
    223 H95        51.4469   35.5555   44.1769 H         1 SER         0.0287
    224 H96        52.0590   37.1995   44.5629 H         1 SER         0.0287
    225 H97        50.0493   37.7859   43.5189 H         1 SER         0.0524
    226 H98        49.2234   36.2764   44.0348 H         1 SER         0.0524
    227 H99        52.2422   40.6299   48.3744 H         1 SER         0.0802
    228 H100       51.2743   40.5429   50.5517 H         1 SER         0.0313
    229 H101       52.9678   40.0985   50.9531 H         1 SER         0.0313
    230 H102       50.9663   38.4083   51.6546 H         1 SER         0.0287
    231 H103       52.4740   37.7293   50.9530 H         1 SER         0.0287
    232 H104       50.9584   36.8225   49.3932 H         1 SER         0.0524
    233 H105       49.7571   38.1333   49.6492 H         1 SER         0.0524
    234 H106       54.4327   41.1229   48.6846 H         1 SER         0.1884
    235 H107       56.3545   39.2055   47.7597 H         1 SER         0.0823
    236 H108       58.0296   40.9609   48.6195 H         1 SER         0.0606
    237 H109       56.6059   41.9166   49.1549 H         1 SER         0.0606
    238 H110       57.3019   42.4524   47.0357 H         1 SER         0.2097
    239 H111       55.3981   40.3280   50.9494 H         1 SER         0.1883
    240 H112       56.9779   38.2144   52.3109 H         1 SER         0.0800
    241 H113       57.2573   39.8046   54.1868 H         1 SER         0.0315
    242 H114       56.4840   41.0884   53.1967 H         1 SER         0.0315
    243 H115       58.4300   40.9179   51.6195 H         1 SER         0.0298
    244 H116       59.9001   42.2120   53.1372 H         1 SER         0.0232
    245 H117       58.9553   41.6197   54.5455 H         1 SER         0.0232
    246 H118       58.1745   42.6759   53.3202 H         1 SER         0.0232
    247 H119       59.1972   38.6629   52.2544 H         1 SER         0.0232
    248 H120       59.6028   39.2625   53.8983 H         1 SER         0.0232
    249 H121       60.4949   39.8861   52.4693 H         1 SER         0.0232
    250 H122       56.9247   36.8297   53.8655 H         1 SER         0.0802
    251 H123       56.1408   35.9610   55.8808 H         1 SER         0.0313
    252 H124       55.4265   34.6633   54.8647 H         1 SER         0.0313
    253 H125       53.9031   36.1762   56.4490 H         1 SER         0.0287
    254 H126       53.3358   35.6642   54.8234 H         1 SER         0.0287
    255 H127       53.0544   37.9642   54.6374 H         1 SER         0.0524
    256 H128       54.4373   38.3247   55.7257 H         1 SER         0.0524
    257 H129       56.0827   34.0930   50.4095 H         1 SER         0.0728
    258 H130       58.4061   33.9854   50.0246 H         1 SER         0.0306
    259 H131       58.1980   32.3317   50.6944 H         1 SER         0.0306
    260 H132       59.9186   34.0434   51.8084 H         1 SER         0.0286
    261 H133       58.9070   32.9659   52.8294 H         1 SER         0.0286
    262 H134       58.2848   35.0013   53.7867 H         1 SER         0.0524
    263 H135       58.6199   35.9273   52.2844 H         1 SER         0.0524
@<TRIPOS>BOND
     1    1    2 1  
     2    2    3 1  
     3    2    5 1  
     4    3    4 2  
     5    3    7 am 
     6    5    6 1  
     7    7    8 1  
     8    8    9 1  
     9    8   11 1  
    10    9   10 2  
    11    9   15 am 
    12   11   12 1  
    13   12   13 1  
    14   12   14 1  
    15   15   16 1  
    16   15   21 1  
    17   16   17 1  
    18   16   19 1  
    19   17   18 2  
    20   17   22 am 
    21   19   20 1  
    22   20   21 1  
    23   22   23 1  
    24   23   24 1  
    25   23   26 1  
    26   24   25 2  
    27   24   33 am 
    28   26   27 1  
    29   27   28 ar 
    30   27   29 ar 
    31   28   30 ar 
    32   29   31 ar 
    33   30   32 ar 
    34   31   32 ar 
    35   33   34 1  
    36   34   35 1  
    37   34   37 1  
    38   35   36 2  
    39   35   40 am 
    40   37   38 1  
    41   37   39 1  
    42   40   41 1  
    43   41   42 1  
    44   41   44 1  
    45   42   43 2  
    46   42   51 am 
    47   44   45 1  
    48   45   46 ar 
    49   45   47 ar 
    50   46   48 ar 
    51   47   49 ar 
    52   48   50 ar 
    53   49   50 ar 
    54   51   52 1  
    55   52   53 1  
    56   52   55 1  
    57   53   54 2  
    58   53   60 am 
    59   55   56 1  
    60   56   57 1  
    61   57   58 1  
    62   58   59 1  
    63   60   61 1  
    64   61   62 1  
    65   61   64 1  
    66   62   63 2  
    67   62   67 am 
    68   64   65 1  
    69   64   66 1  
    70   67   68 1  
    71   67   73 1  
    72   68   69 1  
    73   68   71 1  
    74   69   70 2  
    75   69   74 am 
    76   71   72 1  
    77   72   73 1  
    78   74   75 1  
    79   75   76 1  
    80   75   78 1  
    81   76   77 2  
    82   76   79 am 
    83   79   80 1  
    84   79   85 1  
    85   80   81 1  
    86   80   83 1  
    87   81   82 2  
    88   81   86 am 
    89   83   84 1  
    90   84   85 1  
    91   86   87 1  
    92   86   92 1  
    93   87   88 1  
    94   87   90 1  
    95   88   89 2  
    96   88   93 am 
    97   90   91 1  
    98   91   92 1  
    99   93   94 1  
   100   93   99 1  
   101   94   95 1  
   102   94   97 1  
   103   95   96 2  
   104   95  100 am 
   105   97   98 1  
   106   98   99 1  
   107  100  101 1  
   108  101  102 1  
   109  101  104 1  
   110  102  103 2  
   111  102  106 am 
   112  104  105 1  
   113  106  107 1  
   114  107  108 1  
   115  107  110 1  
   116  108  109 2  
   117  108  114 am 
   118  110  111 1  
   119  111  112 1  
   120  111  113 1  
   121  114  115 1  
   122  114  120 1  
   123  115  116 1  
   124  115  118 1  
   125  116  117 2  
   126  116  121 am 
   127  118  119 1  
   128  119  120 1  
   129  121  122 1  
   130  121  127 1  
   131  122  123 1  
   132  122  125 1  
   133  123  124 ar 
   134  123  128 ar 
   135  125  126 1  
   136  126  127 1  
   137    1  129 1  
   138    1  130 1  
   139    1  131 1  
   140    2  132 1  
   141    5  133 1  
   142    5  134 1  
   143    6  135 1  
   144    7  136 1  
   145    8  137 1  
   146   11  138 1  
   147   11  139 1  
   148   12  140 1  
   149   13  141 1  
   150   13  142 1  
   151   13  143 1  
   152   14  144 1  
   153   14  145 1  
   154   14  146 1  
   155   16  147 1  
   156   19  148 1  
   157   19  149 1  
   158   20  150 1  
   159   20  151 1  
   160   21  152 1  
   161   21  153 1  
   162   22  154 1  
   163   23  155 1  
   164   26  156 1  
   165   26  157 1  
   166   28  158 1  
   167   29  159 1  
   168   30  160 1  
   169   31  161 1  
   170   32  162 1  
   171   33  163 1  
   172   34  164 1  
   173   37  165 1  
   174   38  166 1  
   175   39  167 1  
   176   39  168 1  
   177   39  169 1  
   178   40  170 1  
   179   41  171 1  
   180   44  172 1  
   181   44  173 1  
   182   46  174 1  
   183   47  175 1  
   184   48  176 1  
   185   49  177 1  
   186   50  178 1  
   187   51  179 1  
   188   52  180 1  
   189   55  181 1  
   190   55  182 1  
   191   56  183 1  
   192   56  184 1  
   193   57  185 1  
   194   57  186 1  
   195   58  187 1  
   196   58  188 1  
   197   59  189 1  
   198   59  190 1  
   199   59  191 1  
   200   60  192 1  
   201   61  193 1  
   202   64  194 1  
   203   65  195 1  
   204   65  196 1  
   205   65  197 1  
   206   66  198 1  
   207   66  199 1  
   208   66  200 1  
   209   68  201 1  
   210   71  202 1  
   211   71  203 1  
   212   72  204 1  
   213   72  205 1  
   214   73  206 1  
   215   73  207 1  
   216   74  208 1  
   217   75  209 1  
   218   78  210 1  
   219   78  211 1  
   220   78  212 1  
   221   80  213 1  
   222   83  214 1  
   223   83  215 1  
   224   84  216 1  
   225   84  217 1  
   226   85  218 1  
   227   85  219 1  
   228   87  220 1  
   229   90  221 1  
   230   90  222 1  
   231   91  223 1  
   232   91  224 1  
   233   92  225 1  
   234   92  226 1  
   235   94  227 1  
   236   97  228 1  
   237   97  229 1  
   238   98  230 1  
   239   98  231 1  
   240   99  232 1  
   241   99  233 1  
   242  100  234 1  
   243  101  235 1  
   244  104  236 1  
   245  104  237 1  
   246  105  238 1  
   247  106  239 1  
   248  107  240 1  
   249  110  241 1  
   250  110  242 1  
   251  111  243 1  
   252  112  244 1  
   253  112  245 1  
   254  112  246 1  
   255  113  247 1  
   256  113  248 1  
   257  113  249 1  
   258  115  250 1  
   259  118  251 1  
   260  118  252 1  
   261  119  253 1  
   262  119  254 1  
   263  120  255 1  
   264  120  256 1  
   265  122  257 1  
   266  125  258 1  
   267  125  259 1  
   268  126  260 1  
   269  126  261 1  
   270  127  262 1  
   271  127  263 1  
@<TRIPOS>SUBSTRUCTURE
     1 SER         1

