6r8i_ligand
  -I-interpret- 

264272  0  0  0  0  0  0  0  0999 V2000
   20.8940   35.2930   38.7680 N   0  3  0  0  0
   22.1230   35.3110   37.9820 C   0  0  0  0  0
   23.3460   35.4890   38.8730 C   0  0  0  0  0
   23.2720   36.1320   39.9210 O   0  0  0  0  0
   22.0770   36.4310   36.9400 C   0  0  0  0  0
   21.5970   37.6370   37.5100 O   0  0  0  0  0
   24.4650   34.9100   38.4560 N   0  0  0  0  0
   25.7300   35.2230   39.0960 C   0  0  0  0  0
   26.3220   36.4890   38.4810 C   0  0  0  0  0
   26.1410   36.7510   37.2890 O   0  0  0  0  0
   26.7170   34.0700   38.9390 C   0  0  0  0  0
   26.6440   32.9080   39.9310 C   0  0  0  0  0
   27.9900   32.1980   40.0210 C   0  0  0  0  0
   26.1930   33.3900   41.3010 C   0  0  0  0  0
   27.0220   37.3000   39.2780 N   0  0  0  0  0
   27.6920   38.4850   38.7180 C   0  0  0  0  0
   28.6970   38.1150   37.6340 C   0  0  0  0  0
   28.6160   38.5860   36.4930 O   0  0  0  0  0
   28.3740   39.1160   39.9420 C   0  0  0  0  0
   27.6230   38.5770   41.1220 C   0  0  0  0  0
   27.1640   37.2100   40.7410 C   0  0  0  0  0
   29.6310   37.2400   37.9940 N   0  0  0  0  0
   30.6990   36.7520   37.1330 C   0  0  0  0  0
   30.7650   35.2420   37.2950 C   0  0  0  0  0
   30.2070   34.6750   38.2400 O   0  0  0  0  0
   32.0400   37.3510   37.5460 C   0  0  0  0  0
   32.2130   37.3260   39.0200 C   0  0  0  0  0
   31.8940   38.4390   39.7770 C   0  0  0  0  0
   32.5640   36.1530   39.6650 C   0  0  0  0  0
   31.9940   38.4120   41.1390 C   0  0  0  0  0
   32.6520   36.1140   41.0290 C   0  0  0  0  0
   32.3540   37.2480   41.7640 C   0  0  0  0  0
   31.5180   34.5890   36.4170 N   0  0  0  0  0
   31.6540   33.1460   36.5570 C   0  0  0  0  0
   32.9300   32.7360   37.2790 C   0  0  0  0  0
   32.9080   31.8120   38.1010 O   0  0  0  0  0
   31.6190   32.4750   35.1860 C   0  0  0  0  0
   30.3920   32.7980   34.5200 O   0  0  0  0  0
   31.7260   30.9800   35.3390 C   0  0  0  0  0
   34.0450   33.3950   36.9870 N   0  0  0  0  0
   35.3500   32.8920   37.3770 C   0  0  0  0  0
   35.9680   33.7750   38.4460 C   0  0  0  0  0
   36.2570   34.9550   38.2030 O   0  0  0  0  0
   36.2680   32.7810   36.1640 C   0  0  0  0  0
   35.8040   31.7490   35.1790 C   0  0  0  0  0
   35.8420   30.4150   35.5140 C   0  0  0  0  0
   35.2720   32.1240   33.9520 C   0  0  0  0  0
   35.3840   29.4540   34.6190 C   0  0  0  0  0
   34.8310   31.1760   33.0550 C   0  0  0  0  0
   34.8920   29.8430   33.3880 C   0  0  0  0  0
   36.1650   33.1850   39.6160 N   0  0  0  0  0
   37.0040   33.7760   40.6350 C   0  0  0  0  0
   38.4490   33.8410   40.1520 C   0  0  0  0  0
   38.8610   33.1270   39.2300 O   0  0  0  0  0
   36.9140   32.9580   41.9210 C   0  0  0  0  0
   35.5030   32.8960   42.5330 C   0  0  0  0  0
   35.5570   32.2750   43.9120 C   0  0  0  0  0
   34.1880   32.1750   44.5620 C   0  0  0  0  0
   33.3520   31.1210   43.9280 N   0  3  0  0  0
   39.2210   34.7190   40.7890 N   0  0  0  0  0
   40.6550   34.8510   40.5470 C   0  0  0  0  0
   41.3390   34.7560   41.9050 C   0  0  0  0  0
   40.7680   35.2080   42.9110 O   0  0  0  0  0
   40.9750   36.1740   39.8250 C   0  0  0  0  0
   40.6710   37.3730   40.7200 C   0  0  0  0  0
   42.3960   36.2350   39.3390 C   0  0  0  0  0
   42.5230   34.1610   42.0060 N   0  0  0  0  0
   43.2060   34.1250   43.3030 C   0  0  0  0  0
   43.6250   35.5170   43.7290 C   0  0  0  0  0
   43.6940   36.4550   42.9320 O   0  0  0  0  0
   44.4330   33.2370   43.0670 C   0  0  0  0  0
   44.2160   32.5760   41.7500 C   0  0  0  0  0
   43.2660   33.4360   40.9610 C   0  0  0  0  0
   43.8840   35.6230   45.0230 N   0  0  0  0  0
   44.4040   36.8560   45.5850 C   0  0  0  0  0
   45.7930   37.1480   45.0240 C   0  0  0  0  0
   46.5880   36.2250   44.8280 O   0  0  0  0  0
   44.4830   36.7390   47.1060 C   0  0  0  0  0
   46.1370   38.4120   44.8070 N   0  0  0  0  0
   47.5260   38.7550   44.4980 C   0  0  0  0  0
   48.4020   38.5150   45.7150 C   0  0  0  0  0
   48.0950   39.0130   46.8090 O   0  0  0  0  0
   47.4560   40.2520   44.1390 C   0  0  0  0  0
   45.9940   40.5570   43.9620 C   0  0  0  0  0
   45.2760   39.6060   44.8610 C   0  0  0  0  0
   49.4700   37.7360   45.5730 N   0  0  0  0  0
   50.2930   37.3720   46.7300 C   0  0  0  0  0
   51.2020   38.5090   47.1450 C   0  0  0  0  0
   51.7410   39.2470   46.3000 O   0  0  0  0  0
   51.1130   36.1840   46.2090 C   0  0  0  0  0
   51.2470   36.4790   44.7400 C   0  0  0  0  0
   49.9280   37.0640   44.3400 C   0  0  0  0  0
   51.4310   38.6730   48.4380 N   0  0  0  0  0
   52.3910   39.6730   48.8960 C   0  0  0  0  0
   53.8190   39.1960   48.6800 C   0  0  0  0  0
   54.0870   37.9990   48.5410 O   0  0  0  0  0
   52.0740   39.8070   50.3820 C   0  0  0  0  0
   51.6100   38.3830   50.7630 C   0  0  0  0  0
   50.8280   37.9040   49.5460 C   0  0  0  0  0
   54.7320   40.1690   48.6640 N   0  0  0  0  0
   56.1610   39.8670   48.6170 C   0  0  0  0  0
   56.6030   39.1630   49.8870 C   0  0  0  0  0
   57.4160   38.2330   49.8360 O   0  0  0  0  0
   56.9640   41.1640   48.4370 C   0  0  0  0  0
   56.8020   41.6510   47.1370 O   0  0  0  0  0
   56.0740   39.5950   51.0260 N   0  0  0  0  0
   56.3640   39.1250   52.3740 C   0  0  0  0  0
   55.0640   38.8100   53.1100 C   0  0  0  0  0
   54.1200   39.6180   53.0920 O   0  0  0  0  0
   57.1250   40.1950   53.1670 C   0  0  0  0  0
   58.4970   40.6490   52.6840 C   0  0  0  0  0
   58.9100   41.8730   53.4760 C   0  0  0  0  0
   59.5180   39.5390   52.8370 C   0  0  0  0  0
   54.9800   37.6560   53.7750 N   0  0  0  0  0
   55.8790   36.4960   53.7940 C   0  0  0  0  0
   55.7370   35.5700   52.6000 C   0  0  0  0  0
   54.6660   35.5250   52.0020 O   0  0  0  0  0
   55.4500   35.7470   55.0520 C   0  0  0  0  0
   54.0940   36.2460   55.3680 C   0  0  0  0  0
   54.0690   37.6580   54.9320 C   0  0  0  0  0
   56.7990   34.8190   52.2690 N   0  0  0  0  0
   56.6470   33.7420   51.2860 C   0  0  0  0  0
   55.9420   32.5270   51.8820 C   0  0  0  0  0
   55.0590   31.9620   51.2370 O   0  0  0  0  0
   58.0910   33.4060   50.9050 C   0  0  0  0  0
   58.8890   33.7900   52.1010 C   0  0  0  0  0
   58.2000   34.9950   52.6900 C   0  0  0  0  0
   56.2650   32.1270   53.0000 O   0  0  0  0  0
   20.9428   34.5415   39.4560 H   0  0  0  0  0
   20.7848   36.1871   39.2466 H   0  0  0  0  0
   20.0982   35.1378   38.1491 H   0  0  0  0  0
   22.2031   34.3503   37.4734 H   0  0  0  0  0
   21.4043   36.1327   36.1359 H   0  0  0  0  0
   23.0860   36.5998   36.5637 H   0  0  0  0  0
   21.5778   38.3220   36.8377 H   0  0  0  0  0
   24.4362   34.2437   37.6842 H   0  0  0  0  0
   25.5467   35.3825   40.1586 H   0  0  0  0  0
   27.7008   34.5138   39.0913 H   0  0  0  0  0
   26.4903   33.6306   37.9676 H   0  0  0  0  0
   25.9039   32.1950   39.5676 H   0  0  0  0  0
   28.2610   31.8099   39.0392 H   0  0  0  0  0
   28.7499   32.9038   40.3565 H   0  0  0  0  0
   27.9182   31.3745   40.7315 H   0  0  0  0  0
   26.9020   34.1277   41.6767 H   0  0  0  0  0
   25.2050   33.8429   41.2183 H   0  0  0  0  0
   26.1498   32.5436   41.9865 H   0  0  0  0  0
   27.0002   39.1651   38.2211 H   0  0  0  0  0
   28.3438   40.2050   39.9058 H   0  0  0  0  0
   29.4341   38.8665   39.9883 H   0  0  0  0  0
   26.7775   39.2175   41.3731 H   0  0  0  0  0
   28.2578   38.5436   42.0074 H   0  0  0  0  0
   27.8610   36.4307   41.0492 H   0  0  0  0  0
   26.2367   36.9237   41.2372 H   0  0  0  0  0
   29.5967   36.8823   38.9486 H   0  0  0  0  0
   30.4975   37.0353   36.0999 H   0  0  0  0  0
   32.0741   38.3876   37.2109 H   0  0  0  0  0
   32.8369   36.7607   37.0938 H   0  0  0  0  0
   31.5585   39.3493   39.2802 H   0  0  0  0  0
   32.7714   35.2553   39.0826 H   0  0  0  0  0
   31.7890   39.3091   41.7232 H   0  0  0  0  0
   32.9546   35.1965   41.5336 H   0  0  0  0  0
   32.4064   37.2143   42.8522 H   0  0  0  0  0
   31.9900   35.0868   35.6622 H   0  0  0  0  0
   30.8109   32.8164   37.1642 H   0  0  0  0  0
   32.4608   32.8366   34.5955 H   0  0  0  0  0
   30.3753   32.3738   33.6590 H   0  0  0  0  0
   32.6646   30.7331   35.8352 H   0  0  0  0  0
   30.8906   30.6166   35.9375 H   0  0  0  0  0
   31.6999   30.5125   34.3547 H   0  0  0  0  0
   33.9833   34.2758   36.4764 H   0  0  0  0  0
   35.2215   31.8942   37.7966 H   0  0  0  0  0
   37.2557   32.4856   36.5178 H   0  0  0  0  0
   36.2734   33.7469   35.6590 H   0  0  0  0  0
   36.2327   30.1101   36.4848 H   0  0  0  0  0
   35.2026   33.1812   33.6957 H   0  0  0  0  0
   35.4131   28.3980   34.8877 H   0  0  0  0  0
   34.4356   31.4809   32.0861 H   0  0  0  0  0
   34.5507   29.0901   32.6776 H   0  0  0  0  0
   35.7128   32.2900   39.8030 H   0  0  0  0  0
   36.6573   34.7896   40.8362 H   0  0  0  0  0
   37.5612   33.4395   42.6540 H   0  0  0  0  0
   37.2017   31.9364   41.6727 H   0  0  0  0  0
   34.8634   32.2880   41.8932 H   0  0  0  0  0
   35.1045   33.9074   42.6130 H   0  0  0  0  0
   36.1813   32.9094   44.5412 H   0  0  0  0  0
   35.9541   31.2651   43.8096 H   0  0  0  0  0
   33.6811   33.1326   44.4428 H   0  0  0  0  0
   34.3251   31.9182   45.6124 H   0  0  0  0  0
   32.4437   31.0850   44.3908 H   0  0  0  0  0
   33.2231   31.3394   42.9400 H   0  0  0  0  0
   33.8178   30.2182   44.0199 H   0  0  0  0  0
   38.7887   35.3307   41.4814 H   0  0  0  0  0
   41.0188   34.0618   39.8890 H   0  0  0  0  0
   40.3291   36.2133   38.9479 H   0  0  0  0  0
   39.6143   37.3666   40.9873 H   0  0  0  0  0
   41.2763   37.3123   41.6245 H   0  0  0  0  0
   40.9062   38.2931   40.1849 H   0  0  0  0  0
   43.0733   36.1428   40.1880 H   0  0  0  0  0
   42.5748   35.4183   38.6396 H   0  0  0  0  0
   42.5668   37.1880   38.8382 H   0  0  0  0  0
   42.5648   33.7430   44.0974 H   0  0  0  0  0
   44.5464   32.5014   43.8634 H   0  0  0  0  0
   45.3509   33.8248   43.0666 H   0  0  0  0  0
   43.7999   31.5782   41.8891 H   0  0  0  0  0
   45.1614   32.4671   41.2186 H   0  0  0  0  0
   43.7788   34.1040   40.2689 H   0  0  0  0  0
   42.6149   32.8545   40.3083 H   0  0  0  0  0
   43.7153   34.8248   45.6352 H   0  0  0  0  0
   43.7334   37.6725   45.3173 H   0  0  0  0  0
   43.4869   36.5516   47.5069 H   0  0  0  0  0
   45.1442   35.9142   47.3718 H   0  0  0  0  0
   44.8741   37.6680   47.5208 H   0  0  0  0  0
   47.9565   38.1579   43.6941 H   0  0  0  0  0
   48.0215   40.4716   43.2334 H   0  0  0  0  0
   47.9006   40.8702   44.9189 H   0  0  0  0  0
   45.6839   40.4365   42.9240 H   0  0  0  0  0
   45.7688   41.5930   44.2152 H   0  0  0  0  0
   45.1398   39.9911   45.8716 H   0  0  0  0  0
   44.2508   39.4100   44.5469 H   0  0  0  0  0
   49.6998   37.1388   47.6142 H   0  0  0  0  0
   50.6345   35.2242   46.4039 H   0  0  0  0  0
   52.0769   36.0862   46.7085 H   0  0  0  0  0
   51.4809   35.5814   44.1675 H   0  0  0  0  0
   52.0703   37.1645   44.5392 H   0  0  0  0  0
   50.0096   37.7467   43.4942 H   0  0  0  0  0
   49.2242   36.3113   43.9847 H   0  0  0  0  0
   52.3148   40.6179   48.3580 H   0  0  0  0  0
   51.3212   40.5678   50.5882 H   0  0  0  0  0
   52.9275   40.1463   50.9689 H   0  0  0  0  0
   51.0037   38.3774   51.6688 H   0  0  0  0  0
   52.4484   37.7268   50.9965 H   0  0  0  0  0
   50.8966   36.8263   49.3979 H   0  0  0  0  0
   49.7552   38.0717   49.6411 H   0  0  0  0  0
   54.4267   41.1420   48.6850 H   0  0  0  0  0
   56.3456   39.2057   47.7704 H   0  0  0  0  0
   58.0199   40.9591   48.6139 H   0  0  0  0  0
   56.6043   41.9094   49.1463 H   0  0  0  0  0
   57.3072   42.4609   47.0346 H   0  0  0  0  0
   55.3846   40.3427   50.9479 H   0  0  0  0  0
   56.9760   38.2267   52.2926 H   0  0  0  0  0
   57.3098   39.7402   54.1402 H   0  0  0  0  0
   56.4995   41.0854   53.1028 H   0  0  0  0  0
   58.4455   40.8995   51.6244 H   0  0  0  0  0
   58.1804   42.6678   53.3208 H   0  0  0  0  0
   58.9545   41.6207   54.5355 H   0  0  0  0  0
   59.8911   42.2079   53.1394 H   0  0  0  0  0
   59.5910   39.2565   53.8872 H   0  0  0  0  0
   59.2060   38.6764   52.2482 H   0  0  0  0  0
   60.4886   39.8888   52.4852 H   0  0  0  0  0
   56.9184   36.8232   53.7678 H   0  0  0  0  0
   56.1416   35.9226   55.8760 H   0  0  0  0  0
   55.4512   34.6685   54.8939 H   0  0  0  0  0
   53.8784   36.1573   56.4328 H   0  0  0  0  0
   53.3287   35.6612   54.8577 H   0  0  0  0  0
   53.0672   38.0085   54.6837 H   0  0  0  0  0
   54.3780   38.3503   55.7152 H   0  0  0  0  0
   56.0337   34.0367   50.4345 H   0  0  0  0  0
   54.9434   32.4089   50.3953 H   0  0  0  0  0
   58.4127   33.9388   50.0101 H   0  0  0  0  0
   58.2131   32.3527   50.6526 H   0  0  0  0  0
   59.9204   34.0171   51.8315 H   0  0  0  0  0
   58.9401   32.9730   52.8208 H   0  0  0  0  0
   58.3099   35.0555   53.7728 H   0  0  0  0  0
   58.6285   35.9358   52.3445 H   0  0  0  0  0
  1  2  1  0  0  0
  2  3  1  0  0  0
  2  5  1  0  0  0
  3  4  2  0  0  0
  3  7  1  0  0  0
  5  6  1  0  0  0
  7  8  1  0  0  0
  8  9  1  0  0  0
  8 11  1  0  0  0
  9 10  2  0  0  0
  9 15  1  0  0  0
 11 12  1  0  0  0
 12 13  1  0  0  0
 12 14  1  0  0  0
 15 16  1  0  0  0
 15 21  1  0  0  0
 16 17  1  0  0  0
 16 19  1  0  0  0
 17 18  2  0  0  0
 17 22  1  0  0  0
 19 20  1  0  0  0
 20 21  1  0  0  0
 22 23  1  0  0  0
 23 24  1  0  0  0
 23 26  1  0  0  0
 24 25  2  0  0  0
 24 33  1  0  0  0
 26 27  1  0  0  0
 27 28  4  0  0  0
 27 29  4  0  0  0
 28 30  4  0  0  0
 29 31  4  0  0  0
 30 32  4  0  0  0
 31 32  4  0  0  0
 33 34  1  0  0  0
 34 35  1  0  0  0
 34 37  1  0  0  0
 35 36  2  0  0  0
 35 40  1  0  0  0
 37 38  1  0  0  0
 37 39  1  0  0  0
 40 41  1  0  0  0
 41 42  1  0  0  0
 41 44  1  0  0  0
 42 43  2  0  0  0
 42 51  1  0  0  0
 44 45  1  0  0  0
 45 46  4  0  0  0
 45 47  4  0  0  0
 46 48  4  0  0  0
 47 49  4  0  0  0
 48 50  4  0  0  0
 49 50  4  0  0  0
 51 52  1  0  0  0
 52 53  1  0  0  0
 52 55  1  0  0  0
 53 54  2  0  0  0
 53 60  1  0  0  0
 55 56  1  0  0  0
 56 57  1  0  0  0
 57 58  1  0  0  0
 58 59  1  0  0  0
 60 61  1  0  0  0
 61 62  1  0  0  0
 61 64  1  0  0  0
 62 63  2  0  0  0
 62 67  1  0  0  0
 64 65  1  0  0  0
 64 66  1  0  0  0
 67 68  1  0  0  0
 67 73  1  0  0  0
 68 69  1  0  0  0
 68 71  1  0  0  0
 69 70  2  0  0  0
 69 74  1  0  0  0
 71 72  1  0  0  0
 72 73  1  0  0  0
 74 75  1  0  0  0
 75 76  1  0  0  0
 75 78  1  0  0  0
 76 77  2  0  0  0
 76 79  1  0  0  0
 79 80  1  0  0  0
 79 85  1  0  0  0
 80 81  1  0  0  0
 80 83  1  0  0  0
 81 82  2  0  0  0
 81 86  1  0  0  0
 83 84  1  0  0  0
 84 85  1  0  0  0
 86 87  1  0  0  0
 86 92  1  0  0  0
 87 88  1  0  0  0
 87 90  1  0  0  0
 88 89  2  0  0  0
 88 93  1  0  0  0
 90 91  1  0  0  0
 91 92  1  0  0  0
 93 94  1  0  0  0
 93 99  1  0  0  0
 94 95  1  0  0  0
 94 97  1  0  0  0
 95 96  2  0  0  0
 95100  1  0  0  0
 97 98  1  0  0  0
 98 99  1  0  0  0
100101  1  0  0  0
101102  1  0  0  0
101104  1  0  0  0
102103  2  0  0  0
102106  1  0  0  0
104105  1  0  0  0
106107  1  0  0  0
107108  1  0  0  0
107110  1  0  0  0
108109  2  0  0  0
108114  1  0  0  0
110111  1  0  0  0
111112  1  0  0  0
111113  1  0  0  0
114115  1  0  0  0
114120  1  0  0  0
115116  1  0  0  0
115118  1  0  0  0
116117  2  0  0  0
116121  1  0  0  0
118119  1  0  0  0
119120  1  0  0  0
121122  1  0  0  0
121127  1  0  0  0
122123  1  0  0  0
122125  1  0  0  0
123124  1  0  0  0
123128  2  0  0  0
125126  1  0  0  0
126127  1  0  0  0
  1129  1  0  0  0
  1130  1  0  0  0
  1131  1  0  0  0
  2132  1  0  0  0
  5133  1  0  0  0
  5134  1  0  0  0
  6135  1  0  0  0
  7136  1  0  0  0
  8137  1  0  0  0
 11138  1  0  0  0
 11139  1  0  0  0
 12140  1  0  0  0
 13141  1  0  0  0
 13142  1  0  0  0
 13143  1  0  0  0
 14144  1  0  0  0
 14145  1  0  0  0
 14146  1  0  0  0
 16147  1  0  0  0
 19148  1  0  0  0
 19149  1  0  0  0
 20150  1  0  0  0
 20151  1  0  0  0
 21152  1  0  0  0
 21153  1  0  0  0
 22154  1  0  0  0
 23155  1  0  0  0
 26156  1  0  0  0
 26157  1  0  0  0
 28158  1  0  0  0
 29159  1  0  0  0
 30160  1  0  0  0
 31161  1  0  0  0
 32162  1  0  0  0
 33163  1  0  0  0
 34164  1  0  0  0
 37165  1  0  0  0
 38166  1  0  0  0
 39167  1  0  0  0
 39168  1  0  0  0
 39169  1  0  0  0
 40170  1  0  0  0
 41171  1  0  0  0
 44172  1  0  0  0
 44173  1  0  0  0
 46174  1  0  0  0
 47175  1  0  0  0
 48176  1  0  0  0
 49177  1  0  0  0
 50178  1  0  0  0
 51179  1  0  0  0
 52180  1  0  0  0
 55181  1  0  0  0
 55182  1  0  0  0
 56183  1  0  0  0
 56184  1  0  0  0
 57185  1  0  0  0
 57186  1  0  0  0
 58187  1  0  0  0
 58188  1  0  0  0
 59189  1  0  0  0
 59190  1  0  0  0
 59191  1  0  0  0
 60192  1  0  0  0
 61193  1  0  0  0
 64194  1  0  0  0
 65195  1  0  0  0
 65196  1  0  0  0
 65197  1  0  0  0
 66198  1  0  0  0
 66199  1  0  0  0
 66200  1  0  0  0
 68201  1  0  0  0
 71202  1  0  0  0
 71203  1  0  0  0
 72204  1  0  0  0
 72205  1  0  0  0
 73206  1  0  0  0
 73207  1  0  0  0
 74208  1  0  0  0
 75209  1  0  0  0
 78210  1  0  0  0
 78211  1  0  0  0
 78212  1  0  0  0
 80213  1  0  0  0
 83214  1  0  0  0
 83215  1  0  0  0
 84216  1  0  0  0
 84217  1  0  0  0
 85218  1  0  0  0
 85219  1  0  0  0
 87220  1  0  0  0
 90221  1  0  0  0
 90222  1  0  0  0
 91223  1  0  0  0
 91224  1  0  0  0
 92225  1  0  0  0
 92226  1  0  0  0
 94227  1  0  0  0
 97228  1  0  0  0
 97229  1  0  0  0
 98230  1  0  0  0
 98231  1  0  0  0
 99232  1  0  0  0
 99233  1  0  0  0
100234  1  0  0  0
101235  1  0  0  0
104236  1  0  0  0
104237  1  0  0  0
105238  1  0  0  0
106239  1  0  0  0
107240  1  0  0  0
110241  1  0  0  0
110242  1  0  0  0
111243  1  0  0  0
112244  1  0  0  0
112245  1  0  0  0
112246  1  0  0  0
113247  1  0  0  0
113248  1  0  0  0
113249  1  0  0  0
115250  1  0  0  0
118251  1  0  0  0
118252  1  0  0  0
119253  1  0  0  0
119254  1  0  0  0
120255  1  0  0  0
120256  1  0  0  0
122257  1  0  0  0
124258  1  0  0  0
125259  1  0  0  0
125260  1  0  0  0
126261  1  0  0  0
126262  1  0  0  0
127263  1  0  0  0
127264  1  0  0  0
M  END
$$$$
