2xkd_ligand
  -I-interpret- 

 47 49  0  0  0  0  0  0  0  0999 V2000
   23.5060   -8.1920   11.8360 O   0  0  0  0  0
   22.8010   -7.4720   12.8080 C   0  0  0  0  0
   21.8210   -6.8680   12.5110 O   0  0  0  0  0
   23.3050   -7.4160   14.2490 C   0  0  0  0  0
   24.6880   -7.6580   14.5310 C   0  0  0  0  0
   25.1660   -7.5360   15.8490 C   0  0  0  0  0
   22.4250   -7.0400   15.2880 C   0  0  0  0  0
   22.8830   -6.9150   16.5640 C   0  0  0  0  0
   24.3110   -7.1950   16.8560 C   0  0  0  0  0
   24.8530   -7.0130   18.2670 C   0  0  0  0  0
   25.4780   -8.0320   18.8880 N   0  0  0  0  0
   24.7490   -5.7360   18.9190 C   0  0  0  0  0
   24.0810   -4.6270   18.2900 N   0  0  0  0  0
   25.2400   -5.5590   20.1680 N   0  0  0  0  0
   25.8260   -6.5570   20.7740 C   0  0  0  0  0
   25.9920   -7.8480   20.0740 C   0  0  0  0  0
   26.6240   -9.0200   20.8010 C   0  0  0  0  0
   27.2230   -8.8390   22.0720 C   0  0  0  0  0
   26.5680  -10.2640   20.2240 C   0  0  0  0  0
   27.1370  -11.4280   20.9280 C   0  0  0  0  0
   27.0890  -12.7130   20.3670 O   0  0  0  0  0
   26.6140  -12.8850   19.0590 C   0  0  0  0  0
   27.7210  -11.2520   22.1440 C   0  0  0  0  0
   28.2690  -12.3530   22.7990 O   0  0  0  0  0
   27.4040  -13.2210   23.4820 C   0  0  0  0  0
   27.7760   -9.9800   22.7430 C   0  0  0  0  0
   28.3210   -9.8480   24.0230 O   0  0  0  0  0
   28.6130   -8.5720   24.5130 C   0  0  0  0  0
   24.2648   -8.6173   12.2421 H   0  0  0  0  0
   25.3689   -7.9361   13.7266 H   0  0  0  0  0
   26.2194   -7.7140   16.0653 H   0  0  0  0  0
   21.3748   -6.8491   15.0672 H   0  0  0  0  0
   22.2072   -6.6121   17.3638 H   0  0  0  0  0
   23.6697   -4.7384   17.3633 H   0  0  0  0  0
   24.0189   -3.7297   18.7710 H   0  0  0  0  0
   26.1918   -6.4378   21.7939 H   0  0  0  0  0
   27.2629   -7.8514   22.5314 H   0  0  0  0  0
   26.1034  -10.3914   19.2463 H   0  0  0  0  0
   25.5855  -12.5292   18.9976 H   0  0  0  0  0
   27.2382  -12.3167   18.3695 H   0  0  0  0  0
   26.6503  -13.9424   18.7967 H   0  0  0  0  0
   26.8747  -12.6681   24.2581 H   0  0  0  0  0
   26.6848  -13.6422   22.7795 H   0  0  0  0  0
   27.9827  -14.0247   23.9372 H   0  0  0  0  0
   29.3387   -8.0899   23.8579 H   0  0  0  0  0
   27.6994   -7.9784   24.5444 H   0  0  0  0  0
   29.0279   -8.6561   25.5174 H   0  0  0  0  0
  1  2  1  0  0  0
  2  3  2  0  0  0
  2  4  1  0  0  0
  4  5  4  0  0  0
  4  7  4  0  0  0
  5  6  4  0  0  0
  6  9  4  0  0  0
  7  8  4  0  0  0
  8  9  4  0  0  0
  9 10  1  0  0  0
 10 11  4  0  0  0
 10 12  4  0  0  0
 11 16  4  0  0  0
 12 13  1  0  0  0
 12 14  4  0  0  0
 14 15  4  0  0  0
 15 16  4  0  0  0
 16 17  1  0  0  0
 17 18  4  0  0  0
 17 19  4  0  0  0
 18 26  4  0  0  0
 19 20  4  0  0  0
 20 21  1  0  0  0
 20 23  4  0  0  0
 21 22  1  0  0  0
 23 24  1  0  0  0
 23 26  4  0  0  0
 24 25  1  0  0  0
 26 27  1  0  0  0
 27 28  1  0  0  0
  1 29  1  0  0  0
  5 30  1  0  0  0
  6 31  1  0  0  0
  7 32  1  0  0  0
  8 33  1  0  0  0
 13 34  1  0  0  0
 13 35  1  0  0  0
 15 36  1  0  0  0
 18 37  1  0  0  0
 19 38  1  0  0  0
 22 39  1  0  0  0
 22 40  1  0  0  0
 22 41  1  0  0  0
 25 42  1  0  0  0
 25 43  1  0  0  0
 25 44  1  0  0  0
 28 45  1  0  0  0
 28 46  1  0  0  0
 28 47  1  0  0  0
M  END
$$$$
