5fbo_ligand
  -I-interpret- 

 67 72  0  0  0  0  0  0  0  0999 V2000
  -21.0920    4.8720  -19.5420 N   0  0  0  0  0
  -20.1400    5.1240  -20.4480 C   0  0  0  0  0
  -18.9090    5.6240  -20.1000 C   0  0  0  0  0
  -20.8840    5.0650  -18.2430 C   0  0  0  0  0
  -19.6150    5.5590  -17.7700 C   0  0  0  0  0
  -18.6740    5.8800  -18.7520 N   0  0  0  0  0
  -17.5350    6.3040  -18.1270 C   0  0  0  0  0
  -17.7590    6.3510  -16.8050 N   0  0  0  0  0
  -19.0350    5.8980  -16.5970 C   0  0  0  0  0
  -16.2770    6.7060  -18.8320 C   0  0  0  0  0
  -21.9190    4.7680  -17.4160 N   0  0  0  0  0
  -16.3840    8.1970  -19.1830 C   0  0  0  0  0
  -13.7910    7.0310  -18.6230 C   0  0  0  0  0
  -13.9430    8.5000  -19.0020 C   0  0  0  0  0
  -15.1670    8.6540  -19.8780 N   0  0  0  0  0
  -15.0400    6.4500  -17.9650 C   0  0  0  0  0
  -19.4960    5.8020  -15.2730 C   0  0  0  0  0
  -19.7550    4.5990  -14.6400 C   0  0  0  0  0
  -20.1940    4.5000  -13.3480 C   0  0  0  0  0
  -20.3620    5.6660  -12.6040 C   0  0  0  0  0
  -20.0330    6.8880  -13.1830 C   0  0  0  0  0
  -19.6300    6.9580  -14.5030 C   0  0  0  0  0
  -19.6430    3.4510  -15.3540 F   0  0  0  0  0
  -20.7420    5.4920  -11.1660 C   0  0  0  0  0
  -20.7320    4.3810  -10.6470 O   0  0  0  0  0
  -21.0390    6.6230  -10.4800 N   0  0  0  0  0
  -21.2750    6.7720   -9.1040 C   0  0  0  0  0
  -21.8190    7.9680   -8.8190 N   0  0  0  0  0
  -22.0880    8.2320   -7.5310 C   0  0  0  0  0
  -21.8460    7.3420   -6.5100 C   0  0  0  0  0
  -21.2730    6.1120   -6.7970 C   0  0  0  0  0
  -20.9820    5.8110   -8.1260 C   0  0  0  0  0
  -20.9960    5.1110   -5.7180 C   0  0  0  0  0
  -20.9640    3.8440   -6.1480 F   0  0  0  0  0
  -19.8290    5.3180   -5.1120 F   0  0  0  0  0
  -21.9350    5.0880   -4.7820 F   0  0  0  0  0
  -13.9790    9.4350  -17.8030 C   0  0  0  0  0
  -15.1780    9.0510  -21.1700 C   0  0  0  0  0
  -16.1680    8.9150  -21.8510 O   0  0  0  0  0
  -13.9240    9.6010  -21.8210 C   0  0  0  0  0
  -14.0160   10.0610  -23.2580 C   0  0  0  0  0
  -13.3930    8.7530  -22.9540 C   0  0  0  0  0
  -20.3488    4.9255  -21.4992 H   0  0  0  0  0
  -18.1435    5.8136  -20.8524 H   0  0  0  0  0
  -16.1623    6.1074  -19.7356 H   0  0  0  0  0
  -22.7958    4.4176  -17.8019 H   0  0  0  0  0
  -21.8198    4.8953  -16.4089 H   0  0  0  0  0
  -16.5016    8.7693  -18.2628 H   0  0  0  0  0
  -17.2422    8.3452  -19.8384 H   0  0  0  0  0
  -12.9737    6.9569  -17.9056 H   0  0  0  0  0
  -13.6078    6.4698  -19.5393 H   0  0  0  0  0
  -13.0542    8.7994  -19.5574 H   0  0  0  0  0
  -14.9085    5.3744  -17.8471 H   0  0  0  0  0
  -15.1832    6.9286  -16.9962 H   0  0  0  0  0
  -20.4086    3.5259  -12.9084 H   0  0  0  0  0
  -20.0938    7.7998  -12.5889 H   0  0  0  0  0
  -19.4139    7.9290  -14.9486 H   0  0  0  0  0
  -21.0988    7.4763  -11.0356 H   0  0  0  0  0
  -22.5202    9.2009   -7.2810 H   0  0  0  0  0
  -22.1028    7.6017   -5.4830 H   0  0  0  0  0
  -20.5381    4.8534   -8.3982 H   0  0  0  0  0
  -14.8228    9.1729  -17.1647 H   0  0  0  0  0
  -13.0512    9.3369  -17.2394 H   0  0  0  0  0
  -14.0888   10.4629  -18.1486 H   0  0  0  0  0
  -13.5372   10.0475  -20.9050 H   0  0  0  0  0
  -14.3202   10.8111  -23.9880 H   0  0  0  0  0
  -12.9054    7.8407  -23.2977 H   0  0  0  0  0
  2  1  4  0  0  0
  4  1  4  0  0  0
  3  2  4  0  0  0
  6  3  4  0  0  0
  5  4  4  0  0  0
  4 11  1  0  0  0
  6  5  4  0  0  0
  9  5  4  0  0  0
  7  6  4  0  0  0
  7  8  4  0  0  0
 10  7  1  0  0  0
  8  9  4  0  0  0
  9 17  1  0  0  0
 10 12  1  0  0  0
 16 10  1  0  0  0
 12 15  1  0  0  0
 13 14  1  0  0  0
 13 16  1  0  0  0
 14 15  1  0  0  0
 14 37  1  0  0  0
 15 38  1  0  0  0
 17 18  4  0  0  0
 17 22  4  0  0  0
 18 19  4  0  0  0
 18 23  1  0  0  0
 19 20  4  0  0  0
 20 21  4  0  0  0
 20 24  1  0  0  0
 21 22  4  0  0  0
 24 25  2  0  0  0
 24 26  1  0  0  0
 26 27  1  0  0  0
 27 28  4  0  0  0
 27 32  4  0  0  0
 28 29  4  0  0  0
 29 30  4  0  0  0
 30 31  4  0  0  0
 31 32  4  0  0  0
 31 33  1  0  0  0
 33 34  1  0  0  0
 33 35  1  0  0  0
 33 36  1  0  0  0
 38 39  2  0  0  0
 38 40  1  0  0  0
 40 41  1  0  0  0
 40 42  1  0  0  0
 41 42  2  0  0  0
  2 43  1  0  0  0
  3 44  1  0  0  0
 10 45  1  0  0  0
 11 46  1  0  0  0
 11 47  1  0  0  0
 12 48  1  0  0  0
 12 49  1  0  0  0
 13 50  1  0  0  0
 13 51  1  0  0  0
 14 52  1  0  0  0
 16 53  1  0  0  0
 16 54  1  0  0  0
 19 55  1  0  0  0
 21 56  1  0  0  0
 22 57  1  0  0  0
 26 58  1  0  0  0
 29 59  1  0  0  0
 30 60  1  0  0  0
 32 61  1  0  0  0
 37 62  1  0  0  0
 37 63  1  0  0  0
 37 64  1  0  0  0
 40 65  1  0  0  0
 41 66  1  0  0  0
 42 67  1  0  0  0
M  END
$$$$
