5db1_ligand
  -I-interpret- 

 58 62  0  0  0  0  0  0  0  0999 V2000
  -11.0560    7.5850   12.4990 C   0  0  0  0  0
  -10.7730    8.9240   12.3490 C   0  0  0  0  0
  -11.8390    9.7490   11.9570 C   0  0  0  0  0
  -13.0520    9.2310   11.6890 N   0  0  0  0  0
  -12.2850    7.0500   12.2540 N   0  0  0  0  0
   -5.1620    7.6510   12.4200 F   0  0  0  0  0
   -6.4200    7.5840   12.1330 C   0  0  0  0  0
   -6.7240    6.3320   11.8590 F   0  0  0  0  0
   -6.6530    8.2900   11.0720 F   0  0  0  0  0
   -7.2400    8.1210   13.3210 C   0  0  0  0  0
   -8.7000    8.0820   12.9820 C   0  0  0  0  0
   -9.6820    6.7540   13.0260 S   0  0  0  0  0
   -9.4580    9.1830   12.6310 C   0  0  0  0  0
  -13.3140    7.8750   11.8530 C   0  0  0  0  0
  -11.6470   11.0810   11.7830 N   0  0  0  0  0
  -12.7210   12.0440   11.3640 C   0  0  0  0  0
  -12.6230   13.1700   12.3530 C   0  0  0  0  0
  -13.6650   14.2520   12.0370 C   0  0  0  0  0
  -12.4850   12.5190    9.9620 C   0  0  0  0  0
  -13.3510   13.7710    9.6600 C   0  0  0  0  0
  -13.2310   14.8340   10.7030 N   0  3  0  0  0
  -14.1570   15.9620   10.2910 C   0  0  0  0  0
  -14.0480   17.1900   11.1200 C   0  0  0  0  0
  -15.1600   17.7270   11.8210 C   0  0  0  0  0
  -15.1110   18.8470   12.5380 C   0  0  0  0  0
  -16.0700   19.5000   13.2720 C   0  0  0  0  0
  -15.4740   20.5820   13.7900 C   0  0  0  0  0
  -16.0130   21.6600   14.6630 C   0  0  0  0  0
  -16.4220   22.4550   15.3080 N   0  0  0  0  0
  -14.1930   20.6320   13.4090 N   0  0  0  0  0
  -13.9550   19.5560   12.6400 C   0  0  0  0  0
  -12.8430   19.1450   11.9930 C   0  0  0  0  0
  -12.8810   17.9540   11.2180 C   0  0  0  0  0
  -11.8220   17.4420   10.5300 O   0  0  0  0  0
  -10.5280   18.0420   10.6440 C   0  0  0  0  0
   -6.9439    9.1489   13.5306 H   0  0  0  0  0
   -7.0550    7.5015   14.1986 H   0  0  0  0  0
   -9.0384   10.1878   12.5820 H   0  0  0  0  0
  -14.3105    7.4737   11.6686 H   0  0  0  0  0
  -10.7116   11.4529   11.9476 H   0  0  0  0  0
  -13.7136   11.5936   11.3617 H   0  0  0  0  0
  -11.6268   13.6085   12.2941 H   0  0  0  0  0
  -12.8081   12.7804   13.3540 H   0  0  0  0  0
  -13.7077   15.0130   12.8162 H   0  0  0  0  0
  -14.6737   13.8416   11.9908 H   0  0  0  0  0
  -12.7573   11.7239    9.2679 H   0  0  0  0  0
  -11.4328   12.7802    9.8487 H   0  0  0  0  0
  -14.3931   13.4529    9.6304 H   0  0  0  0  0
  -13.0046   14.1929    8.7165 H   0  0  0  0  0
  -12.2748   15.1775   10.7925 H   0  0  0  0  0
  -15.1763   15.5927   10.4041 H   0  0  0  0  0
  -13.8833   16.2411    9.2735 H   0  0  0  0  0
  -16.1078   17.1913   11.7688 H   0  0  0  0  0
  -17.1088   19.1983   13.4064 H   0  0  0  0  0
  -11.9218   19.7232   12.0647 H   0  0  0  0  0
  -10.5789   19.0786   10.3108 H   0  0  0  0  0
  -10.2039   18.0088   11.6842 H   0  0  0  0  0
   -9.8189   17.4940   10.0235 H   0  0  0  0  0
  1  2  4  0  0  0
  1  5  4  0  0  0
 12  1  4  0  0  0
  2  3  4  0  0  0
  2 13  4  0  0  0
  3  4  4  0  0  0
  3 15  1  0  0  0
 14  4  4  0  0  0
  5 14  4  0  0  0
  7  6  1  0  0  0
  7  8  1  0  0  0
  7  9  1  0  0  0
 10  7  1  0  0  0
 11 10  1  0  0  0
 11 12  4  0  0  0
 11 13  4  0  0  0
 15 16  1  0  0  0
 16 17  1  0  0  0
 16 19  1  0  0  0
 17 18  1  0  0  0
 18 21  1  0  0  0
 19 20  1  0  0  0
 20 21  1  0  0  0
 21 22  1  0  0  0
 22 23  1  0  0  0
 23 24  4  0  0  0
 23 33  4  0  0  0
 24 25  4  0  0  0
 25 26  4  0  0  0
 25 31  4  0  0  0
 26 27  4  0  0  0
 27 28  1  0  0  0
 27 30  4  0  0  0
 28 29  3  0  0  0
 30 31  4  0  0  0
 31 32  4  0  0  0
 32 33  4  0  0  0
 33 34  1  0  0  0
 34 35  1  0  0  0
 10 36  1  0  0  0
 10 37  1  0  0  0
 13 38  1  0  0  0
 14 39  1  0  0  0
 15 40  1  0  0  0
 16 41  1  0  0  0
 17 42  1  0  0  0
 17 43  1  0  0  0
 18 44  1  0  0  0
 18 45  1  0  0  0
 19 46  1  0  0  0
 19 47  1  0  0  0
 20 48  1  0  0  0
 20 49  1  0  0  0
 21 50  1  0  0  0
 22 51  1  0  0  0
 22 52  1  0  0  0
 24 53  1  0  0  0
 26 54  1  0  0  0
 32 55  1  0  0  0
 35 56  1  0  0  0
 35 57  1  0  0  0
 35 58  1  0  0  0
M  END
$$$$
