6qlo_ligand
  -I-interpret- 

 52 55  0  0  0  0  0  0  0  0999 V2000
  -12.9540    8.4940    0.2380 C   0  0  0  0  0
  -12.9850    8.5340    1.5860 C   0  0  0  0  0
  -11.8940    8.7760    2.3620 C   0  0  0  0  0
  -10.6100    8.9980    1.7640 C   0  0  0  0  0
  -10.5500    8.9660    0.3850 C   0  0  0  0  0
  -25.3940    9.0230   -5.8050 C   0  0  0  0  0
  -24.2640    9.2990   -4.8020 C   0  0  0  0  0
  -23.8910   10.6180   -4.4340 C   0  0  0  0  0
  -22.8460   10.8790   -3.5040 C   0  0  0  0  0
  -23.5360    8.2720   -4.1770 C   0  0  0  0  0
  -22.5020    8.5310   -3.2470 C   0  0  0  0  0
  -22.1380    9.8380   -2.8870 C   0  0  0  0  0
  -19.7670    8.7090   -1.6240 C   0  0  0  0  0
  -19.6660    6.4610   -0.8600 C   0  0  0  0  0
  -20.3540    5.4770    0.0370 C   0  0  0  0  0
  -18.1920    6.6170   -0.5690 C   0  0  0  0  0
  -17.6190    7.6800   -1.5250 C   0  0  0  0  0
  -15.4480    8.2280   -0.2360 C   0  0  0  0  0
  -14.1180    8.2060   -0.5340 C   0  0  0  0  0
  -11.6870    8.7070   -0.3460 C   0  0  0  0  0
  -18.2980    9.0300   -1.3950 C   0  0  0  0  0
  -11.9840    8.7920    3.6580 F   0  0  0  0  0
   -9.5820    9.2370    2.4980 F   0  0  0  0  0
  -16.1840    7.8190   -1.3520 N   0  0  0  0  0
  -14.0880    7.7560   -1.8580 N   0  0  0  0  0
  -15.2760    7.5430   -2.3090 N   0  0  0  0  0
  -20.2890    7.7370   -0.7520 O   0  0  0  0  0
  -21.7050    5.3710   -0.3020 O   0  0  0  0  0
  -18.0030    7.0200    0.7570 O   0  0  0  0  0
  -17.8780    9.8930   -2.4330 O   0  0  0  0  0
  -20.8070   10.1760   -1.7130 S   0  0  0  0  0
  -13.9400    8.3624    2.0826 H   0  0  0  0  0
   -9.6031    9.1457   -0.1242 H   0  0  0  0  0
  -26.3254    9.4434   -5.4258 H   0  0  0  0  0
  -25.1491    9.4836   -6.7621 H   0  0  0  0  0
  -25.5066    7.9468   -5.9365 H   0  0  0  0  0
  -24.4228   11.4592   -4.8786 H   0  0  0  0  0
  -22.5902   11.9115   -3.2660 H   0  0  0  0  0
  -23.7773    7.2367   -4.4180 H   0  0  0  0  0
  -21.9725    7.6913   -2.7969 H   0  0  0  0  0
  -19.7903    8.2503   -2.6125 H   0  0  0  0  0
  -19.7584    6.0617   -1.8700 H   0  0  0  0  0
  -20.2726    5.8197    1.0685 H   0  0  0  0  0
  -19.8816    4.5014   -0.0776 H   0  0  0  0  0
  -17.6820    5.6649   -0.7155 H   0  0  0  0  0
  -17.8247    7.3191   -2.5327 H   0  0  0  0  0
  -15.8724    8.5196    0.7247 H   0  0  0  0  0
  -11.6047    8.6642   -1.4320 H   0  0  0  0  0
  -18.0809    9.5120   -0.4418 H   0  0  0  0  0
  -22.1312    4.7381    0.2805 H   0  0  0  0  0
  -17.0637    7.1158    0.9304 H   0  0  0  0  0
  -16.9511   10.1112   -2.3109 H   0  0  0  0  0
  1  2  4  0  0  0
 19  1  1  0  0  0
  1 20  4  0  0  0
  2  3  4  0  0  0
  3  4  4  0  0  0
  3 22  1  0  0  0
  5  4  4  0  0  0
  4 23  1  0  0  0
 20  5  4  0  0  0
  7  6  1  0  0  0
  8  7  4  0  0  0
 10  7  4  0  0  0
  9  8  4  0  0  0
 12  9  4  0  0  0
 11 10  4  0  0  0
 12 11  4  0  0  0
 31 12  1  0  0  0
 21 13  1  0  0  0
 13 27  1  0  0  0
 13 31  1  0  0  0
 14 15  1  0  0  0
 16 14  1  0  0  0
 14 27  1  0  0  0
 15 28  1  0  0  0
 17 16  1  0  0  0
 16 29  1  0  0  0
 17 21  1  0  0  0
 24 17  1  0  0  0
 18 19  4  0  0  0
 18 24  4  0  0  0
 19 25  4  0  0  0
 21 30  1  0  0  0
 24 26  4  0  0  0
 25 26  4  0  0  0
  2 32  1  0  0  0
  5 33  1  0  0  0
  6 34  1  0  0  0
  6 35  1  0  0  0
  6 36  1  0  0  0
  8 37  1  0  0  0
  9 38  1  0  0  0
 10 39  1  0  0  0
 11 40  1  0  0  0
 13 41  1  0  0  0
 14 42  1  0  0  0
 15 43  1  0  0  0
 15 44  1  0  0  0
 16 45  1  0  0  0
 17 46  1  0  0  0
 18 47  1  0  0  0
 20 48  1  0  0  0
 21 49  1  0  0  0
 28 50  1  0  0  0
 29 51  1  0  0  0
 30 52  1  0  0  0
M  END
$$$$
