6iiu_ligand
  -I-interpret- 

 50 53  0  0  0  0  0  0  0  0999 V2000
   20.0300  162.9740  145.3630 F   0  0  0  0  0
   27.6380  163.1300  147.9760 C   0  0  0  0  0
   26.1910  162.8780  147.4460 C   0  0  0  0  0
   21.1990  162.4210  145.5920 C   0  0  0  0  0
   21.6040  162.2650  146.9250 C   0  0  0  0  0
   22.8290  161.6490  147.1490 C   0  0  0  0  0
   21.9940  161.9690  144.4880 C   0  0  0  0  0
   23.2320  161.3520  144.7420 C   0  0  0  0  0
   23.6680  161.1980  146.0810 C   0  0  0  0  0
   25.1490  160.5580  146.4060 S   0  0  0  0  0
   25.1330  160.0270  147.7230 O   0  0  0  0  0
   25.6240  159.7470  145.3490 O   0  0  0  0  0
   26.1490  161.8670  146.4270 N   0  0  0  0  0
   25.5250  164.1940  146.9370 C   0  0  0  0  0
   25.2540  165.1110  148.1490 C   0  0  0  0  0
   26.4840  165.1640  149.0410 C   0  0  0  0  0
   27.5440  164.2500  148.9830 C   0  0  0  0  0
   28.4530  164.5740  150.0160 C   0  0  0  0  0
   27.9150  165.7280  150.6990 C   0  0  0  0  0
   28.5910  166.2640  151.8260 C   0  0  0  0  0
   29.7820  165.6320  152.2440 C   0  0  0  0  0
   30.3190  164.5030  151.5670 C   0  0  0  0  0
   29.6700  163.9720  150.4570 C   0  0  0  0  0
   26.6930  166.1300  150.0760 N   0  0  0  0  0
   26.5660  167.5440  149.6260 C   0  0  0  0  0
   25.8340  168.5000  150.5180 C   0  0  0  0  0
   26.9050  169.2800  151.2160 C   0  0  0  0  0
   27.6790  170.0800  150.7260 O   0  0  0  0  0
   27.0660  169.0670  152.5150 O   0  0  0  0  0
   28.3088  163.3978  147.1597 H   0  0  0  0  0
   28.0452  162.2291  148.4350 H   0  0  0  0  0
   25.6164  162.5107  148.2963 H   0  0  0  0  0
   20.9837  162.6125  147.7512 H   0  0  0  0  0
   23.1634  161.5039  148.1762 H   0  0  0  0  0
   21.6433  162.1019  143.4645 H   0  0  0  0  0
   23.8495  160.9961  143.9173 H   0  0  0  0  0
   26.7968  161.9686  145.6457 H   0  0  0  0  0
   24.5881  163.9633  146.4299 H   0  0  0  0  0
   26.1880  164.6966  146.2328 H   0  0  0  0  0
   24.4129  164.7158  148.7186 H   0  0  0  0  0
   25.0219  166.1157  147.7956 H   0  0  0  0  0
   28.2028  167.1361  152.3521 H   0  0  0  0  0
   30.3077  166.0228  153.1152 H   0  0  0  0  0
   31.2456  164.0504  151.9201 H   0  0  0  0  0
   30.0838  163.1106  149.9327 H   0  0  0  0  0
   25.9852  167.5042  148.7045 H   0  0  0  0  0
   27.5863  167.9233  149.5693 H   0  0  0  0  0
   25.1894  167.9782  151.2253 H   0  0  0  0  0
   25.1666  169.1494  149.9515 H   0  0  0  0  0
   26.4174  168.4264  152.8159 H   0  0  0  0  0
  4  1  1  0  0  0
  3  2  1  0  0  0
  2 17  1  0  0  0
 13  3  1  0  0  0
  3 14  1  0  0  0
  5  4  4  0  0  0
  7  4  4  0  0  0
  6  5  4  0  0  0
  9  6  4  0  0  0
  8  7  4  0  0  0
  9  8  4  0  0  0
 10  9  1  0  0  0
 10 11  2  0  0  0
 10 12  2  0  0  0
 10 13  1  0  0  0
 14 15  1  0  0  0
 15 16  1  0  0  0
 16 17  4  0  0  0
 16 24  4  0  0  0
 17 18  4  0  0  0
 18 19  4  0  0  0
 18 23  4  0  0  0
 19 20  4  0  0  0
 19 24  4  0  0  0
 20 21  4  0  0  0
 21 22  4  0  0  0
 22 23  4  0  0  0
 24 25  1  0  0  0
 25 26  1  0  0  0
 26 27  1  0  0  0
 27 28  2  0  0  0
 27 29  1  0  0  0
  2 30  1  0  0  0
  2 31  1  0  0  0
  3 32  1  0  0  0
  5 33  1  0  0  0
  6 34  1  0  0  0
  7 35  1  0  0  0
  8 36  1  0  0  0
 13 37  1  0  0  0
 14 38  1  0  0  0
 14 39  1  0  0  0
 15 40  1  0  0  0
 15 41  1  0  0  0
 20 42  1  0  0  0
 21 43  1  0  0  0
 22 44  1  0  0  0
 23 45  1  0  0  0
 25 46  1  0  0  0
 25 47  1  0  0  0
 26 48  1  0  0  0
 26 49  1  0  0  0
 29 50  1  0  0  0
M  END
$$$$
