4lar_ligand
  -I-interpret- 

 24 24  0  0  0  0  0  0  0  0999 V2000
   -3.2520   -1.7060   15.7760 N   0  3  0  0  0
   -3.3340   -3.1340   15.6650 C   0  0  0  0  0
   -2.1240   -3.5060   14.9520 C   0  0  0  0  0
   -3.3090   -3.8580   17.0040 C   0  0  0  0  0
   -4.1880   -4.8900   17.1200 C   0  0  0  0  0
   -5.4610   -4.7690   16.6340 C   0  0  0  0  0
   -3.8210   -6.0170   17.7880 C   0  0  0  0  0
   -6.3590   -5.7880   16.7950 C   0  0  0  0  0
   -4.7070   -7.0300   17.9520 C   0  0  0  0  0
   -5.9930   -6.9230   17.4560 C   0  0  0  0  0
   -3.2742   -1.2919   14.8441 H   0  0  0  0  0
   -4.0429   -1.3626   16.3209 H   0  0  0  0  0
   -2.3808   -1.4518   16.2416 H   0  0  0  0  0
   -4.2724   -3.4071   15.1824 H   0  0  0  0  0
   -1.2534   -3.2051   15.5347 H   0  0  0  0  0
   -2.1084   -4.5858   14.8042 H   0  0  0  0  0
   -2.1057   -3.0052   13.9840 H   0  0  0  0  0
   -3.5849   -3.1248   17.7619 H   0  0  0  0  0
   -2.3110   -4.2828   17.1119 H   0  0  0  0  0
   -5.7606   -3.8575   16.1168 H   0  0  0  0  0
   -2.8126   -6.1057   18.1921 H   0  0  0  0  0
   -7.3683   -5.6926   16.3945 H   0  0  0  0  0
   -4.4034   -7.9349   18.4784 H   0  0  0  0  0
   -6.7059   -7.7363   17.5917 H   0  0  0  0  0
  1  2  1  0  0  0
  2  3  1  0  0  0
  2  4  1  0  0  0
  4  5  1  0  0  0
  5  6  4  0  0  0
  5  7  4  0  0  0
  6  8  4  0  0  0
  7  9  4  0  0  0
  8 10  4  0  0  0
  9 10  4  0  0  0
  1 11  1  0  0  0
  1 12  1  0  0  0
  1 13  1  0  0  0
  2 14  1  0  0  0
  3 15  1  0  0  0
  3 16  1  0  0  0
  3 17  1  0  0  0
  4 18  1  0  0  0
  4 19  1  0  0  0
  6 20  1  0  0  0
  7 21  1  0  0  0
  8 22  1  0  0  0
  9 23  1  0  0  0
 10 24  1  0  0  0
M  END
$$$$
