2buv_ligand
  -I-interpret- 

 17 17  0  0  0  0  0  0  0  0999 V2000
   12.1990  -13.9010   41.4500 C   0  0  0  0  0
   11.0860  -14.0810   42.2540 C   0  0  0  0  0
    9.8260  -13.7250   41.7910 C   0  0  0  0  0
    8.7140  -13.9070   42.6010 O   0  0  0  0  0
    9.6810  -13.1840   40.5280 C   0  0  0  0  0
    8.4270  -12.8270   40.0750 O   0  0  0  0  0
   10.7930  -12.9990   39.7170 C   0  0  0  0  0
   12.0530  -13.3620   40.1760 C   0  0  0  0  0
   13.5210  -14.2720   41.9400 C   0  0  0  0  0
   13.9950  -13.6890   42.9500 O   0  0  0  0  0
   14.1970  -15.1670   41.3600 O   0  0  0  0  0
   11.1991  -14.5031   43.2526 H   0  0  0  0  0
    7.9282  -13.6127   42.1347 H   0  0  0  0  0
    8.4985  -12.4700   39.1867 H   0  0  0  0  0
   10.6774  -12.5696   38.7218 H   0  0  0  0  0
   12.9263  -13.2246   39.5384 H   0  0  0  0  0
   13.6989  -15.5099   40.6144 H   0  0  0  0  0
  1  2  4  0  0  0
  1  8  4  0  0  0
  1  9  1  0  0  0
  2  3  4  0  0  0
  3  4  1  0  0  0
  3  5  4  0  0  0
  5  6  1  0  0  0
  5  7  4  0  0  0
  7  8  4  0  0  0
  9 10  2  0  0  0
  9 11  1  0  0  0
  2 12  1  0  0  0
  4 13  1  0  0  0
  6 14  1  0  0  0
  7 15  1  0  0  0
  8 16  1  0  0  0
 11 17  1  0  0  0
M  END
$$$$
