1rhj_ligand
  -I-interpret- 

 89 90  0  0  0  0  0  0  0  0999 V2000
  -76.3660   37.3190   79.5680 C   0  0  0  0  0
  -77.8220   36.9900   79.9480 C   0  0  0  0  0
  -78.5830   36.2350   78.8410 C   0  0  0  0  0
  -79.7460   35.3980   79.4070 C   0  0  0  0  0
  -79.8080   33.9890   78.7840 C   0  0  0  0  0
  -80.4810   32.9510   79.7320 C   0  0  0  0  0
  -81.6440   32.1230   79.2760 N   0  3  0  0  0
  -81.2650   31.2510   78.1230 C   0  0  0  0  0
  -82.8560   32.9410   78.9310 C   0  0  0  0  0
  -84.2740   32.4330   79.3750 C   0  0  0  0  0
  -84.1730   31.3950   78.7340 O   0  0  0  0  0
  -84.5520   32.4560   80.8810 C   0  0  0  0  0
  -84.8690   33.8330   81.2520 N   0  0  0  0  0
  -85.7800   31.5450   81.2190 C   0  0  0  0  0
  -86.0070   31.1610   82.6880 C   0  0  0  0  0
  -87.2050   31.1050   83.0980 O   0  0  0  0  0
  -85.0100   30.8910   83.4120 O   0  0  0  0  0
  -84.1700   34.5540   82.1450 C   0  0  0  0  0
  -84.6060   36.0280   82.3160 C   0  0  0  0  0
  -83.2400   34.1000   82.8080 O   0  0  0  0  0
  -84.0840   36.8430   81.1040 C   0  0  0  0  0
  -84.8500   38.1590   80.8700 C   0  0  0  0  0
  -84.2290   36.7310   83.6010 N   0  0  0  0  0
  -84.5990   37.4160   85.9360 C   0  0  0  0  0
  -83.3660   38.1290   85.9050 N   0  0  0  0  0
  -82.5310   38.1770   84.7530 C   0  0  0  0  0
  -82.9300   37.5030   83.6430 C   0  0  0  0  0
  -85.0770   36.6590   84.6890 C   0  0  0  0  0
  -86.1500   36.0580   84.7260 O   0  0  0  0  0
  -81.2700   39.0450   84.8490 C   0  0  0  0  0
  -80.3210   38.8120   83.6400 C   0  0  0  0  0
  -80.5010   38.7270   86.1480 C   0  0  0  0  0
  -81.6830   40.5300   84.8730 C   0  0  0  0  0
  -85.2860   37.4620   87.0990 N   0  0  0  0  0
  -85.1200   38.4330   88.1820 C   0  0  0  0  0
  -85.7240   39.7790   87.7590 C   0  0  0  0  0
  -87.1370   40.2250   87.5540 C   0  0  0  0  0
  -87.1010   41.5030   87.1880 N   0  0  0  0  0
  -85.7430   41.9140   87.1440 O   0  0  0  0  0
  -84.9350   40.8190   87.5030 N   0  0  0  0  0
  -88.4450   39.4560   87.7010 C   0  0  0  0  0
  -75.8258   36.3934   79.3690 H   0  0  0  0  0
  -76.3573   37.9453   78.6759 H   0  0  0  0  0
  -75.8882   37.8502   80.3911 H   0  0  0  0  0
  -78.3397   37.9337   80.1198 H   0  0  0  0  0
  -77.7964   36.3475   80.8281 H   0  0  0  0  0
  -77.8847   35.5585   78.3483 H   0  0  0  0  0
  -78.9967   36.9697   78.1502 H   0  0  0  0  0
  -80.6783   35.9126   79.1744 H   0  0  0  0  0
  -79.5927   35.2873   80.4805 H   0  0  0  0  0
  -78.7869   33.6592   78.5924 H   0  0  0  0  0
  -80.4022   34.0487   77.8722 H   0  0  0  0  0
  -80.8914   33.5590   80.5382 H   0  0  0  0  0
  -79.6954   32.2193   79.9204 H   0  0  0  0  0
  -81.8983   31.5371   80.0712 H   0  0  0  0  0
  -82.0927   30.5820   77.8876 H   0  0  0  0  0
  -81.0415   31.8734   77.2565 H   0  0  0  0  0
  -80.3854   30.6639   78.3869 H   0  0  0  0  0
  -82.8893   32.9453   77.8415 H   0  0  0  0  0
  -82.7178   33.8828   79.4620 H   0  0  0  0  0
  -85.1792   33.0066   79.1758 H   0  0  0  0  0
  -84.9693   30.8711   78.8480 H   0  0  0  0  0
  -83.6822   32.0891   81.4259 H   0  0  0  0  0
  -85.6720   34.2753   80.8048 H   0  0  0  0  0
  -85.5956   30.6051   80.6988 H   0  0  0  0  0
  -86.6580   32.1234   80.9315 H   0  0  0  0  0
  -87.7982   31.3498   82.3840 H   0  0  0  0  0
  -85.6937   35.9814   82.3691 H   0  0  0  0  0
  -84.2145   36.2263   80.2148 H   0  0  0  0  0
  -83.0447   37.1014   81.3070 H   0  0  0  0  0
  -85.9014   37.9381   80.6861 H   0  0  0  0  0
  -84.7594   38.7925   81.7524 H   0  0  0  0  0
  -84.4292   38.6742   80.0065 H   0  0  0  0  0
  -82.2952   37.5193   82.7571 H   0  0  0  0  0
  -80.0177   37.7654   83.6143 H   0  0  0  0  0
  -80.8427   39.0632   82.7165 H   0  0  0  0  0
  -79.4395   39.4446   83.7445 H   0  0  0  0  0
  -81.1409   38.9306   87.0066 H   0  0  0  0  0
  -80.2121   37.6760   86.1496 H   0  0  0  0  0
  -79.6086   39.3505   86.2023 H   0  0  0  0  0
  -82.2260   40.7696   83.9588 H   0  0  0  0  0
  -82.3230   40.7139   85.7360 H   0  0  0  0  0
  -80.7911   41.1528   84.9412 H   0  0  0  0  0
  -85.9963   36.7431   87.2370 H   0  0  0  0  0
  -84.0588   38.5618   88.3952 H   0  0  0  0  0
  -85.6286   38.0712   89.0756 H   0  0  0  0  0
  -88.4459   38.6087   87.0153 H   0  0  0  0  0
  -88.5402   39.0960   88.7254 H   0  0  0  0  0
  -89.2809   40.1153   87.4670 H   0  0  0  0  0
  2  1  1  0  0  0
  3  2  1  0  0  0
  4  3  1  0  0  0
  5  4  1  0  0  0
  6  5  1  0  0  0
  7  6  1  0  0  0
  7  8  1  0  0  0
  9  7  1  0  0  0
 10  9  1  0  0  0
 10 11  1  0  0  0
 12 10  1  0  0  0
 13 12  1  0  0  0
 12 14  1  0  0  0
 18 13  1  0  0  0
 14 15  1  0  0  0
 15 16  1  0  0  0
 15 17  2  0  0  0
 19 18  1  0  0  0
 18 20  2  0  0  0
 19 21  1  0  0  0
 23 19  1  0  0  0
 21 22  1  0  0  0
 23 27  1  0  0  0
 28 23  1  0  0  0
 24 25  2  0  0  0
 24 28  1  0  0  0
 24 34  1  0  0  0
 25 26  1  0  0  0
 26 27  2  0  0  0
 26 30  1  0  0  0
 28 29  2  0  0  0
 30 31  1  0  0  0
 30 32  1  0  0  0
 30 33  1  0  0  0
 34 35  1  0  0  0
 35 36  1  0  0  0
 36 37  4  0  0  0
 36 40  4  0  0  0
 37 38  4  0  0  0
 37 41  1  0  0  0
 38 39  4  0  0  0
 39 40  4  0  0  0
  1 42  1  0  0  0
  1 43  1  0  0  0
  1 44  1  0  0  0
  2 45  1  0  0  0
  2 46  1  0  0  0
  3 47  1  0  0  0
  3 48  1  0  0  0
  4 49  1  0  0  0
  4 50  1  0  0  0
  5 51  1  0  0  0
  5 52  1  0  0  0
  6 53  1  0  0  0
  6 54  1  0  0  0
  7 55  1  0  0  0
  8 56  1  0  0  0
  8 57  1  0  0  0
  8 58  1  0  0  0
  9 59  1  0  0  0
  9 60  1  0  0  0
 10 61  1  0  0  0
 11 62  1  0  0  0
 12 63  1  0  0  0
 13 64  1  0  0  0
 14 65  1  0  0  0
 14 66  1  0  0  0
 16 67  1  0  0  0
 19 68  1  0  0  0
 21 69  1  0  0  0
 21 70  1  0  0  0
 22 71  1  0  0  0
 22 72  1  0  0  0
 22 73  1  0  0  0
 27 74  1  0  0  0
 31 75  1  0  0  0
 31 76  1  0  0  0
 31 77  1  0  0  0
 32 78  1  0  0  0
 32 79  1  0  0  0
 32 80  1  0  0  0
 33 81  1  0  0  0
 33 82  1  0  0  0
 33 83  1  0  0  0
 34 84  1  0  0  0
 35 85  1  0  0  0
 35 86  1  0  0  0
 41 87  1  0  0  0
 41 88  1  0  0  0
 41 89  1  0  0  0
M  END
$$$$
