3tjd_ligand
  -I-interpret- 

 50 52  0  0  0  0  0  0  0  0999 V2000
  111.6190   60.4580    5.6300 C   0  0  0  0  0
  117.9580   67.9850   11.0670 N   0  0  0  0  0
  109.4440   62.8930    5.3700 O   0  0  0  0  0
  113.9580   66.5050   10.3760 S   0  0  0  0  0
  112.0330   64.8190    8.2820 C   0  0  0  0  0
  118.4060   67.4210    8.8200 N   0  0  0  0  0
  113.8550   67.0920   13.3520 O   0  0  0  0  0
  110.7490   63.1730    4.8880 S   0  0  0  0  0
  111.4300   59.0750    4.9820 C   0  0  0  0  0
  115.2660   68.5830   14.1290 N   0  0  0  0  0
  110.7910   63.9390    3.7030 O   0  0  0  0  0
  110.6120   60.5210    6.7440 C   0  0  0  0  0
  111.5760   61.6350    4.6800 N   0  0  0  0  0
  112.9340   64.4410    5.5320 C   0  0  0  0  0
  112.9790   60.4450    6.2490 C   0  0  0  0  0
  115.6680   66.3170    8.4550 C   0  0  0  0  0
  116.1750   66.9200    9.6350 C   0  0  0  0  0
  115.3970   67.1030   10.7940 C   0  0  0  0  0
  117.5310   67.4320    9.8730 C   0  0  0  0  0
  115.7790   67.6510   12.0100 C   0  0  0  0  0
  114.8760   67.7330   13.1870 C   0  0  0  0  0
  117.1250   68.1070   12.1320 C   0  0  0  0  0
  114.3270   66.0170    8.7840 C   0  0  0  0  0
  114.4140   68.7250   15.2730 C   0  0  0  0  0
  113.3650   65.3070    7.8330 C   0  0  0  0  0
  111.1630   64.1490    7.3690 C   0  0  0  0  0
  111.6760   64.0000    6.0460 C   0  0  0  0  0
  113.7850   65.1010    6.4440 C   0  0  0  0  0
  111.7193   64.9739    9.3143 H   0  0  0  0  0
  119.3412   67.8131    8.9299 H   0  0  0  0  0
  118.1227   67.0207    7.9256 H   0  0  0  0  0
  111.6098   58.2990    5.7260 H   0  0  0  0  0
  110.4114   58.9886    4.6038 H   0  0  0  0  0
  112.1355   58.9614    4.1589 H   0  0  0  0  0
  116.1339   69.1119   14.0426 H   0  0  0  0  0
  109.6091   60.4075    6.3323 H   0  0  0  0  0
  110.8075   59.7179    7.4546 H   0  0  0  0  0
  110.6917   61.4831    7.2501 H   0  0  0  0  0
  112.0925   61.5219    3.8078 H   0  0  0  0  0
  113.2205   64.2768    4.4932 H   0  0  0  0  0
  113.0299   59.6515    6.9945 H   0  0  0  0  0
  113.7269   60.2677    5.4761 H   0  0  0  0  0
  113.1688   61.4064    6.7263 H   0  0  0  0  0
  116.1897   66.1295    7.5165 H   0  0  0  0  0
  117.4789   68.5461   13.0648 H   0  0  0  0  0
  113.4323   69.0735   14.9523 H   0  0  0  0  0
  114.3137   67.7609   15.7716 H   0  0  0  0  0
  114.8504   69.4482   15.9619 H   0  0  0  0  0
  110.1802   63.7790    7.6611 H   0  0  0  0  0
  114.7599   65.4595    6.1136 H   0  0  0  0  0
  1  9  1  0  0  0
  1 12  1  0  0  0
 13  1  1  0  0  0
  1 15  1  0  0  0
 19  2  4  0  0  0
  2 22  4  0  0  0
  8  3  2  0  0  0
  4 18  4  0  0  0
 23  4  4  0  0  0
 25  5  4  0  0  0
  5 26  4  0  0  0
 19  6  1  0  0  0
 21  7  2  0  0  0
  8 11  2  0  0  0
  8 13  1  0  0  0
 27  8  1  0  0  0
 21 10  1  0  0  0
 10 24  1  0  0  0
 14 27  4  0  0  0
 28 14  4  0  0  0
 16 17  4  0  0  0
 23 16  4  0  0  0
 17 18  4  0  0  0
 17 19  4  0  0  0
 18 20  4  0  0  0
 20 21  1  0  0  0
 20 22  4  0  0  0
 25 23  1  0  0  0
 25 28  4  0  0  0
 26 27  4  0  0  0
  5 29  1  0  0  0
  6 30  1  0  0  0
  6 31  1  0  0  0
  9 32  1  0  0  0
  9 33  1  0  0  0
  9 34  1  0  0  0
 10 35  1  0  0  0
 12 36  1  0  0  0
 12 37  1  0  0  0
 12 38  1  0  0  0
 13 39  1  0  0  0
 14 40  1  0  0  0
 15 41  1  0  0  0
 15 42  1  0  0  0
 15 43  1  0  0  0
 16 44  1  0  0  0
 22 45  1  0  0  0
 24 46  1  0  0  0
 24 47  1  0  0  0
 24 48  1  0  0  0
 26 49  1  0  0  0
 28 50  1  0  0  0
M  END
$$$$
