6ghh_ligand
  -I-interpret- 

 37 36  0  0  0  0  0  0  0  0999 V2000
   29.7480  -47.2550  113.2660 O   0  0  0  0  0
   30.7870  -48.7350  112.0920 O   0  0  0  0  0
   30.8360  -47.7210  112.8410 C   0  0  0  0  0
   32.1290  -47.0850  113.2630 C   0  0  0  0  0
   33.3130  -47.0480  112.3460 C   0  0  0  0  0
   34.6700  -47.2510  112.9400 C   0  0  0  0  0
   35.8290  -47.5070  112.0430 C   0  0  0  0  0
   36.7160  -48.6770  112.2630 C   0  0  0  0  0
   38.0390  -48.7210  111.5800 C   0  0  0  0  0
   38.9800  -49.8400  111.8510 C   0  0  0  0  0
   40.2970  -49.7760  111.1800 C   0  0  0  0  0
   41.2220  -50.9210  111.2060 C   0  0  0  0  0
   42.4230  -50.7490  110.3780 C   0  0  0  0  0
   43.5160  -51.7270  110.4980 C   0  0  0  0  0
   44.6620  -51.5480  109.5740 C   0  0  0  0  0
   31.6779  -48.9881  111.8393 H   0  0  0  0  0
   32.4635  -47.7003  114.0982 H   0  0  0  0  0
   31.8717  -46.0349  113.4014 H   0  0  0  0  0
   33.3268  -46.0392  111.9333 H   0  0  0  0  0
   33.1715  -47.8818  111.6584 H   0  0  0  0  0
   34.5778  -48.1566  113.5396 H   0  0  0  0  0
   34.9023  -46.3058  113.4307 H   0  0  0  0  0
   36.4802  -46.6466  112.1974 H   0  0  0  0  0
   35.3757  -47.6959  111.0699 H   0  0  0  0  0
   36.4035  -49.4925  112.9152 H   0  0  0  0  0
   38.3175  -47.9324  110.8810 H   0  0  0  0  0
   38.4938  -50.7398  111.4741 H   0  0  0  0  0
   39.1857  -49.8076  112.9209 H   0  0  0  0  0
   40.8303  -48.9948  111.7217 H   0  0  0  0  0
   40.0491  -49.6622  110.1247 H   0  0  0  0  0
   40.6800  -51.7794  110.8093 H   0  0  0  0  0
   41.5577  -51.0380  112.2364 H   0  0  0  0  0
   42.5033  -49.9107  109.6860 H   0  0  0  0  0
   43.4850  -52.5380  111.2257 H   0  0  0  0  0
   44.3107  -51.6148  108.5443 H   0  0  0  0  0
   45.1137  -50.5704  109.7425 H   0  0  0  0  0
   45.4010  -52.3277  109.7584 H   0  0  0  0  0
  1  3  2  0  0  0
  3  2  1  0  0  0
  3  4  1  0  0  0
  4  5  1  0  0  0
  5  6  1  0  0  0
  6  7  1  0  0  0
  7  8  1  0  0  0
  8  9  2  0  0  0
  9 10  1  0  0  0
 10 11  1  0  0  0
 11 12  1  0  0  0
 12 13  1  0  0  0
 13 14  2  0  0  0
 14 15  1  0  0  0
  2 16  1  0  0  0
  4 17  1  0  0  0
  4 18  1  0  0  0
  5 19  1  0  0  0
  5 20  1  0  0  0
  6 21  1  0  0  0
  6 22  1  0  0  0
  7 23  1  0  0  0
  7 24  1  0  0  0
  8 25  1  0  0  0
  9 26  1  0  0  0
 10 27  1  0  0  0
 10 28  1  0  0  0
 11 29  1  0  0  0
 11 30  1  0  0  0
 12 31  1  0  0  0
 12 32  1  0  0  0
 13 33  1  0  0  0
 14 34  1  0  0  0
 15 35  1  0  0  0
 15 36  1  0  0  0
 15 37  1  0  0  0
M  END
$$$$
