2rg5_ligand
  -I-interpret- 

 50 52  0  0  0  0  0  0  0  0999 V2000
   -3.8850   -0.0190   14.0800 C   0  0  0  0  0
   -4.9140   -0.4950   14.9190 C   0  0  0  0  0
   -2.2600   -1.1680   15.4190 C   0  0  0  0  0
   -1.4860   -3.3000   21.6710 C   0  0  0  0  0
   -2.5430   -0.3520   14.3350 C   0  0  0  0  0
   -1.6320   -4.5170   21.0300 C   0  0  0  0  0
   -4.6090   -1.3150   16.0190 C   0  0  0  0  0
   -2.0560   -4.2370   19.6850 C   0  0  0  0  0
   -3.2700   -1.6460   16.2550 C   0  0  0  0  0
   -2.1590   -2.8570   19.5990 C   0  0  0  0  0
   -2.1300   -0.2140   20.0540 C   0  0  0  0  0
   -2.5320   -1.9590   18.5480 C   0  0  0  0  0
   -1.3570    0.0700   13.5290 C   0  0  0  0  0
   -1.3530   -5.8080   21.6400 C   0  0  0  0  0
   -5.6800   -1.8450   16.9270 C   0  0  0  0  0
   -2.3500   -5.2380   18.6190 C   0  0  0  0  0
    1.1250   -7.4270   22.9230 C   0  0  0  0  0
    0.2780    1.3670   11.0850 C   0  0  0  0  0
   -0.1570   -6.8670   23.5180 C   0  0  0  0  0
   -1.7940   -0.9580   21.0640 N   0  0  0  0  0
   -2.4920   -0.6700   18.8050 N   0  0  0  0  0
   -1.8180   -2.3020   20.8000 N   0  0  0  0  0
   -2.9030   -2.4660   17.3270 N   0  0  0  0  0
   -0.5610   -5.7080   22.7640 N   0  0  0  0  0
   -1.5080    1.0530   12.5640 N   0  0  0  0  0
   -0.2850   -0.4870   13.7610 O   0  0  0  0  0
   -1.7670   -6.8690   21.1840 O   0  0  0  0  0
   -0.2810    1.7590   12.3370 O   0  0  0  0  0
   -4.1323    0.6124   13.2266 H   0  0  0  0  0
   -5.9500   -0.2258   14.7135 H   0  0  0  0  0
   -1.2251   -1.4426   15.6231 H   0  0  0  0  0
   -1.1597   -3.1605   22.7016 H   0  0  0  0  0
   -2.1253    0.8651   20.2076 H   0  0  0  0  0
   -6.2154   -1.0110   17.3807 H   0  0  0  0  0
   -6.3756   -2.4539   16.3495 H   0  0  0  0  0
   -5.2241   -2.4537   17.7079 H   0  0  0  0  0
   -1.4573   -5.8325   18.4244 H   0  0  0  0  0
   -3.1582   -5.8909   18.9484 H   0  0  0  0  0
   -2.6485   -4.7195   17.7079 H   0  0  0  0  0
    0.9497   -7.7078   21.8845 H   0  0  0  0  0
    1.9068   -6.6688   22.9687 H   0  0  0  0  0
    1.4345   -8.3045   23.4907 H   0  0  0  0  0
    0.4753    0.2951   11.0963 H   0  0  0  0  0
   -0.4255    1.5999   10.2856 H   0  0  0  0  0
    1.2100    1.9075   10.9195 H   0  0  0  0  0
    0.0136   -6.5865   24.5574 H   0  0  0  0  0
   -0.9411   -7.6230   23.4758 H   0  0  0  0  0
   -2.9112   -3.4777   17.1970 H   0  0  0  0  0
   -0.2518   -4.7857   23.0709 H   0  0  0  0  0
   -2.3821    1.2495   12.0765 H   0  0  0  0  0
  1  2  4  0  0  0
  5  1  4  0  0  0
  2  7  4  0  0  0
  5  3  4  0  0  0
  3  9  4  0  0  0
  4  6  4  0  0  0
 22  4  4  0  0  0
 13  5  1  0  0  0
  8  6  4  0  0  0
  6 14  1  0  0  0
  9  7  4  0  0  0
  7 15  1  0  0  0
 10  8  4  0  0  0
  8 16  1  0  0  0
  9 23  1  0  0  0
 12 10  4  0  0  0
 10 22  4  0  0  0
 11 20  4  0  0  0
 21 11  4  0  0  0
 12 21  4  0  0  0
 23 12  1  0  0  0
 25 13  1  0  0  0
 13 26  2  0  0  0
 14 24  1  0  0  0
 14 27  2  0  0  0
 19 17  1  0  0  0
 28 18  1  0  0  0
 24 19  1  0  0  0
 22 20  4  0  0  0
 25 28  1  0  0  0
  1 29  1  0  0  0
  2 30  1  0  0  0
  3 31  1  0  0  0
  4 32  1  0  0  0
 11 33  1  0  0  0
 15 34  1  0  0  0
 15 35  1  0  0  0
 15 36  1  0  0  0
 16 37  1  0  0  0
 16 38  1  0  0  0
 16 39  1  0  0  0
 17 40  1  0  0  0
 17 41  1  0  0  0
 17 42  1  0  0  0
 18 43  1  0  0  0
 18 44  1  0  0  0
 18 45  1  0  0  0
 19 46  1  0  0  0
 19 47  1  0  0  0
 23 48  1  0  0  0
 24 49  1  0  0  0
 25 50  1  0  0  0
M  END
$$$$
