### 
### Created by X-TOOL on Mon Aug  2 16:13:53 2021
### 

@<TRIPOS>MOLECULE
6hld_ligand
  166   168     1     0     0
SMALL
GAST_HUCK


@<TRIPOS>ATOM
      1 N          59.1830  -38.3370   -7.9930 N.4       1 ALN         0.2395
      2 CA         59.7460  -36.9870   -7.7850 C.3       1 ALN         0.0751
      3 C          58.6480  -35.9450   -7.4480 C.2       1 ALN         0.2290
      4 O          58.9640  -34.8300   -7.0310 O.2       1 ALN        -0.3905
      5 CB         60.5320  -36.5150   -9.0180 C.3       1 ALN         0.0439
      6 CG1        61.9010  -36.7010   -8.8280 C.ar      1 ALN        -0.0247
      7 CD1        62.3940  -37.1520   -7.6070 C.ar      1 ALN        -0.0604
      8 CE1        63.7600  -37.3320   -7.4280 C.ar      1 ALN        -0.0707
      9 CD2        62.7810  -36.4270   -9.8690 C.ar      1 ALN        -0.0118
     10 CE2        64.1480  -36.6070   -9.6900 C.ar      1 ALN        -0.0243
     11 CZ1        64.6370  -37.0590   -8.4700 C.ar      1 ALN        -0.0631
     12 CG2        62.2940  -35.9740  -11.0900 C.ar      1 ALN        -0.0548
     13 CD3        63.1720  -35.7010  -12.1320 C.ar      1 ALN        -0.0625
     14 CE3        64.5390  -35.8810  -11.9520 C.ar      1 ALN        -0.0629
     15 CZ2        65.0260  -36.3340  -10.7320 C.ar      1 ALN        -0.0569
     16 N          57.3680  -36.3280   -7.6390 N.am      1 ALN        -0.2609
     17 CA         56.2330  -35.4170   -7.3760 C.3       1 ALN         0.1312
     18 C          55.6390  -35.6270   -5.9690 C.2       1 ALN         0.2039
     19 O          55.4460  -36.7540   -5.5120 O.2       1 ALN        -0.3944
     20 CB         55.1440  -35.6200   -8.4400 C.3       1 ALN        -0.0092
     21 CG         55.3710  -34.6030   -9.5650 C.3       1 ALN        -0.0156
     22 CD         54.3980  -34.8360  -10.7290 C.3       1 ALN         0.0627
     23 NE         53.0350  -34.3190  -10.4520 N.pl3     1 ALN        -0.2723
     24 CZ         52.6650  -33.0330  -10.2070 C.cat     1 ALN         0.2882
     25 NH1        51.3690  -32.7510  -10.0090 N.pl3     1 ALN        -0.2849
     26 NH2        53.5580  -32.0260  -10.1520 N.pl3     1 ALN        -0.2849
     27 N          55.3340  -34.4970   -5.3060 N.am      1 ALN        -0.2637
     28 CA         54.7500  -34.5150   -3.9490 C.3       1 ALN         0.1311
     29 C          53.2670  -34.9730   -4.0050 C.2       1 ALN         0.2039
     30 O          52.8150  -35.7200   -3.1340 O.2       1 ALN        -0.3944
     31 CB         54.8990  -33.1160   -3.3150 C.3       1 ALN        -0.0092
     32 CG         54.3790  -33.0900   -1.8490 C.3       1 ALN        -0.0156
     33 CD         54.7620  -31.7500   -1.2030 C.3       1 ALN         0.0627
     34 NE         54.1270  -31.5390    0.1130 N.pl3     1 ALN        -0.2723
     35 CZ         52.9480  -30.9040    0.2880 C.cat     1 ALN         0.2882
     36 NH1        52.2690  -30.4630   -0.7940 N.pl3     1 ALN        -0.2849
     37 NH2        52.4460  -30.7280    1.5410 N.pl3     1 ALN        -0.2849
     38 N          52.5170  -34.4950   -5.0270 N.am      1 ALN        -0.2637
     39 CA         51.0870  -34.8430   -5.1970 C.3       1 ALN         0.1311
     40 C          50.8440  -35.3500   -6.6450 C.2       1 ALN         0.2039
     41 O          51.4930  -34.8980   -7.5880 O.2       1 ALN        -0.3944
     42 CB         50.2070  -33.6220   -4.8400 C.3       1 ALN        -0.0092
     43 CG         50.5260  -33.1070   -3.4100 C.3       1 ALN        -0.0156
     44 CD         49.8550  -34.0220   -2.3720 C.3       1 ALN         0.0627
     45 NE         50.0520  -33.5520   -0.9840 N.pl3     1 ALN        -0.2723
     46 CZ         50.8640  -34.1760   -0.0950 C.cat     1 ALN         0.2882
     47 NH1        50.9600  -33.7460    1.1820 N.pl3     1 ALN        -0.2849
     48 NH2        51.5760  -35.2460   -0.4780 N.pl3     1 ALN        -0.2849
     49 C          48.1260  -36.8660   -8.4220 C.2       1 ALN         0.2039
     50 N          49.9260  -36.3230   -6.7860 N.am      1 ALN        -0.2637
     51 O          47.2830  -36.8390   -7.5190 O.2       1 ALN        -0.3944
     52 CA         49.6260  -36.9630   -8.0890 C.3       1 ALN         0.1310
     53 CB         49.9760  -38.4570   -7.9520 C.3       1 ALN        -0.0122
     54 CD         52.1330  -39.2840   -8.9790 C.3       1 ALN        -0.0124
     55 CE         53.6080  -39.6440   -8.7210 C.3       1 ALN        -0.0354
     56 CG         51.4830  -38.6890   -7.7110 C.3       1 ALN        -0.0440
     57 NZ         54.3690  -39.7550   -9.9820 N.4       1 ALN         0.2185
     58 N          47.8240  -36.8350   -9.7420 N.am      1 ALN        -0.2637
     59 CA         46.4490  -36.8100  -10.2660 C.3       1 ALN         0.1310
     60 C          45.8590  -38.1810   -9.9240 C.2       1 ALN         0.2035
     61 O          46.5580  -39.1790  -10.0430 O.2       1 ALN        -0.3944
     62 CB         46.4550  -36.6410  -11.8050 C.3       1 ALN        -0.0122
     63 CG         46.9740  -35.2620  -12.2110 C.3       1 ALN        -0.0440
     64 CD         47.0440  -35.1240  -13.7600 C.3       1 ALN        -0.0124
     65 CE         47.1920  -33.6340  -14.1090 C.3       1 ALN        -0.0354
     66 NZ         47.7490  -33.4040  -15.4560 N.4       1 ALN         0.2185
     67 N23        44.5950  -38.2140   -9.4610 N.am      1 ALN        -0.2737
     68 C16        43.9660  -39.4680   -8.9960 C.3       1 ALN         0.0645
     69 C17        44.0890  -39.5130   -7.5550 C.ar      1 ALN        -0.0210
     70 C22        43.0050  -39.2450   -6.7310 C.ar      1 ALN        -0.0584
     71 C21        43.1000  -39.2610   -5.3270 C.ar      1 ALN        -0.0633
     72 C24        44.3050  -39.5670   -4.6880 C.ar      1 ALN         0.0188
     73 C27        44.4120  -39.5980   -3.2770 C.cat     1 ALN         0.2318
     74 N35        45.6070  -39.8370   -2.7100 N.pl3     1 ALN        -0.2729
     75 N34        43.3260  -39.3470   -2.5330 N.pl3     1 ALN        -0.2729
     76 C19        45.4000  -39.8430   -5.5100 C.ar      1 ALN        -0.0633
     77 C18        45.2980  -39.8120   -6.9200 C.ar      1 ALN        -0.0584
     78 H1         59.9271  -38.9817   -8.2090 H         1 ALN         0.2017
     79 H2         58.5266  -38.3132   -8.7576 H         1 ALN         0.2017
     80 H3         58.7112  -38.6372   -7.1543 H         1 ALN         0.2017
     81 H4         60.4400  -37.0407   -6.9332 H         1 ALN         0.1125
     82 H5         60.3324  -35.4465   -9.1868 H         1 ALN         0.0520
     83 H6         60.2073  -37.0920   -9.8964 H         1 ALN         0.0520
     84 H7         61.7100  -37.3635   -6.7931 H         1 ALN         0.0530
     85 H8         64.1408  -37.6850   -6.4765 H         1 ALN         0.0595
     86 H9         65.7030  -37.1985   -8.3316 H         1 ALN         0.0542
     87 H10        61.2282  -35.8336  -11.2293 H         1 ALN         0.0628
     88 H11        62.7917  -35.3482  -13.0838 H         1 ALN         0.0601
     89 H12        65.2250  -35.6678  -12.7638 H         1 ALN         0.0616
     90 H13        66.0918  -36.4746  -10.5929 H         1 ALN         0.0609
     91 H14        57.1818  -37.2539   -7.9676 H         1 ALN         0.1885
     92 H15        56.6003  -34.3823   -7.4427 H         1 ALN         0.0800
     93 H16        54.1522  -35.4623   -7.9913 H         1 ALN         0.0313
     94 H17        55.2054  -36.6411   -8.8444 H         1 ALN         0.0313
     95 H18        56.4024  -34.7011   -9.9345 H         1 ALN         0.0301
     96 H19        55.2187  -33.5886   -9.1677 H         1 ALN         0.0301
     97 H20        54.3315  -35.9172  -10.9203 H         1 ALN         0.0689
     98 H21        54.7912  -34.3290  -11.6225 H         1 ALN         0.0689
     99 H22        52.2782  -35.0176  -10.4443 H         1 ALN         0.2642
    100 H23        51.0756  -31.7814   -9.8226 H         1 ALN         0.2615
    101 H24        50.6670  -33.5040  -10.0434 H         1 ALN         0.2615
    102 H25        54.5592  -32.2168  -10.3007 H         1 ALN         0.2615
    103 H26        53.2396  -31.0652   -9.9613 H         1 ALN         0.2615
    104 H27        55.5082  -33.6160   -5.7460 H         1 ALN         0.1883
    105 H28        55.3084  -35.2360   -3.3339 H         1 ALN         0.0800
    106 H29        54.3235  -32.3918   -3.9102 H         1 ALN         0.0313
    107 H30        55.9620  -32.8332   -3.3211 H         1 ALN         0.0313
    108 H31        54.8342  -33.9155   -1.2821 H         1 ALN         0.0301
    109 H32        53.2847  -33.2016   -1.8444 H         1 ALN         0.0301
    110 H33        54.4528  -30.9362   -1.8753 H         1 ALN         0.0689
    111 H34        55.8540  -31.7234   -1.0730 H         1 ALN         0.0689
    112 H35        54.6123  -31.8976    0.9477 H         1 ALN         0.2642
    113 H36        51.3687  -29.9772   -0.6742 H         1 ALN         0.2615
    114 H37        52.6518  -30.6127   -1.7384 H         1 ALN         0.2615
    115 H38        52.9717  -31.0680    2.3589 H         1 ALN         0.2615
    116 H39        51.5404  -30.2548    1.6712 H         1 ALN         0.2615
    117 H40        52.9452  -33.8836   -5.6924 H         1 ALN         0.1883
    118 H41        50.8375  -35.6587   -4.5024 H         1 ALN         0.0800
    119 H42        49.1479  -33.9149   -4.8891 H         1 ALN         0.0313
    120 H43        50.3986  -32.8162   -5.5638 H         1 ALN         0.0313
    121 H44        50.1438  -32.0819   -3.2961 H         1 ALN         0.0301
    122 H45        51.6147  -33.1120   -3.2532 H         1 ALN         0.0301
    123 H46        50.2813  -35.0317   -2.4653 H         1 ALN         0.0689
    124 H47        48.7757  -34.0589   -2.5810 H         1 ALN         0.0689
    125 H48        49.5472  -32.7083   -0.6769 H         1 ALN         0.2642
    126 H49        51.5819  -34.2321    1.8437 H         1 ALN         0.2615
    127 H50        50.4113  -32.9320    1.4940 H         1 ALN         0.2615
    128 H51        51.5134  -35.5858   -1.4483 H         1 ALN         0.2615
    129 H52        52.1855  -35.7280    0.1982 H         1 ALN         0.2615
    130 H53        49.4241  -36.6279   -5.9766 H         1 ALN         0.1883
    131 H54        50.2202  -36.4935   -8.8868 H         1 ALN         0.0800
    132 H55        49.6825  -38.9748   -8.8770 H         1 ALN         0.0312
    133 H56        49.4142  -38.8750   -7.1037 H         1 ALN         0.0312
    134 H57        51.5862  -40.1923   -9.2720 H         1 ALN         0.0317
    135 H58        52.0792  -38.5452   -9.7922 H         1 ALN         0.0317
    136 H59        53.6531  -40.6068   -8.1909 H         1 ALN         0.0813
    137 H60        54.0629  -38.8604   -8.0973 H         1 ALN         0.0813
    138 H61        51.6148  -39.3876   -6.8716 H         1 ALN         0.0269
    139 H62        51.9655  -37.7304   -7.4695 H         1 ALN         0.0269
    140 H63        55.3272  -39.9909   -9.7765 H         1 ALN         0.1994
    141 H64        54.3374  -38.8748  -10.4721 H         1 ALN         0.1994
    142 H65        53.9618  -40.4751  -10.5579 H         1 ALN         0.1994
    143 H66        48.5786  -36.8287  -10.3981 H         1 ALN         0.1883
    144 H67        45.8685  -36.0006   -9.7993 H         1 ALN         0.0800
    145 H68        45.4291  -36.7630  -12.1828 H         1 ALN         0.0312
    146 H69        47.1029  -37.4120  -12.2475 H         1 ALN         0.0312
    147 H70        47.9808  -35.1192  -11.7917 H         1 ALN         0.0269
    148 H71        46.2978  -34.4917  -11.8118 H         1 ALN         0.0269
    149 H72        46.1223  -35.5211  -14.2103 H         1 ALN         0.0317
    150 H73        47.9100  -35.6831  -14.1439 H         1 ALN         0.0317
    151 H74        47.8598  -33.1667  -13.3703 H         1 ALN         0.0813
    152 H75        46.1996  -33.1625  -14.0561 H         1 ALN         0.0813
    153 H76        47.8213  -32.4129  -15.6249 H         1 ALN         0.1994
    154 H77        47.1424  -33.8190  -16.1458 H         1 ALN         0.1994
    155 H78        48.6638  -33.8229  -15.5174 H         1 ALN         0.1994
    156 H79        44.0666  -37.3655   -9.4309 H         1 ALN         0.1878
    157 H80        44.4785  -40.3326   -9.4430 H         1 ALN         0.0683
    158 H81        42.9040  -39.4831   -9.2821 H         1 ALN         0.0683
    159 H82        42.0486  -39.0145   -7.1862 H         1 ALN         0.0557
    160 H83        42.2239  -39.0322   -4.7310 H         1 ALN         0.0599
    161 H84        45.6946  -39.8615   -1.6840 H         1 ALN         0.3180
    162 H85        46.4352  -39.9957   -3.3015 H         1 ALN         0.3180
    163 H86        42.4201  -39.1665   -2.9886 H         1 ALN         0.3180
    164 H87        43.3973  -39.3346   -1.5055 H         1 ALN         0.3180
    165 H88        46.3531  -40.0874   -5.0551 H         1 ALN         0.0599
    166 H89        46.1750  -40.0244   -7.5207 H         1 ALN         0.0557
@<TRIPOS>BOND
     1    2    1 1  
     2    3    2 1  
     3    2    5 1  
     4    3    4 2  
     5   16    3 am 
     6    5    6 1  
     7    6    7 ar 
     8    6    9 ar 
     9    7    8 ar 
    10    8   11 ar 
    11    9   10 ar 
    12    9   12 ar 
    13   10   11 ar 
    14   10   15 ar 
    15   12   13 ar 
    16   13   14 ar 
    17   15   14 ar 
    18   17   16 1  
    19   18   17 1  
    20   17   20 1  
    21   18   19 2  
    22   27   18 am 
    23   20   21 1  
    24   21   22 1  
    25   22   23 1  
    26   23   24 ar 
    27   24   25 ar 
    28   24   26 ar 
    29   28   27 1  
    30   29   28 1  
    31   28   31 1  
    32   29   30 2  
    33   38   29 am 
    34   31   32 1  
    35   32   33 1  
    36   33   34 1  
    37   34   35 ar 
    38   35   36 ar 
    39   35   37 ar 
    40   39   38 1  
    41   40   39 1  
    42   39   42 1  
    43   40   41 2  
    44   50   40 am 
    45   42   43 1  
    46   43   44 1  
    47   44   45 1  
    48   45   46 ar 
    49   46   47 ar 
    50   46   48 ar 
    51   49   51 2  
    52   52   49 1  
    53   49   58 am 
    54   52   50 1  
    55   53   52 1  
    56   56   53 1  
    57   54   55 1  
    58   54   56 1  
    59   55   57 1  
    60   58   59 1  
    61   59   60 1  
    62   59   62 1  
    63   60   61 2  
    64   60   67 am 
    65   62   63 1  
    66   63   64 1  
    67   64   65 1  
    68   65   66 1  
    69   67   68 1  
    70   68   69 1  
    71   69   70 ar 
    72   69   77 ar 
    73   70   71 ar 
    74   71   72 ar 
    75   72   73 1  
    76   72   76 ar 
    77   73   74 ar 
    78   73   75 ar 
    79   76   77 ar 
    80    1   78 1  
    81    1   79 1  
    82    1   80 1  
    83    2   81 1  
    84    5   82 1  
    85    5   83 1  
    86    7   84 1  
    87    8   85 1  
    88   11   86 1  
    89   12   87 1  
    90   13   88 1  
    91   14   89 1  
    92   15   90 1  
    93   16   91 1  
    94   17   92 1  
    95   20   93 1  
    96   20   94 1  
    97   21   95 1  
    98   21   96 1  
    99   22   97 1  
   100   22   98 1  
   101   23   99 1  
   102   25  100 1  
   103   25  101 1  
   104   26  102 1  
   105   26  103 1  
   106   27  104 1  
   107   28  105 1  
   108   31  106 1  
   109   31  107 1  
   110   32  108 1  
   111   32  109 1  
   112   33  110 1  
   113   33  111 1  
   114   34  112 1  
   115   36  113 1  
   116   36  114 1  
   117   37  115 1  
   118   37  116 1  
   119   38  117 1  
   120   39  118 1  
   121   42  119 1  
   122   42  120 1  
   123   43  121 1  
   124   43  122 1  
   125   44  123 1  
   126   44  124 1  
   127   45  125 1  
   128   47  126 1  
   129   47  127 1  
   130   48  128 1  
   131   48  129 1  
   132   50  130 1  
   133   52  131 1  
   134   53  132 1  
   135   53  133 1  
   136   54  134 1  
   137   54  135 1  
   138   55  136 1  
   139   55  137 1  
   140   56  138 1  
   141   56  139 1  
   142   57  140 1  
   143   57  141 1  
   144   57  142 1  
   145   58  143 1  
   146   59  144 1  
   147   62  145 1  
   148   62  146 1  
   149   63  147 1  
   150   63  148 1  
   151   64  149 1  
   152   64  150 1  
   153   65  151 1  
   154   65  152 1  
   155   66  153 1  
   156   66  154 1  
   157   66  155 1  
   158   67  156 1  
   159   68  157 1  
   160   68  158 1  
   161   70  159 1  
   162   71  160 1  
   163   74  161 1  
   164   74  162 1  
   165   75  163 1  
   166   75  164 1  
   167   76  165 1  
   168   77  166 1  
@<TRIPOS>SUBSTRUCTURE
     1 ALN         1

