6hld_ligand
  -I-interpret- 

162164  0  0  0  0  0  0  0  0999 V2000
   59.1830  -38.3370   -7.9930 N   0  3  0  0  0
   59.7460  -36.9870   -7.7850 C   0  0  0  0  0
   58.6480  -35.9450   -7.4480 C   0  0  0  0  0
   58.9640  -34.8300   -7.0310 O   0  0  0  0  0
   60.5320  -36.5150   -9.0180 C   0  0  0  0  0
   61.9010  -36.7010   -8.8280 C   0  0  0  0  0
   62.3940  -37.1520   -7.6070 C   0  0  0  0  0
   63.7600  -37.3320   -7.4280 C   0  0  0  0  0
   62.7810  -36.4270   -9.8690 C   0  0  0  0  0
   64.1480  -36.6070   -9.6900 C   0  0  0  0  0
   64.6370  -37.0590   -8.4700 C   0  0  0  0  0
   62.2940  -35.9740  -11.0900 C   0  0  0  0  0
   63.1720  -35.7010  -12.1320 C   0  0  0  0  0
   64.5390  -35.8810  -11.9520 C   0  0  0  0  0
   65.0260  -36.3340  -10.7320 C   0  0  0  0  0
   57.3680  -36.3280   -7.6390 N   0  0  0  0  0
   56.2330  -35.4170   -7.3760 C   0  0  0  0  0
   55.6390  -35.6270   -5.9690 C   0  0  0  0  0
   55.4460  -36.7540   -5.5120 O   0  0  0  0  0
   55.1440  -35.6200   -8.4400 C   0  0  0  0  0
   55.3710  -34.6030   -9.5650 C   0  0  0  0  0
   54.3980  -34.8360  -10.7290 C   0  0  0  0  0
   53.0350  -34.3190  -10.4520 N   0  0  0  0  0
   52.6650  -33.0330  -10.2070 C   0  0  0  0  0
   51.3690  -32.7510  -10.0090 N   0  0  0  0  0
   53.5580  -32.0260  -10.1520 N   0  0  0  0  0
   55.3340  -34.4970   -5.3060 N   0  0  0  0  0
   54.7500  -34.5150   -3.9490 C   0  0  0  0  0
   53.2670  -34.9730   -4.0050 C   0  0  0  0  0
   52.8150  -35.7200   -3.1340 O   0  0  0  0  0
   54.8990  -33.1160   -3.3150 C   0  0  0  0  0
   54.3790  -33.0900   -1.8490 C   0  0  0  0  0
   54.7620  -31.7500   -1.2030 C   0  0  0  0  0
   54.1270  -31.5390    0.1130 N   0  0  0  0  0
   52.9480  -30.9040    0.2880 C   0  0  0  0  0
   52.2690  -30.4630   -0.7940 N   0  0  0  0  0
   52.4460  -30.7280    1.5410 N   0  0  0  0  0
   52.5170  -34.4950   -5.0270 N   0  0  0  0  0
   51.0870  -34.8430   -5.1970 C   0  0  0  0  0
   50.8440  -35.3500   -6.6450 C   0  0  0  0  0
   51.4930  -34.8980   -7.5880 O   0  0  0  0  0
   50.2070  -33.6220   -4.8400 C   0  0  0  0  0
   50.5260  -33.1070   -3.4100 C   0  0  0  0  0
   49.8550  -34.0220   -2.3720 C   0  0  0  0  0
   50.0520  -33.5520   -0.9840 N   0  0  0  0  0
   50.8640  -34.1760   -0.0950 C   0  0  0  0  0
   50.9600  -33.7460    1.1820 N   0  0  0  0  0
   51.5760  -35.2460   -0.4780 N   0  0  0  0  0
   48.1260  -36.8660   -8.4220 C   0  0  0  0  0
   49.9260  -36.3230   -6.7860 N   0  0  0  0  0
   47.2830  -36.8390   -7.5190 O   0  0  0  0  0
   49.6260  -36.9630   -8.0890 C   0  0  0  0  0
   49.9760  -38.4570   -7.9520 C   0  0  0  0  0
   52.1330  -39.2840   -8.9790 C   0  0  0  0  0
   53.6080  -39.6440   -8.7210 C   0  0  0  0  0
   51.4830  -38.6890   -7.7110 C   0  0  0  0  0
   54.3690  -39.7550   -9.9820 N   0  3  0  0  0
   47.8240  -36.8350   -9.7420 N   0  0  0  0  0
   46.4490  -36.8100  -10.2660 C   0  0  0  0  0
   45.8590  -38.1810   -9.9240 C   0  0  0  0  0
   46.5580  -39.1790  -10.0430 O   0  0  0  0  0
   46.4550  -36.6410  -11.8050 C   0  0  0  0  0
   46.9740  -35.2620  -12.2110 C   0  0  0  0  0
   47.0440  -35.1240  -13.7600 C   0  0  0  0  0
   47.1920  -33.6340  -14.1090 C   0  0  0  0  0
   47.7490  -33.4040  -15.4560 N   0  3  0  0  0
   44.5950  -38.2140   -9.4610 N   0  0  0  0  0
   43.9660  -39.4680   -8.9960 C   0  0  0  0  0
   44.0890  -39.5130   -7.5550 C   0  0  0  0  0
   43.0050  -39.2450   -6.7310 C   0  0  0  0  0
   43.1000  -39.2610   -5.3270 C   0  0  0  0  0
   44.3050  -39.5670   -4.6880 C   0  0  0  0  0
   44.4120  -39.5980   -3.2770 C   0  0  0  0  0
   45.6070  -39.8370   -2.7100 N   0  0  0  0  0
   43.3260  -39.3470   -2.5330 N   0  0  0  0  0
   45.4000  -39.8430   -5.5100 C   0  0  0  0  0
   45.2980  -39.8120   -6.9200 C   0  0  0  0  0
   58.6685  -38.6216   -7.1595 H   0  0  0  0  0
   58.5524  -38.3213   -8.7945 H   0  0  0  0  0
   59.9409  -38.9969   -8.1680 H   0  0  0  0  0
   60.4229  -37.0636   -6.9341 H   0  0  0  0  0
   60.3382  -35.4540   -9.1756 H   0  0  0  0  0
   60.2134  -37.0958   -9.8836 H   0  0  0  0  0
   61.7062  -37.3647   -6.7886 H   0  0  0  0  0
   64.1429  -37.6870   -6.4712 H   0  0  0  0  0
   65.7089  -37.1993   -8.3309 H   0  0  0  0  0
   61.2223  -35.8328  -11.2301 H   0  0  0  0  0
   62.7896  -35.3463  -13.0891 H   0  0  0  0  0
   65.2288  -35.6667  -12.7683 H   0  0  0  0  0
   66.0977  -36.4754  -10.5922 H   0  0  0  0  0
   57.1781  -37.2724   -7.9742 H   0  0  0  0  0
   56.6105  -34.3956   -7.4247 H   0  0  0  0  0
   54.1586  -35.4733   -7.9978 H   0  0  0  0  0
   55.1953  -36.6336   -8.8375 H   0  0  0  0  0
   56.3899  -34.7158   -9.9355 H   0  0  0  0  0
   55.2045  -33.6018   -9.1676 H   0  0  0  0  0
   54.3208  -35.9114  -10.8891 H   0  0  0  0  0
   54.7855  -34.3058  -11.5990 H   0  0  0  0  0
   52.2855  -35.0108  -10.4444 H   0  0  0  0  0
   50.6738  -33.4966  -10.0430 H   0  0  0  0  0
   53.2427  -31.0745   -9.9631 H   0  0  0  0  0
   54.5495  -32.2150  -10.2992 H   0  0  0  0  0
   55.5117  -33.5984   -5.7548 H   0  0  0  0  0
   55.2822  -35.2321   -3.3240 H   0  0  0  0  0
   54.3109  -32.4093   -3.9005 H   0  0  0  0  0
   55.9567  -32.8527   -3.3088 H   0  0  0  0  0
   54.8270  -33.9093   -1.2867 H   0  0  0  0  0
   53.2949  -33.2034   -1.8426 H   0  0  0  0  0
   54.4229  -30.9539   -1.8658 H   0  0  0  0  0
   55.8417  -31.7511   -1.0534 H   0  0  0  0  0
   54.6076  -31.8941    0.9396 H   0  0  0  0  0
   52.6481  -30.6112   -1.7293 H   0  0  0  0  0
   51.5492  -30.2594    1.6700 H   0  0  0  0  0
   52.9666  -31.0647    2.3509 H   0  0  0  0  0
   52.9538  -33.8713   -5.7057 H   0  0  0  0  0
   50.8096  -35.6499   -4.5187 H   0  0  0  0  0
   49.1598  -33.9218   -4.8788 H   0  0  0  0  0
   50.4103  -32.8233   -5.5533 H   0  0  0  0  0
   50.1466  -32.0914   -3.2973 H   0  0  0  0  0
   51.6049  -33.1126   -3.2548 H   0  0  0  0  0
   50.3052  -35.0110   -2.4573 H   0  0  0  0  0
   48.7839  -34.0280   -2.5742 H   0  0  0  0  0
   49.5521  -32.7165   -0.6799 H   0  0  0  0  0
   51.5679  -34.2337    1.8400 H   0  0  0  0  0
   50.4246  -32.9336    1.4882 H   0  0  0  0  0
   51.5061  -35.5888   -1.4361 H   0  0  0  0  0
   49.4140  -36.6340   -5.9604 H   0  0  0  0  0
   50.1954  -36.4664   -8.8747 H   0  0  0  0  0
   49.7030  -38.9539   -8.8829 H   0  0  0  0  0
   49.4325  -38.8533   -7.0943 H   0  0  0  0  0
   51.5941  -40.1895   -9.2580 H   0  0  0  0  0
   52.0867  -38.5437   -9.7777 H   0  0  0  0  0
   53.6435  -40.6069   -8.2114 H   0  0  0  0  0
   54.0549  -38.8540   -8.1174 H   0  0  0  0  0
   51.6114  -39.3842   -6.8814 H   0  0  0  0  0
   51.9599  -37.7376   -7.4754 H   0  0  0  0  0
   55.3384  -39.9937   -9.7728 H   0  0  0  0  0
   53.9561  -40.4839  -10.5639 H   0  0  0  0  0
   54.3363  -38.8638  -10.4770 H   0  0  0  0  0
   48.5937  -36.8286  -10.4113 H   0  0  0  0  0
   45.8802  -35.9837   -9.8395 H   0  0  0  0  0
   45.4334  -36.7481  -12.1695 H   0  0  0  0  0
   47.1107  -37.3985  -12.2344 H   0  0  0  0  0
   47.9766  -35.1325  -11.8034 H   0  0  0  0  0
   46.2925  -34.5046  -11.8236 H   0  0  0  0  0
   46.1360  -35.5241  -14.2112 H   0  0  0  0  0
   47.8960  -35.6836  -14.1459 H   0  0  0  0  0
   47.8800  -33.1929  -13.3877 H   0  0  0  0  0
   46.1975  -33.1886  -14.0827 H   0  0  0  0  0
   47.8217  -32.4009  -15.6258 H   0  0  0  0  0
   48.6745  -33.8283  -15.5169 H   0  0  0  0  0
   47.1344  -33.8244  -16.1531 H   0  0  0  0  0
   44.0560  -37.3486   -9.4303 H   0  0  0  0  0
   44.4591  -40.3296   -9.4461 H   0  0  0  0  0
   42.9164  -39.4973   -9.2885 H   0  0  0  0  0
   42.0433  -39.0133   -7.1887 H   0  0  0  0  0
   42.2191  -39.0309   -4.7277 H   0  0  0  0  0
   45.7002  -39.8296   -1.6943 H   0  0  0  0  0
   46.4206  -40.0258   -3.2954 H   0  0  0  0  0
   42.4359  -39.1368   -2.9846 H   0  0  0  0  0
   46.3584  -40.0887   -5.0526 H   0  0  0  0  0
   46.1799  -40.0256   -7.5240 H   0  0  0  0  0
  2  1  1  0  0  0
  3  2  1  0  0  0
  2  5  1  0  0  0
  3  4  2  0  0  0
 16  3  1  0  0  0
  5  6  1  0  0  0
  6  7  4  0  0  0
  6  9  4  0  0  0
  7  8  4  0  0  0
  8 11  4  0  0  0
  9 10  4  0  0  0
  9 12  4  0  0  0
 10 11  4  0  0  0
 10 15  4  0  0  0
 12 13  4  0  0  0
 13 14  4  0  0  0
 15 14  4  0  0  0
 17 16  1  0  0  0
 18 17  1  0  0  0
 17 20  1  0  0  0
 18 19  2  0  0  0
 27 18  1  0  0  0
 20 21  1  0  0  0
 21 22  1  0  0  0
 22 23  1  0  0  0
 23 24  1  0  0  0
 24 25  2  0  0  0
 24 26  1  0  0  0
 28 27  1  0  0  0
 29 28  1  0  0  0
 28 31  1  0  0  0
 29 30  2  0  0  0
 38 29  1  0  0  0
 31 32  1  0  0  0
 32 33  1  0  0  0
 33 34  1  0  0  0
 34 35  1  0  0  0
 35 36  2  0  0  0
 35 37  1  0  0  0
 39 38  1  0  0  0
 40 39  1  0  0  0
 39 42  1  0  0  0
 40 41  2  0  0  0
 50 40  1  0  0  0
 42 43  1  0  0  0
 43 44  1  0  0  0
 44 45  1  0  0  0
 45 46  1  0  0  0
 46 47  1  0  0  0
 46 48  2  0  0  0
 49 51  2  0  0  0
 52 49  1  0  0  0
 49 58  1  0  0  0
 52 50  1  0  0  0
 53 52  1  0  0  0
 56 53  1  0  0  0
 54 55  1  0  0  0
 54 56  1  0  0  0
 55 57  1  0  0  0
 58 59  1  0  0  0
 59 60  1  0  0  0
 59 62  1  0  0  0
 60 61  2  0  0  0
 60 67  1  0  0  0
 62 63  1  0  0  0
 63 64  1  0  0  0
 64 65  1  0  0  0
 65 66  1  0  0  0
 67 68  1  0  0  0
 68 69  1  0  0  0
 69 70  4  0  0  0
 69 77  4  0  0  0
 70 71  4  0  0  0
 71 72  4  0  0  0
 72 73  1  0  0  0
 72 76  4  0  0  0
 73 74  1  0  0  0
 73 75  2  0  0  0
 76 77  4  0  0  0
  1 78  1  0  0  0
  1 79  1  0  0  0
  1 80  1  0  0  0
  2 81  1  0  0  0
  5 82  1  0  0  0
  5 83  1  0  0  0
  7 84  1  0  0  0
  8 85  1  0  0  0
 11 86  1  0  0  0
 12 87  1  0  0  0
 13 88  1  0  0  0
 14 89  1  0  0  0
 15 90  1  0  0  0
 16 91  1  0  0  0
 17 92  1  0  0  0
 20 93  1  0  0  0
 20 94  1  0  0  0
 21 95  1  0  0  0
 21 96  1  0  0  0
 22 97  1  0  0  0
 22 98  1  0  0  0
 23 99  1  0  0  0
 25100  1  0  0  0
 26101  1  0  0  0
 26102  1  0  0  0
 27103  1  0  0  0
 28104  1  0  0  0
 31105  1  0  0  0
 31106  1  0  0  0
 32107  1  0  0  0
 32108  1  0  0  0
 33109  1  0  0  0
 33110  1  0  0  0
 34111  1  0  0  0
 36112  1  0  0  0
 37113  1  0  0  0
 37114  1  0  0  0
 38115  1  0  0  0
 39116  1  0  0  0
 42117  1  0  0  0
 42118  1  0  0  0
 43119  1  0  0  0
 43120  1  0  0  0
 44121  1  0  0  0
 44122  1  0  0  0
 45123  1  0  0  0
 47124  1  0  0  0
 47125  1  0  0  0
 48126  1  0  0  0
 50127  1  0  0  0
 52128  1  0  0  0
 53129  1  0  0  0
 53130  1  0  0  0
 54131  1  0  0  0
 54132  1  0  0  0
 55133  1  0  0  0
 55134  1  0  0  0
 56135  1  0  0  0
 56136  1  0  0  0
 57137  1  0  0  0
 57138  1  0  0  0
 57139  1  0  0  0
 58140  1  0  0  0
 59141  1  0  0  0
 62142  1  0  0  0
 62143  1  0  0  0
 63144  1  0  0  0
 63145  1  0  0  0
 64146  1  0  0  0
 64147  1  0  0  0
 65148  1  0  0  0
 65149  1  0  0  0
 66150  1  0  0  0
 66151  1  0  0  0
 66152  1  0  0  0
 67153  1  0  0  0
 68154  1  0  0  0
 68155  1  0  0  0
 70156  1  0  0  0
 71157  1  0  0  0
 74158  1  0  0  0
 74159  1  0  0  0
 75160  1  0  0  0
 76161  1  0  0  0
 77162  1  0  0  0
M  END
$$$$
