6q30_ligand

Created by X-TOOL on Mon Aug  2 16:17:19 2021
 27 28  0  0  0  0  0  0  0  0999 V2000
   -8.5510    1.4510  -17.7200  C 0  0  0  1  0  3
   -9.5500    1.8340  -18.7480  C 0  5  0  1  0  3
  -10.1940    2.8970  -18.6200  O 0  0  0  1  0  1
   -9.6120    1.1040  -19.7660  O 0  0  0  1  0  1
   -8.5760    2.2220  -16.4050  C 0  0  0  1  0  3
   -9.5790    3.3490  -15.7410  S 0  0  0  1  0  2
   -8.8580    3.4610  -14.2860  C 0  0  0  2  0  4
   -9.1790    4.5110  -13.0750  B 0  0  0  1  0  4
   -8.6200    5.9930  -13.5090  O 0  0  0  3  0  3
  -10.7180    4.8520  -12.8460  O 0  0  0  3  0  3
   -8.6600    3.8490  -11.6430  O 0  0  0  3  0  3
   -7.7280    2.5900  -14.1110  C 0  0  0  2  0  3
   -7.5620    1.7780  -15.4160  C 0  0  0  1  0  3
   -6.5090    0.7020  -15.6570  C 0  0  0  2  0  3
   -6.4970    0.0140  -16.9980  C 0  0  0  2  0  3
   -7.5280    0.3900  -18.0060  C 0  0  0  2  0  3
   -9.2036    4.1405  -13.5084  H 0  0  0  1  0  1
   -8.7784    6.6091  -12.8035  H 0  0  0  1  0  1
   -8.7785    6.6091  -12.8034  H 0  0  0  1  0  1
  -11.1799    4.0646  -12.5829  H 0  0  0  1  0  1
  -11.1799    4.0646  -12.5829  H 0  0  0  1  0  1
   -9.0630    2.9969  -11.5249  H 0  0  0  1  0  1
   -9.0630    2.9969  -11.5249  H 0  0  0  1  0  1
   -7.1033    2.5157  -13.2221  H 0  0  0  1  0  1
   -5.7914    0.4400  -14.8879  H 0  0  0  1  0  1
   -5.7522   -0.7403  -17.2249  H 0  0  0  1  0  1
   -7.5396   -0.1132  -18.9661  H 0  0  0  1  0  1
  1  2  1  0  0  2
  1  5  4  0  0  1
  1 16  4  0  0  1
  2  3  2  0  0  2
  2  4  2  0  0  2
  5  6  1  0  0  1
  5 13  4  0  0  1
  6  7  1  0  0  1
  7  8  1  0  0  2
  7 12  2  0  0  1
  8  9  1  0  0  2
  8 10  1  0  0  2
 12 13  1  0  0  1
 13 14  4  0  0  1
 14 15  4  0  0  1
 15 16  4  0  0  1
  8 11  1  0  0  2
  7 17  1  0  0  2
  9 18  1  0  0  2
  9 19  1  0  0  2
 10 20  1  0  0  2
 10 21  1  0  0  2
 11 22  1  0  0  2
 11 23  1  0  0  2
 12 24  1  0  0  2
 14 25  1  0  0  2
 15 26  1  0  0  2
 16 27  1  0  0  2
M  END
> <MOLECULAR_FORMULA>
C9H11O5SB

> <MOLECULAR_WEIGHT>
242.0

> <NUM_HB_ATOMS>
5  

> <NUM_ROTOR>
1  

> <XLOGP2>
0.25 

$$$$
