#	Name:			6q30_ligand
#	Creating user name:	wangrx
#	Creation time:		Thu Aug  5 18:01:05 2021

#	Modifying user name:	wangrx
#	Modification time:	Thu Aug  5 18:01:20 2021

@<TRIPOS>MOLECULE
6q30_ligand
   26    27     1     0     0
SMALL
GAST_HUCK


@<TRIPOS>ATOM
      1 C01        -8.5510    1.4510  -17.7200 C.ar      1 HCH        -0.0468 
      2 C02        -9.5500    1.8340  -18.7480 C.2       1 HCH         0.0245 
      3 O03       -10.1940    2.8970  -18.6200 O.co2     1 HCH        -0.5763 
      4 O04        -9.6120    1.1040  -19.7660 O.co2     1 HCH        -0.5763 
      5 C05        -8.5760    2.2220  -16.4050 C.ar      1 HCH        -0.0174 
      6 S06        -9.5790    3.3490  -15.7410 S.3       1 HCH        -0.1156 
      7 C07        -8.8580    3.4610  -14.2860 C.2       1 HCH        -0.0862 
      8 B08        -9.1790    4.5110  -13.0750 B         1 HCH         4.0000 
      9 O09        -8.6200    5.9930  -13.5090 O.3       1 HCH        -0.4105 
     10 O10       -10.7180    4.8520  -12.8460 O.3       1 HCH        -0.4105 
     11 O11        -8.6600    3.8490  -11.6430 O.3       1 HCH        -0.4105 
     12 C12        -7.7280    2.5900  -14.1110 C.2       1 HCH        -0.1516 
     13 C13        -7.5620    1.7780  -15.4160 C.ar      1 HCH        -0.1090 
     14 C14        -6.5090    0.7020  -15.6570 C.ar      1 HCH        -0.1392 
     15 C15        -6.4970    0.0140  -16.9980 C.ar      1 HCH        -0.1371 
     16 C16        -7.5280    0.3900  -18.0060 C.ar      1 HCH        -0.1281 
     17 H2         -8.7784    6.6091  -12.8035 H         1 HCH         0.2052 
     18 H3         -8.7785    6.6091  -12.8034 H         1 HCH         0.2052 
     19 H4        -11.1799    4.0646  -12.5829 H         1 HCH         0.2052 
     20 H5        -11.1799    4.0646  -12.5829 H         1 HCH         0.2052 
     21 H6         -9.0630    2.9969  -11.5249 H         1 HCH         0.2052 
     22 H7         -9.0630    2.9969  -11.5249 H         1 HCH         0.2052 
     23 H8         -7.1033    2.5157  -13.2221 H         1 HCH         0.0046 
     24 H9         -5.7914    0.4400  -14.8879 H         1 HCH         0.0046 
     25 H10        -5.7522   -0.7403  -17.2249 H         1 HCH         0.0396 
     26 H11        -7.5396   -0.1132  -18.9661 H         1 HCH         0.0100 
@<TRIPOS>BOND
     1    1    2 1    
     2    1    5 ar   
     3    1   16 ar   
     4    2    3 ar   
     5    2    4 ar   
     6    5    6 1    
     7    5   13 ar   
     8    6    7 1    
     9    7    8 1    
    10    7   12 2    
    11    8    9 1    
    12    8   10 1    
    13   12   13 1    
    14   13   14 ar   
    15   14   15 ar   
    16   15   16 ar   
    17    8   11 1    
    18    9   17 1    
    19    9   18 1    
    20   10   19 1    
    21   10   20 1    
    22   11   21 1    
    23   11   22 1    
    24   12   23 1    
    25   14   24 1    
    26   15   25 1    
    27   16   26 1    
@<TRIPOS>SUBSTRUCTURE
     1 HCH         1 PERM              0 ****  ****    0 ROOT 
