5wzt_ligand
  -I-interpret- 

 45 47  0  0  0  0  0  0  0  0999 V2000
  -19.2780  -14.0230  -12.3820 O   0  0  0  0  0
  -18.5560  -14.7090  -11.6220 C   0  0  0  0  0
  -18.9430  -15.7240  -10.9900 O   0  0  0  0  0
  -17.0610  -14.3180  -11.4750 C   0  0  0  0  0
  -16.6030  -13.4810  -12.5790 O   0  0  0  0  0
  -16.1410  -12.1990  -12.3400 C   0  0  0  0  0
  -16.8220  -11.3740  -11.4300 C   0  0  0  0  0
  -16.3570  -10.0960  -11.2090 C   0  0  0  0  0
  -15.2360   -9.6820  -11.9170 C   0  0  0  0  0
  -14.6080  -10.4890  -12.7840 C   0  0  0  0  0
  -15.0370  -11.7500  -13.0130 C   0  0  0  0  0
  -14.1880  -12.2620  -13.9480 C   0  0  0  0  0
  -14.2220  -13.4920  -14.5110 C   0  0  0  0  0
  -13.2790  -14.2850  -14.5070 O   0  0  0  0  0
  -15.5030  -13.8820  -15.2350 C   0  0  0  0  0
  -16.4540  -13.1170  -15.3170 O   0  0  0  0  0
  -15.5410  -15.1120  -15.6840 N   0  0  0  0  0
  -13.2850  -11.3410  -14.2460 C   0  0  0  0  0
  -12.1390  -11.5400  -15.2460 C   0  0  0  0  0
  -13.5310  -10.2350  -13.5370 N   0  0  0  0  0
  -12.7590   -8.9070  -13.5080 C   0  0  0  0  0
  -12.0140   -8.7760  -12.3000 C   0  0  0  0  0
  -11.8350   -7.5160  -11.6940 C   0  0  0  0  0
  -11.1020   -7.3880  -10.5010 C   0  0  0  0  0
  -10.8420   -5.6980   -9.6500 Br  0  0  0  0  0
  -10.5460   -8.5100   -9.8980 C   0  0  0  0  0
  -10.7190   -9.7570  -10.4790 C   0  0  0  0  0
  -11.4390   -9.8970  -11.6680 C   0  0  0  0  0
  -18.2128  -16.0778  -10.4769 H   0  0  0  0  0
  -16.4684  -15.2328  -11.4726 H   0  0  0  0  0
  -16.9460  -13.7539  -10.5495 H   0  0  0  0  0
  -17.7054  -11.7394  -10.9063 H   0  0  0  0  0
  -16.8528   -9.4314  -10.5015 H   0  0  0  0  0
  -14.8560   -8.6720  -11.7633 H   0  0  0  0  0
  -16.3893  -15.4682  -16.1244 H   0  0  0  0  0
  -14.7223  -15.7136  -15.5932 H   0  0  0  0  0
  -11.5087  -12.3653  -14.9148 H   0  0  0  0  0
  -12.5516  -11.7680  -16.2288 H   0  0  0  0  0
  -11.5453  -10.6277  -15.3025 H   0  0  0  0  0
  -13.4731   -8.0858  -13.5694 H   0  0  0  0  0
  -12.0669   -8.8862  -14.3498 H   0  0  0  0  0
  -12.2702   -6.6299  -12.1560 H   0  0  0  0  0
   -9.9772   -8.4102   -8.9736 H   0  0  0  0  0
  -10.2885  -10.6379  -10.0028 H   0  0  0  0  0
  -11.5575  -10.8852  -12.1124 H   0  0  0  0  0
  1  2  2  0  0  0
  2  3  1  0  0  0
  2  4  1  0  0  0
  4  5  1  0  0  0
  5  6  1  0  0  0
  6  7  4  0  0  0
  6 11  4  0  0  0
  7  8  4  0  0  0
  8  9  4  0  0  0
  9 10  4  0  0  0
 10 11  4  0  0  0
 10 20  4  0  0  0
 11 12  4  0  0  0
 12 13  1  0  0  0
 12 18  4  0  0  0
 13 14  2  0  0  0
 13 15  1  0  0  0
 15 16  2  0  0  0
 15 17  1  0  0  0
 18 19  1  0  0  0
 18 20  4  0  0  0
 20 21  1  0  0  0
 21 22  1  0  0  0
 22 23  4  0  0  0
 22 28  4  0  0  0
 23 24  4  0  0  0
 24 25  1  0  0  0
 24 26  4  0  0  0
 26 27  4  0  0  0
 27 28  4  0  0  0
  3 29  1  0  0  0
  4 30  1  0  0  0
  4 31  1  0  0  0
  7 32  1  0  0  0
  8 33  1  0  0  0
  9 34  1  0  0  0
 17 35  1  0  0  0
 17 36  1  0  0  0
 19 37  1  0  0  0
 19 38  1  0  0  0
 19 39  1  0  0  0
 21 40  1  0  0  0
 21 41  1  0  0  0
 23 42  1  0  0  0
 26 43  1  0  0  0
 27 44  1  0  0  0
 28 45  1  0  0  0
M  END
$$$$
