1q5l_ligand
  -I-interpret- 

119118  0  0  0  0  0  0  0  0999 V2000
   -6.6990    3.8330   11.8530 N   0  3  0  0  0
   -5.7250    4.9490   11.7270 C   0  0  0  0  0
   -5.3310    5.1730   10.2700 C   0  0  0  0  0
   -4.8900    6.2610    9.8970 O   0  0  0  0  0
   -4.4850    4.6140   12.5600 C   0  0  0  0  0
   -4.8100    4.3810   14.0240 C   0  0  0  0  0
   -5.9380    4.5970   14.4650 O   0  0  0  0  0
   -3.8150    3.9380   14.7860 N   0  0  0  0  0
   -5.4900    4.1370    9.4530 N   0  0  0  0  0
   -5.1490    4.2220    8.0380 C   0  0  0  0  0
   -6.1750    3.4860    7.1820 C   0  0  0  0  0
   -6.4000    2.2880    7.3570 O   0  0  0  0  0
   -3.7550    3.6400    7.7930 C   0  0  0  0  0
   -2.6260    4.5380    8.2750 C   0  0  0  0  0
   -2.1570    4.1440    9.6670 C   0  0  0  0  0
   -1.5700    5.2720   10.3870 N   0  0  0  0  0
   -0.2630    5.5190   10.4370 C   0  0  0  0  0
    0.5920    4.7250    9.8050 N   0  0  0  0  0
    0.1900    6.5640   11.1180 N   0  0  0  0  0
   -6.7940    4.2140    6.2580 N   0  0  0  0  0
   -7.7980    3.6360    5.3720 C   0  0  0  0  0
   -7.1840    3.2780    4.0190 C   0  0  0  0  0
   -6.0270    2.8710    3.9460 O   0  0  0  0  0
   -8.9640    4.6120    5.1880 C   0  0  0  0  0
  -10.2740    4.1940    5.8630 C   0  0  0  0  0
  -10.7500    2.8550    5.3240 C   0  0  0  0  0
  -10.1000    4.1340    7.3730 C   0  0  0  0  0
   -7.9620    3.4290    2.9500 N   0  0  0  0  0
   -7.4830    3.1180    1.6080 C   0  0  0  0  0
   -8.2970    3.8620    0.5550 C   0  0  0  0  0
   -9.3730    3.4150    0.1590 O   0  0  0  0  0
   -7.5500    1.6110    1.3550 C   0  0  0  0  0
   -6.2450    0.8490    1.6040 C   0  0  0  0  0
   -6.4630   -0.6480    1.4500 C   0  0  0  0  0
   -5.1550    1.3300    0.6560 C   0  0  0  0  0
   -7.7770    4.9990    0.1040 N   0  0  0  0  0
   -8.4560    5.8030   -0.9040 C   0  0  0  0  0
   -7.9010    5.5110   -2.2940 C   0  0  0  0  0
   -6.7510    5.0940   -2.4380 O   0  0  0  0  0
   -8.3110    7.2930   -0.5840 C   0  0  0  0  0
   -9.5910    8.1160   -0.7320 C   0  0  0  0  0
  -10.0610    8.6250    0.6220 C   0  0  0  0  0
   -9.3670    9.2750   -1.6900 C   0  0  0  0  0
   -8.7250    5.7290   -3.3130 N   0  0  0  0  0
   -8.3170    5.4860   -4.6910 C   0  0  0  0  0
   -8.1620    6.7940   -5.4590 C   0  0  0  0  0
   -8.3640    7.8770   -4.9090 O   0  0  0  0  0
   -9.3270    4.5840   -5.4250 C   0  0  0  0  0
  -10.5320    5.3110   -5.6920 O   0  0  0  0  0
   -9.6480    3.3470   -4.5970 C   0  0  0  0  0
   -7.8020    6.6860   -6.7360 N   0  0  0  0  0
   -7.6250    7.8670   -7.5610 C   0  0  0  0  0
   -7.8370    7.5820   -9.0340 C   0  0  0  0  0
   -7.8610    6.3900   -9.4110 O   0  0  0  0  0
   -7.9800    8.5490   -9.8120 O   0  0  0  0  0
   -7.5305    4.0451   11.3015 H   0  0  0  0  0
   -6.2733    2.9715   11.5109 H   0  0  0  0  0
   -6.9592    3.7194   12.8327 H   0  0  0  0  0
   -6.1860    5.8673   12.0909 H   0  0  0  0  0
   -3.8015    5.4609   12.4991 H   0  0  0  0  0
   -4.0522    3.6960   12.1625 H   0  0  0  0  0
   -3.9716    3.7637   15.7787 H   0  0  0  0  0
   -2.8949    3.7724   14.3780 H   0  0  0  0  0
   -5.8593    3.2618    9.8246 H   0  0  0  0  0
   -5.1541    5.2741    7.7532 H   0  0  0  0  0
   -3.6372    3.5167    6.7164 H   0  0  0  0  0
   -3.6890    2.7052    8.3497 H   0  0  0  0  0
   -2.9921    5.5640    8.3113 H   0  0  0  0  0
   -1.7869    4.4379    7.5865 H   0  0  0  0  0
   -1.3947    3.3718    9.5638 H   0  0  0  0  0
   -3.0211    3.7924   10.2308 H   0  0  0  0  0
   -2.1982    5.9068   10.8798 H   0  0  0  0  0
    0.2484    3.9219    9.2784 H   0  0  0  0  0
    1.1915    6.7540   11.1540 H   0  0  0  0  0
   -0.4633    7.1772   11.6054 H   0  0  0  0  0
   -6.5607    5.2027    6.1662 H   0  0  0  0  0
   -8.1748    2.7204    5.8278 H   0  0  0  0  0
   -9.1647    4.6629    4.1179 H   0  0  0  0  0
   -8.6609    5.5531    5.6469 H   0  0  0  0  0
  -11.0328    4.9425    5.6349 H   0  0  0  0  0
  -10.9156    2.9354    4.2497 H   0  0  0  0  0
   -9.9929    2.0958    5.5204 H   0  0  0  0  0
  -11.6817    2.5769    5.8167 H   0  0  0  0  0
   -9.3262    3.4070    7.6197 H   0  0  0  0  0
   -9.8082    5.1168    7.7432 H   0  0  0  0  0
  -11.0413    3.8354    7.8343 H   0  0  0  0  0
   -8.9155    3.7702    3.0720 H   0  0  0  0  0
   -6.4453    3.4433    1.5345 H   0  0  0  0  0
   -7.7916    1.4813    0.3000 H   0  0  0  0  0
   -8.2849    1.2091    2.0524 H   0  0  0  0  0
   -5.9226    1.0462    2.6264 H   0  0  0  0  0
   -7.2105   -0.9810    2.1701 H   0  0  0  0  0
   -6.8102   -0.8612    0.4390 H   0  0  0  0  0
   -5.5240   -1.1711    1.6309 H   0  0  0  0  0
   -5.4713    1.1633   -0.3737 H   0  0  0  0  0
   -4.9797    2.3939    0.8159 H   0  0  0  0  0
   -4.2365    0.7760    0.8495 H   0  0  0  0  0
   -6.8805    5.3166    0.4726 H   0  0  0  0  0
   -9.5137    5.5398   -0.8917 H   0  0  0  0  0
   -7.5931    7.6986   -1.2969 H   0  0  0  0  0
   -8.0131    7.3616    0.4623 H   0  0  0  0  0
  -10.3689    7.4726   -1.1430 H   0  0  0  0  0
  -10.2596    7.7777    1.2783 H   0  0  0  0  0
   -9.2861    9.2529    1.0617 H   0  0  0  0  0
  -10.9730    9.2079    0.4930 H   0  0  0  0  0
   -8.5744    9.9159   -1.3038 H   0  0  0  0  0
   -9.0785    8.8868   -2.6668 H   0  0  0  0  0
  -10.2880    9.8504   -1.7838 H   0  0  0  0  0
   -9.6663    6.0749   -3.1265 H   0  0  0  0  0
   -7.3531    4.9786   -4.6508 H   0  0  0  0  0
   -8.8794    4.2668   -6.3669 H   0  0  0  0  0
  -11.1540    4.7403   -6.1492 H   0  0  0  0  0
   -8.7330    2.7812   -4.4218 H   0  0  0  0  0
  -10.0768    3.6516   -3.6423 H   0  0  0  0  0
  -10.3631    2.7259   -5.1363 H   0  0  0  0  0
   -7.6486    5.7619   -7.1397 H   0  0  0  0  0
   -6.6016    8.2187   -7.4301 H   0  0  0  0  0
   -8.3629    8.6072   -7.2518 H   0  0  0  0  0
   -7.7318    5.8136   -8.6543 H   0  0  0  0  0
  1  2  1  0  0  0
  2  3  1  0  0  0
  2  5  1  0  0  0
  3  4  2  0  0  0
  3  9  1  0  0  0
  5  6  1  0  0  0
  6  7  2  0  0  0
  6  8  1  0  0  0
  9 10  1  0  0  0
 10 11  1  0  0  0
 10 13  1  0  0  0
 11 12  2  0  0  0
 11 20  1  0  0  0
 13 14  1  0  0  0
 14 15  1  0  0  0
 15 16  1  0  0  0
 16 17  1  0  0  0
 17 18  2  0  0  0
 17 19  1  0  0  0
 20 21  1  0  0  0
 21 22  1  0  0  0
 21 24  1  0  0  0
 22 23  2  0  0  0
 22 28  1  0  0  0
 24 25  1  0  0  0
 25 26  1  0  0  0
 25 27  1  0  0  0
 28 29  1  0  0  0
 29 30  1  0  0  0
 29 32  1  0  0  0
 30 31  2  0  0  0
 30 36  1  0  0  0
 32 33  1  0  0  0
 33 34  1  0  0  0
 33 35  1  0  0  0
 36 37  1  0  0  0
 37 38  1  0  0  0
 37 40  1  0  0  0
 38 39  2  0  0  0
 38 44  1  0  0  0
 40 41  1  0  0  0
 41 42  1  0  0  0
 41 43  1  0  0  0
 44 45  1  0  0  0
 45 46  1  0  0  0
 45 48  1  0  0  0
 46 47  2  0  0  0
 46 51  1  0  0  0
 48 49  1  0  0  0
 48 50  1  0  0  0
 51 52  1  0  0  0
 52 53  1  0  0  0
 53 54  1  0  0  0
 53 55  2  0  0  0
  1 56  1  0  0  0
  1 57  1  0  0  0
  1 58  1  0  0  0
  2 59  1  0  0  0
  5 60  1  0  0  0
  5 61  1  0  0  0
  8 62  1  0  0  0
  8 63  1  0  0  0
  9 64  1  0  0  0
 10 65  1  0  0  0
 13 66  1  0  0  0
 13 67  1  0  0  0
 14 68  1  0  0  0
 14 69  1  0  0  0
 15 70  1  0  0  0
 15 71  1  0  0  0
 16 72  1  0  0  0
 18 73  1  0  0  0
 19 74  1  0  0  0
 19 75  1  0  0  0
 20 76  1  0  0  0
 21 77  1  0  0  0
 24 78  1  0  0  0
 24 79  1  0  0  0
 25 80  1  0  0  0
 26 81  1  0  0  0
 26 82  1  0  0  0
 26 83  1  0  0  0
 27 84  1  0  0  0
 27 85  1  0  0  0
 27 86  1  0  0  0
 28 87  1  0  0  0
 29 88  1  0  0  0
 32 89  1  0  0  0
 32 90  1  0  0  0
 33 91  1  0  0  0
 34 92  1  0  0  0
 34 93  1  0  0  0
 34 94  1  0  0  0
 35 95  1  0  0  0
 35 96  1  0  0  0
 35 97  1  0  0  0
 36 98  1  0  0  0
 37 99  1  0  0  0
 40100  1  0  0  0
 40101  1  0  0  0
 41102  1  0  0  0
 42103  1  0  0  0
 42104  1  0  0  0
 42105  1  0  0  0
 43106  1  0  0  0
 43107  1  0  0  0
 43108  1  0  0  0
 44109  1  0  0  0
 45110  1  0  0  0
 48111  1  0  0  0
 49112  1  0  0  0
 50113  1  0  0  0
 50114  1  0  0  0
 50115  1  0  0  0
 51116  1  0  0  0
 52117  1  0  0  0
 52118  1  0  0  0
 54119  1  0  0  0
M  END
$$$$
