### 
### Created by X-TOOL on Mon Sep 10 21:12:51 2018
### 

@<TRIPOS>MOLECULE
1q5l_ligand
  119   118     1     0     0
SMALL
GAST_HUCK


@<TRIPOS>ATOM
      1 N          -6.6990    3.8330   11.8530 N.4       1 ASN         0.2396
      2 CA         -5.7250    4.9490   11.7270 C.3       1 ASN         0.0818
      3 C          -5.3310    5.1730   10.2700 C.2       1 ASN         0.2291
      4 O          -4.8900    6.2610    9.8970 O.2       1 ASN        -0.3905
      5 CB         -4.4850    4.6140   12.5600 C.3       1 ASN         0.0972
      6 CG         -4.8100    4.3810   14.0240 C.2       1 ASN         0.1813
      7 OD1        -5.9380    4.5970   14.4650 O.2       1 ASN        -0.3969
      8 ND2        -3.8150    3.9380   14.7860 N.am      1 ASN        -0.3006
      9 H1         -6.9417    3.7068   12.8232 H         1 ASN         0.2017
     10 H2         -6.2864    2.9851   11.4968 H         1 ASN         0.2017
     11 H3         -7.5294    4.0504   11.3245 H         1 ASN         0.2017
     12 H4         -6.1837    5.8705   12.1148 H         1 ASN         0.1125
     13 H5         -3.7744    5.4504   12.4858 H         1 ASN         0.0585
     14 H6         -4.0227    3.7028   12.1526 H         1 ASN         0.0585
     15 H7         -3.9688    3.7660   15.7590 H         1 ASN         0.1814
     16 N          -5.4900    4.1370    9.4530 N.am      1 ARG        -0.2609
     17 CA         -5.1490    4.2220    8.0380 C.3       1 ARG         0.1312
     18 C          -6.1750    3.4860    7.1820 C.2       1 ARG         0.2039
     19 O          -6.4000    2.2880    7.3570 O.2       1 ARG        -0.3944
     20 CB         -3.7550    3.6400    7.7930 C.3       1 ARG        -0.0092
     21 CG         -2.6260    4.5380    8.2750 C.3       1 ARG        -0.0156
     22 CD         -2.1570    4.1440    9.6670 C.3       1 ARG         0.0627
     23 NE         -1.5700    5.2720   10.3870 N.pl3     1 ARG        -0.2723
     24 CZ         -0.2630    5.5190   10.4370 C.cat     1 ARG         0.2882
     25 NH1         0.5920    4.7250    9.8050 N.pl3     1 ARG        -0.2849
     26 NH2         0.1900    6.5640   11.1180 N.pl3     1 ARG        -0.2849
     27 H8         -2.9127    3.7768   14.3862 H         1 ASN         0.1814
     28 H9         -5.8520    3.2790    9.8173 H         1 ARG         0.1885
     29 H10        -5.1448    5.2820    7.7442 H         1 ARG         0.0800
     30 H11        -3.6316    3.4763    6.7123 H         1 ARG         0.0313
     31 H12        -3.6826    2.6773    8.3203 H         1 ARG         0.0313
     32 H13        -2.9821    5.5785    8.2989 H         1 ARG         0.0301
     33 H14        -1.7805    4.4557    7.5762 H         1 ARG         0.0301
     34 H15        -1.4018    3.3494    9.5756 H         1 ARG         0.0689
     35 H16        -3.0181    3.7674   10.2385 H         1 ARG         0.0689
     36 H17        -2.2043    5.9130   10.8846 H         1 ARG         0.2642
     37 N          -6.7940    4.2140    6.2580 N.am      1 LEU        -0.2637
     38 CA         -7.7980    3.6360    5.3720 C.3       1 LEU         0.1312
     39 C          -7.1840    3.2780    4.0190 C.2       1 LEU         0.2039
     40 O          -6.0270    2.8710    3.9460 O.2       1 LEU        -0.3944
     41 CB         -8.9640    4.6120    5.1880 C.3       1 LEU        -0.0101
     42 CG        -10.2740    4.1940    5.8630 C.3       1 LEU        -0.0425
     43 CD1       -10.7500    2.8550    5.3240 C.3       1 LEU        -0.0625
     44 CD2       -10.1000    4.1340    7.3730 C.3       1 LEU        -0.0625
     45 H18         1.6026    4.9197    9.8462 H         1 ARG         0.2615
     46 H19         0.2451    3.9140    9.2732 H         1 ARG         0.2615
     47 H20        -0.4697    7.1832   11.6102 H         1 ARG         0.2615
     48 H21         1.2013    6.7559   11.1544 H         1 ARG         0.2615
     49 H22        -6.5653    5.1833    6.1680 H         1 LEU         0.1883
     50 H23        -8.1824    2.7148    5.8343 H         1 LEU         0.0800
     51 H24        -9.1544    4.7160    4.1096 H         1 LEU         0.0315
     52 H25        -8.6625    5.5852    5.6027 H         1 LEU         0.0315
     53 H26       -11.0386    4.9505    5.6329 H         1 LEU         0.0298
     54 H27       -11.6902    2.5732    5.8205 H         1 LEU         0.0232
     55 N          -7.9620    3.4290    2.9500 N.am      1 LEU        -0.2637
     56 CA         -7.4830    3.1180    1.6080 C.3       1 LEU         0.1312
     57 C          -8.2970    3.8620    0.5550 C.2       1 LEU         0.2039
     58 O          -9.3730    3.4150    0.1590 O.2       1 LEU        -0.3944
     59 CB         -7.5500    1.6110    1.3550 C.3       1 LEU        -0.0101
     60 CG         -6.2450    0.8490    1.6040 C.3       1 LEU        -0.0425
     61 CD1        -6.4630   -0.6480    1.4500 C.3       1 LEU        -0.0625
     62 CD2        -5.1550    1.3300    0.6560 C.3       1 LEU        -0.0625
     63 H28        -9.9868    2.0879    5.5217 H         1 LEU         0.0232
     64 H29       -10.9175    2.9348    4.2398 H         1 LEU         0.0232
     65 H30        -9.7557    5.1116    7.7415 H         1 LEU         0.0232
     66 H31        -9.3563    3.3641    7.6261 H         1 LEU         0.0232
     67 H32       -11.0622    3.8831    7.8433 H         1 LEU         0.0232
     68 H33        -8.8968    3.7635    3.0696 H         1 LEU         0.1883
     69 H34        -6.4342    3.4402    1.5298 H         1 LEU         0.0800
     70 H35        -7.8403    1.4547    0.3056 H         1 LEU         0.0315
     71 H36        -8.3217    1.1890    2.0156 H         1 LEU         0.0315
     72 H37        -5.9193    1.0476    2.6357 H         1 LEU         0.0298
     73 N          -7.7770    4.9990    0.1040 N.am      1 LEU        -0.2637
     74 CA         -8.4560    5.8030   -0.9040 C.3       1 LEU         0.1312
     75 C          -7.9010    5.5110   -2.2940 C.2       1 LEU         0.2040
     76 O          -6.7510    5.0940   -2.4380 O.2       1 LEU        -0.3944
     77 CB         -8.3110    7.2930   -0.5840 C.3       1 LEU        -0.0101
     78 CG         -9.5910    8.1160   -0.7320 C.3       1 LEU        -0.0425
     79 CD1       -10.0610    8.6250    0.6220 C.3       1 LEU        -0.0625
     80 CD2        -9.3670    9.2750   -1.6900 C.3       1 LEU        -0.0625
     81 H38        -5.5160   -1.1771    1.6323 H         1 LEU         0.0232
     82 H39        -6.8134   -0.8645    0.4301 H         1 LEU         0.0232
     83 H40        -7.2172   -0.9854    2.1762 H         1 LEU         0.0232
     84 H41        -5.0117    2.4134    0.7816 H         1 LEU         0.0232
     85 H42        -5.4514    1.1173   -0.3817 H         1 LEU         0.0232
     86 H43        -4.2144    0.8070    0.8832 H         1 LEU         0.0232
     87 H44        -6.8981    5.3104    0.4653 H         1 LEU         0.1883
     88 H45        -9.5251    5.5443   -0.8933 H         1 LEU         0.0800
     89 H46        -7.5544    7.7150   -1.2618 H         1 LEU         0.0315
     90 H47        -7.9645    7.3860    0.4558 H         1 LEU         0.0315
     91 N          -8.7250    5.7290   -3.3130 N.am      1 THR        -0.2613
     92 CA         -8.3170    5.4860   -4.6910 C.3       1 THR         0.1564
     93 C          -8.1620    6.7940   -5.4590 C.2       1 THR         0.2057
     94 O          -8.3640    7.8770   -4.9090 O.2       1 THR        -0.3943
     95 CB         -9.3270    4.5840   -5.4250 C.3       1 THR         0.0924
     96 OG1       -10.5320    5.3110   -5.6920 O.3       1 THR        -0.3874
     97 CG2        -9.6480    3.3470   -4.5970 C.3       1 THR        -0.0346
     98 H48       -10.3749    7.4669   -1.1493 H         1 LEU         0.0298
     99 H49       -10.9814    9.2135    0.4931 H         1 LEU         0.0232
    100 H50        -9.2798    9.2589    1.0668 H         1 LEU         0.0232
    101 H51       -10.2619    7.7708    1.2853 H         1 LEU         0.0232
    102 H52        -9.0280    8.8871   -2.6619 H         1 LEU         0.0232
    103 H53        -8.6021    9.9492   -1.2774 H         1 LEU         0.0232
    104 H54       -10.3088    9.8273   -1.8240 H         1 LEU         0.0232
    105 N          -7.8020    6.6860   -6.7360 N.am      1 GLY        -0.2721
    106 CA         -7.6250    7.8670   -7.5610 C.3       1 GLY         0.0833
    107 C          -7.8370    7.5820   -9.0340 C.2       1 GLY         0.0570
    108 O          -7.8610    6.3900   -9.4110 O.co2     1 GLY        -0.5669
    109 OXT        -7.9800    8.5490   -9.8120 O.co2     1 GLY        -0.5669
    110 H55        -9.6478    6.0681   -3.1301 H         1 THR         0.1884
    111 H56        -7.3432    4.9749   -4.6730 H         1 THR         0.0826
    112 H57        -8.8846    4.2649   -6.3802 H         1 THR         0.0639
    113 H58       -11.1476    4.7463   -6.1444 H         1 THR         0.2101
    114 H59       -10.3697    2.7193   -5.1403 H         1 THR         0.0257
    115 H60       -10.0809    3.6531   -3.6332 H         1 THR         0.0257
    116 H61        -8.7254    2.7750   -4.4195 H         1 THR         0.0257
    117 H62        -7.6517    5.7800   -7.1318 H         1 GLY         0.1873
    118 H63        -6.6026    8.2469   -7.4187 H         1 GLY         0.0689
    119 H64        -8.3482    8.6320   -7.2420 H         1 GLY         0.0689
@<TRIPOS>BOND
     1    1    2 1  
     2    1    9 1  
     3    1   10 1  
     4    1   11 1  
     5    2    3 1  
     6    2    5 1  
     7    2   12 1  
     8    3    4 2  
     9    3   16 am 
    10    5    6 1  
    11    5   13 1  
    12    6    7 2  
    13    6    8 am 
    14    5   14 1  
    15    8   15 1  
    16   16   17 1  
    17    8   27 1  
    18   17   18 1  
    19   17   20 1  
    20   16   28 1  
    21   18   19 2  
    22   18   37 am 
    23   20   21 1  
    24   17   29 1  
    25   21   22 1  
    26   20   30 1  
    27   22   23 1  
    28   20   31 1  
    29   23   24 ar 
    30   21   32 1  
    31   24   25 ar 
    32   24   26 ar 
    33   21   33 1  
    34   22   34 1  
    35   22   35 1  
    36   23   36 1  
    37   37   38 1  
    38   25   45 1  
    39   38   39 1  
    40   38   41 1  
    41   25   46 1  
    42   39   40 2  
    43   39   55 am 
    44   41   42 1  
    45   26   47 1  
    46   42   43 1  
    47   42   44 1  
    48   26   48 1  
    49   37   49 1  
    50   38   50 1  
    51   41   51 1  
    52   41   52 1  
    53   42   53 1  
    54   43   54 1  
    55   55   56 1  
    56   43   63 1  
    57   56   57 1  
    58   56   59 1  
    59   43   64 1  
    60   57   58 2  
    61   57   73 am 
    62   59   60 1  
    63   44   65 1  
    64   60   61 1  
    65   60   62 1  
    66   44   66 1  
    67   44   67 1  
    68   55   68 1  
    69   56   69 1  
    70   59   70 1  
    71   59   71 1  
    72   60   72 1  
    73   73   74 1  
    74   61   81 1  
    75   74   75 1  
    76   74   77 1  
    77   61   82 1  
    78   75   76 2  
    79   75   91 am 
    80   77   78 1  
    81   61   83 1  
    82   78   79 1  
    83   78   80 1  
    84   62   84 1  
    85   62   85 1  
    86   62   86 1  
    87   73   87 1  
    88   74   88 1  
    89   77   89 1  
    90   77   90 1  
    91   91   92 1  
    92   78   98 1  
    93   92   93 1  
    94   92   95 1  
    95   79   99 1  
    96   93   94 2  
    97   93  105 am 
    98   95   96 1  
    99   95   97 1  
   100   79  100 1  
   101   79  101 1  
   102   80  102 1  
   103   80  103 1  
   104   80  104 1  
   105  105  106 1  
   106   91  110 1  
   107  106  107 1  
   108   92  111 1  
   109   95  112 1  
   110  107  108 ar 
   111  107  109 ar 
   112   96  113 1  
   113   97  114 1  
   114   97  115 1  
   115   97  116 1  
   116  105  117 1  
   117  106  118 1  
   118  106  119 1  
@<TRIPOS>SUBSTRUCTURE
     1 ASN         1

