1fwu_ligand
  -I-interpret- 

 75 77  0  0  0  0  0  0  0  0999 V2000
    0.0740    6.0250   10.0480 C   0  0  0  0  0
   -0.0700    7.5190    9.8370 C   0  0  0  0  0
    0.7640    8.2970   10.8820 C   0  0  0  0  0
    0.2420    7.9120   12.2990 C   0  0  0  0  0
    0.4020    6.3540   12.4730 C   0  0  0  0  0
   -0.1070    5.8080   13.8320 C   0  0  0  0  0
   -0.7060    5.2910    9.0700 O   0  0  0  0  0
    0.3700    7.8340    8.5160 O   0  0  0  0  0
    0.6210    9.7100   10.6740 O   0  0  0  0  0
   -1.1390    8.2480   12.4380 O   0  0  0  0  0
   -0.3500    5.6240   11.4090 O   0  0  0  0  0
   -0.0460    4.3840   13.8350 O   0  0  0  0  0
    1.8070   10.6300   10.9440 S   0  0  0  0  0
    2.9600   10.2560   10.0910 O   0  0  0  0  0
    1.4220   12.0140   10.6430 O   0  0  0  0  0
    2.1870   10.5720   12.3450 O   0  0  0  0  0
   -1.3110    1.4150    7.4750 C   0  0  0  0  0
   -1.8380    1.8570    8.8690 C   0  0  0  0  0
   -1.8480    3.4050    8.9600 C   0  0  0  0  0
   -0.3550    3.8850    8.7740 C   0  0  0  0  0
    0.1320    3.4030    7.3480 C   0  0  0  0  0
    1.5780    3.7970    7.0740 C   0  0  0  0  0
   -3.1530    0.2000    8.3020 C   0  0  0  0  0
   -3.9690    0.2460    7.0460 C   0  0  0  0  0
   -3.1860    1.3250    9.0670 N   0  0  0  0  0
   -1.2810    0.0650    7.3590 O   0  0  0  0  0
    0.0510    1.9570    7.2490 O   0  0  0  0  0
    2.0250    3.3630    5.7800 O   0  0  0  0  0
   -2.4950   -0.8420    8.5840 O   0  0  0  0  0
   -3.9390    3.7160   10.2190 C   0  0  0  0  0
   -4.5110    3.4570   11.6430 C   0  0  0  0  0
   -3.9210    4.4810   12.6440 C   0  0  0  0  0
   -4.2970    5.9140   12.1830 C   0  0  0  0  0
   -3.7250    6.1820   10.8070 C   0  0  0  0  0
   -4.0380    7.5390   10.2300 C   0  0  0  0  0
   -2.5320    3.4010   10.2320 O   0  0  0  0  0
   -4.2270    2.0940   11.9950 O   0  0  0  0  0
   -4.4700    4.2280   13.9340 O   0  0  0  0  0
   -5.7450    6.0430   12.1570 O   0  0  0  0  0
   -4.1780    5.1260    9.8270 O   0  0  0  0  0
    1.1303    5.7850    9.9267 H   0  0  0  0  0
   -1.1135    7.8092    9.9595 H   0  0  0  0  0
    1.8196    8.0429   10.7857 H   0  0  0  0  0
    0.8118    8.4558   13.0524 H   0  0  0  0  0
    1.4769    6.1838   12.4112 H   0  0  0  0  0
   -1.1391    6.1243   13.9832 H   0  0  0  0  0
    0.5206    6.1968   14.6339 H   0  0  0  0  0
   -0.1560    7.3444    7.8795 H   0  0  0  0  0
   -1.2486    9.1960   12.3337 H   0  0  0  0  0
   -0.3624    4.0531   14.6788 H   0  0  0  0  0
    2.7002   10.2970    9.1677 H   0  0  0  0  0
   -1.9960    1.8095    6.7245 H   0  0  0  0  0
   -1.1839    1.4681    9.6494 H   0  0  0  0  0
   -2.3218    4.0956    8.2623 H   0  0  0  0  0
    0.5074    3.5479    9.3491 H   0  0  0  0  0
   -0.5204    3.8853    6.6201 H   0  0  0  0  0
    2.2067    3.3208    7.8264 H   0  0  0  0  0
    1.6445    4.8844    7.1077 H   0  0  0  0  0
   -3.3166    0.1010    6.1849 H   0  0  0  0  0
   -4.7191   -0.5444    7.0724 H   0  0  0  0  0
   -4.4628    1.2148    6.9703 H   0  0  0  0  0
   -3.9498    1.6988    9.6303 H   0  0  0  0  0
   -2.1620   -0.2873    7.5051 H   0  0  0  0  0
    2.9375    3.6319    5.6511 H   0  0  0  0  0
   -4.4376    3.0848    9.4834 H   0  0  0  0  0
   -5.5918    3.5958   11.6699 H   0  0  0  0  0
   -2.8356    4.3897   12.6848 H   0  0  0  0  0
   -3.8812    6.6419   12.8797 H   0  0  0  0  0
   -2.6457    6.1528   10.9568 H   0  0  0  0  0
   -5.1183    7.6553   10.1438 H   0  0  0  0  0
   -3.6393    8.3123   10.8866 H   0  0  0  0  0
   -3.5819    7.6271    9.2439 H   0  0  0  0  0
   -4.5722    1.9126   12.8722 H   0  0  0  0  0
   -4.1104    4.8580   14.5628 H   0  0  0  0  0
   -5.9812    6.9288   11.8721 H   0  0  0  0  0
  1 11  1  0  0  0
  7  1  1  0  0  0
  1  2  1  0  0  0
  2  8  1  0  0  0
  2  3  1  0  0  0
  3  9  1  0  0  0
  3  4  1  0  0  0
  4 10  1  0  0  0
  5  4  1  0  0  0
 11  5  1  0  0  0
  5  6  1  0  0  0
  6 12  1  0  0  0
  9 13  1  0  0  0
 13 16  2  0  0  0
 13 15  2  0  0  0
 13 14  1  0  0  0
 17 27  1  0  0  0
 17 26  1  0  0  0
 18 17  1  0  0  0
 18 25  1  0  0  0
 19 18  1  0  0  0
 19 20  1  0  0  0
 20 21  1  0  0  0
 21 27  1  0  0  0
 21 22  1  0  0  0
 22 28  1  0  0  0
 25 23  1  0  0  0
 23 29  2  0  0  0
 23 24  1  0  0  0
 30 40  1  0  0  0
 36 30  1  0  0  0
 30 31  1  0  0  0
 31 37  1  0  0  0
 31 32  1  0  0  0
 32 38  1  0  0  0
 32 33  1  0  0  0
 33 39  1  0  0  0
 34 33  1  0  0  0
 40 34  1  0  0  0
 34 35  1  0  0  0
 20  7  1  0  0  0
 36 19  1  0  0  0
  1 41  1  0  0  0
  2 42  1  0  0  0
  3 43  1  0  0  0
  4 44  1  0  0  0
  5 45  1  0  0  0
  6 46  1  0  0  0
  6 47  1  0  0  0
  8 48  1  0  0  0
 10 49  1  0  0  0
 12 50  1  0  0  0
 14 51  1  0  0  0
 17 52  1  0  0  0
 18 53  1  0  0  0
 19 54  1  0  0  0
 20 55  1  0  0  0
 21 56  1  0  0  0
 22 57  1  0  0  0
 22 58  1  0  0  0
 24 59  1  0  0  0
 24 60  1  0  0  0
 24 61  1  0  0  0
 25 62  1  0  0  0
 26 63  1  0  0  0
 28 64  1  0  0  0
 30 65  1  0  0  0
 31 66  1  0  0  0
 32 67  1  0  0  0
 33 68  1  0  0  0
 34 69  1  0  0  0
 35 70  1  0  0  0
 35 71  1  0  0  0
 35 72  1  0  0  0
 37 73  1  0  0  0
 38 74  1  0  0  0
 39 75  1  0  0  0
M  END
$$$$
