### 
### Created by X-TOOL on Mon Sep 10 21:12:45 2018
### 

@<TRIPOS>MOLECULE
1sts_ligand
  112   114     1     0     0
SMALL
GAST_HUCK


@<TRIPOS>ATOM
      1 N          15.4120   -2.5770   21.1650 N.4       1 PHE         0.2394
      2 CA         15.7730   -1.1840   20.9680 C.3       1 PHE         0.0744
      3 C          17.1860   -1.1900   21.5450 C.2       1 PHE         0.2288
      4 O          17.3380   -1.9530   22.4970 O.2       1 PHE        -0.3905
      5 CB         15.0060   -0.1770   21.8490 C.3       1 PHE         0.0416
      6 CG         13.5060   -0.2560   22.1240 C.ar      1 PHE        -0.0353
      7 CD1        12.7320   -1.3930   21.8690 C.ar      1 PHE        -0.0600
      8 CD2        12.9030    0.8790   22.6730 C.ar      1 PHE        -0.0600
      9 CE1        11.3640   -1.3850   22.1620 C.ar      1 PHE        -0.0686
     10 CE2        11.5370    0.8800   22.9620 C.ar      1 PHE        -0.0686
     11 CZ         10.7630   -0.2500   22.7070 C.ar      1 PHE        -0.0687
     12 N          18.2050   -0.5270   20.9890 N.am      1 CYS        -0.2601
     13 CA         19.5640   -0.4610   21.5470 C.3       1 CYS         0.1397
     14 C          20.6430    0.1660   20.6640 C.2       1 CYS         0.2048
     15 O          21.8170   -0.2120   20.5850 O.2       1 CYS        -0.3944
     16 CB         20.1360   -1.8040   21.9970 C.3       1 CYS         0.0311
     17 SG         20.7260   -1.4620   23.6720 S.3       1 CYS        -0.1735
     18 N          20.1630    1.1340   19.9130 N.am      1 HIS        -0.2624
     19 CA         20.9400    1.9930   19.0470 C.3       1 HIS         0.1371
     20 C          19.8790    3.0810   18.8990 C.2       1 HIS         0.2079
     21 O          18.6960    2.7630   18.6790 O.2       1 HIS        -0.3940
     22 CB         21.3250    1.5140   17.6110 C.3       1 HIS         0.0145
     23 CG         22.2580    2.5970   16.9780 C.2       1 HIS        -0.0027
     24 ND1        21.7630    3.6490   16.3250 N.2       1 HIS        -0.3252
     25 CD2        23.6200    2.7390   17.2060 C.2       1 HIS         0.0291
     26 CE1        22.8080    4.4430   16.1470 C.2       1 HIS         0.0907
     27 NE2        23.8990    3.9080   16.6740 N.pl3     1 HIS        -0.2752
     28 N          20.2260    4.3630   19.1110 N.am      1 PRO        -0.2497
     29 CA         19.2780    5.4490   19.0130 C.3       1 PRO         0.1338
     30 C          18.5750    5.6420   17.6760 C.2       1 PRO         0.2041
     31 O          17.5010    6.2460   17.6490 O.2       1 PRO        -0.3944
     32 CB         20.0680    6.6940   19.3880 C.3       1 PRO        -0.0104
     33 CG         21.3890    6.2190   19.9510 C.3       1 PRO        -0.0281
     34 CD         21.5970    4.8610   19.3830 C.3       1 PRO         0.0369
     35 N          19.1800    5.1970   16.5620 N.am      1 GLN        -0.2636
     36 CA         18.6230    5.3950   15.2280 C.3       1 GLN         0.1330
     37 C          17.2180    4.8570   15.0490 C.2       1 GLN         0.2042
     38 O          16.3680    5.6160   14.5650 O.2       1 GLN        -0.3944
     39 CB         19.5540    4.7760   14.2030 C.3       1 GLN         0.0045
     40 CG         19.1250    5.0850   12.7710 C.3       1 GLN         0.0412
     41 CD         20.2050    4.8740   11.7200 C.2       1 GLN         0.1737
     42 OE1        21.3660    5.1360   11.9980 O.2       1 GLN        -0.3973
     43 NE2        19.9320    4.4070   10.5190 N.am      1 GLN        -0.3009
     44 N          16.8830    3.6080   15.3820 N.am      1 ASN        -0.2616
     45 CA         15.5030    3.2400   15.1710 C.3       1 ASN         0.1476
     46 C          14.9680    2.4980   16.3310 C.2       1 ASN         0.2063
     47 O          15.6630    1.7490   17.0100 O.2       1 ASN        -0.3942
     48 CB         15.2660    2.3580   13.9370 C.3       1 ASN         0.0773
     49 CG         15.1760    3.1570   12.6500 C.2       1 ASN         0.1780
     50 OD1        14.3070    4.0140   12.4070 O.2       1 ASN        -0.3970
     51 ND2        16.1310    2.8830   11.7880 N.am      1 ASN        -0.3007
     52 N          13.7280    2.9520   16.4870 N.am      1 THR        -0.2612
     53 CA         12.7100    2.5560   17.4480 C.3       1 THR         0.1561
     54 C          13.0550    1.9640   18.8200 C.2       1 THR         0.2017
     55 O          14.1590    2.0670   19.3630 O.2       1 THR        -0.3946
     56 CB         11.7690    1.6350   16.5790 C.3       1 THR         0.0924
     57 OG1        10.4470    1.7990   17.0990 O.3       1 THR        -0.3874
     58 CG2        12.2210    0.1630   16.5500 C.3       1 THR        -0.0346
     59 N          12.0380    1.3770   19.4400 N.am      1 NH2        -0.2989
     60 H1         14.4769   -2.7334   20.8227 H         1 PHE         0.2017
     61 H2         15.4516   -2.7987   22.1475 H         1 PHE         0.2017
     62 H3         16.0569   -3.1657   20.6614 H         1 PHE         0.2017
     63 H4         15.7227   -0.8963   19.9075 H         1 PHE         0.1122
     64 H5         15.1742    0.8090   21.3913 H         1 PHE         0.0507
     65 H6         15.4926   -0.2114   22.8349 H         1 PHE         0.0507
     66 H7         13.1913   -2.2787   21.4451 H         1 PHE         0.0557
     67 H8         13.4982    1.7621   22.8753 H         1 PHE         0.0557
     68 H9         10.7664   -2.2675   21.9640 H         1 PHE         0.0599
     69 H10        11.0764    1.7645   23.3869 H         1 PHE         0.0599
     70 H11         9.7022   -0.2474   22.9303 H         1 PHE         0.0559
     71 H12        18.0307   -0.0412   20.1325 H         1 CYS         0.1885
     72 H13        19.4758    0.1730   22.4416 H         1 CYS         0.0808
     73 H14        20.9634   -2.1190   21.3441 H         1 CYS         0.0422
     74 H15        19.3580   -2.5816   22.0040 H         1 CYS         0.0422
     75 H16        21.1281   -2.2996   24.0629 H         1 CYS         0.1019
     76 H17        19.1756    1.2891   19.9437 H         1 HIS         0.1885
     77 H18        21.8513    2.3372   19.5579 H         1 HIS         0.0817
     78 H19        20.4179    1.3985   16.9996 H         1 HIS         0.0420
     79 H20        21.8543    0.5514   17.6673 H         1 HIS         0.0420
     80 H21        24.2959    2.0470   17.7062 H         1 HIS         0.0729
     81 H22        22.7747    5.4046   15.6369 H         1 HIS         0.1199
     82 H23        24.8317    4.3451   16.6678 H         1 HIS         0.2361
     83 H24        18.4919    5.2792   19.7635 H         1 PRO         0.0802
     84 H25        19.5212    7.2761   20.1444 H         1 PRO         0.0313
     85 H26        20.2378    7.3174   18.4978 H         1 PRO         0.0313
     86 H27        22.2024    6.8929   19.6440 H         1 PRO         0.0287
     87 H28        21.3449    6.1739   21.0492 H         1 PRO         0.0287
     88 H29        22.1841    4.9130   18.4542 H         1 PRO         0.0524
     89 H30        22.1114    4.2109   20.1061 H         1 PRO         0.0524
     90 H31        20.0486    4.7096   16.6508 H         1 GLN         0.1883
     91 H32        18.5820    6.4791   15.0462 H         1 GLN         0.0801
     92 H33        19.5596    3.6850   14.3431 H         1 GLN         0.0337
     93 H34        20.5682    5.1713   14.3617 H         1 GLN         0.0337
     94 H35        18.8078    6.1374   12.7287 H         1 GLN         0.0504
     95 H36        18.2735    4.4350   12.5214 H         1 GLN         0.0504
     96 H37        20.6669    4.2807    9.8527 H         1 GLN         0.1814
     97 H38        18.9899    4.1787   10.2735 H         1 GLN         0.1814
     98 H39        17.5502    2.9640   15.7563 H         1 ASN         0.1885
     99 H40        14.9290    4.1700   15.0462 H         1 ASN         0.0826
    100 H41        14.3240    1.8069   14.0748 H         1 ASN         0.0551
    101 H42        16.0988    1.6447   13.8500 H         1 ASN         0.0551
    102 H43        16.1610    3.3565   10.9077 H         1 ASN         0.1814
    103 H44        16.8271    2.2012   12.0129 H         1 ASN         0.1814
    104 H45        13.4547    3.6723   15.8494 H         1 THR         0.1884
    105 H46        12.1518    3.4723   17.6904 H         1 THR         0.0826
    106 H47        11.7845    2.0011   15.5418 H         1 THR         0.0639
    107 H48        10.2185    2.7211   17.0950 H         1 THR         0.2101
    108 H49        11.5256   -0.4219   15.9301 H         1 THR         0.0257
    109 H50        12.2265   -0.2391   17.5738 H         1 THR         0.0257
    110 H51        13.2336    0.0987   16.1253 H         1 THR         0.0257
    111 H52        12.1728    0.9635   20.3405 H         1 NH2         0.1815
    112 H53        11.1373    1.3484   19.0064 H         1 NH2         0.1815
@<TRIPOS>BOND
     1    2    1 1  
     2    2    5 1  
     3    3    2 1  
     4    3    4 2  
     5    5    6 1  
     6    6    7 ar 
     7    6    8 ar 
     8    8   10 ar 
     9   10   11 ar 
    10    9   11 ar 
    11    7    9 ar 
    12   13   12 1  
    13   13   16 1  
    14   14   13 1  
    15   14   15 2  
    16   16   17 1  
    17   12    3 am 
    18   19   18 1  
    19   19   22 1  
    20   20   19 1  
    21   20   21 2  
    22   22   23 1  
    23   23   24 1  
    24   23   25 2  
    25   25   27 1  
    26   27   26 1  
    27   24   26 2  
    28   18   14 am 
    29   30   29 1  
    30   29   32 1  
    31   29   28 1  
    32   28   34 1  
    33   34   33 1  
    34   32   33 1  
    35   30   31 2  
    36   28   20 am 
    37   36   35 1  
    38   36   39 1  
    39   37   36 1  
    40   37   38 2  
    41   39   40 1  
    42   40   41 1  
    43   41   43 am 
    44   41   42 2  
    45   35   30 am 
    46   45   44 1  
    47   45   48 1  
    48   46   45 1  
    49   46   47 2  
    50   48   49 1  
    51   49   51 am 
    52   49   50 2  
    53   44   37 am 
    54   52   53 1  
    55   53   56 1  
    56   53   54 1  
    57   54   55 2  
    58   56   58 1  
    59   56   57 1  
    60   46   52 am 
    61   54   59 am 
    62    1   60 1  
    63    1   61 1  
    64    1   62 1  
    65    2   63 1  
    66    5   64 1  
    67    5   65 1  
    68    7   66 1  
    69    8   67 1  
    70    9   68 1  
    71   10   69 1  
    72   11   70 1  
    73   12   71 1  
    74   13   72 1  
    75   16   73 1  
    76   16   74 1  
    77   17   75 1  
    78   18   76 1  
    79   19   77 1  
    80   22   78 1  
    81   22   79 1  
    82   25   80 1  
    83   26   81 1  
    84   27   82 1  
    85   29   83 1  
    86   32   84 1  
    87   32   85 1  
    88   33   86 1  
    89   33   87 1  
    90   34   88 1  
    91   34   89 1  
    92   35   90 1  
    93   36   91 1  
    94   39   92 1  
    95   39   93 1  
    96   40   94 1  
    97   40   95 1  
    98   43   96 1  
    99   43   97 1  
   100   44   98 1  
   101   45   99 1  
   102   48  100 1  
   103   48  101 1  
   104   51  102 1  
   105   51  103 1  
   106   52  104 1  
   107   53  105 1  
   108   56  106 1  
   109   57  107 1  
   110   58  108 1  
   111   58  109 1  
   112   58  110 1  
   113   59  111 1  
   114   59  112 1  
@<TRIPOS>SUBSTRUCTURE
     1 PHE         1

