1sts_ligand
  -I-interpret- 

111113  0  0  0  0  0  0  0  0999 V2000
   15.4120   -2.5770   21.1650 N   0  3  0  0  0
   15.7730   -1.1840   20.9680 C   0  0  0  0  0
   17.1860   -1.1900   21.5450 C   0  0  0  0  0
   17.3380   -1.9530   22.4970 O   0  0  0  0  0
   15.0060   -0.1770   21.8490 C   0  0  0  0  0
   13.5060   -0.2560   22.1240 C   0  0  0  0  0
   12.7320   -1.3930   21.8690 C   0  0  0  0  0
   12.9030    0.8790   22.6730 C   0  0  0  0  0
   11.3640   -1.3850   22.1620 C   0  0  0  0  0
   11.5370    0.8800   22.9620 C   0  0  0  0  0
   10.7630   -0.2500   22.7070 C   0  0  0  0  0
   18.2050   -0.5270   20.9890 N   0  0  0  0  0
   19.5640   -0.4610   21.5470 C   0  0  0  0  0
   20.6430    0.1660   20.6640 C   0  0  0  0  0
   21.8170   -0.2120   20.5850 O   0  0  0  0  0
   20.1360   -1.8040   21.9970 C   0  0  0  0  0
   20.7260   -1.4620   23.6720 S   0  0  0  0  0
   20.1630    1.1340   19.9130 N   0  0  0  0  0
   20.9400    1.9930   19.0470 C   0  0  0  0  0
   19.8790    3.0810   18.8990 C   0  0  0  0  0
   18.6960    2.7630   18.6790 O   0  0  0  0  0
   21.3250    1.5140   17.6110 C   0  0  0  0  0
   22.2580    2.5970   16.9780 C   0  0  0  0  0
   21.7630    3.6490   16.3250 N   0  0  0  0  0
   23.6200    2.7390   17.2060 C   0  0  0  0  0
   22.8080    4.4430   16.1470 C   0  0  0  0  0
   23.8990    3.9080   16.6740 N   0  0  0  0  0
   20.2260    4.3630   19.1110 N   0  0  0  0  0
   19.2780    5.4490   19.0130 C   0  0  0  0  0
   18.5750    5.6420   17.6760 C   0  0  0  0  0
   17.5010    6.2460   17.6490 O   0  0  0  0  0
   20.0680    6.6940   19.3880 C   0  0  0  0  0
   21.3890    6.2190   19.9510 C   0  0  0  0  0
   21.5970    4.8610   19.3830 C   0  0  0  0  0
   19.1800    5.1970   16.5620 N   0  0  0  0  0
   18.6230    5.3950   15.2280 C   0  0  0  0  0
   17.2180    4.8570   15.0490 C   0  0  0  0  0
   16.3680    5.6160   14.5650 O   0  0  0  0  0
   19.5540    4.7760   14.2030 C   0  0  0  0  0
   19.1250    5.0850   12.7710 C   0  0  0  0  0
   20.2050    4.8740   11.7200 C   0  0  0  0  0
   21.3660    5.1360   11.9980 O   0  0  0  0  0
   19.9320    4.4070   10.5190 N   0  0  0  0  0
   16.8830    3.6080   15.3820 N   0  0  0  0  0
   15.5030    3.2400   15.1710 C   0  0  0  0  0
   14.9680    2.4980   16.3310 C   0  0  0  0  0
   15.6630    1.7490   17.0100 O   0  0  0  0  0
   15.2660    2.3580   13.9370 C   0  0  0  0  0
   15.1760    3.1570   12.6500 C   0  0  0  0  0
   14.3070    4.0140   12.4070 O   0  0  0  0  0
   16.1310    2.8830   11.7880 N   0  0  0  0  0
   13.7280    2.9520   16.4870 N   0  0  0  0  0
   12.7100    2.5560   17.4480 C   0  0  0  0  0
   13.0550    1.9640   18.8200 C   0  0  0  0  0
   14.1590    2.0670   19.3630 O   0  0  0  0  0
   11.7690    1.6350   16.5790 C   0  0  0  0  0
   10.4470    1.7990   17.0990 O   0  0  0  0  0
   12.2210    0.1630   16.5500 C   0  0  0  0  0
   12.0380    1.3770   19.4400 N   0  0  0  0  0
   14.4657   -2.7340   20.8183 H   0  0  0  0  0
   16.0652   -3.1717   20.6550 H   0  0  0  0  0
   15.4525   -2.8001   22.1595 H   0  0  0  0  0
   15.6014   -0.8882   19.9330 H   0  0  0  0  0
   15.0998    0.7535   21.2891 H   0  0  0  0  0
   15.4408   -0.3394   22.8352 H   0  0  0  0  0
   13.1939   -2.2836   21.4428 H   0  0  0  0  0
   13.5015    1.7670   22.8764 H   0  0  0  0  0
   10.7631   -2.2724   21.9629 H   0  0  0  0  0
   11.0738    1.7694   23.3893 H   0  0  0  0  0
    9.6964   -0.2474   22.9315 H   0  0  0  0  0
   18.0272   -0.0315   20.1153 H   0  0  0  0  0
   19.3644    0.1959   22.3937 H   0  0  0  0  0
   20.9258   -2.1662   21.3389 H   0  0  0  0  0
   19.3987   -2.6063   21.9667 H   0  0  0  0  0
   21.2565   -2.5672   24.1878 H   0  0  0  0  0
   19.1558    1.2922   19.9443 H   0  0  0  0  0
   21.9285    2.1816   19.4657 H   0  0  0  0  0
   20.4295    1.3849   17.0031 H   0  0  0  0  0
   21.8386    0.5538   17.6581 H   0  0  0  0  0
   24.2965    2.0464   17.7067 H   0  0  0  0  0
   22.7747    5.4055   15.6364 H   0  0  0  0  0
   18.4413    5.2222   19.6738 H   0  0  0  0  0
   19.5260    7.2910   20.1214 H   0  0  0  0  0
   20.2240    7.3312   18.5175 H   0  0  0  0  0
   22.2028    6.8930   19.6835 H   0  0  0  0  0
   21.3747    6.1984   21.0407 H   0  0  0  0  0
   22.2117    4.8825   18.4831 H   0  0  0  0  0
   22.1420    4.2096   20.0663 H   0  0  0  0  0
   20.0660    4.6998   16.6526 H   0  0  0  0  0
   18.5412    6.4723   15.0838 H   0  0  0  0  0
   19.5335    3.6944   14.3366 H   0  0  0  0  0
   20.5499    5.1921   14.3553 H   0  0  0  0  0
   18.8583    6.1415   12.7422 H   0  0  0  0  0
   18.3118    4.4003   12.5302 H   0  0  0  0  0
   20.6827    4.2706    9.8421 H   0  0  0  0  0
   18.9699    4.1818   10.2659 H   0  0  0  0  0
   17.5635    2.9511   15.7638 H   0  0  0  0  0
   14.9939    4.1924   15.0232 H   0  0  0  0  0
   14.3169    1.8400   14.0748 H   0  0  0  0  0
   16.1115    1.6759   13.8475 H   0  0  0  0  0
   16.1708    3.3775   10.8967 H   0  0  0  0  0
   16.8317    2.1761   12.0108 H   0  0  0  0  0
   13.4492    3.6867   15.8366 H   0  0  0  0  0
   12.2808    3.4683   17.8622 H   0  0  0  0  0
   11.8093    1.9358   15.5321 H   0  0  0  0  0
    9.8370    1.2534   16.5971 H   0  0  0  0  0
   13.2245    0.1006   16.1290 H   0  0  0  0  0
   12.2261   -0.2342   17.5650 H   0  0  0  0  0
   11.5312   -0.4155   15.9355 H   0  0  0  0  0
   12.1618    1.0021   20.3805 H   0  0  0  0  0
   11.1330    1.3010   18.9757 H   0  0  0  0  0
  2  1  1  0  0  0
  2  5  1  0  0  0
  3  2  1  0  0  0
  3  4  2  0  0  0
  5  6  1  0  0  0
  6  7  4  0  0  0
  6  8  4  0  0  0
  8 10  4  0  0  0
 10 11  4  0  0  0
  9 11  4  0  0  0
  7  9  4  0  0  0
 13 12  1  0  0  0
 13 16  1  0  0  0
 14 13  1  0  0  0
 14 15  2  0  0  0
 16 17  1  0  0  0
 12  3  1  0  0  0
 19 18  1  0  0  0
 19 22  1  0  0  0
 20 19  1  0  0  0
 20 21  2  0  0  0
 22 23  1  0  0  0
 23 24  4  0  0  0
 23 25  4  0  0  0
 25 27  4  0  0  0
 27 26  4  0  0  0
 24 26  4  0  0  0
 18 14  1  0  0  0
 30 29  1  0  0  0
 29 32  1  0  0  0
 29 28  1  0  0  0
 28 34  1  0  0  0
 34 33  1  0  0  0
 32 33  1  0  0  0
 30 31  2  0  0  0
 28 20  1  0  0  0
 36 35  1  0  0  0
 36 39  1  0  0  0
 37 36  1  0  0  0
 37 38  2  0  0  0
 39 40  1  0  0  0
 40 41  1  0  0  0
 41 43  1  0  0  0
 41 42  2  0  0  0
 35 30  1  0  0  0
 45 44  1  0  0  0
 45 48  1  0  0  0
 46 45  1  0  0  0
 46 47  2  0  0  0
 48 49  1  0  0  0
 49 51  1  0  0  0
 49 50  2  0  0  0
 44 37  1  0  0  0
 52 53  1  0  0  0
 53 56  1  0  0  0
 53 54  1  0  0  0
 54 55  2  0  0  0
 56 58  1  0  0  0
 56 57  1  0  0  0
 46 52  1  0  0  0
 54 59  1  0  0  0
  1 60  1  0  0  0
  1 61  1  0  0  0
  1 62  1  0  0  0
  2 63  1  0  0  0
  5 64  1  0  0  0
  5 65  1  0  0  0
  7 66  1  0  0  0
  8 67  1  0  0  0
  9 68  1  0  0  0
 10 69  1  0  0  0
 11 70  1  0  0  0
 12 71  1  0  0  0
 13 72  1  0  0  0
 16 73  1  0  0  0
 16 74  1  0  0  0
 17 75  1  0  0  0
 18 76  1  0  0  0
 19 77  1  0  0  0
 22 78  1  0  0  0
 22 79  1  0  0  0
 25 80  1  0  0  0
 26 81  1  0  0  0
 29 82  1  0  0  0
 32 83  1  0  0  0
 32 84  1  0  0  0
 33 85  1  0  0  0
 33 86  1  0  0  0
 34 87  1  0  0  0
 34 88  1  0  0  0
 35 89  1  0  0  0
 36 90  1  0  0  0
 39 91  1  0  0  0
 39 92  1  0  0  0
 40 93  1  0  0  0
 40 94  1  0  0  0
 43 95  1  0  0  0
 43 96  1  0  0  0
 44 97  1  0  0  0
 45 98  1  0  0  0
 48 99  1  0  0  0
 48100  1  0  0  0
 51101  1  0  0  0
 51102  1  0  0  0
 52103  1  0  0  0
 53104  1  0  0  0
 56105  1  0  0  0
 57106  1  0  0  0
 58107  1  0  0  0
 58108  1  0  0  0
 58109  1  0  0  0
 59110  1  0  0  0
 59111  1  0  0  0
M  END
$$$$
