1h1d_ligand
  -I-interpret- 

 52 54  0  0  0  0  0  0  0  0999 V2000
  -32.1310   57.6560   52.8040 N   0  0  0  0  0
  -25.7800   61.5100   51.0180 C   0  0  0  0  0
  -34.1880   57.8240   51.3290 C   0  0  0  0  0
  -22.7390   62.1550   48.9900 O   0  0  0  0  0
  -26.7980   59.4820   52.0300 C   0  0  0  0  0
  -24.7050   62.2170   50.2160 C   0  0  0  0  0
  -27.5510   60.1980   52.6860 O   0  0  0  0  0
  -24.7790   63.5510   50.0460 O   0  0  0  0  0
  -35.5750   57.6480   51.1830 C   0  0  0  0  0
  -25.7260   60.1160   51.2150 C   0  0  0  0  0
  -30.1400   56.8350   53.9690 C   0  0  0  0  0
  -22.5790   59.1460   49.3440 N   0  0  0  0  0
  -29.9440   58.3190   51.9970 C   0  0  0  0  0
  -21.6640   59.6500   48.6720 O   0  0  0  0  0
  -22.6150   57.9540   49.5540 O   0  0  0  0  0
  -24.6590   59.3740   50.6480 C   0  0  0  0  0
  -31.3390   57.9780   51.5870 C   0  0  0  0  0
  -26.9460   57.9630   52.0600 C   0  0  0  0  0
  -29.2900   57.1890   52.7910 N   0  3  0  0  0
  -35.7170   56.8410   53.4710 C   0  0  0  0  0
  -31.5190   56.4950   53.5130 C   0  0  0  0  0
  -34.3520   57.0130   53.6240 C   0  0  0  0  0
  -27.8900   57.5760   53.1910 C   0  0  0  0  0
  -23.6500   60.0230   49.8960 C   0  0  0  0  0
  -33.5290   57.5030   52.5800 C   0  0  0  0  0
  -23.6520   61.4490   49.6740 C   0  0  0  0  0
  -36.4840   56.3070   54.6600 C   0  0  0  0  0
  -37.3670   55.4090   54.1720 F   0  0  0  0  0
  -35.7480   55.6470   55.4770 F   0  0  0  0  0
  -37.1270   57.2500   55.1660 F   0  0  0  0  0
  -36.3660   57.1530   52.2470 C   0  0  0  0  0
  -26.6014   62.0849   51.4457 H   0  0  0  0  0
  -33.6018   58.2058   50.4931 H   0  0  0  0  0
  -22.0616   61.5620   48.6567 H   0  0  0  0  0
  -24.0322   63.8474   49.5206 H   0  0  0  0  0
  -36.0495   57.8971   50.2338 H   0  0  0  0  0
  -30.1848   57.6852   54.6496 H   0  0  0  0  0
  -29.7072   55.9752   54.4804 H   0  0  0  0  0
  -29.9814   59.2047   52.6312 H   0  0  0  0  0
  -29.3550   58.4882   51.0956 H   0  0  0  0  0
  -24.6151   58.2945   50.7923 H   0  0  0  0  0
  -31.7884   58.8240   51.0669 H   0  0  0  0  0
  -31.3273   57.1191   50.9159 H   0  0  0  0  0
  -25.9713   57.5029   52.2225 H   0  0  0  0  0
  -27.3508   57.6154   51.1096 H   0  0  0  0  0
  -29.2163   56.3566   52.2061 H   0  0  0  0  0
  -31.4689   55.6471   52.8299 H   0  0  0  0  0
  -32.1295   56.2461   54.3810 H   0  0  0  0  0
  -33.8944   56.7627   54.5811 H   0  0  0  0  0
  -27.9882   58.4609   53.8199 H   0  0  0  0  0
  -27.4544   56.6942   53.6609 H   0  0  0  0  0
  -37.4410   57.0154   52.1305 H   0  0  0  0  0
  1 17  1  0  0  0
  1 21  1  0  0  0
 25  1  1  0  0  0
  2  6  4  0  0  0
 10  2  4  0  0  0
  9  3  4  0  0  0
  3 25  4  0  0  0
 26  4  1  0  0  0
  5  7  2  0  0  0
  5 10  1  0  0  0
 18  5  1  0  0  0
  6  8  1  0  0  0
  6 26  4  0  0  0
 31  9  4  0  0  0
 10 16  4  0  0  0
 11 19  1  0  0  0
 21 11  1  0  0  0
 12 14  2  0  0  0
 12 15  2  0  0  0
 24 12  1  0  0  0
 17 13  1  0  0  0
 13 19  1  0  0  0
 16 24  4  0  0  0
 23 18  1  0  0  0
 19 23  1  0  0  0
 20 22  4  0  0  0
 20 27  1  0  0  0
 20 31  4  0  0  0
 22 25  4  0  0  0
 24 26  4  0  0  0
 27 28  1  0  0  0
 27 29  1  0  0  0
 27 30  1  0  0  0
  2 32  1  0  0  0
  3 33  1  0  0  0
  4 34  1  0  0  0
  8 35  1  0  0  0
  9 36  1  0  0  0
 11 37  1  0  0  0
 11 38  1  0  0  0
 13 39  1  0  0  0
 13 40  1  0  0  0
 16 41  1  0  0  0
 17 42  1  0  0  0
 17 43  1  0  0  0
 18 44  1  0  0  0
 18 45  1  0  0  0
 19 46  1  0  0  0
 21 47  1  0  0  0
 21 48  1  0  0  0
 22 49  1  0  0  0
 23 50  1  0  0  0
 23 51  1  0  0  0
 31 52  1  0  0  0
M  END
$$$$
