2l84_ligand
  -I-interpret- 

 40 41  0  0  0  0  0  0  0  0999 V2000
   14.9420   -1.9690    9.4200 S   0  0  0  0  0
   14.3590    0.0020    4.7730 N   0  0  0  0  0
   15.3710   -0.5990    4.4250 N   0  0  0  0  0
   15.8020   -0.4840    3.1750 C   0  0  0  0  0
   13.9100   -0.0980    6.0170 C   0  0  0  0  0
   17.1500   -0.1360   -0.7210 O   0  0  0  0  0
   12.9540   -0.2870    8.6110 C   0  0  0  0  0
   17.6050   -1.9000    3.6220 N   0  0  0  0  0
   14.7810    1.3070   -0.0330 C   0  0  0  0  0
   12.4130   -0.3770   10.0400 C   0  0  0  0  0
   12.0370    1.4580    5.3830 C   0  0  0  0  0
   14.0580   -2.9740    9.9220 O   0  0  0  0  0
   16.6990   -0.2480    0.5670 C   0  0  0  0  0
   16.1200   -2.6240    8.7600 O   0  0  0  0  0
   15.4190   -1.1090   10.5530 O   0  0  0  0  0
   16.9410   -1.1500    2.7570 C   0  0  0  0  0
   15.1170    0.3040    2.2600 C   0  0  0  0  0
   17.3910   -1.0360    1.4600 C   0  0  0  0  0
   15.5580    0.4270    0.9610 C   0  0  0  0  0
   14.5680   -0.8790    6.9530 C   0  0  0  0  0
   12.7710    0.5850    6.4020 C   0  0  0  0  0
   14.0960   -0.9780    8.2500 C   0  0  0  0  0
   12.2930    0.4930    7.6900 C   0  0  0  0  0
   16.5646    0.4430   -1.2146 H   0  0  0  0  0
   17.2758   -1.9820    4.5839 H   0  0  0  0  0
   18.4459   -2.3960    3.3267 H   0  0  0  0  0
   15.4329    2.0990   -0.4017 H   0  0  0  0  0
   14.4413    0.6956   -0.8690 H   0  0  0  0  0
   13.9202    1.7478    0.4698 H   0  0  0  0  0
   12.1731   -1.4147   10.2716 H   0  0  0  0  0
   13.1682   -0.0131   10.7366 H   0  0  0  0  0
   11.5137    0.2330   10.1258 H   0  0  0  0  0
   12.7092    2.2366    5.0224 H   0  0  0  0  0
   11.7112    0.8410    4.5456 H   0  0  0  0  0
   11.1693    1.9165    5.8574 H   0  0  0  0  0
   16.7131   -1.9485    8.4232 H   0  0  0  0  0
   14.2172    0.8330    2.5742 H   0  0  0  0  0
   18.2890   -1.5660    1.1424 H   0  0  0  0  0
   15.4681   -1.4219    6.6645 H   0  0  0  0  0
   11.3935    1.0365    7.9793 H   0  0  0  0  0
  1 12  2  0  0  0
  1 14  1  0  0  0
  1 15  2  0  0  0
 22  1  1  0  0  0
  2  3  2  0  0  0
  5  2  1  0  0  0
  3  4  1  0  0  0
  4 16  4  0  0  0
  4 17  4  0  0  0
 20  5  4  0  0  0
  5 21  4  0  0  0
 13  6  1  0  0  0
  7 10  1  0  0  0
 22  7  4  0  0  0
  7 23  4  0  0  0
 16  8  1  0  0  0
 19  9  1  0  0  0
 21 11  1  0  0  0
 18 13  4  0  0  0
 19 13  4  0  0  0
 16 18  4  0  0  0
 17 19  4  0  0  0
 20 22  4  0  0  0
 21 23  4  0  0  0
  6 24  1  0  0  0
  8 25  1  0  0  0
  8 26  1  0  0  0
  9 27  1  0  0  0
  9 28  1  0  0  0
  9 29  1  0  0  0
 10 30  1  0  0  0
 10 31  1  0  0  0
 10 32  1  0  0  0
 11 33  1  0  0  0
 11 34  1  0  0  0
 11 35  1  0  0  0
 14 36  1  0  0  0
 17 37  1  0  0  0
 18 38  1  0  0  0
 20 39  1  0  0  0
 23 40  1  0  0  0
M  END
$$$$
