6g4m_ligand
  -I-interpret- 

 54 57  0  0  0  0  0  0  0  0999 V2000
  -13.2750    5.5080   54.9320 C   0  0  0  0  0
  -14.0830    4.5660   55.8760 C   0  0  0  0  0
  -15.1700    3.7080   55.1390 C   0  0  0  0  0
  -14.5920    2.7800   54.0330 C   0  0  0  0  0
  -14.5240    3.5380   52.6860 C   0  0  0  0  0
  -15.2330    4.7240   52.5440 C   0  0  0  0  0
  -15.1860    5.4360   51.3710 C   0  0  0  0  0
  -14.4470    4.9710   50.3190 C   0  0  0  0  0
  -13.7220    3.7700   50.4530 C   0  0  0  0  0
  -12.9030    3.2190   49.2770 C   0  0  0  0  0
  -11.1620    4.7960   53.5380 C   0  0  0  0  0
  -11.0620    5.7210   52.4070 C   0  0  0  0  0
  -11.7300    7.0730   52.4030 C   0  0  0  0  0
  -11.6460    7.9060   51.1130 C   0  0  0  0  0
  -11.2500    7.1770   49.8400 C   0  0  0  0  0
  -10.1440    6.1630   50.0380 C   0  0  0  0  0
  -10.3360    5.3230   51.2920 C   0  0  0  0  0
   -9.7830    3.1860   52.3090 C   0  0  0  0  0
   -9.1360    1.9490   52.2180 C   0  0  0  0  0
   -9.1970    1.0410   53.2610 C   0  0  0  0  0
   -9.8940    1.3730   54.4020 C   0  0  0  0  0
  -10.5420    2.6110   54.4940 C   0  0  0  0  0
  -10.4920    3.5270   53.4490 C   0  0  0  0  0
  -11.8790    5.0980   54.7900 N   0  0  0  0  0
  -11.5830    3.2330   49.2370 N   0  3  0  0  0
  -13.7700    3.0660   51.6340 N   0  0  0  0  0
   -9.7050    4.0820   51.2440 N   0  0  0  0  0
  -14.4400    5.7310   49.1160 O   0  0  0  0  0
  -10.8770    2.0750   49.4370 O   0  0  0  0  0
  -13.2886    6.5085   55.3644 H   0  0  0  0  0
  -13.7374    5.4717   53.9456 H   0  0  0  0  0
  -14.6023    5.1973   56.5971 H   0  0  0  0  0
  -13.3733    3.8724   56.3269 H   0  0  0  0  0
  -15.8586    4.4009   54.6553 H   0  0  0  0  0
  -15.6418    3.0694   55.8858 H   0  0  0  0  0
  -15.2388    1.9098   53.9218 H   0  0  0  0  0
  -13.5879    2.4658   54.3180 H   0  0  0  0  0
  -15.8343    5.0941   53.3744 H   0  0  0  0  0
  -15.7376    6.3716   51.2786 H   0  0  0  0  0
  -13.1789    3.8811   48.4563 H   0  0  0  0  0
  -13.1351    2.1542   49.2959 H   0  0  0  0  0
  -12.2537    7.4465   53.2830 H   0  0  0  0  0
  -11.8615    8.9745   51.1119 H   0  0  0  0  0
  -11.7187    7.3666   48.8744 H   0  0  0  0  0
   -9.3014    6.0471   49.3563 H   0  0  0  0  0
   -8.5779    1.6975   51.3161 H   0  0  0  0  0
   -8.6994    0.0746   53.1805 H   0  0  0  0  0
   -9.9412    0.6709   55.2345 H   0  0  0  0  0
  -11.0947    2.8607   55.3997 H   0  0  0  0  0
  -11.3417    5.0113   55.6527 H   0  0  0  0  0
  -11.3114    3.8341   50.0150 H   0  0  0  0  0
  -11.3605    3.5043   48.2793 H   0  0  0  0  0
  -13.8858    5.2935   48.4656 H   0  0  0  0  0
   -9.9370    2.2599   49.3753 H   0  0  0  0  0
  1  2  1  0  0  0
 24  1  1  0  0  0
  2  3  1  0  0  0
  3  4  1  0  0  0
  4  5  1  0  0  0
  5  6  4  0  0  0
  5 26  4  0  0  0
  6  7  4  0  0  0
  7  8  4  0  0  0
  9  8  4  0  0  0
  8 28  1  0  0  0
  9 10  1  0  0  0
 26  9  4  0  0  0
 10 25  1  0  0  0
 11 12  4  0  0  0
 23 11  4  0  0  0
 11 24  1  0  0  0
 12 13  4  0  0  0
 12 17  4  0  0  0
 13 14  4  0  0  0
 14 15  4  0  0  0
 16 15  4  0  0  0
 17 16  4  0  0  0
 17 27  4  0  0  0
 18 19  4  0  0  0
 18 23  4  0  0  0
 18 27  4  0  0  0
 19 20  4  0  0  0
 20 21  4  0  0  0
 21 22  4  0  0  0
 22 23  4  0  0  0
 25 29  1  0  0  0
  1 30  1  0  0  0
  1 31  1  0  0  0
  2 32  1  0  0  0
  2 33  1  0  0  0
  3 34  1  0  0  0
  3 35  1  0  0  0
  4 36  1  0  0  0
  4 37  1  0  0  0
  6 38  1  0  0  0
  7 39  1  0  0  0
 10 40  1  0  0  0
 10 41  1  0  0  0
 13 42  1  0  0  0
 14 43  1  0  0  0
 15 44  1  0  0  0
 16 45  1  0  0  0
 19 46  1  0  0  0
 20 47  1  0  0  0
 21 48  1  0  0  0
 22 49  1  0  0  0
 24 50  1  0  0  0
 25 51  1  0  0  0
 25 52  1  0  0  0
 28 53  1  0  0  0
 29 54  1  0  0  0
M  END
$$$$
