2gvf_ligand
  -I-interpret- 

115119  0  0  0  0  0  0  0  0999 V2000
  190.6710  -10.7660   48.1360 C   0  0  0  0  0
  190.0340  -11.7900   49.0680 C   0  0  0  0  0
  189.8020  -11.2810   50.4460 C   0  0  0  0  0
  190.7040  -11.5610   51.4660 C   0  0  0  0  0
  188.7000  -10.4840   50.7210 C   0  0  0  0  0
  190.5130  -11.0700   52.7590 C   0  0  0  0  0
  188.4850   -9.9920   51.9990 C   0  0  0  0  0
  189.3950  -10.2820   53.0070 C   0  0  0  0  0
  192.1750  -10.7200   48.3730 C   0  0  0  0  0
  192.7970  -11.7270   48.7060 O   0  0  0  0  0
  191.3960  -11.3270   53.8350 O   0  0  0  0  0
  192.5020  -12.1270   53.4680 C   0  0  0  0  0
  193.4990  -11.0850   53.0250 C   0  0  0  0  0
  194.5650  -11.7550   52.4530 O   0  0  0  0  0
  192.7620   -9.5530   48.1690 N   0  0  0  0  0
  194.2060   -9.4300   48.2100 C   0  0  0  0  0
  194.7350   -8.6670   46.9940 C   0  0  0  0  0
  196.2590   -8.5350   47.0510 C   0  0  0  0  0
  194.3750   -9.3680   45.6900 C   0  0  0  0  0
  196.8210   -7.7790   45.8650 C   0  0  0  0  0
  194.8800   -8.6160   44.4760 C   0  0  0  0  0
  196.3910   -8.4310   44.5510 C   0  0  0  0  0
  194.6410   -8.6560   49.4390 C   0  0  0  0  0
  194.3170   -7.4810   49.5760 O   0  0  0  0  0
  195.3160   -9.3210   50.3750 N   0  0  0  0  0
  195.4340  -10.7800   50.4920 C   0  0  0  0  0
  195.7820   -8.6470   51.5810 C   0  0  0  0  0
  196.3580   -9.7800   52.4080 C   0  0  0  0  0
  195.4860  -10.8620   51.9710 C   0  0  0  0  0
  196.8690   -7.6690   51.1830 C   0  0  0  0  0
  197.8440   -8.0430   50.5240 O   0  0  0  0  0
  196.6850   -6.4110   51.5720 N   0  0  0  0  0
  197.6280   -5.3410   51.2610 C   0  0  0  0  0
  196.9530   -4.2670   50.3840 C   0  0  0  0  0
  196.1020   -4.8340   49.2430 C   0  0  0  0  0
  196.0810   -4.0390   47.9920 C   0  0  0  0  0
  198.6940   -5.8640   53.4180 O   0  0  0  0  0
  198.3220   -4.7920   52.5180 C   0  0  0  0  0
  199.5300   -2.8090   51.6750 O   0  0  0  0  0
  200.6260   -4.7360   52.0000 N   0  0  0  0  0
  201.9470   -4.1920   51.7620 C   0  0  0  0  0
  202.2260   -4.1450   50.2840 C   0  0  0  0  0
  201.3580   -4.4080   49.4520 O   0  0  0  0  0
  199.5330   -3.9930   52.0210 C   0  0  0  0  0
  203.4560   -3.7720   49.9640 N   0  0  0  0  0
  203.9360   -3.6910   48.6030 C   0  0  0  0  0
  203.7270   -2.3680   47.8990 C   0  0  0  0  0
  203.3130   -2.3680   46.5820 C   0  0  0  0  0
  203.9990   -1.1580   48.5160 C   0  0  0  0  0
  203.1760   -1.1860   45.8860 C   0  0  0  0  0
  203.8670    0.0330   47.8320 C   0  0  0  0  0
  203.4570    0.0230   46.5140 C   0  0  0  0  0
  205.4530   -3.7330   48.7280 C   0  0  0  0  0
  206.0200   -3.1800   49.6800 O   0  0  0  0  0
  206.1330   -4.3830   47.7700 N   0  0  0  0  0
  207.5310   -4.3920   47.8330 C   0  0  0  0  0
  205.4750   -5.0340   46.7310 C   0  0  0  0  0
  190.2442   -9.7828   48.3343 H   0  0  0  0  0
  190.4772  -11.0497   47.1016 H   0  0  0  0  0
  190.7202  -12.6335   49.1433 H   0  0  0  0  0
  189.0623  -12.0518   48.6493 H   0  0  0  0  0
  191.5780  -12.1762   51.2521 H   0  0  0  0  0
  187.9965  -10.2424   49.9243 H   0  0  0  0  0
  187.6073   -9.3815   52.2113 H   0  0  0  0  0
  189.2300   -9.8854   54.0088 H   0  0  0  0  0
  192.2701  -12.8621   52.6973 H   0  0  0  0  0
  192.8665  -12.7617   54.2757 H   0  0  0  0  0
  193.8322  -10.4877   53.8737 H   0  0  0  0  0
  193.0459  -10.4014   52.3071 H   0  0  0  0  0
  192.1916   -8.7287   47.9804 H   0  0  0  0  0
  194.6047  -10.4444   48.2237 H   0  0  0  0  0
  194.2683   -7.6823   47.0209 H   0  0  0  0  0
  196.6839   -9.5387   47.0417 H   0  0  0  0  0
  196.5149   -7.9813   47.9544 H   0  0  0  0  0
  193.2884   -9.4251   45.6251 H   0  0  0  0  0
  194.8406  -10.3535   45.6957 H   0  0  0  0  0
  197.9093   -7.7923   45.9239 H   0  0  0  0  0
  196.4437   -6.7567   45.8896 H   0  0  0  0  0
  194.4049   -7.6355   44.4447 H   0  0  0  0  0
  194.6379   -9.1877   43.5801 H   0  0  0  0  0
  196.8591   -9.4133   44.4877 H   0  0  0  0  0
  196.6969   -7.7813   43.7310 H   0  0  0  0  0
  196.2777  -11.2271   49.9664 H   0  0  0  0  0
  194.6396  -11.3556   50.0168 H   0  0  0  0  0
  195.0144   -8.0902   52.1184 H   0  0  0  0  0
  196.3608   -9.6033   53.4836 H   0  0  0  0  0
  197.4217   -9.9615   52.2539 H   0  0  0  0  0
  195.7884  -11.2700   52.9354 H   0  0  0  0  0
  195.8492   -6.1839   52.1108 H   0  0  0  0  0
  198.4424   -5.7539   50.6658 H   0  0  0  0  0
  197.7480   -3.6756   49.9298 H   0  0  0  0  0
  196.2863   -3.6959   51.0301 H   0  0  0  0  0
  195.0754   -4.8570   49.6087 H   0  0  0  0  0
  196.5386   -5.7990   48.9855 H   0  0  0  0  0
  195.6851   -3.0452   48.2012 H   0  0  0  0  0
  197.0947   -3.9527   47.6008 H   0  0  0  0  0
  195.4478   -4.5366   47.2574 H   0  0  0  0  0
  199.1244   -5.4950   54.1928 H   0  0  0  0  0
  197.6590   -4.1499   53.0978 H   0  0  0  0  0
  200.5348   -5.7394   52.1588 H   0  0  0  0  0
  202.6888   -4.8267   52.2468 H   0  0  0  0  0
  201.9973   -3.1819   52.1686 H   0  0  0  0  0
  204.0986   -3.5290   50.7180 H   0  0  0  0  0
  203.4156   -4.4733   48.0505 H   0  0  0  0  0
  203.0919   -3.3135   46.0868 H   0  0  0  0  0
  204.3220   -1.1466   49.5570 H   0  0  0  0  0
  202.8484   -1.1987   44.8465 H   0  0  0  0  0
  204.0855    0.9775   48.3302 H   0  0  0  0  0
  203.3537    0.9600   45.9668 H   0  0  0  0  0
  207.9018   -3.3678   47.7926 H   0  0  0  0  0
  207.8484   -4.8581   48.7658 H   0  0  0  0  0
  207.9278   -4.9570   46.9896 H   0  0  0  0  0
  204.8223   -5.8042   47.1420 H   0  0  0  0  0
  204.8800   -4.3126   46.1709 H   0  0  0  0  0
  206.2091   -5.4934   46.0690 H   0  0  0  0  0
  1  2  1  0  0  0
  9  1  1  0  0  0
  2  3  1  0  0  0
  4  3  4  0  0  0
  3  5  4  0  0  0
  6  4  4  0  0  0
  7  5  4  0  0  0
  6  8  4  0  0  0
 11  6  1  0  0  0
  8  7  4  0  0  0
  9 10  2  0  0  0
 15  9  1  0  0  0
 12 11  1  0  0  0
 13 12  1  0  0  0
 14 13  1  0  0  0
 29 14  1  0  0  0
 16 15  1  0  0  0
 16 17  1  0  0  0
 23 16  1  0  0  0
 17 18  1  0  0  0
 17 19  1  0  0  0
 18 20  1  0  0  0
 19 21  1  0  0  0
 20 22  1  0  0  0
 21 22  1  0  0  0
 23 24  2  0  0  0
 25 23  1  0  0  0
 25 26  1  0  0  0
 27 25  1  0  0  0
 29 26  1  0  0  0
 27 28  1  0  0  0
 30 27  1  0  0  0
 28 29  1  0  0  0
 30 31  2  0  0  0
 32 30  1  0  0  0
 33 32  1  0  0  0
 33 34  1  0  0  0
 38 33  1  0  0  0
 34 35  1  0  0  0
 35 36  1  0  0  0
 38 37  1  0  0  0
 44 38  1  0  0  0
 44 39  2  0  0  0
 40 41  1  0  0  0
 40 44  1  0  0  0
 41 42  1  0  0  0
 42 43  2  0  0  0
 42 45  1  0  0  0
 45 46  1  0  0  0
 46 47  1  0  0  0
 46 53  1  0  0  0
 47 48  4  0  0  0
 47 49  4  0  0  0
 48 50  4  0  0  0
 49 51  4  0  0  0
 50 52  4  0  0  0
 51 52  4  0  0  0
 53 54  2  0  0  0
 53 55  1  0  0  0
 55 56  1  0  0  0
 55 57  1  0  0  0
  1 58  1  0  0  0
  1 59  1  0  0  0
  2 60  1  0  0  0
  2 61  1  0  0  0
  4 62  1  0  0  0
  5 63  1  0  0  0
  7 64  1  0  0  0
  8 65  1  0  0  0
 12 66  1  0  0  0
 12 67  1  0  0  0
 13 68  1  0  0  0
 13 69  1  0  0  0
 15 70  1  0  0  0
 16 71  1  0  0  0
 17 72  1  0  0  0
 18 73  1  0  0  0
 18 74  1  0  0  0
 19 75  1  0  0  0
 19 76  1  0  0  0
 20 77  1  0  0  0
 20 78  1  0  0  0
 21 79  1  0  0  0
 21 80  1  0  0  0
 22 81  1  0  0  0
 22 82  1  0  0  0
 26 83  1  0  0  0
 26 84  1  0  0  0
 27 85  1  0  0  0
 28 86  1  0  0  0
 28 87  1  0  0  0
 29 88  1  0  0  0
 32 89  1  0  0  0
 33 90  1  0  0  0
 34 91  1  0  0  0
 34 92  1  0  0  0
 35 93  1  0  0  0
 35 94  1  0  0  0
 36 95  1  0  0  0
 36 96  1  0  0  0
 36 97  1  0  0  0
 37 98  1  0  0  0
 38 99  1  0  0  0
 40100  1  0  0  0
 41101  1  0  0  0
 41102  1  0  0  0
 45103  1  0  0  0
 46104  1  0  0  0
 48105  1  0  0  0
 49106  1  0  0  0
 50107  1  0  0  0
 51108  1  0  0  0
 52109  1  0  0  0
 56110  1  0  0  0
 56111  1  0  0  0
 56112  1  0  0  0
 57113  1  0  0  0
 57114  1  0  0  0
 57115  1  0  0  0
M  END
$$$$
