### 
### Created by X-TOOL on Mon Aug  2 16:13:44 2021
### 

@<TRIPOS>MOLECULE
6h78_ligand
   43    45     1     0     0
SMALL
GAST_HUCK


@<TRIPOS>ATOM
      1 PG         -2.6470  -15.6350   26.6560 P.3       1 ATP         0.1879
      2 O1G        -2.2430  -15.6980   25.2020 O.co2     1 ATP        -0.6091
      3 O2G        -1.5460  -15.6420   27.7100 O.co2     1 ATP        -0.6091
      4 O3G        -3.7420  -16.6410   26.9300 O.co2     1 ATP        -0.6091
      5 PB         -4.4220  -13.3990   26.0100 P.3       1 ATP         0.3553
      6 O1B        -4.4410  -13.8530   24.5710 O.co2     1 ATP        -0.5652
      7 O2B        -5.6780  -13.6770   26.8210 O.co2     1 ATP        -0.5652
      8 O3B        -3.2220  -14.1200   26.8090 O.3       1 ATP        -0.1546
      9 PA         -2.7080  -11.2010   25.1180 P.3       1 ATP         0.3266
     10 O1A        -1.8120  -12.3160   24.6480 O.co2     1 ATP        -0.5692
     11 O2A        -2.0930   -9.9860   25.7260 O.co2     1 ATP        -0.5692
     12 O3A        -3.8690  -11.8530   26.0770 O.3       1 ATP        -0.1171
     13 O5'        -3.4720  -10.8400   23.7430 O.3       1 ATP        -0.2441
     14 C5'        -3.9280   -9.5780   23.2870 C.3       1 ATP         0.1131
     15 C4'        -5.4510   -9.5450   23.0770 C.3       1 ATP         0.1189
     16 O4'        -5.8320   -9.4690   21.6980 O.3       1 ATP        -0.3364
     17 C3'        -6.2460  -10.7070   23.6720 C.3       1 ATP         0.1149
     18 O3'        -7.0420  -10.1470   24.7070 O.3       1 ATP        -0.3864
     19 C2'        -7.0980  -11.2050   22.5230 C.3       1 ATP         0.1385
     20 O2'        -8.4350  -11.5850   22.8510 O.3       1 ATP        -0.3836
     21 C1'        -7.1250  -10.0220   21.5830 C.3       1 ATP         0.2010
     22 N9         -7.4920  -10.5110   20.2390 N.pl3     1 ATP        -0.1919
     23 C8         -6.9220  -11.4810   19.5140 C.2       1 ATP         0.1123
     24 N7         -7.5680  -11.6860   18.3400 N.2       1 ATP        -0.2958
     25 C5         -8.5720  -10.8280   18.2930 C.ar      1 ATP         0.1045
     26 C6         -9.6630  -10.5230   17.3440 C.ar      1 ATP         0.1298
     27 N6         -9.7930  -11.1650   16.1580 N.pl3     1 ATP        -0.3152
     28 N1        -10.5380   -9.5610   17.7190 N.ar      1 ATP        -0.2698
     29 C2        -10.4290   -8.8990   18.8920 C.ar      1 ATP         0.0533
     30 N3         -9.4830   -9.1300   19.8140 N.ar      1 ATP        -0.2714
     31 C4         -8.5360  -10.0680   19.5600 C.ar      1 ATP         0.1613
     32 H1         -3.4347   -9.3486   22.3309 H         1 ATP         0.0648
     33 H2         -3.6576   -8.8147   24.0315 H         1 ATP         0.0648
     34 H3         -5.8003   -8.6270   23.5723 H         1 ATP         0.0651
     35 H4         -5.5964  -11.5042   24.0625 H         1 ATP         0.0648
     36 H5         -7.6192   -9.4879   24.3396 H         1 ATP         0.2100
     37 H6         -6.6042  -12.0666   22.0500 H         1 ATP         0.0676
     38 H7         -8.8949  -10.8381   23.2157 H         1 ATP         0.2101
     39 H8         -7.8712   -9.2801   21.9035 H         1 ATP         0.0996
     40 H9         -6.0425  -12.0399   19.8301 H         1 ATP         0.1349
     41 H10       -10.5678  -10.9233   15.5238 H         1 ATP         0.1820
     42 H11        -9.1171  -11.8947   15.8906 H         1 ATP         0.1820
     43 H12       -11.1587   -8.1256   19.1028 H         1 ATP         0.0996
@<TRIPOS>BOND
     1    1    2 ar 
     2    1    3 ar 
     3    1    4 ar 
     4    8    1 1  
     5    5    6 ar 
     6    5    7 ar 
     7    5    8 1  
     8   12    5 1  
     9    9   10 ar 
    10    9   11 ar 
    11    9   12 1  
    12    9   13 1  
    13   13   14 1  
    14   14   15 1  
    15   15   16 1  
    16   15   17 1  
    17   16   21 1  
    18   17   18 1  
    19   17   19 1  
    20   19   20 1  
    21   19   21 1  
    22   21   22 1  
    23   22   23 1  
    24   22   31 1  
    25   23   24 2  
    26   24   25 1  
    27   25   26 ar 
    28   25   31 ar 
    29   26   27 1  
    30   26   28 ar 
    31   28   29 ar 
    32   29   30 ar 
    33   30   31 ar 
    34   14   32 1  
    35   14   33 1  
    36   15   34 1  
    37   17   35 1  
    38   18   36 1  
    39   19   37 1  
    40   20   38 1  
    41   21   39 1  
    42   23   40 1  
    43   27   41 1  
    44   27   42 1  
    45   29   43 1  
@<TRIPOS>SUBSTRUCTURE
     1 ATP         1

