6h78_ligand
  -I-interpret- 

 47 49  0  0  0  0  0  0  0  0999 V2000
   -2.6470  -15.6350   26.6560 P   0  0  0  0  0
   -2.2430  -15.6980   25.2020 O   0  0  0  0  0
   -1.5460  -15.6420   27.7100 O   0  0  0  0  0
   -3.7420  -16.6410   26.9300 O   0  0  0  0  0
   -4.4220  -13.3990   26.0100 P   0  0  0  0  0
   -4.4410  -13.8530   24.5710 O   0  0  0  0  0
   -5.6780  -13.6770   26.8210 O   0  0  0  0  0
   -3.2220  -14.1200   26.8090 O   0  0  0  0  0
   -2.7080  -11.2010   25.1180 P   0  0  0  0  0
   -1.8120  -12.3160   24.6480 O   0  0  0  0  0
   -2.0930   -9.9860   25.7260 O   0  0  0  0  0
   -3.8690  -11.8530   26.0770 O   0  0  0  0  0
   -3.4720  -10.8400   23.7430 O   0  0  0  0  0
   -3.9280   -9.5780   23.2870 C   0  0  0  0  0
   -5.4510   -9.5450   23.0770 C   0  0  0  0  0
   -5.8320   -9.4690   21.6980 O   0  0  0  0  0
   -6.2460  -10.7070   23.6720 C   0  0  0  0  0
   -7.0420  -10.1470   24.7070 O   0  0  0  0  0
   -7.0980  -11.2050   22.5230 C   0  0  0  0  0
   -8.4350  -11.5850   22.8510 O   0  0  0  0  0
   -7.1250  -10.0220   21.5830 C   0  0  0  0  0
   -7.4920  -10.5110   20.2390 N   0  0  0  0  0
   -6.9220  -11.4810   19.5140 C   0  0  0  0  0
   -7.5680  -11.6860   18.3400 N   0  0  0  0  0
   -8.5720  -10.8280   18.2930 C   0  0  0  0  0
   -9.6630  -10.5230   17.3440 C   0  0  0  0  0
   -9.7930  -11.1650   16.1580 N   0  0  0  0  0
  -10.5380   -9.5610   17.7190 N   0  0  0  0  0
  -10.4290   -8.8990   18.8920 C   0  0  0  0  0
   -9.4830   -9.1300   19.8140 N   0  0  0  0  0
   -8.5360  -10.0680   19.5600 C   0  0  0  0  0
   -1.9409  -15.5984   28.5839 H   0  0  0  0  0
   -3.9931  -16.5949   27.8554 H   0  0  0  0  0
   -5.5589  -13.3496   27.7155 H   0  0  0  0  0
   -2.3483  -13.0237   24.2831 H   0  0  0  0  0
   -3.4512   -9.3737   22.3284 H   0  0  0  0  0
   -3.6760   -8.8351   24.0438 H   0  0  0  0  0
   -5.7059   -8.6360   23.6218 H   0  0  0  0  0
   -5.6514  -11.5215   24.0857 H   0  0  0  0  0
   -7.5653  -10.8396   25.1170 H   0  0  0  0  0
   -6.6717  -12.1255   22.1242 H   0  0  0  0  0
   -8.8855  -11.8833   22.0575 H   0  0  0  0  0
   -7.8599   -9.2481   21.8046 H   0  0  0  0  0
   -6.0417  -12.0405   19.8304 H   0  0  0  0  0
   -9.1236  -11.8877   15.8932 H   0  0  0  0  0
  -10.5602  -10.9257   15.5299 H   0  0  0  0  0
  -11.1628   -8.1213   19.1040 H   0  0  0  0  0
  1  2  2  0  0  0
  1  3  1  0  0  0
  1  4  1  0  0  0
  8  1  1  0  0  0
  5  6  2  0  0  0
  5  7  1  0  0  0
  5  8  1  0  0  0
 12  5  1  0  0  0
  9 10  1  0  0  0
  9 11  2  0  0  0
  9 12  1  0  0  0
  9 13  1  0  0  0
 13 14  1  0  0  0
 14 15  1  0  0  0
 15 16  1  0  0  0
 15 17  1  0  0  0
 16 21  1  0  0  0
 17 18  1  0  0  0
 17 19  1  0  0  0
 19 20  1  0  0  0
 19 21  1  0  0  0
 21 22  1  0  0  0
 22 23  4  0  0  0
 22 31  4  0  0  0
 23 24  4  0  0  0
 24 25  4  0  0  0
 25 26  4  0  0  0
 25 31  4  0  0  0
 26 27  1  0  0  0
 26 28  4  0  0  0
 28 29  4  0  0  0
 29 30  4  0  0  0
 30 31  4  0  0  0
  3 32  1  0  0  0
  4 33  1  0  0  0
  7 34  1  0  0  0
 10 35  1  0  0  0
 14 36  1  0  0  0
 14 37  1  0  0  0
 15 38  1  0  0  0
 17 39  1  0  0  0
 18 40  1  0  0  0
 19 41  1  0  0  0
 20 42  1  0  0  0
 21 43  1  0  0  0
 23 44  1  0  0  0
 27 45  1  0  0  0
 27 46  1  0  0  0
 29 47  1  0  0  0
M  END
$$$$
