6cvd_ligand
  -I-interpret- 

 21 22  0  0  0  0  0  0  0  0999 V2000
  -17.8720  -29.0920   39.8140 C   0  0  0  0  0
  -16.5770  -28.4740   39.8520 O   0  0  0  0  0
  -15.5750  -29.3500   39.5080 C   0  0  0  0  0
  -15.7780  -30.4310   38.9440 O   0  0  0  0  0
  -14.2830  -28.9140   39.8480 C   0  0  0  0  0
  -14.1850  -27.9440   40.8260 C   0  0  0  0  0
  -12.9420  -27.4770   41.2000 C   0  0  0  0  0
  -11.8230  -28.0000   40.5750 C   0  0  0  0  0
  -11.9570  -28.9290   39.6410 C   0  0  0  0  0
  -13.1630  -29.3860   39.2780 C   0  0  0  0  0
  -12.9630  -30.3060   38.3290 C   0  0  0  0  0
  -11.6510  -30.4150   38.1100 C   0  0  0  0  0
  -11.0330  -29.5640   38.9240 N   0  0  0  0  0
  -18.0700  -29.4559   38.8058 H   0  0  0  0  0
  -17.8954  -29.9270   40.5142 H   0  0  0  0  0
  -18.6305  -28.3607   40.0932 H   0  0  0  0  0
  -15.0842  -27.5498   41.2995 H   0  0  0  0  0
  -12.8431  -26.7128   41.9709 H   0  0  0  0  0
  -10.8299  -27.6465   40.8522 H   0  0  0  0  0
  -13.7419  -30.8728   37.8189 H   0  0  0  0  0
  -11.1721  -31.0817   37.3929 H   0  0  0  0  0
  1  2  1  0  0  0
  2  3  1  0  0  0
  3  4  2  0  0  0
  3  5  1  0  0  0
  5  6  4  0  0  0
  5 10  4  0  0  0
  6  7  4  0  0  0
  7  8  4  0  0  0
  8  9  4  0  0  0
  9 10  4  0  0  0
  9 13  4  0  0  0
 10 11  4  0  0  0
 11 12  4  0  0  0
 12 13  4  0  0  0
  1 14  1  0  0  0
  1 15  1  0  0  0
  1 16  1  0  0  0
  6 17  1  0  0  0
  7 18  1  0  0  0
  8 19  1  0  0  0
 11 20  1  0  0  0
 12 21  1  0  0  0
M  END
$$$$
