3bh9_ligand
  -I-interpret- 

168169  0  0  0  0  0  0  0  0999 V2000
  -25.5860  -37.5680    5.7020 N   0  3  0  0  0
  -26.9120  -37.3830    5.1240 C   0  0  0  0  0
  -27.9460  -37.0770    6.2020 C   0  0  0  0  0
  -27.7700  -37.4410    7.3650 O   0  0  0  0  0
  -27.3290  -38.6230    4.3310 C   0  0  0  0  0
  -28.7570  -38.5770    3.8120 C   0  0  0  0  0
  -29.2480  -39.9610    3.4220 C   0  0  0  0  0
  -30.5100  -39.9080    2.6900 N   0  0  0  0  0
  -30.6120  -40.0050    1.3690 C   0  0  0  0  0
  -29.5240  -40.1610    0.6270 N   0  0  0  0  0
  -31.8030  -39.9470    0.7880 N   0  0  0  0  0
  -29.0250  -36.4080    5.8090 N   0  0  0  0  0
  -29.8650  -35.6840    6.7550 C   0  0  0  0  0
  -31.1300  -36.4710    7.0830 C   0  0  0  0  0
  -31.7250  -37.1000    6.2080 O   0  0  0  0  0
  -30.2600  -34.2980    6.2140 C   0  0  0  0  0
  -30.1040  -33.3160    7.2460 O   0  0  0  0  0
  -31.7050  -34.3030    5.7390 C   0  0  0  0  0
  -31.5340  -36.4310    8.3480 N   0  0  0  0  0
  -32.7560  -37.0970    8.7830 C   0  0  0  0  0
  -33.9070  -36.8200    7.8220 C   0  0  0  0  0
  -34.1770  -35.6700    7.4760 O   0  0  0  0  0
  -33.1340  -36.6530   10.1970 C   0  0  0  0  0
  -34.3390  -37.3700   10.7630 C   0  0  0  0  0
  -34.4250  -38.7560   10.7330 C   0  0  0  0  0
  -35.3910  -36.6610   11.3280 C   0  0  0  0  0
  -35.5240  -39.4150   11.2490 C   0  0  0  0  0
  -36.4950  -37.3120   11.8460 C   0  0  0  0  0
  -36.5560  -38.6890   11.8040 C   0  0  0  0  0
  -37.6530  -39.3410   12.3190 O   0  0  0  0  0
  -34.5820  -37.8820    7.3930 N   0  0  0  0  0
  -35.7260  -37.7530    6.4590 C   0  0  0  0  0
  -35.8320  -38.9600    5.5380 C   0  0  0  0  0
  -34.6930  -38.9640    4.7330 O   0  0  0  0  0
  -37.0670  -37.4570    7.1040 C   0  0  0  0  0
  -38.1030  -37.3800    6.4090 O   0  0  0  0  0
  -34.9230  -39.2170    3.1710 P   0  0  0  0  0
  -33.5210  -38.9120    2.4880 O   0  0  0  0  0
  -36.1190  -38.2880    2.6570 O   0  0  0  0  0
  -35.2790  -40.7730    2.9940 O   0  0  0  0  0
  -37.0540  -37.2920    8.4220 N   0  0  0  0  0
  -38.2020  -36.7040    9.1240 C   0  0  0  0  0
  -39.3030  -37.7390    9.2610 C   0  0  0  0  0
  -39.0270  -38.9530    9.2320 O   0  0  0  0  0
  -40.5550  -37.2740    9.4470 N   0  0  0  0  0
  -40.9660  -35.8430    9.5690 C   0  0  0  0  0
  -40.3680  -35.1230   10.7850 C   0  0  0  0  0
  -40.0840  -35.7660   11.7960 O   0  0  0  0  0
  -42.4910  -35.9280    9.7610 C   0  0  0  0  0
  -42.7460  -37.3580   10.2610 C   0  0  0  0  0
  -41.7010  -38.2010    9.5700 C   0  0  0  0  0
  -40.1730  -33.8080   10.6910 N   0  0  0  0  0
  -39.7030  -33.0290   11.8460 C   0  0  0  0  0
  -40.8780  -32.6140   12.7480 C   0  0  0  0  0
  -41.5530  -31.6260   12.4740 O   0  0  0  0  0
  -38.9390  -31.7690   11.4160 C   0  0  0  0  0
  -37.6360  -31.9710   10.6260 C   0  0  0  0  0
  -36.5630  -33.2860   11.2340 S   0  0  0  0  0
  -36.2480  -32.8350   12.9400 C   0  0  0  0  0
  -41.0850  -33.3380   13.8420 N   0  0  0  0  0
  -42.2320  -33.0580   14.7140 C   0  0  0  0  0
  -42.0540  -31.7380   15.4660 C   0  0  0  0  0
  -40.9870  -31.4910   16.0110 O   0  0  0  0  0
  -42.4350  -34.2040   15.6920 C   0  0  0  0  0
  -43.3370  -35.2920   15.1290 C   0  0  0  0  0
  -43.1150  -35.7880   14.0030 O   0  0  0  0  0
  -44.3470  -35.6820   15.9020 N   0  0  0  0  0
  -43.0920  -30.8960   15.4830 N   0  0  0  0  0
  -43.0530  -29.5950   16.1820 C   0  0  0  0  0
  -42.9730  -29.7680   17.6900 C   0  0  0  0  0
  -43.5220  -30.7430   18.2330 O   0  0  0  0  0
  -44.3300  -28.8010   15.8710 C   0  0  0  0  0
  -44.2430  -27.8930   14.6520 C   0  0  0  0  0
  -44.0020  -28.6530   13.3860 C   0  0  0  0  0
  -44.2990  -27.7700   12.1830 C   0  0  0  0  0
  -44.0240  -28.5030   10.9200 N   0  3  0  0  0
  -42.3650  -28.8030   18.3860 N   0  0  0  0  0
  -42.3320  -28.8570   19.8540 C   0  0  0  0  0
  -43.6990  -28.5450   20.4660 C   0  0  0  0  0
  -43.9320  -28.8510   21.6510 O   0  0  0  0  0
  -41.2300  -27.9590   20.4790 C   0  0  0  0  0
  -39.8740  -28.3250   19.8970 C   0  0  0  0  0
  -41.5320  -26.4510   20.2950 C   0  0  0  0  0
  -44.5660  -27.9870   19.7740 O   0  0  0  0  0
  -25.3253  -36.7327    6.2261 H   0  0  0  0  0
  -25.5986  -38.3733    6.3278 H   0  0  0  0  0
  -24.9099  -37.7269    4.9550 H   0  0  0  0  0
  -26.8640  -36.5302    4.4468 H   0  0  0  0  0
  -27.2586  -39.4760    5.0059 H   0  0  0  0  0
  -26.6725  -38.6865    3.4632 H   0  0  0  0  0
  -28.7849  -37.9377    2.9296 H   0  0  0  0  0
  -29.4009  -38.1905    4.6020 H   0  0  0  0  0
  -29.4073  -40.5356    4.3345 H   0  0  0  0  0
  -28.4986  -40.4189    2.7763 H   0  0  0  0  0
  -31.3687  -39.7888    3.2274 H   0  0  0  0  0
  -28.6065  -40.2067    1.0704 H   0  0  0  0  0
  -31.8799  -40.0223   -0.2263 H   0  0  0  0  0
  -32.6420  -39.8271    1.3555 H   0  0  0  0  0
  -29.2718  -36.4010    4.8193 H   0  0  0  0  0
  -29.2760  -35.5543    7.6629 H   0  0  0  0  0
  -29.6117  -34.0558    5.3719 H   0  0  0  0  0
  -30.3511  -32.4532    6.9052 H   0  0  0  0  0
  -31.8225  -35.0402    4.9448 H   0  0  0  0  0
  -32.3593  -34.5578    6.5727 H   0  0  0  0  0
  -31.9651  -33.3145    5.3603 H   0  0  0  0  0
  -30.9751  -35.9214    9.0324 H   0  0  0  0  0
  -32.5666  -38.1704    8.7877 H   0  0  0  0  0
  -33.3811  -35.5925   10.1485 H   0  0  0  0  0
  -32.2876  -36.8802   10.8452 H   0  0  0  0  0
  -33.6112  -39.3337   10.2947 H   0  0  0  0  0
  -35.3454  -35.5725   11.3636 H   0  0  0  0  0
  -35.5748  -40.5034   11.2174 H   0  0  0  0  0
  -37.3125  -36.7402   12.2851 H   0  0  0  0  0
  -38.2744  -38.6958   12.6642 H   0  0  0  0  0
  -34.3056  -38.8096    7.7148 H   0  0  0  0  0
  -35.4899  -36.8636    5.8747 H   0  0  0  0  0
  -36.7335  -38.9002    4.9282 H   0  0  0  0  0
  -35.8965  -39.8811    6.1173 H   0  0  0  0  0
  -36.9289  -38.5299    3.1121 H   0  0  0  0  0
  -36.1261  -40.9553    3.4072 H   0  0  0  0  0
  -36.2330  -37.5785    8.9553 H   0  0  0  0  0
  -38.5756  -35.8524    8.5553 H   0  0  0  0  0
  -37.8896  -36.3756   10.1153 H   0  0  0  0  0
  -40.6274  -35.2777    8.7007 H   0  0  0  0  0
  -43.0282  -35.7205    8.8355 H   0  0  0  0  0
  -42.8527  -35.1811   10.4677 H   0  0  0  0  0
  -43.7566  -37.6944   10.0294 H   0  0  0  0  0
  -42.6707  -37.4277   11.3462 H   0  0  0  0  0
  -41.4545  -39.1067   10.1240 H   0  0  0  0  0
  -42.0377  -38.5869    8.6078 H   0  0  0  0  0
  -40.3524  -33.3352    9.8052 H   0  0  0  0  0
  -39.0252  -33.6779   12.4006 H   0  0  0  0  0
  -38.6495  -31.2692   12.3404 H   0  0  0  0  0
  -39.6100  -31.2308   10.7465 H   0  0  0  0  0
  -37.0715  -31.0425   10.7121 H   0  0  0  0  0
  -37.9252  -32.2477    9.6121 H   0  0  0  0  0
  -35.7623  -31.8598   12.9729 H   0  0  0  0  0
  -37.1921  -32.7906   13.4830 H   0  0  0  0  0
  -35.5988  -33.5813   13.3978 H   0  0  0  0  0
  -40.4423  -34.0941   14.0779 H   0  0  0  0  0
  -43.1184  -32.9633   14.0867 H   0  0  0  0  0
  -42.9082  -33.8032   16.5884 H   0  0  0  0  0
  -41.4610  -34.6469   15.9002 H   0  0  0  0  0
  -44.9799  -36.4154   15.5827 H   0  0  0  0  0
  -44.4885  -35.2476   16.8140 H   0  0  0  0  0
  -43.9461  -31.1626   14.9933 H   0  0  0  0  0
  -42.1647  -29.0685   15.8330 H   0  0  0  0  0
  -44.5169  -28.1568   16.7302 H   0  0  0  0  0
  -45.1119  -29.5316   15.6637 H   0  0  0  0  0
  -43.4048  -27.2120   14.7996 H   0  0  0  0  0
  -45.1944  -27.3703   14.5540 H   0  0  0  0  0
  -44.6565  -29.5242   13.3611 H   0  0  0  0  0
  -42.9591  -28.9680   13.3503 H   0  0  0  0  0
  -43.6621  -26.8865   12.2259 H   0  0  0  0  0
  -45.3504  -27.4833   12.2047 H   0  0  0  0  0
  -44.2282  -27.8971   10.1253 H   0  0  0  0  0
  -43.0424  -28.7790   10.8953 H   0  0  0  0  0
  -44.6134  -29.3343   10.8755 H   0  0  0  0  0
  -41.9220  -28.0257   17.8963 H   0  0  0  0  0
  -42.0726  -29.8865   20.1011 H   0  0  0  0  0
  -43.1563  -29.2705   22.0304 H   0  0  0  0  0
  -41.2149  -28.1427   21.5533 H   0  0  0  0  0
  -39.6555  -29.3699   20.1173 H   0  0  0  0  0
  -39.8912  -28.1759   18.8174 H   0  0  0  0  0
  -39.1065  -27.6907   20.3405 H   0  0  0  0  0
  -41.5945  -26.2214   19.2313 H   0  0  0  0  0
  -42.4799  -26.2102   20.7763 H   0  0  0  0  0
  -40.7334  -25.8639   20.7484 H   0  0  0  0  0
  1  2  1  0  0  0
  2  3  1  0  0  0
  2  5  1  0  0  0
  3  4  2  0  0  0
  3 12  1  0  0  0
  5  6  1  0  0  0
  6  7  1  0  0  0
  7  8  1  0  0  0
  8  9  1  0  0  0
  9 10  2  0  0  0
  9 11  1  0  0  0
 12 13  1  0  0  0
 13 14  1  0  0  0
 13 16  1  0  0  0
 14 15  2  0  0  0
 14 19  1  0  0  0
 16 17  1  0  0  0
 16 18  1  0  0  0
 19 20  1  0  0  0
 20 21  1  0  0  0
 20 23  1  0  0  0
 21 22  2  0  0  0
 21 31  1  0  0  0
 23 24  1  0  0  0
 24 25  4  0  0  0
 24 26  4  0  0  0
 25 27  4  0  0  0
 26 28  4  0  0  0
 27 29  4  0  0  0
 28 29  4  0  0  0
 29 30  1  0  0  0
 31 32  1  0  0  0
 32 33  1  0  0  0
 32 35  1  0  0  0
 33 34  1  0  0  0
 34 37  1  0  0  0
 35 36  2  0  0  0
 35 41  1  0  0  0
 37 38  2  0  0  0
 37 39  1  0  0  0
 37 40  1  0  0  0
 41 42  1  0  0  0
 42 43  1  0  0  0
 43 44  2  0  0  0
 43 45  1  0  0  0
 45 46  1  0  0  0
 45 51  1  0  0  0
 46 47  1  0  0  0
 46 49  1  0  0  0
 47 48  2  0  0  0
 47 52  1  0  0  0
 49 50  1  0  0  0
 50 51  1  0  0  0
 52 53  1  0  0  0
 53 54  1  0  0  0
 53 56  1  0  0  0
 54 55  2  0  0  0
 54 60  1  0  0  0
 56 57  1  0  0  0
 57 58  1  0  0  0
 58 59  1  0  0  0
 60 61  1  0  0  0
 61 62  1  0  0  0
 61 64  1  0  0  0
 62 63  2  0  0  0
 62 68  1  0  0  0
 64 65  1  0  0  0
 65 66  2  0  0  0
 65 67  1  0  0  0
 68 69  1  0  0  0
 69 70  1  0  0  0
 69 72  1  0  0  0
 70 71  2  0  0  0
 70 77  1  0  0  0
 72 73  1  0  0  0
 73 74  1  0  0  0
 74 75  1  0  0  0
 75 76  1  0  0  0
 77 78  1  0  0  0
 78 79  1  0  0  0
 78 81  1  0  0  0
 79 80  1  0  0  0
 79 84  2  0  0  0
 81 82  1  0  0  0
 81 83  1  0  0  0
  1 85  1  0  0  0
  1 86  1  0  0  0
  1 87  1  0  0  0
  2 88  1  0  0  0
  5 89  1  0  0  0
  5 90  1  0  0  0
  6 91  1  0  0  0
  6 92  1  0  0  0
  7 93  1  0  0  0
  7 94  1  0  0  0
  8 95  1  0  0  0
 10 96  1  0  0  0
 11 97  1  0  0  0
 11 98  1  0  0  0
 12 99  1  0  0  0
 13100  1  0  0  0
 16101  1  0  0  0
 17102  1  0  0  0
 18103  1  0  0  0
 18104  1  0  0  0
 18105  1  0  0  0
 19106  1  0  0  0
 20107  1  0  0  0
 23108  1  0  0  0
 23109  1  0  0  0
 25110  1  0  0  0
 26111  1  0  0  0
 27112  1  0  0  0
 28113  1  0  0  0
 30114  1  0  0  0
 31115  1  0  0  0
 32116  1  0  0  0
 33117  1  0  0  0
 33118  1  0  0  0
 39119  1  0  0  0
 40120  1  0  0  0
 41121  1  0  0  0
 42122  1  0  0  0
 42123  1  0  0  0
 46124  1  0  0  0
 49125  1  0  0  0
 49126  1  0  0  0
 50127  1  0  0  0
 50128  1  0  0  0
 51129  1  0  0  0
 51130  1  0  0  0
 52131  1  0  0  0
 53132  1  0  0  0
 56133  1  0  0  0
 56134  1  0  0  0
 57135  1  0  0  0
 57136  1  0  0  0
 59137  1  0  0  0
 59138  1  0  0  0
 59139  1  0  0  0
 60140  1  0  0  0
 61141  1  0  0  0
 64142  1  0  0  0
 64143  1  0  0  0
 67144  1  0  0  0
 67145  1  0  0  0
 68146  1  0  0  0
 69147  1  0  0  0
 72148  1  0  0  0
 72149  1  0  0  0
 73150  1  0  0  0
 73151  1  0  0  0
 74152  1  0  0  0
 74153  1  0  0  0
 75154  1  0  0  0
 75155  1  0  0  0
 76156  1  0  0  0
 76157  1  0  0  0
 76158  1  0  0  0
 77159  1  0  0  0
 78160  1  0  0  0
 80161  1  0  0  0
 81162  1  0  0  0
 82163  1  0  0  0
 82164  1  0  0  0
 82165  1  0  0  0
 83166  1  0  0  0
 83167  1  0  0  0
 83168  1  0  0  0
M  END
$$$$
