### 
### Created by X-TOOL on Mon Sep 10 21:12:58 2018
### 

@<TRIPOS>MOLECULE
3bh9_ligand
  166   167     1     0     0
SMALL
GAST_HUCK


@<TRIPOS>ATOM
      1 N         -25.5860  -37.5680    5.7020 N.4       1 ARG         0.2379
      2 CA        -26.9120  -37.3830    5.1240 C.3       1 ARG         0.0651
      3 C         -27.9460  -37.0770    6.2020 C.2       1 ARG         0.2268
      4 O         -27.7700  -37.4410    7.3650 O.2       1 ARG        -0.3907
      5 CB        -27.3290  -38.6230    4.3310 C.3       1 ARG         0.0110
      6 CG        -28.7570  -38.5770    3.8120 C.3       1 ARG        -0.0125
      7 CD        -29.2480  -39.9610    3.4220 C.3       1 ARG         0.0629
      8 NE        -30.5100  -39.9080    2.6900 N.pl3     1 ARG        -0.2723
      9 CZ        -30.6120  -40.0050    1.3690 C.cat     1 ARG         0.2882
     10 NH1       -29.5240  -40.1610    0.6270 N.pl3     1 ARG        -0.2849
     11 NH2       -31.8030  -39.9470    0.7880 N.pl3     1 ARG        -0.2849
     12 N         -29.0250  -36.4080    5.8090 N.am      1 THR        -0.2586
     13 CA        -29.8650  -35.6840    6.7550 C.3       1 THR         0.1566
     14 C         -31.1300  -36.4710    7.0830 C.2       1 THR         0.2066
     15 O         -31.7250  -37.1000    6.2080 O.2       1 THR        -0.3943
     16 CB        -30.2600  -34.2980    6.2140 C.3       1 THR         0.0924
     17 OG1       -30.1040  -33.3160    7.2460 O.3       1 THR        -0.3874
     18 CG2       -31.7050  -34.3030    5.7390 C.3       1 THR        -0.0346
     19 N         -31.5340  -36.4310    8.3480 N.am      1 TYR        -0.2621
     20 CA        -32.7560  -37.0970    8.7830 C.3       1 TYR         0.1390
     21 C         -33.9070  -36.8200    7.8220 C.2       1 TYR         0.2058
     22 O         -34.1770  -35.6700    7.4760 O.2       1 TYR        -0.3942
     23 CB        -33.1340  -36.6530   10.1970 C.3       1 TYR         0.0163
     24 CG        -34.3390  -37.3700   10.7630 C.ar      1 TYR        -0.0493
     25 CD1       -34.4250  -38.7560   10.7330 C.ar      1 TYR        -0.0685
     26 CD2       -35.3910  -36.6610   11.3280 C.ar      1 TYR        -0.0685
     27 CE1       -35.5240  -39.4150   11.2490 C.ar      1 TYR        -0.0398
     28 CE2       -36.4950  -37.3120   11.8460 C.ar      1 TYR        -0.0398
     29 CZ        -36.5560  -38.6890   11.8040 C.ar      1 TYR         0.0805
     30 OH        -37.6530  -39.3410   12.3190 O.3       1 TYR        -0.3376
     31 N         -34.5820  -37.8820    7.3930 N.am      1 SEP        -0.2611
     32 CA        -35.7260  -37.7530    6.4590 C.3       1 SEP         0.1586
     33 CB        -35.8320  -38.9600    5.5380 C.3       1 SEP         0.1184
     34 OG        -34.6930  -38.9640    4.7330 O.3       1 SEP        -0.2714
     35 C         -37.0670  -37.4570    7.1040 C.2       1 SEP         0.2063
     36 O         -38.1030  -37.3800    6.4090 O.2       1 SEP        -0.3943
     37 P         -34.9230  -39.2170    3.1710 P.3       1 SEP         0.2010
     38 O1P       -33.5210  -38.9120    2.4880 O.co2     1 SEP        -0.5537
     39 O2P       -36.1190  -38.2880    2.6570 O.co2     1 SEP        -0.5537
     40 O3P       -35.2790  -40.7730    2.9940 O.co2     1 SEP        -0.5537
     41 N         -37.0540  -37.2920    8.4220 N.am      1 GLY        -0.2663
     42 CA        -38.2020  -36.7040    9.1240 C.3       1 GLY         0.1203
     43 C         -39.3030  -37.7390    9.2610 C.2       1 GLY         0.2032
     44 O         -39.0270  -38.9530    9.2320 O.2       1 GLY        -0.3945
     45 N         -40.5550  -37.2740    9.4470 N.am      1 PRO        -0.2501
     46 CA        -40.9660  -35.8430    9.5690 C.3       1 PRO         0.1338
     47 C         -40.3680  -35.1230   10.7850 C.2       1 PRO         0.2041
     48 O         -40.0840  -35.7660   11.7960 O.2       1 PRO        -0.3944
     49 CB        -42.4910  -35.9280    9.7610 C.3       1 PRO        -0.0104
     50 CG        -42.7460  -37.3580   10.2610 C.3       1 PRO        -0.0281
     51 CD        -41.7010  -38.2010    9.5700 C.3       1 PRO         0.0369
     52 N         -40.1730  -33.8080   10.6910 N.am      1 MET        -0.2637
     53 CA        -39.7030  -33.0290   11.8460 C.3       1 MET         0.1317
     54 C         -40.8780  -32.6140   12.7480 C.2       1 MET         0.2040
     55 O         -41.5530  -31.6260   12.4740 O.2       1 MET        -0.3944
     56 CB        -38.9390  -31.7690   11.4160 C.3       1 MET        -0.0034
     57 CG        -37.6360  -31.9710   10.6260 C.3       1 MET        -0.0024
     58 SD        -36.5630  -33.2860   11.2340 S.3       1 MET        -0.1639
     59 CE        -36.2480  -32.8350   12.9400 C.3       1 MET        -0.0181
     60 N         -41.0850  -33.3380   13.8420 N.am      1 ASN        -0.2616
     61 CA        -42.2320  -33.0580   14.7140 C.3       1 ASN         0.1476
     62 C         -42.0540  -31.7380   15.4660 C.2       1 ASN         0.2062
     63 O         -40.9870  -31.4910   16.0110 O.2       1 ASN        -0.3942
     64 CB        -42.4350  -34.2040   15.6920 C.3       1 ASN         0.0773
     65 CG        -43.3370  -35.2920   15.1290 C.2       1 ASN         0.1780
     66 OD1       -43.1150  -35.7880   14.0030 O.2       1 ASN        -0.3970
     67 ND2       -44.3470  -35.6820   15.9020 N.am      1 ASN        -0.3007
     68 N         -43.0920  -30.8960   15.4830 N.am      1 LYS        -0.2636
     69 CA        -43.0530  -29.5950   16.1820 C.3       1 LYS         0.1309
     70 C         -42.9730  -29.7680   17.6900 C.2       1 LYS         0.2033
     71 O         -43.5220  -30.7430   18.2330 O.2       1 LYS        -0.3944
     72 CB        -44.3300  -28.8010   15.8710 C.3       1 LYS        -0.0122
     73 CG        -44.2430  -27.8930   14.6520 C.3       1 LYS        -0.0440
     74 CD        -44.0020  -28.6530   13.3860 C.3       1 LYS        -0.0124
     75 CE        -44.2990  -27.7700   12.1830 C.3       1 LYS        -0.0354
     76 NZ        -44.0240  -28.5030   10.9200 N.4       1 LYS         0.2185
     77 N         -42.3650  -28.8030   18.3860 N.am      1 VAL        -0.2692
     78 CA        -42.3320  -28.8570   19.8540 C.3       1 VAL         0.0967
     79 C         -43.6990  -28.5450   20.4660 C.2       1 VAL         0.0603
     80 O         -43.9320  -28.8510   21.6510 O.co2     1 VAL        -0.5666
     81 CB        -41.2300  -27.9590   20.4790 C.3       1 VAL        -0.0118
     82 CG1       -39.8740  -28.3250   19.8970 C.3       1 VAL        -0.0590
     83 CG2       -41.5320  -26.4510   20.2950 C.3       1 VAL        -0.0590
     84 OXT       -44.5660  -27.9870   19.7740 O.co2     1 VAL        -0.5666
     85 H1        -24.9246  -37.7684    4.9682 H         1 ARG         0.2015
     86 H2        -25.6078  -38.3366    6.3538 H         1 ARG         0.2015
     87 H3        -25.3090  -36.7269    6.1835 H         1 ARG         0.2015
     88 H4        -26.8696  -36.5274    4.4340 H         1 ARG         0.1098
     89 H5        -27.2274  -39.5016    4.9851 H         1 ARG         0.0347
     90 H6        -26.6519  -38.7264    3.4703 H         1 ARG         0.0347
     91 H7        -28.7966  -37.9211    2.9298 H         1 ARG         0.0302
     92 H8        -29.4113  -38.1733    4.5987 H         1 ARG         0.0302
     93 H9        -29.3921  -40.5570    4.3352 H         1 ARG         0.0689
     94 H10       -28.4891  -40.4410    2.7868 H         1 ARG         0.0689
     95 H11       -31.3771  -39.7877    3.2327 H         1 ARG         0.2642
     96 H12       -29.6054  -40.2360   -0.3970 H         1 ARG         0.2615
     97 H13       -28.5975  -40.2072    1.0747 H         1 ARG         0.2615
     98 H14       -32.6502  -39.8259    1.3611 H         1 ARG         0.2615
     99 H15       -31.8806  -40.0231   -0.2363 H         1 ARG         0.2615
    100 H16       -29.2670  -36.4011    4.8387 H         1 THR         0.1885
    101 H17       -29.2905  -35.5443    7.6826 H         1 THR         0.0826
    102 H18       -29.6044  -34.0431    5.3684 H         1 THR         0.0639
    103 H19       -30.6628  -33.5393    7.9811 H         1 THR         0.2101
    104 H20       -31.9687  -33.3059    5.3566 H         1 THR         0.0257
    105 H21       -32.3664  -34.5600    6.5795 H         1 THR         0.0257
    106 H22       -31.8249  -35.0466    4.9374 H         1 THR         0.0257
    107 H23       -30.9860  -35.9314    9.0189 H         1 TYR         0.1885
    108 H24       -32.5707  -38.1812    8.7967 H         1 TYR         0.0821
    109 H25       -33.3513  -35.5749   10.1750 H         1 TYR         0.0453
    110 H26       -32.2765  -36.8408   10.8598 H         1 TYR         0.0453
    111 H27       -33.6157  -39.3305   10.2971 H         1 TYR         0.0530
    112 H28       -35.3457  -35.5785   11.3634 H         1 TYR         0.0530
    113 H29       -35.5746  -40.4974   11.2176 H         1 TYR         0.0525
    114 H30       -37.3080  -36.7434   12.2827 H         1 TYR         0.0525
    115 H31       -38.4334  -39.0600   11.8557 H         1 TYR         0.2458
    116 H32       -34.3110  -38.7914    7.7085 H         1 SEP         0.1884
    117 H33       -35.4974  -36.8856    5.8223 H         1 SEP         0.0827
    118 H34       -36.7344  -38.8803    4.9141 H         1 SEP         0.0662
    119 H35       -35.8773  -39.8848    6.1319 H         1 SEP         0.0662
    120 H36       -36.2491  -37.5728    8.9448 H         1 GLY         0.1881
    121 H37       -38.5786  -35.8432    8.5519 H         1 GLY         0.0763
    122 H38       -37.8874  -36.3705   10.1239 H         1 GLY         0.0763
    123 H39       -40.7047  -35.2914    8.6539 H         1 PRO         0.0802
    124 H40       -43.0117  -35.7524    8.8081 H         1 PRO         0.0313
    125 H41       -42.8293  -35.1916   10.5048 H         1 PRO         0.0313
    126 H42       -43.7572  -37.6907    9.9840 H         1 PRO         0.0287
    127 H43       -42.6281  -37.4133   11.3532 H         1 PRO         0.0287
    128 H44       -41.4361  -39.0789   10.1775 H         1 PRO         0.0524
    129 H45       -42.0503  -38.5315    8.5807 H         1 PRO         0.0524
    130 H46       -40.3489  -33.3445    9.8225 H         1 MET         0.1883
    131 H47       -39.0215  -33.6655   12.4294 H         1 MET         0.0800
    132 H48       -38.6890  -31.2067   12.3277 H         1 MET         0.0320
    133 H49       -39.6159  -31.1696   10.7895 H         1 MET         0.0320
    134 H50       -37.0698  -31.0285   10.6575 H         1 MET         0.0378
    135 H51       -37.9025  -32.2041    9.5845 H         1 MET         0.0378
    136 H52       -35.5929  -33.5875   13.4032 H         1 MET         0.0340
    137 H53       -37.2000  -32.7899   13.4892 H         1 MET         0.0340
    138 H54       -35.7577  -31.8509   12.9746 H         1 MET         0.0340
    139 H55       -40.4549  -34.0792   14.0733 H         1 ASN         0.1885
    140 H56       -43.1304  -32.9751   14.0847 H         1 ASN         0.0826
    141 H57       -42.8907  -33.8077   16.6114 H         1 ASN         0.0551
    142 H58       -41.4553  -34.6445   15.9288 H         1 ASN         0.0551
    143 H59       -44.9734  -36.3940   15.5848 H         1 ASN         0.1814
    144 H60       -44.4798  -35.2631   16.8003 H         1 ASN         0.1814
    145 H61       -43.9293  -31.1574   15.0029 H         1 LYS         0.1883
    146 H62       -42.1741  -29.0319   15.8349 H         1 LYS         0.0800
    147 H63       -44.5648  -28.1764   16.7455 H         1 LYS         0.0312
    148 H64       -45.1461  -29.5193   15.7037 H         1 LYS         0.0312
    149 H65       -43.4160  -27.1829   14.7997 H         1 LYS         0.0269
    150 H66       -45.1889  -27.3397   14.5563 H         1 LYS         0.0269
    151 H67       -44.6581  -29.5355   13.3606 H         1 LYS         0.0317
    152 H68       -42.9512  -28.9762   13.3498 H         1 LYS         0.0317
    153 H69       -43.6640  -26.8729   12.2266 H         1 LYS         0.0813
    154 H70       -45.3575  -27.4715   12.2053 H         1 LYS         0.0813
    155 H71       -44.2255  -27.9051   10.1339 H         1 LYS         0.1994
    156 H72       -44.6059  -29.3248   10.8749 H         1 LYS         0.1994
    157 H73       -43.0541  -28.7762   10.8944 H         1 LYS         0.1994
    158 H74       -41.9306  -28.0409   17.9059 H         1 VAL         0.1875
    159 H75       -42.0866  -29.8947   20.1242 H         1 VAL         0.0729
    160 H76       -41.2024  -28.1624   21.5597 H         1 VAL         0.0336
    161 H77       -39.0985  -27.6855   20.3438 H         1 VAL         0.0234
    162 H78       -39.8900  -28.1749   18.8074 H         1 VAL         0.0234
    163 H79       -39.6523  -29.3793   20.1187 H         1 VAL         0.0234
    164 H80       -42.5174  -26.2192   20.7255 H         1 VAL         0.0234
    165 H81       -41.5334  -26.2055   19.2228 H         1 VAL         0.0234
    166 H82       -40.7598  -25.8573   20.8062 H         1 VAL         0.0234
@<TRIPOS>BOND
     1    1    2 1  
     2    2    3 1  
     3    2    5 1  
     4    3    4 2  
     5    3   12 am 
     6    5    6 1  
     7    6    7 1  
     8    7    8 1  
     9    8    9 ar 
    10    9   10 ar 
    11    9   11 ar 
    12   12   13 1  
    13   13   14 1  
    14   13   16 1  
    15   14   15 2  
    16   14   19 am 
    17   16   17 1  
    18   16   18 1  
    19   19   20 1  
    20   20   21 1  
    21   20   23 1  
    22   21   22 2  
    23   21   31 am 
    24   23   24 1  
    25   24   25 ar 
    26   24   26 ar 
    27   25   27 ar 
    28   26   28 ar 
    29   27   29 ar 
    30   28   29 ar 
    31   29   30 1  
    32   31   32 1  
    33   32   33 1  
    34   32   35 1  
    35   33   34 1  
    36   34   37 1  
    37   35   36 2  
    38   35   41 am 
    39   37   38 ar 
    40   37   39 ar 
    41   37   40 ar 
    42   41   42 1  
    43   42   43 1  
    44   43   44 2  
    45   43   45 am 
    46   45   46 1  
    47   45   51 1  
    48   46   47 1  
    49   46   49 1  
    50   47   48 2  
    51   47   52 am 
    52   49   50 1  
    53   50   51 1  
    54   52   53 1  
    55   53   54 1  
    56   53   56 1  
    57   54   55 2  
    58   54   60 am 
    59   56   57 1  
    60   57   58 1  
    61   58   59 1  
    62   60   61 1  
    63   61   62 1  
    64   61   64 1  
    65   62   63 2  
    66   62   68 am 
    67   64   65 1  
    68   65   66 2  
    69   65   67 am 
    70   68   69 1  
    71   69   70 1  
    72   69   72 1  
    73   70   71 2  
    74   70   77 am 
    75   72   73 1  
    76   73   74 1  
    77   74   75 1  
    78   75   76 1  
    79   77   78 1  
    80   78   79 1  
    81   78   81 1  
    82   79   80 ar 
    83   79   84 ar 
    84   81   82 1  
    85   81   83 1  
    86    1   85 1  
    87    1   86 1  
    88    1   87 1  
    89    2   88 1  
    90    5   89 1  
    91    5   90 1  
    92    6   91 1  
    93    6   92 1  
    94    7   93 1  
    95    7   94 1  
    96    8   95 1  
    97   10   96 1  
    98   10   97 1  
    99   11   98 1  
   100   11   99 1  
   101   12  100 1  
   102   13  101 1  
   103   16  102 1  
   104   17  103 1  
   105   18  104 1  
   106   18  105 1  
   107   18  106 1  
   108   19  107 1  
   109   20  108 1  
   110   23  109 1  
   111   23  110 1  
   112   25  111 1  
   113   26  112 1  
   114   27  113 1  
   115   28  114 1  
   116   30  115 1  
   117   31  116 1  
   118   32  117 1  
   119   33  118 1  
   120   33  119 1  
   121   41  120 1  
   122   42  121 1  
   123   42  122 1  
   124   46  123 1  
   125   49  124 1  
   126   49  125 1  
   127   50  126 1  
   128   50  127 1  
   129   51  128 1  
   130   51  129 1  
   131   52  130 1  
   132   53  131 1  
   133   56  132 1  
   134   56  133 1  
   135   57  134 1  
   136   57  135 1  
   137   59  136 1  
   138   59  137 1  
   139   59  138 1  
   140   60  139 1  
   141   61  140 1  
   142   64  141 1  
   143   64  142 1  
   144   67  143 1  
   145   67  144 1  
   146   68  145 1  
   147   69  146 1  
   148   72  147 1  
   149   72  148 1  
   150   73  149 1  
   151   73  150 1  
   152   74  151 1  
   153   74  152 1  
   154   75  153 1  
   155   75  154 1  
   156   76  155 1  
   157   76  156 1  
   158   76  157 1  
   159   77  158 1  
   160   78  159 1  
   161   81  160 1  
   162   82  161 1  
   163   82  162 1  
   164   82  163 1  
   165   83  164 1  
   166   83  165 1  
   167   83  166 1  
@<TRIPOS>SUBSTRUCTURE
     1 ARG         1

