6cj1_ligand
  -I-interpret- 

 91 96  0  0  0  0  0  0  0  0999 V2000
    0.3140   10.1340   -4.1710 C   0  0  0  0  0
    0.4600    9.6110   -5.4620 C   0  0  0  0  0
    1.7180    9.2360   -5.9230 C   0  0  0  0  0
    2.8980    9.4090   -5.0500 C   0  0  0  0  0
    2.7100    9.9590   -3.7910 C   0  0  0  0  0
    1.4240   10.3080   -3.3440 C   0  0  0  0  0
   10.2520    6.1600   -2.1620 O   0  0  0  0  0
    9.2430    6.8290   -2.3910 C   0  0  0  0  0
    8.4780    6.5050   -3.4100 N   0  0  0  0  0
    8.6720    5.2620   -4.1390 C   0  0  0  0  0
    7.3860    7.2370   -3.8910 C   0  0  0  0  0
    7.1920    7.2700   -5.2710 C   0  0  0  0  0
    6.1180    7.9050   -5.7580 N   0  0  0  0  0
    8.9580    8.0110   -1.5180 C   0  0  0  0  0
   10.0740    8.6410   -0.9820 C   0  0  0  0  0
    9.9300    9.7490   -0.1620 C   0  0  0  0  0
    8.6730   10.2470    0.1530 C   0  0  0  0  0
    7.5320    9.6520   -0.3500 C   0  0  0  0  0
    7.6070    8.5160   -1.1700 C   0  0  0  0  0
    6.4100    7.9740   -1.6800 N   0  0  0  0  0
    5.1810    7.7270   -0.9160 C   0  0  0  0  0
    6.3480    7.8670   -3.0580 C   0  0  0  0  0
    5.3030    8.4770   -3.6400 N   0  0  0  0  0
    5.1760    8.4760   -4.9710 C   0  0  0  0  0
    4.1190    9.0820   -5.5720 N   0  0  0  0  0
   -3.4220   10.0790   -3.7140 C   0  0  0  0  0
   -4.3020    8.8920   -3.3430 C   0  0  0  0  0
   -1.7900    8.1960   -3.5030 C   0  0  0  0  0
   -2.6320    7.5030   -4.5710 C   0  0  0  0  0
   -4.1110    7.6660   -4.2330 C   0  0  0  0  0
    4.3130    6.7390    1.2010 C   0  0  0  0  0
    5.5660    7.0870    0.4140 C   0  0  0  0  0
    1.9280    8.7060   -7.1710 O   0  0  0  0  0
    0.8690    8.2540   -8.0260 C   0  0  0  0  0
   -1.0530   10.5210   -3.6880 C   0  0  0  0  0
   -1.2400   11.6610   -3.3260 O   0  0  0  0  0
   -2.0370    9.6320   -3.6550 N   0  0  0  0  0
   -4.6050    6.4720   -3.5210 N   0  3  0  0  0
   -4.3850    5.2480   -4.3200 C   0  0  0  0  0
   -4.9270    4.0100   -3.6020 C   0  0  0  0  0
   -6.3540    4.1710   -3.2580 N   0  3  0  0  0
   -6.5650    5.4060   -2.4860 C   0  0  0  0  0
   -6.0520    6.6160   -3.2660 C   0  0  0  0  0
   -6.7950    3.0450   -2.4200 C   0  0  0  0  0
    4.3750    9.0100   -0.7380 C   0  0  0  0  0
   -0.4122    9.4977   -6.1058 H   0  0  0  0  0
    3.5693   10.1225   -3.1407 H   0  0  0  0  0
    1.2928   10.7181   -2.3427 H   0  0  0  0  0
    9.6754    5.2447   -4.5645 H   0  0  0  0  0
    8.5503    4.4199   -3.4577 H   0  0  0  0  0
    7.9353    5.1929   -4.9393 H   0  0  0  0  0
    7.9022    6.7873   -5.9423 H   0  0  0  0  0
   11.0703    8.2611   -1.2080 H   0  0  0  0  0
   10.8172   10.2368    0.2417 H   0  0  0  0  0
    8.5853   11.1167    0.8041 H   0  0  0  0  0
    6.5565   10.0725   -0.1055 H   0  0  0  0  0
    4.5296    7.0426   -1.4594 H   0  0  0  0  0
    4.2556    9.3282   -6.5524 H   0  0  0  0  0
   -3.5856   10.9058   -3.0228 H   0  0  0  0  0
   -3.6652   10.4360   -4.7148 H   0  0  0  0  0
   -5.3376    9.2126   -3.4564 H   0  0  0  0  0
   -4.0323    8.5973   -2.3288 H   0  0  0  0  0
   -0.7320    7.9644   -3.6256 H   0  0  0  0  0
   -2.0630    7.8541   -2.5047 H   0  0  0  0  0
   -2.3800    6.4430   -4.6028 H   0  0  0  0  0
   -2.4287    7.9517   -5.5433 H   0  0  0  0  0
   -4.6706    7.7904   -5.1601 H   0  0  0  0  0
    3.7404    7.6470    1.3901 H   0  0  0  0  0
    3.7070    6.0389    0.6259 H   0  0  0  0  0
    4.5963    6.2825    2.1494 H   0  0  0  0  0
    6.1695    7.7886    0.9898 H   0  0  0  0  0
    6.1361    6.1776    0.2242 H   0  0  0  0  0
    0.3169    7.4569   -7.5281 H   0  0  0  0  0
    0.1966    9.0848   -8.2397 H   0  0  0  0  0
    1.2915    7.8779   -8.9578 H   0  0  0  0  0
   -4.0924    6.3906   -2.6429 H   0  0  0  0  0
   -3.3131    5.1201   -4.4706 H   0  0  0  0  0
   -4.9087    5.3551   -5.2700 H   0  0  0  0  0
   -4.3619    3.8680   -2.6808 H   0  0  0  0  0
   -4.8248    3.1514   -4.2657 H   0  0  0  0  0
   -6.8833    4.2066   -4.1292 H   0  0  0  0  0
   -6.0205    5.3336   -1.5445 H   0  0  0  0  0
   -7.6317    5.5301   -2.2993 H   0  0  0  0  0
   -6.5802    6.6811   -4.2173 H   0  0  0  0  0
   -6.2263    7.5202   -2.6828 H   0  0  0  0  0
   -6.6585    2.1118   -2.9664 H   0  0  0  0  0
   -6.2035    3.0214   -1.5047 H   0  0  0  0  0
   -7.8485    3.1705   -2.1702 H   0  0  0  0  0
    4.9767    9.7442   -0.2022 H   0  0  0  0  0
    4.1033    9.4056   -1.7167 H   0  0  0  0  0
    3.4712    8.7937   -0.1684 H   0  0  0  0  0
  1  2  4  0  0  0
  1  6  4  0  0  0
 35  1  1  0  0  0
  2  3  4  0  0  0
  3  4  4  0  0  0
  3 33  1  0  0  0
  5  4  4  0  0  0
  4 25  1  0  0  0
  6  5  4  0  0  0
  8  7  2  0  0  0
  9  8  1  0  0  0
 14  8  1  0  0  0
  9 10  1  0  0  0
 11  9  1  0  0  0
 12 11  4  0  0  0
 22 11  4  0  0  0
 13 12  4  0  0  0
 24 13  4  0  0  0
 14 15  4  0  0  0
 19 14  4  0  0  0
 15 16  4  0  0  0
 17 16  4  0  0  0
 18 17  4  0  0  0
 19 18  4  0  0  0
 20 19  1  0  0  0
 20 21  1  0  0  0
 22 20  1  0  0  0
 21 32  1  0  0  0
 21 45  1  0  0  0
 23 22  4  0  0  0
 24 23  4  0  0  0
 25 24  1  0  0  0
 26 27  1  0  0  0
 37 26  1  0  0  0
 27 30  1  0  0  0
 28 29  1  0  0  0
 37 28  1  0  0  0
 29 30  1  0  0  0
 30 38  1  0  0  0
 32 31  1  0  0  0
 33 34  1  0  0  0
 35 36  2  0  0  0
 35 37  1  0  0  0
 38 39  1  0  0  0
 38 43  1  0  0  0
 39 40  1  0  0  0
 40 41  1  0  0  0
 41 42  1  0  0  0
 41 44  1  0  0  0
 42 43  1  0  0  0
  2 46  1  0  0  0
  5 47  1  0  0  0
  6 48  1  0  0  0
 10 49  1  0  0  0
 10 50  1  0  0  0
 10 51  1  0  0  0
 12 52  1  0  0  0
 15 53  1  0  0  0
 16 54  1  0  0  0
 17 55  1  0  0  0
 18 56  1  0  0  0
 21 57  1  0  0  0
 25 58  1  0  0  0
 26 59  1  0  0  0
 26 60  1  0  0  0
 27 61  1  0  0  0
 27 62  1  0  0  0
 28 63  1  0  0  0
 28 64  1  0  0  0
 29 65  1  0  0  0
 29 66  1  0  0  0
 30 67  1  0  0  0
 31 68  1  0  0  0
 31 69  1  0  0  0
 31 70  1  0  0  0
 32 71  1  0  0  0
 32 72  1  0  0  0
 34 73  1  0  0  0
 34 74  1  0  0  0
 34 75  1  0  0  0
 38 76  1  0  0  0
 39 77  1  0  0  0
 39 78  1  0  0  0
 40 79  1  0  0  0
 40 80  1  0  0  0
 41 81  1  0  0  0
 42 82  1  0  0  0
 42 83  1  0  0  0
 43 84  1  0  0  0
 43 85  1  0  0  0
 44 86  1  0  0  0
 44 87  1  0  0  0
 44 88  1  0  0  0
 45 89  1  0  0  0
 45 90  1  0  0  0
 45 91  1  0  0  0
M  END
$$$$
