5o48_ligand
  -I-interpret- 

 39 41  0  0  0  0  0  0  0  0999 V2000
   29.5420   43.2930   65.9360 N   0  0  0  0  0
   27.9090   42.5690   67.7850 C   0  0  0  0  0
   28.3050   42.9830   66.3510 C   0  0  0  0  0
   26.5610   43.3020   62.5830 C   0  0  0  0  0
   26.1560   42.7120   64.9200 C   0  0  0  0  0
   27.5280   43.0370   65.1470 C   0  0  0  0  0
   24.2500   42.5770   63.3080 C   0  0  0  0  0
   23.9210   41.2820   63.7830 C   0  0  0  0  0
   22.6170   40.7240   63.6270 C   0  0  0  0  0
   21.6300   41.4780   62.9720 C   0  0  0  0  0
   23.4900   44.7040   62.1620 C   0  0  0  0  0
   20.3690   41.0010   62.7580 F   0  0  0  0  0
   21.9700   42.7500   62.5090 C   0  0  0  0  0
   23.2430   43.3050   62.7010 C   0  0  0  0  0
   25.6230   42.9610   63.5860 C   0  0  0  0  0
   27.8440   43.5970   62.8090 C   0  0  0  0  0
   28.3430   43.4220   64.1380 C   0  0  0  0  0
   29.5980   43.5730   64.6270 N   0  0  0  0  0
   28.2040   41.1330   67.8490 N   0  3  0  0  0
   29.5570   40.6290   68.1660 C   0  0  0  0  0
   27.3730   40.1400   67.1620 C   0  0  0  0  0
   26.8606   42.7800   67.9958 H   0  0  0  0  0
   28.4588   43.1325   68.5389 H   0  0  0  0  0
   26.2112   43.3257   61.5509 H   0  0  0  0  0
   25.5331   42.2950   65.7113 H   0  0  0  0  0
   24.6896   40.6934   64.2838 H   0  0  0  0  0
   22.3908   39.7289   64.0100 H   0  0  0  0  0
   23.8119   45.3539   62.9757 H   0  0  0  0  0
   24.2658   44.6656   61.3973 H   0  0  0  0  0
   22.5688   45.0925   61.7277 H   0  0  0  0  0
   21.2177   43.3336   61.9784 H   0  0  0  0  0
   28.4887   43.9587   62.0080 H   0  0  0  0  0
   27.7550   41.2543   68.7568 H   0  0  0  0  0
   29.4757   39.7567   68.8146 H   0  0  0  0  0
   30.0652   40.3508   67.2427 H   0  0  0  0  0
   30.1242   41.4092   68.6736 H   0  0  0  0  0
   27.8503   39.8548   66.2245 H   0  0  0  0  0
   27.2607   39.2607   67.7963 H   0  0  0  0  0
   26.3922   40.5687   66.9562 H   0  0  0  0  0
  3  1  4  0  0  0
  1 18  4  0  0  0
  3  2  1  0  0  0
  2 19  1  0  0  0
  6  3  4  0  0  0
 15  4  4  0  0  0
  4 16  4  0  0  0
  5  6  4  0  0  0
 15  5  4  0  0  0
  6 17  4  0  0  0
  7  8  4  0  0  0
  7 14  4  0  0  0
  7 15  1  0  0  0
  8  9  4  0  0  0
  9 10  4  0  0  0
 10 12  1  0  0  0
 10 13  4  0  0  0
 14 11  1  0  0  0
 13 14  4  0  0  0
 16 17  4  0  0  0
 17 18  4  0  0  0
 19 20  1  0  0  0
 19 21  1  0  0  0
  2 22  1  0  0  0
  2 23  1  0  0  0
  4 24  1  0  0  0
  5 25  1  0  0  0
  8 26  1  0  0  0
  9 27  1  0  0  0
 11 28  1  0  0  0
 11 29  1  0  0  0
 11 30  1  0  0  0
 13 31  1  0  0  0
 16 32  1  0  0  0
 19 33  1  0  0  0
 20 34  1  0  0  0
 20 35  1  0  0  0
 20 36  1  0  0  0
 21 37  1  0  0  0
 21 38  1  0  0  0
 21 39  1  0  0  0
M  END
$$$$
