6chl_ligand
  -I-interpret- 

 36 38  0  0  0  0  0  0  0  0999 V2000
  170.1530  168.8840   55.3990 C   0  0  0  0  0
  171.0800  169.6280   54.7270 C   0  0  0  0  0
  171.3310  171.0140   55.0270 C   0  0  0  0  0
  169.8630  175.0090   58.4920 C   0  0  0  0  0
  169.3830  175.7830   59.7370 C   0  0  0  0  0
  169.9450  177.1270   59.8440 C   0  0  0  0  0
  169.4450  175.6780   57.1940 C   0  0  0  0  0
  168.1810  175.4420   56.6620 C   0  0  0  0  0
  167.8220  176.0310   55.4650 C   0  0  0  0  0
  168.6820  176.8680   54.7790 C   0  0  0  0  0
  169.9410  177.1090   55.3120 C   0  0  0  0  0
  170.3210  176.5140   56.5070 C   0  0  0  0  0
  170.5440  171.4860   56.0970 N   0  0  0  0  0
  169.6190  170.7540   56.7530 C   0  0  0  0  0
  169.4180  169.4580   56.4060 N   0  0  0  0  0
  170.6190  172.7360   56.6550 N   0  0  0  0  0
  169.7100  172.6400   57.6120 C   0  0  0  0  0
  169.0490  171.4520   57.7170 N   0  0  0  0  0
  169.8660  167.4440   55.1100 C   0  0  0  0  0
  172.0760  171.7790   54.4180 O   0  0  0  0  0
  169.3960  173.6260   58.5700 N   0  0  0  0  0
  166.2570  175.6790   54.7910 Cl  0  0  0  0  0
  170.3730  178.1670   59.9700 N   0  0  0  0  0
  171.6536  169.1534   53.9308 H   0  0  0  0  0
  170.9530  175.0137   58.4849 H   0  0  0  0  0
  169.7067  175.2230   60.6144 H   0  0  0  0  0
  168.3007  175.8870   59.6595 H   0  0  0  0  0
  167.4777  174.7957   57.1871 H   0  0  0  0  0
  168.3780  177.3291   53.8393 H   0  0  0  0  0
  170.6342  177.7684   54.7897 H   0  0  0  0  0
  171.3153  176.7032   56.9117 H   0  0  0  0  0
  168.7151  168.9058   56.8973 H   0  0  0  0  0
  169.5293  167.3419   54.0783 H   0  0  0  0  0
  170.7728  166.8574   55.2573 H   0  0  0  0  0
  169.0875  167.0875   55.7846 H   0  0  0  0  0
  168.8104  173.3593   59.3614 H   0  0  0  0  0
  1  2  2  0  0  0
 15  1  1  0  0  0
  1 19  1  0  0  0
  3  2  1  0  0  0
 13  3  1  0  0  0
  3 20  2  0  0  0
  4  5  1  0  0  0
  4  7  1  0  0  0
 21  4  1  0  0  0
  5  6  1  0  0  0
  6 23  3  0  0  0
  7  8  4  0  0  0
  7 12  4  0  0  0
  8  9  4  0  0  0
  9 10  4  0  0  0
  9 22  1  0  0  0
 11 10  4  0  0  0
 12 11  4  0  0  0
 14 13  4  0  0  0
 16 13  4  0  0  0
 14 15  1  0  0  0
 18 14  4  0  0  0
 17 16  4  0  0  0
 17 18  4  0  0  0
 17 21  1  0  0  0
  2 24  1  0  0  0
  4 25  1  0  0  0
  5 26  1  0  0  0
  5 27  1  0  0  0
  8 28  1  0  0  0
 10 29  1  0  0  0
 11 30  1  0  0  0
 12 31  1  0  0  0
 15 32  1  0  0  0
 19 33  1  0  0  0
 19 34  1  0  0  0
 19 35  1  0  0  0
 21 36  1  0  0  0
M  END
$$$$
