4ttv_ligand
  -I-interpret- 

 75 76  0  0  0  0  0  0  0  0999 V2000
   34.0320  -11.9460   33.1570 C   0  0  0  0  0
   35.2030  -11.8220   34.0630 C   0  0  0  0  0
   35.0540  -10.3300   34.0430 C   0  0  0  0  0
   33.9420  -10.4520   33.0410 C   0  0  0  0  0
   34.3230  -12.6280   31.8520 C   0  0  0  0  0
   33.0000  -12.4000   31.1810 C   0  0  0  0  0
   32.4860  -13.5100   30.3520 C   0  0  0  0  0
   31.2760  -14.0010   30.4740 C   0  0  0  0  0
   31.1110  -15.0320   29.4940 C   0  0  0  0  0
   30.0630  -15.7540   29.1850 C   0  0  0  0  0
   28.9640  -15.6920   29.7440 C   0  0  0  0  0
   30.3300  -16.6730   28.0670 C   0  0  0  0  0
   30.3960  -18.0710   28.5790 C   0  0  0  0  0
   30.4840  -18.9650   27.3750 C   0  0  0  0  0
   31.6120  -18.2250   29.4510 C   0  0  0  0  0
   31.5700  -19.4940   30.2620 C   0  0  0  0  0
   30.2610  -19.6000   30.9860 C   0  0  0  0  0
   32.6810  -19.5070   31.2860 C   0  0  0  0  0
   34.0160  -19.0680   30.7370 C   0  0  0  0  0
   34.7630  -20.2180   30.1320 C   0  0  0  0  0
   34.7920  -18.4900   31.8890 C   0  0  0  0  0
   36.2650  -18.3290   31.6590 C   0  0  0  0  0
   36.9250  -18.6910   32.9560 C   0  0  0  0  0
   36.6160  -16.9110   31.2850 C   0  0  0  0  0
   36.0770  -15.9820   32.3440 C   0  0  0  0  0
   35.8330  -14.5560   31.9640 C   0  0  0  0  0
   36.7140  -13.8620   31.5840 O   0  0  0  0  0
   34.5220  -14.0050   32.0860 O   0  0  0  0  0
   34.8770  -12.3950   35.3770 C   0  0  0  0  0
   33.7840  -12.1460   35.8610 O   0  0  0  0  0
   35.7150  -13.1020   35.9230 O   0  0  0  0  0
   29.2980  -16.5510   27.1190 O   0  0  0  0  0
   35.9890  -16.6510   30.0540 O   0  0  0  0  0
   27.9400  -15.6440   30.2540 N   0  0  0  0  0
   33.1681  -12.5309   33.4727 H   0  0  0  0  0
   36.1661  -12.2750   33.8280 H   0  0  0  0  0
   35.9163   -9.7000   33.8248 H   0  0  0  0  0
   34.8905   -9.7870   34.9739 H   0  0  0  0  0
   32.9930   -9.9407   33.2027 H   0  0  0  0  0
   34.0185   -9.9671   32.0678 H   0  0  0  0  0
   35.1977  -12.2819   31.3013 H   0  0  0  0  0
   33.1441  -11.5576   30.5045 H   0  0  0  0  0
   32.2742  -12.2580   31.9817 H   0  0  0  0  0
   33.1463  -13.9429   29.6006 H   0  0  0  0  0
   30.5257  -13.6798   31.1965 H   0  0  0  0  0
   32.0042  -15.2519   28.9093 H   0  0  0  0  0
   31.2820  -16.4250   27.5977 H   0  0  0  0  0
   29.5227  -18.3264   29.1792 H   0  0  0  0  0
   29.6020  -18.8201   26.7512 H   0  0  0  0  0
   31.3789  -18.7168   26.8044 H   0  0  0  0  0
   30.5348  -20.0045   27.6989 H   0  0  0  0  0
   31.6452  -17.3815   30.1406 H   0  0  0  0  0
   32.4903  -18.2620   28.8066 H   0  0  0  0  0
   31.6907  -20.3335   29.5774 H   0  0  0  0  0
   30.1455  -18.7451   31.6522 H   0  0  0  0  0
   29.4465  -19.6106   30.2617 H   0  0  0  0  0
   30.2430  -20.5212   31.5684 H   0  0  0  0  0
   32.7928  -20.5342   31.6329 H   0  0  0  0  0
   32.4062  -18.8063   32.0744 H   0  0  0  0  0
   33.8749  -18.3326   29.9449 H   0  0  0  0  0
   34.9345  -20.9790   30.8933 H   0  0  0  0  0
   34.1760  -20.6428   29.3177 H   0  0  0  0  0
   35.7198  -19.8656   29.7466 H   0  0  0  0  0
   34.6819  -19.1882   32.7188 H   0  0  0  0  0
   34.3936  -17.4901   32.0610 H   0  0  0  0  0
   36.5959  -18.9616   30.8354 H   0  0  0  0  0
   36.5720  -18.0221   33.7409 H   0  0  0  0  0
   36.6754  -19.7201   33.2144 H   0  0  0  0  0
   38.0056  -18.5930   32.8521 H   0  0  0  0  0
   37.6935  -16.7659   31.2076 H   0  0  0  0  0
   36.8431  -15.9491   33.1187 H   0  0  0  0  0
   35.0992  -16.3827   32.6115 H   0  0  0  0  0
   36.4947  -13.1605   35.3660 H   0  0  0  0  0
   29.4658  -17.1482   26.3863 H   0  0  0  0  0
   36.1880  -15.7533   29.7781 H   0  0  0  0  0
  1  2  1  0  0  0
  1  4  1  0  0  0
  1  5  1  0  0  0
  2  3  1  0  0  0
  2 29  1  0  0  0
  3  4  1  0  0  0
  5  6  1  0  0  0
  5 28  1  0  0  0
  6  7  1  0  0  0
  7  8  2  0  0  0
  8  9  1  0  0  0
  9 10  2  0  0  0
 10 11  1  0  0  0
 10 12  1  0  0  0
 11 34  3  0  0  0
 12 13  1  0  0  0
 12 32  1  0  0  0
 13 14  1  0  0  0
 13 15  1  0  0  0
 15 16  1  0  0  0
 16 17  1  0  0  0
 16 18  1  0  0  0
 18 19  1  0  0  0
 19 20  1  0  0  0
 19 21  1  0  0  0
 21 22  1  0  0  0
 22 23  1  0  0  0
 22 24  1  0  0  0
 24 25  1  0  0  0
 24 33  1  0  0  0
 25 26  1  0  0  0
 26 27  2  0  0  0
 26 28  1  0  0  0
 29 30  2  0  0  0
 29 31  1  0  0  0
  1 35  1  0  0  0
  2 36  1  0  0  0
  3 37  1  0  0  0
  3 38  1  0  0  0
  4 39  1  0  0  0
  4 40  1  0  0  0
  5 41  1  0  0  0
  6 42  1  0  0  0
  6 43  1  0  0  0
  7 44  1  0  0  0
  8 45  1  0  0  0
  9 46  1  0  0  0
 12 47  1  0  0  0
 13 48  1  0  0  0
 14 49  1  0  0  0
 14 50  1  0  0  0
 14 51  1  0  0  0
 15 52  1  0  0  0
 15 53  1  0  0  0
 16 54  1  0  0  0
 17 55  1  0  0  0
 17 56  1  0  0  0
 17 57  1  0  0  0
 18 58  1  0  0  0
 18 59  1  0  0  0
 19 60  1  0  0  0
 20 61  1  0  0  0
 20 62  1  0  0  0
 20 63  1  0  0  0
 21 64  1  0  0  0
 21 65  1  0  0  0
 22 66  1  0  0  0
 23 67  1  0  0  0
 23 68  1  0  0  0
 23 69  1  0  0  0
 24 70  1  0  0  0
 25 71  1  0  0  0
 25 72  1  0  0  0
 31 73  1  0  0  0
 32 74  1  0  0  0
 33 75  1  0  0  0
M  END
$$$$
