6pg9_ligand
  -I-interpret- 

 38 39  0  0  0  0  0  0  0  0999 V2000
   18.5240  -87.6760   29.3780 C   0  0  0  0  0
   21.1330  -88.2570   32.2290 C   0  0  0  0  0
   21.5960  -90.1470   33.6380 C   0  0  0  0  0
   22.6260  -88.0450   34.1090 C   0  0  0  0  0
   26.0600  -85.6910   24.8050 O   0  0  0  0  0
   24.9410  -85.0810   25.4260 C   0  0  0  0  0
   23.7550  -86.0430   25.6120 C   0  0  0  0  0
   23.6110  -87.3090   25.0750 C   0  0  0  0  0
   22.4280  -87.7780   25.4600 N   0  0  0  0  0
   21.8400  -86.8620   26.2600 C   0  0  0  0  0
   20.4590  -86.9960   26.9300 C   0  0  0  0  0
   20.1360  -88.3930   27.5270 C   0  0  0  0  0
   18.6950  -88.4840   28.0890 C   0  0  0  0  0
   19.2710  -88.2860   30.4640 N   0  0  0  0  0
   20.3780  -87.6210   31.0640 C   0  0  0  0  0
   20.9480  -89.5820   32.5390 C   0  0  0  0  0
   22.4380  -89.3750   34.4230 C   0  0  0  0  0
   21.9700  -87.4700   33.0090 C   0  0  0  0  0
   20.6590  -86.5390   30.7170 O   0  0  0  0  0
   22.6700  -85.8180   26.3400 N   0  0  0  0  0
   17.4672  -87.6535   29.6441 H   0  0  0  0  0
   18.8984  -86.6654   29.2146 H   0  0  0  0  0
   21.4396  -91.1983   33.8798 H   0  0  0  0  0
   23.2903  -87.4346   34.7208 H   0  0  0  0  0
   26.7657  -85.0464   24.7155 H   0  0  0  0  0
   24.6087  -84.2662   24.7828 H   0  0  0  0  0
   25.2533  -84.7452   26.4149 H   0  0  0  0  0
   24.3364  -87.8287   24.4490 H   0  0  0  0  0
   19.7181  -86.8130   26.1517 H   0  0  0  0  0
   20.4496  -86.2934   27.7633 H   0  0  0  0  0
   20.8282  -88.5738   28.3494 H   0  0  0  0  0
   20.2309  -89.1285   26.7282 H   0  0  0  0  0
   18.0135  -88.0778   27.3416 H   0  0  0  0  0
   18.4845  -89.5295   28.3140 H   0  0  0  0  0
   18.9975  -89.2082   30.8033 H   0  0  0  0  0
   20.2911  -90.1959   31.9229 H   0  0  0  0  0
   22.9470  -89.8148   35.2807 H   0  0  0  0  0
   22.1162  -86.4167   32.7697 H   0  0  0  0  0
  1 13  1  0  0  0
 14  1  1  0  0  0
 15  2  1  0  0  0
  2 16  4  0  0  0
  2 18  4  0  0  0
 16  3  4  0  0  0
  3 17  4  0  0  0
  4 17  4  0  0  0
 18  4  4  0  0  0
  6  5  1  0  0  0
  7  6  1  0  0  0
  7  8  4  0  0  0
 20  7  4  0  0  0
  9  8  4  0  0  0
 10  9  4  0  0  0
 11 10  1  0  0  0
 10 20  4  0  0  0
 12 11  1  0  0  0
 13 12  1  0  0  0
 14 15  1  0  0  0
 15 19  2  0  0  0
  1 21  1  0  0  0
  1 22  1  0  0  0
  3 23  1  0  0  0
  4 24  1  0  0  0
  5 25  1  0  0  0
  6 26  1  0  0  0
  6 27  1  0  0  0
  8 28  1  0  0  0
 11 29  1  0  0  0
 11 30  1  0  0  0
 12 31  1  0  0  0
 12 32  1  0  0  0
 13 33  1  0  0  0
 13 34  1  0  0  0
 14 35  1  0  0  0
 16 36  1  0  0  0
 17 37  1  0  0  0
 18 38  1  0  0  0
M  END
$$$$
