3cct_ligand
  -I-interpret- 

 77 80  0  0  0  0  0  0  0  0999 V2000
   32.8920   -7.2870  -12.0660 N   0  0  0  0  0
   33.0760   -6.0490  -12.5300 C   0  0  0  0  0
   34.1110   -9.5350  -12.2220 C   0  0  0  0  0
   31.7240   -7.6330  -11.2460 C   0  0  0  0  0
   32.0380   -7.3870   -9.7740 C   0  0  0  0  0
   31.1150   -6.9110   -7.5240 C   0  0  0  0  0
   32.9010  -10.3690  -12.6390 C   0  0  0  0  0
   30.7320   -3.1220  -13.0870 C   0  0  0  0  0
   38.3560   -8.9490  -15.4550 C   0  0  0  0  0
   39.5610   -9.1470  -16.1190 C   0  0  0  0  0
   32.6290   -3.9970  -11.2620 C   0  0  0  0  0
   36.0060   -2.7410  -13.9460 C   0  0  0  0  0
   31.9750   -2.7930  -11.0480 C   0  0  0  0  0
   37.8090   -7.1590  -16.9770 C   0  0  0  0  0
   35.8300   -2.6200  -15.3180 C   0  0  0  0  0
   33.3420   -3.2190   -6.7120 O   0  0  0  0  0
   32.2940   -3.5660   -6.1270 C   0  0  0  0  0
   31.5610   -2.7490   -5.5180 O   0  0  0  0  0
   31.9170   -5.0200   -6.1750 C   0  0  0  0  0
   31.2690   -5.3980   -7.5090 C   0  0  0  0  0
   29.9880   -4.7970   -7.6710 O   0  0  0  0  0
   30.7920   -7.4770   -8.8950 C   0  0  0  0  0
   30.3900   -8.8290   -8.7220 O   0  0  0  0  0
   32.3410   -4.7660  -12.3820 C   0  0  0  0  0
   31.0300   -2.3610  -11.9630 C   0  0  0  0  0
   30.4070   -1.1990  -11.7500 F   0  0  0  0  0
   31.3910   -4.3320  -13.2990 C   0  0  0  0  0
   33.9170   -8.0850  -12.4920 C   0  0  0  0  0
   34.5000   -9.7380  -10.7640 C   0  0  0  0  0
   34.8110   -7.3240  -13.2660 C   0  0  0  0  0
   34.3200   -6.0470  -13.2890 C   0  0  0  0  0
   34.8630   -4.8510  -13.9820 C   0  0  0  0  0
   35.5180   -3.8540  -13.2750 C   0  0  0  0  0
   35.1710   -3.6190  -16.0340 C   0  0  0  0  0
   34.6740   -4.7300  -15.3560 C   0  0  0  0  0
   36.0680   -7.8270  -13.8970 C   0  0  0  0  0
   36.8770   -8.4050  -13.1760 O   0  0  0  0  0
   36.2350   -7.7300  -15.2130 N   0  0  0  0  0
   37.4700   -7.9510  -15.8710 C   0  0  0  0  0
   36.9850   -6.2000  -17.4100 O   0  0  0  0  0
   39.0180   -7.3580  -17.6510 C   0  0  0  0  0
   39.8920   -8.3530  -17.2180 C   0  0  0  0  0
   34.9314   -9.8984  -12.8408 H   0  0  0  0  0
   31.4789   -8.6850  -11.3922 H   0  0  0  0  0
   30.8777   -7.0137  -11.5432 H   0  0  0  0  0
   32.4485   -6.3818   -9.6783 H   0  0  0  0  0
   32.7411   -8.1522   -9.4449 H   0  0  0  0  0
   30.2844   -7.1610   -6.8639 H   0  0  0  0  0
   32.0672   -7.3390   -7.2104 H   0  0  0  0  0
   32.0235  -10.0361  -12.0847 H   0  0  0  0  0
   32.7262  -10.2443  -13.7076 H   0  0  0  0  0
   33.0930  -11.4196  -12.4211 H   0  0  0  0  0
   29.9853   -2.7738  -13.8006 H   0  0  0  0  0
   38.0996   -9.5776  -14.6022 H   0  0  0  0  0
   40.2479   -9.9229  -15.7811 H   0  0  0  0  0
   33.3746   -4.3423  -10.5458 H   0  0  0  0  0
   36.5289   -1.9598  -13.3942 H   0  0  0  0  0
   32.2029   -2.1923  -10.1675 H   0  0  0  0  0
   36.2087   -1.7400  -15.8379 H   0  0  0  0  0
   30.8108   -3.2138   -5.1401 H   0  0  0  0  0
   31.1979   -5.2130   -5.3789 H   0  0  0  0  0
   32.8242   -5.6123   -6.0558 H   0  0  0  0  0
   31.8986   -5.0426   -8.3248 H   0  0  0  0  0
   29.6177   -5.0587   -8.5172 H   0  0  0  0  0
   29.9904   -6.9184   -9.3782 H   0  0  0  0  0
   30.1795   -9.2110   -9.5772 H   0  0  0  0  0
   31.1626   -4.9340  -14.1785 H   0  0  0  0  0
   33.6649   -9.4540  -10.1236 H   0  0  0  0  0
   34.7468  -10.7866  -10.5978 H   0  0  0  0  0
   35.3657   -9.1182  -10.5306 H   0  0  0  0  0
   35.6492   -3.9439  -12.1967 H   0  0  0  0  0
   35.0460   -3.5315  -17.1133 H   0  0  0  0  0
   34.1366   -5.5054  -15.9019 H   0  0  0  0  0
   35.4258   -7.4818  -15.7822 H   0  0  0  0  0
   37.3759   -5.7629  -18.1701 H   0  0  0  0  0
   39.2751   -6.7383  -18.5101 H   0  0  0  0  0
   40.8363   -8.5116  -17.7387 H   0  0  0  0  0
  2  1  4  0  0  0
  1  4  1  0  0  0
 28  1  4  0  0  0
  2 24  1  0  0  0
 31  2  4  0  0  0
  3  7  1  0  0  0
 28  3  1  0  0  0
  3 29  1  0  0  0
  4  5  1  0  0  0
  5 22  1  0  0  0
  6 20  1  0  0  0
 22  6  1  0  0  0
  8 25  4  0  0  0
 27  8  4  0  0  0
  9 10  4  0  0  0
 39  9  4  0  0  0
 10 42  4  0  0  0
 11 13  4  0  0  0
 24 11  4  0  0  0
 12 15  4  0  0  0
 33 12  4  0  0  0
 13 25  4  0  0  0
 39 14  4  0  0  0
 14 40  1  0  0  0
 14 41  4  0  0  0
 34 15  4  0  0  0
 17 16  2  0  0  0
 17 18  1  0  0  0
 19 17  1  0  0  0
 20 19  1  0  0  0
 20 21  1  0  0  0
 22 23  1  0  0  0
 24 27  4  0  0  0
 25 26  1  0  0  0
 30 28  4  0  0  0
 30 31  4  0  0  0
 36 30  1  0  0  0
 31 32  1  0  0  0
 32 33  4  0  0  0
 32 35  4  0  0  0
 35 34  4  0  0  0
 36 37  2  0  0  0
 38 36  1  0  0  0
 38 39  1  0  0  0
 41 42  4  0  0  0
  3 43  1  0  0  0
  4 44  1  0  0  0
  4 45  1  0  0  0
  5 46  1  0  0  0
  5 47  1  0  0  0
  6 48  1  0  0  0
  6 49  1  0  0  0
  7 50  1  0  0  0
  7 51  1  0  0  0
  7 52  1  0  0  0
  8 53  1  0  0  0
  9 54  1  0  0  0
 10 55  1  0  0  0
 11 56  1  0  0  0
 12 57  1  0  0  0
 13 58  1  0  0  0
 15 59  1  0  0  0
 18 60  1  0  0  0
 19 61  1  0  0  0
 19 62  1  0  0  0
 20 63  1  0  0  0
 21 64  1  0  0  0
 22 65  1  0  0  0
 23 66  1  0  0  0
 27 67  1  0  0  0
 29 68  1  0  0  0
 29 69  1  0  0  0
 29 70  1  0  0  0
 33 71  1  0  0  0
 34 72  1  0  0  0
 35 73  1  0  0  0
 38 74  1  0  0  0
 40 75  1  0  0  0
 41 76  1  0  0  0
 42 77  1  0  0  0
M  END
$$$$
