5mwd_ligand
  -I-interpret- 

 40 43  0  0  0  0  0  0  0  0999 V2000
   14.3880   19.8630   17.6720 C   0  0  0  0  0
   14.2330   19.1710   16.4520 C   0  0  0  0  0
   16.5090   18.6840   16.4720 C   0  0  0  0  0
   19.1940   17.4040   14.5080 C   0  0  0  0  0
   11.7010   16.4030   11.1450 N   0  0  0  0  0
   12.7370   18.4710   14.6230 C   0  0  0  0  0
   13.1840   18.1360   12.2660 C   0  0  0  0  0
   11.4290   16.8970   13.3650 C   0  0  0  0  0
   10.4210   15.8380   12.9820 C   0  0  0  0  0
   17.9650   17.9710   14.5790 C   0  0  0  0  0
   16.6680   19.3430   17.6140 N   0  0  0  0  0
   12.1700   17.1710   12.2140 C   0  0  0  0  0
   17.6440   18.0980   15.9050 N   0  0  0  0  0
   11.7050   17.5330   14.5600 C   0  0  0  0  0
   18.7110   17.5770   16.6390 N   0  0  0  0  0
   17.1380   18.4010   13.3870 C   0  0  0  0  0
   19.6350   17.1620   15.8170 C   0  0  0  0  0
   10.7130   15.5730   11.5210 C   0  0  0  0  0
   13.4530   18.7850   13.4600 C   0  0  0  0  0
   15.3100   18.5890   15.9000 N   0  0  0  0  0
   13.0850   20.7040   18.4580 Cl  0  0  0  0  0
   10.1160   14.8000   10.8050 O   0  0  0  0  0
   12.9890   19.1320   15.8370 N   0  0  0  0  0
   15.6520   19.9360   18.2250 C   0  0  0  0  0
   20.9490   16.5510   16.2300 C   0  0  0  0  0
   19.7430   17.1762   13.5943 H   0  0  0  0  0
   12.0646   16.4648   10.1940 H   0  0  0  0  0
   13.7587   18.3752   11.3712 H   0  0  0  0  0
    9.3940   16.1635   13.1475 H   0  0  0  0  0
   10.5107   14.9396   13.5927 H   0  0  0  0  0
   11.1193   17.3033   15.4501 H   0  0  0  0  0
   17.6867   19.1509   12.8172 H   0  0  0  0  0
   16.9382   17.5364   12.7541 H   0  0  0  0  0
   16.1955   18.8244   13.7341 H   0  0  0  0  0
   14.2302   19.5484   13.4952 H   0  0  0  0  0
   12.2126   19.6112   16.2931 H   0  0  0  0  0
   15.8127   20.4775   19.1573 H   0  0  0  0  0
   21.0303   15.5487   15.8095 H   0  0  0  0  0
   21.7675   17.1688   15.8607 H   0  0  0  0  0
   20.9964   16.4951   17.3175 H   0  0  0  0  0
  2  1  4  0  0  0
  1 21  1  0  0  0
  1 24  4  0  0  0
 20  2  4  0  0  0
  2 23  1  0  0  0
  3 11  4  0  0  0
 13  3  1  0  0  0
  3 20  4  0  0  0
 10  4  4  0  0  0
  4 17  4  0  0  0
 12  5  1  0  0  0
  5 18  1  0  0  0
  6 14  4  0  0  0
  6 19  4  0  0  0
 23  6  1  0  0  0
  7 12  4  0  0  0
 19  7  4  0  0  0
  8  9  1  0  0  0
  8 12  4  0  0  0
 14  8  4  0  0  0
  9 18  1  0  0  0
 10 13  4  0  0  0
 10 16  1  0  0  0
 11 24  4  0  0  0
 13 15  4  0  0  0
 15 17  4  0  0  0
 17 25  1  0  0  0
 18 22  2  0  0  0
  4 26  1  0  0  0
  5 27  1  0  0  0
  7 28  1  0  0  0
  9 29  1  0  0  0
  9 30  1  0  0  0
 14 31  1  0  0  0
 16 32  1  0  0  0
 16 33  1  0  0  0
 16 34  1  0  0  0
 19 35  1  0  0  0
 23 36  1  0  0  0
 24 37  1  0  0  0
 25 38  1  0  0  0
 25 39  1  0  0  0
 25 40  1  0  0  0
M  END
$$$$
