3fv8_ligand
  -I-interpret- 

 45 47  0  0  0  0  0  0  0  0999 V2000
  -10.5140  -30.9900   15.5440 Cl  0  0  0  0  0
  -11.4650  -36.4200    8.5680 C   0  0  0  0  0
  -12.8420  -36.6270    8.4310 C   0  0  0  0  0
  -13.5750  -35.9520    9.4700 C   0  0  0  0  0
  -12.5490  -35.3070   10.2730 O   0  0  0  0  0
  -11.3070  -35.5690    9.7600 C   0  0  0  0  0
  -10.0670  -34.9970   10.4110 C   0  0  0  0  0
   -8.9720  -35.2130   10.0410 O   0  0  0  0  0
  -10.4040  -34.1510   11.5330 N   0  0  0  0  0
   -9.5550  -33.3900   12.4050 C   0  0  0  0  0
   -8.1820  -33.3490   12.3270 C   0  0  0  0  0
   -7.4740  -32.5710   13.2540 C   0  0  0  0  0
   -8.1670  -31.8320   14.2700 C   0  0  0  0  0
   -9.5770  -31.8940   14.3250 C   0  0  0  0  0
  -10.2630  -32.6370   13.4200 C   0  0  0  0  0
  -11.7070  -32.7430   13.5020 N   0  0  0  0  0
  -12.2700  -34.0140   13.9750 C   0  0  0  0  0
  -13.5890  -33.8860   14.5820 C   0  0  0  0  0
  -12.6040  -31.5790   13.0900 C   0  0  0  0  0
  -14.1850  -31.8880   13.1290 C   0  0  0  0  0
  -14.5490  -33.3010   13.6380 N   0  3  0  0  0
  -16.0410  -33.5880   13.8910 C   0  0  0  0  0
  -16.7830  -34.5200   12.9220 C   0  0  0  0  0
  -17.2850  -34.0600   11.7940 C   0  0  0  0  0
  -15.5210  -35.8640    9.8060 Br  0  0  0  0  0
  -10.6738  -36.8077    7.9263 H   0  0  0  0  0
  -13.3000  -37.2218    7.6407 H   0  0  0  0  0
  -11.4011  -34.0842   11.7373 H   0  0  0  0  0
   -7.6536  -33.9118   11.5575 H   0  0  0  0  0
   -6.3861  -32.5271   13.2023 H   0  0  0  0  0
   -7.6124  -31.2304   14.9902 H   0  0  0  0  0
  -11.5973  -34.4019   14.7400 H   0  0  0  0  0
  -12.3743  -34.6653   13.1072 H   0  0  0  0  0
  -13.5116  -33.2330   15.4513 H   0  0  0  0  0
  -13.9399  -34.8777   14.8676 H   0  0  0  0  0
  -12.3558  -31.3422   12.0554 H   0  0  0  0  0
  -12.4234  -30.7754   13.8040 H   0  0  0  0  0
  -14.5500  -31.8139   12.1046 H   0  0  0  0  0
  -14.6327  -31.1744   13.8208 H   0  0  0  0  0
  -14.4112  -33.8747   12.8059 H   0  0  0  0  0
  -16.5372  -32.6224   13.7936 H   0  0  0  0  0
  -16.0739  -34.0951   14.8553 H   0  0  0  0  0
  -16.8958  -35.5753   13.1705 H   0  0  0  0  0
  -17.1761  -33.0059   11.5388 H   0  0  0  0  0
  -17.8092  -34.7335   11.1160 H   0  0  0  0  0
 14  1  1  0  0  0
  2  3  4  0  0  0
  6  2  4  0  0  0
  4  3  4  0  0  0
  5  4  4  0  0  0
  4 25  1  0  0  0
  6  5  4  0  0  0
  7  6  1  0  0  0
  7  8  2  0  0  0
  9  7  1  0  0  0
 10  9  1  0  0  0
 11 10  4  0  0  0
 10 15  4  0  0  0
 12 11  4  0  0  0
 13 12  4  0  0  0
 13 14  4  0  0  0
 14 15  4  0  0  0
 15 16  1  0  0  0
 16 17  1  0  0  0
 16 19  1  0  0  0
 17 18  1  0  0  0
 18 21  1  0  0  0
 19 20  1  0  0  0
 20 21  1  0  0  0
 21 22  1  0  0  0
 22 23  1  0  0  0
 23 24  2  0  0  0
  2 26  1  0  0  0
  3 27  1  0  0  0
  9 28  1  0  0  0
 11 29  1  0  0  0
 12 30  1  0  0  0
 13 31  1  0  0  0
 17 32  1  0  0  0
 17 33  1  0  0  0
 18 34  1  0  0  0
 18 35  1  0  0  0
 19 36  1  0  0  0
 19 37  1  0  0  0
 20 38  1  0  0  0
 20 39  1  0  0  0
 21 40  1  0  0  0
 22 41  1  0  0  0
 22 42  1  0  0  0
 23 43  1  0  0  0
 24 44  1  0  0  0
 24 45  1  0  0  0
M  END
$$$$
