### 
### Created by X-TOOL on Wed Jan  1 15:39:37 2020
### 

@<TRIPOS>MOLECULE
6bin_ligand
  199   199     1     0     0
SMALL
GAST_HUCK


@<TRIPOS>ATOM
      1 N          51.0930    8.2860    3.4230 N.4       1 GLN         0.2380
      2 CA         49.7790    8.6180    2.8860 C.3       1 GLN         0.0671
      3 C          49.5520   10.1230    2.9530 C.2       1 GLN         0.2270
      4 O          48.5350   10.5880    3.4680 O.2       1 GLN        -0.3907
      5 CB         48.6750    7.8740    3.6440 C.3       1 GLN         0.0247
      6 CG         48.7120    6.3570    3.4880 C.3       1 GLN         0.0443
      7 CD         49.8540    5.7140    4.2530 C.2       1 GLN         0.1738
      8 OE1        50.1710    6.1170    5.3720 O.2       1 GLN        -0.3973
      9 NE2        50.4860    4.7160    3.6450 N.am      1 GLN        -0.3009
     10 N          50.5140   10.8760    2.4300 N.am      1 TYR        -0.2594
     11 CA         50.4630   12.3300    2.4170 C.3       1 TYR         0.1390
     12 C          50.0970   12.8330    1.0280 C.2       1 TYR         0.2040
     13 O          50.5360   12.2760    0.0180 O.2       1 TYR        -0.3944
     14 CB         51.8060   12.9260    2.8420 C.3       1 TYR         0.0163
     15 CG         51.9730   13.0890    4.3350 C.ar      1 TYR        -0.0493
     16 CD1        52.2900   12.0050    5.1430 C.ar      1 TYR        -0.0685
     17 CD2        51.8240   14.3330    4.9360 C.ar      1 TYR        -0.0685
     18 CE1        52.4460   12.1530    6.5090 C.ar      1 TYR        -0.0398
     19 CE2        51.9780   14.4910    6.3000 C.ar      1 TYR        -0.0398
     20 CZ         52.2900   13.3980    7.0820 C.ar      1 TYR         0.0805
     21 OH         52.4450   13.5530    8.4410 O.3       1 TYR        -0.3376
     22 N          49.2920   13.8900    0.9850 N.am      1 MET        -0.2738
     23 CA         48.9600   14.5400   -0.2750 C.3       1 MET         0.1112
     24 C          49.8930   15.7220   -0.5040 C.3       1 MET         0.1056
     25 O          50.6570   16.0980    0.3860 O.3       1 MET        -0.3507
     26 CB         47.5020   15.0040   -0.2860 C.3       1 MET        -0.0131
     27 CG         46.5120   13.9590    0.2000 C.3       1 MET        -0.0042
     28 SD         44.8240   14.3070   -0.3250 S.3       1 MET        -0.1640
     29 CE         44.9210   13.8910   -2.0630 C.3       1 MET        -0.0181
     30 C1         50.8700   17.6020   -2.7460 C.2       1 CIR         0.2268
     31 O1         49.6700   17.6580   -3.1100 O.2       1 CIR        -0.3907
     32 C2         51.4160   16.3350   -2.2010 C.3       1 CIR         0.0695
     33 N2         50.3340   15.5160   -1.7190 N.4       1 CIR         0.2695
     34 C3         52.1320   15.6090   -3.2950 C.3       1 CIR         0.0098
     35 C4         53.2430   14.7660   -2.7080 C.3       1 CIR        -0.0257
     36 C5         53.8750   13.9430   -3.8050 C.3       1 CIR         0.0316
     37 N6         54.8720   13.0530   -3.2310 N.am      1 CIR        -0.2733
     38 C7         55.5110   12.0540   -4.0480 C.2       1 CIR         0.2548
     39 O7         55.2190   11.9470   -5.2280 O.2       1 CIR        -0.4010
     40 N8         56.4980   11.1760   -3.4690 N.am      1 CIR        -0.2870
     41 N          51.4870   18.6720   -2.3250 N.am      1 ALA        -0.2613
     42 CA         51.0130   19.8860   -2.9790 C.3       1 ALA         0.1283
     43 C          51.8910   20.2370   -4.1740 C.2       1 ALA         0.2037
     44 O          53.0660   19.8740   -4.2190 O.2       1 ALA        -0.3944
     45 CB         50.9760   21.0420   -1.9910 C.3       1 ALA        -0.0244
     46 N          51.3140   20.9410   -5.1430 N.am      1 ASP        -0.2622
     47 CA         52.0550   21.3960   -6.3100 C.3       1 ASP         0.1423
     48 C          52.5700   22.8110   -6.0780 C.2       1 ASP         0.2056
     49 O          51.8620   23.6620   -5.5320 O.2       1 ASP        -0.3943
     50 CB         51.1780   21.3520   -7.5630 C.3       1 ASP         0.0406
     51 CG         51.9710   21.5720   -8.8380 C.2       1 ASP         0.0393
     52 OD1        51.5590   22.4190   -9.6590 O.co2     1 ASP        -0.5688
     53 OD2        53.0050   20.8940   -9.0200 O.co2     1 ASP        -0.5688
     54 N          53.8080   23.0530   -6.4980 N.am      1 GLN        -0.2635
     55 CA         54.4560   24.3320   -6.2440 C.3       1 GLN         0.1330
     56 C          53.8800   25.4250   -7.1370 C.2       1 GLN         0.2040
     57 O          53.6290   25.2130   -8.3260 O.2       1 GLN        -0.3944
     58 CB         55.9640   24.2080   -6.4720 C.3       1 GLN         0.0045
     59 CG         56.7140   25.5320   -6.5270 C.3       1 GLN         0.0412
     60 CD         57.1420   26.0240   -5.1580 C.2       1 GLN         0.1737
     61 OE1        57.2410   25.2460   -4.2090 O.2       1 GLN        -0.3973
     62 NE2        57.4030   27.3220   -5.0500 N.am      1 GLN        -0.3009
     63 N          53.6670   26.6020   -6.5510 N.am      1 ALA        -0.2640
     64 CA         53.2930   27.7790   -7.3230 C.3       1 ALA         0.1282
     65 C          54.5430   28.4170   -7.9140 C.2       1 ALA         0.2036
     66 O          55.5470   28.5960   -7.2180 O.2       1 ALA        -0.3944
     67 CB         52.5450   28.7820   -6.4460 C.3       1 ALA        -0.0244
     68 N          54.4840   28.7560   -9.2000 N.am      1 ALA        -0.2640
     69 CA         55.6370   29.3170   -9.8900 C.3       1 ALA         0.1282
     70 C          55.7230   30.8190   -9.6470 C.2       1 ALA         0.2034
     71 O          54.7470   31.5480   -9.8520 O.2       1 ALA        -0.3944
     72 CB         55.5560   29.0250  -11.3880 C.3       1 ALA        -0.0244
     73 N          56.8950   31.2780   -9.2150 N.am      1 GLY        -0.2664
     74 CA         57.0760   32.6950   -8.9390 C.3       1 GLY         0.1201
     75 C          57.1770   33.4950  -10.2250 C.2       1 GLY         0.2005
     76 O          57.9750   33.1730  -11.1150 O.2       1 GLY        -0.3947
     77 N          56.3730   34.5490  -10.3260 N.am      1 GLY        -0.2666
     78 CA         56.3420   35.3550  -11.5280 C.3       1 GLY         0.1201
     79 C          57.5770   36.2230  -11.6910 C.2       1 GLY         0.2007
     80 O          58.4070   36.3740  -10.7930 O.2       1 GLY        -0.3947
     81 N          57.6900   36.8050  -12.8820 N.am      1 LEU        -0.2640
     82 CA         58.8140   37.6750  -13.1950 C.3       1 LEU         0.1312
     83 C          58.6980   38.9920  -12.4330 C.2       1 LEU         0.2033
     84 O          57.6000   39.5060  -12.2090 O.2       1 LEU        -0.3944
     85 CB         58.8770   37.9320  -14.7030 C.3       1 LEU        -0.0101
     86 CG         60.0250   38.7800  -15.2520 C.3       1 LEU        -0.0425
     87 CD1        61.3640   38.2720  -14.7410 C.3       1 LEU        -0.0625
     88 CD2        59.9980   38.7800  -16.7730 C.3       1 LEU        -0.0625
     89 N          59.8560   39.5370  -12.0540 N.am      1 ARG        -0.2695
     90 CA         60.0010   40.7060  -11.1690 C.3       1 ARG         0.0945
     91 C          59.6630   40.3280   -9.7310 C.2       1 ARG         0.0601
     92 O          60.2920   40.8110   -8.7880 O.co2     1 ARG        -0.5666
     93 CB         59.1300   41.8950  -11.6080 C.3       1 ARG        -0.0148
     94 CG         59.1720   42.2210  -13.0910 C.3       1 ARG        -0.0162
     95 CD         60.5900   42.3170  -13.6100 C.3       1 ARG         0.0627
     96 NE         60.6190   42.2820  -15.0680 N.pl3     1 ARG        -0.2723
     97 CZ         61.7250   42.1460  -15.7900 C.cat     1 ARG         0.2882
     98 NH1        62.9010   42.0280  -15.1880 N.pl3     1 ARG        -0.2849
     99 NH2        61.6560   42.1230  -17.1140 N.pl3     1 ARG        -0.2849
    100 OXT        58.7550   39.5330   -9.4850 O.co2     1 ARG        -0.5666
    101 H1         51.2337    7.2891    3.3744 H         1 GLN         0.2015
    102 H2         51.1493    8.5868    4.3834 H         1 GLN         0.2015
    103 H3         51.8046    8.7525    2.8825 H         1 GLN         0.2015
    104 H4         49.7453    8.3064    1.8316 H         1 GLN         0.1100
    105 H5         47.7030    8.2336    3.2755 H         1 GLN         0.0370
    106 H6         48.7724    8.1118    4.7136 H         1 GLN         0.0370
    107 H7         48.8247    6.1162    2.4206 H         1 GLN         0.0506
    108 H8         47.7632    5.9424    3.8592 H         1 GLN         0.0506
    109 H9         51.2468    4.2543    4.1011 H         1 GLN         0.1814
    110 H10        50.2009    4.4265    2.7313 H         1 GLN         0.1814
    111 H11        51.3091   10.4227    2.0271 H         1 TYR         0.1886
    112 H12        49.6909   12.6593    3.1279 H         1 TYR         0.0821
    113 H13        51.9059   13.9167    2.3746 H         1 TYR         0.0453
    114 H14        52.6063   12.2658    2.4765 H         1 TYR         0.0453
    115 H15        52.4173   11.0260    4.6952 H         1 TYR         0.0530
    116 H16        51.5827   15.1946    4.3240 H         1 TYR         0.0530
    117 H17        52.6895   11.2956    7.1259 H         1 TYR         0.0525
    118 H18        51.8544   15.4680    6.7530 H         1 TYR         0.0525
    119 H19        52.6563   12.7135    8.8323 H         1 TYR         0.2458
    120 H20        48.9062   14.2463    1.8360 H         1 MET         0.1858
    121 H21        49.1010   13.8157   -1.0908 H         1 MET         0.0639
    122 H22        49.2240   16.5904   -0.5953 H         1 MET         0.1208
    123 H23        50.1724   16.1962    1.1972 H         1 MET         0.2155
    124 H24        47.2352   15.2786   -1.3172 H         1 MET         0.0298
    125 H25        47.4165   15.8882    0.3628 H         1 MET         0.0298
    126 H26        46.5404   13.9311    1.2993 H         1 MET         0.0377
    127 H27        46.8101   12.9785   -0.1995 H         1 MET         0.0377
    128 H28        43.9410   14.0557   -2.5347 H         1 MET         0.0340
    129 H29        45.2073   12.8345   -2.1718 H         1 MET         0.0340
    130 H30        45.6742   14.5272   -2.5508 H         1 MET         0.0340
    131 H31        52.1128   16.5524   -1.3781 H         1 CIR         0.1100
    132 H32        49.5560   15.6505   -2.3456 H         1 CIR         0.2064
    133 H33        50.6416   14.5573   -1.7662 H         1 CIR         0.2064
    134 H34        52.5597   16.3384   -3.9986 H         1 CIR         0.0346
    135 H35        51.4223   14.9587   -3.8273 H         1 CIR         0.0346
    136 H36        52.8300   14.0975   -1.9382 H         1 CIR         0.0288
    137 H37        54.0022   15.4211   -2.2559 H         1 CIR         0.0288
    138 H38        54.3566   14.6116   -4.5337 H         1 CIR         0.0517
    139 H39        53.0997   13.3479   -4.3098 H         1 CIR         0.0517
    140 H40        55.1149   13.1352   -2.2644 H         1 CIR         0.1845
    141 H41        56.9428   10.4817   -4.0347 H         1 CIR         0.1808
    142 H42        56.7375   11.2616   -2.5019 H         1 CIR         0.1808
    143 H43        52.2060   18.6607   -1.6301 H         1 ALA         0.1884
    144 H44        49.9903   19.7064   -3.3420 H         1 ALA         0.0797
    145 H45        50.6167   21.9483   -2.5004 H         1 ALA         0.0277
    146 H46        51.9873   21.2197   -1.5965 H         1 ALA         0.0277
    147 H47        50.2972   20.7940   -1.1617 H         1 ALA         0.0277
    148 H48        50.3422   21.1645   -5.0678 H         1 ASP         0.1884
    149 H49        52.9153   20.7276   -6.4618 H         1 ASP         0.0819
    150 H50        50.4119   22.1374   -7.4847 H         1 ASP         0.0478
    151 H51        50.6899   20.3677   -7.6171 H         1 ASP         0.0478
    152 H52        54.3037   22.3429   -6.9980 H         1 GLN         0.1883
    153 H53        54.2798   24.6103   -5.1945 H         1 GLN         0.0801
    154 H54        56.1236   23.6848   -7.4263 H         1 GLN         0.0337
    155 H55        56.3859   23.6100   -5.6508 H         1 GLN         0.0337
    156 H56        56.0582   26.2884   -6.9827 H         1 GLN         0.0504
    157 H57        57.6114   25.4017   -7.1496 H         1 GLN         0.0504
    158 H58        57.6896   27.7029   -4.1709 H         1 GLN         0.1814
    159 H59        57.3129   27.9182   -5.8478 H         1 GLN         0.1814
    160 H60        53.7661   26.6792   -5.5589 H         1 ALA         0.1883
    161 H61        52.6305   27.4685   -8.1444 H         1 ALA         0.0797
    162 H62        52.2719   29.6621   -7.0467 H         1 ALA         0.0277
    163 H63        53.1912   29.0935   -5.6121 H         1 ALA         0.0277
    164 H64        51.6333   28.3126   -6.0479 H         1 ALA         0.0277
    165 H65        53.6299   28.6226   -9.7027 H         1 ALA         0.1883
    166 H66        56.5469   28.8454   -9.4905 H         1 ALA         0.0797
    167 H67        56.4333   29.4551  -11.8933 H         1 ALA         0.0277
    168 H68        54.6396   29.4728  -11.7999 H         1 ALA         0.0277
    169 H69        55.5369   27.9370  -11.5490 H         1 ALA         0.0277
    170 H70        57.6567   30.6445   -9.0791 H         1 GLY         0.1881
    171 H71        57.9994   32.8324   -8.3573 H         1 GLY         0.0763
    172 H72        56.2176   33.0597   -8.3558 H         1 GLY         0.0763
    173 H73        55.7792   34.7892   -9.5581 H         1 GLY         0.1881
    174 H74        55.4573   36.0075  -11.4900 H         1 GLY         0.0763
    175 H75        56.2667   34.6854  -12.3975 H         1 GLY         0.0763
    176 H76        56.9888   36.6415  -13.5759 H         1 LEU         0.1883
    177 H77        59.7427   37.1731  -12.8858 H         1 LEU         0.0800
    178 H78        57.9394   38.4326  -14.9864 H         1 LEU         0.0315
    179 H79        58.9329   36.9510  -15.1974 H         1 LEU         0.0315
    180 H80        59.8910   39.8141  -14.9018 H         1 LEU         0.0298
    181 H81        62.1727   38.8964  -15.1485 H         1 LEU         0.0232
    182 H82        61.5078   37.2299  -15.0626 H         1 LEU         0.0232
    183 H83        61.3802   38.3222  -13.6423 H         1 LEU         0.0232
    184 H84        59.0228   39.1501  -17.1224 H         1 LEU         0.0232
    185 H85        60.1553   37.7560  -17.1425 H         1 LEU         0.0232
    186 H86        60.7962   39.4340  -17.1539 H         1 LEU         0.0232
    187 H87        60.6951   39.1169  -12.3995 H         1 ARG         0.1875
    188 H88        61.0528   41.0258  -11.2054 H         1 ARG         0.0726
    189 H89        59.4666   42.7846  -11.0554 H         1 ARG         0.0307
    190 H90        58.0874   41.6693  -11.3396 H         1 ARG         0.0307
    191 H91        58.6669   43.1839  -13.2575 H         1 ARG         0.0301
    192 H92        58.6443   41.4298  -13.6437 H         1 ARG         0.0301
    193 H93        61.1739   41.4709  -13.2187 H         1 ARG         0.0689
    194 H94        61.0359   43.2613  -13.2644 H         1 ARG         0.0689
    195 H95        59.7237   42.3684  -15.5698 H         1 ARG         0.2642
    196 H96        63.7584   41.9225  -15.7489 H         1 ARG         0.2615
    197 H97        62.9568   42.0418  -14.1596 H         1 ARG         0.2615
    198 H98        60.7440   42.2144  -17.5838 H         1 ARG         0.2615
    199 H99        62.5144   42.0137  -17.6726 H         1 ARG         0.2615
@<TRIPOS>BOND
     1    2    1 1  
     2    3    2 1  
     3    2    5 1  
     4    3    4 2  
     5   10    3 am 
     6    5    6 1  
     7    6    7 1  
     8    7    8 2  
     9    7    9 am 
    10   11   10 1  
    11   12   11 1  
    12   11   14 1  
    13   12   13 2  
    14   22   12 am 
    15   14   15 1  
    16   15   16 ar 
    17   15   17 ar 
    18   16   18 ar 
    19   17   19 ar 
    20   18   20 ar 
    21   19   20 ar 
    22   20   21 1  
    23   23   22 1  
    24   24   23 1  
    25   23   26 1  
    26   24   25 1  
    27   33   24 1  
    28   26   27 1  
    29   27   28 1  
    30   28   29 1  
    31   30   31 2  
    32   32   30 1  
    33   30   41 am 
    34   32   33 1  
    35   32   34 1  
    36   34   35 1  
    37   35   36 1  
    38   36   37 1  
    39   37   38 am 
    40   38   39 2  
    41   38   40 am 
    42   41   42 1  
    43   42   43 1  
    44   42   45 1  
    45   43   44 2  
    46   43   46 am 
    47   46   47 1  
    48   47   48 1  
    49   47   50 1  
    50   48   49 2  
    51   48   54 am 
    52   50   51 1  
    53   51   52 ar 
    54   51   53 ar 
    55   54   55 1  
    56   55   56 1  
    57   55   58 1  
    58   56   57 2  
    59   56   63 am 
    60   58   59 1  
    61   59   60 1  
    62   60   61 2  
    63   60   62 am 
    64   63   64 1  
    65   64   65 1  
    66   64   67 1  
    67   65   66 2  
    68   65   68 am 
    69   68   69 1  
    70   69   70 1  
    71   69   72 1  
    72   70   71 2  
    73   70   73 am 
    74   73   74 1  
    75   74   75 1  
    76   75   76 2  
    77   75   77 am 
    78   77   78 1  
    79   78   79 1  
    80   79   80 2  
    81   79   81 am 
    82   81   82 1  
    83   82   83 1  
    84   82   85 1  
    85   83   84 2  
    86   83   89 am 
    87   85   86 1  
    88   86   87 1  
    89   86   88 1  
    90   89   90 1  
    91   90   91 1  
    92   90   93 1  
    93   91   92 ar 
    94   91  100 ar 
    95   93   94 1  
    96   94   95 1  
    97   95   96 1  
    98   96   97 ar 
    99   97   98 ar 
   100   97   99 ar 
   101    1  101 1  
   102    1  102 1  
   103    1  103 1  
   104    2  104 1  
   105    5  105 1  
   106    5  106 1  
   107    6  107 1  
   108    6  108 1  
   109    9  109 1  
   110    9  110 1  
   111   10  111 1  
   112   11  112 1  
   113   14  113 1  
   114   14  114 1  
   115   16  115 1  
   116   17  116 1  
   117   18  117 1  
   118   19  118 1  
   119   21  119 1  
   120   22  120 1  
   121   23  121 1  
   122   24  122 1  
   123   25  123 1  
   124   26  124 1  
   125   26  125 1  
   126   27  126 1  
   127   27  127 1  
   128   29  128 1  
   129   29  129 1  
   130   29  130 1  
   131   32  131 1  
   132   33  132 1  
   133   33  133 1  
   134   34  134 1  
   135   34  135 1  
   136   35  136 1  
   137   35  137 1  
   138   36  138 1  
   139   36  139 1  
   140   37  140 1  
   141   40  141 1  
   142   40  142 1  
   143   41  143 1  
   144   42  144 1  
   145   45  145 1  
   146   45  146 1  
   147   45  147 1  
   148   46  148 1  
   149   47  149 1  
   150   50  150 1  
   151   50  151 1  
   152   54  152 1  
   153   55  153 1  
   154   58  154 1  
   155   58  155 1  
   156   59  156 1  
   157   59  157 1  
   158   62  158 1  
   159   62  159 1  
   160   63  160 1  
   161   64  161 1  
   162   67  162 1  
   163   67  163 1  
   164   67  164 1  
   165   68  165 1  
   166   69  166 1  
   167   72  167 1  
   168   72  168 1  
   169   72  169 1  
   170   73  170 1  
   171   74  171 1  
   172   74  172 1  
   173   77  173 1  
   174   78  174 1  
   175   78  175 1  
   176   81  176 1  
   177   82  177 1  
   178   85  178 1  
   179   85  179 1  
   180   86  180 1  
   181   87  181 1  
   182   87  182 1  
   183   87  183 1  
   184   88  184 1  
   185   88  185 1  
   186   88  186 1  
   187   89  187 1  
   188   90  188 1  
   189   93  189 1  
   190   93  190 1  
   191   94  191 1  
   192   94  192 1  
   193   95  193 1  
   194   95  194 1  
   195   96  195 1  
   196   98  196 1  
   197   98  197 1  
   198   99  198 1  
   199   99  199 1  
@<TRIPOS>SUBSTRUCTURE
     1 GLN         1

