6bin_ligand
  -I-interpret- 

200200  0  0  0  0  0  0  0  0999 V2000
   51.0930    8.2860    3.4230 N   0  3  0  0  0
   49.7790    8.6180    2.8860 C   0  0  0  0  0
   49.5520   10.1230    2.9530 C   0  0  0  0  0
   48.5350   10.5880    3.4680 O   0  0  0  0  0
   48.6750    7.8740    3.6440 C   0  0  0  0  0
   48.7120    6.3570    3.4880 C   0  0  0  0  0
   49.8540    5.7140    4.2530 C   0  0  0  0  0
   50.1710    6.1170    5.3720 O   0  0  0  0  0
   50.4860    4.7160    3.6450 N   0  0  0  0  0
   50.5140   10.8760    2.4300 N   0  0  0  0  0
   50.4630   12.3300    2.4170 C   0  0  0  0  0
   50.0970   12.8330    1.0280 C   0  0  0  0  0
   50.5360   12.2760    0.0180 O   0  0  0  0  0
   51.8060   12.9260    2.8420 C   0  0  0  0  0
   51.9730   13.0890    4.3350 C   0  0  0  0  0
   52.2900   12.0050    5.1430 C   0  0  0  0  0
   51.8240   14.3330    4.9360 C   0  0  0  0  0
   52.4460   12.1530    6.5090 C   0  0  0  0  0
   51.9780   14.4910    6.3000 C   0  0  0  0  0
   52.2900   13.3980    7.0820 C   0  0  0  0  0
   52.4450   13.5530    8.4410 O   0  0  0  0  0
   49.2920   13.8900    0.9850 N   0  0  0  0  0
   48.9600   14.5400   -0.2750 C   0  0  0  0  0
   49.8930   15.7220   -0.5040 C   0  0  0  0  0
   50.6570   16.0980    0.3860 O   0  0  0  0  0
   47.5020   15.0040   -0.2860 C   0  0  0  0  0
   46.5120   13.9590    0.2000 C   0  0  0  0  0
   44.8240   14.3070   -0.3250 S   0  0  0  0  0
   44.9210   13.8910   -2.0630 C   0  0  0  0  0
   50.8700   17.6020   -2.7460 C   0  0  0  0  0
   49.6700   17.6580   -3.1100 O   0  0  0  0  0
   51.4160   16.3350   -2.2010 C   0  0  0  0  0
   50.3340   15.5160   -1.7190 N   0  3  0  0  0
   52.1320   15.6090   -3.2950 C   0  0  0  0  0
   53.2430   14.7660   -2.7080 C   0  0  0  0  0
   53.8750   13.9430   -3.8050 C   0  0  0  0  0
   54.8720   13.0530   -3.2310 N   0  0  0  0  0
   55.5110   12.0540   -4.0480 C   0  0  0  0  0
   55.2190   11.9470   -5.2280 O   0  0  0  0  0
   56.4980   11.1760   -3.4690 N   0  0  0  0  0
   51.4870   18.6720   -2.3250 N   0  0  0  0  0
   51.0130   19.8860   -2.9790 C   0  0  0  0  0
   51.8910   20.2370   -4.1740 C   0  0  0  0  0
   53.0660   19.8740   -4.2190 O   0  0  0  0  0
   50.9760   21.0420   -1.9910 C   0  0  0  0  0
   51.3140   20.9410   -5.1430 N   0  0  0  0  0
   52.0550   21.3960   -6.3100 C   0  0  0  0  0
   52.5700   22.8110   -6.0780 C   0  0  0  0  0
   51.8620   23.6620   -5.5320 O   0  0  0  0  0
   51.1780   21.3520   -7.5630 C   0  0  0  0  0
   51.9710   21.5720   -8.8380 C   0  0  0  0  0
   51.5590   22.4190   -9.6590 O   0  0  0  0  0
   53.0050   20.8940   -9.0200 O   0  0  0  0  0
   53.8080   23.0530   -6.4980 N   0  0  0  0  0
   54.4560   24.3320   -6.2440 C   0  0  0  0  0
   53.8800   25.4250   -7.1370 C   0  0  0  0  0
   53.6290   25.2130   -8.3260 O   0  0  0  0  0
   55.9640   24.2080   -6.4720 C   0  0  0  0  0
   56.7140   25.5320   -6.5270 C   0  0  0  0  0
   57.1420   26.0240   -5.1580 C   0  0  0  0  0
   57.2410   25.2460   -4.2090 O   0  0  0  0  0
   57.4030   27.3220   -5.0500 N   0  0  0  0  0
   53.6670   26.6020   -6.5510 N   0  0  0  0  0
   53.2930   27.7790   -7.3230 C   0  0  0  0  0
   54.5430   28.4170   -7.9140 C   0  0  0  0  0
   55.5470   28.5960   -7.2180 O   0  0  0  0  0
   52.5450   28.7820   -6.4460 C   0  0  0  0  0
   54.4840   28.7560   -9.2000 N   0  0  0  0  0
   55.6370   29.3170   -9.8900 C   0  0  0  0  0
   55.7230   30.8190   -9.6470 C   0  0  0  0  0
   54.7470   31.5480   -9.8520 O   0  0  0  0  0
   55.5560   29.0250  -11.3880 C   0  0  0  0  0
   56.8950   31.2780   -9.2150 N   0  0  0  0  0
   57.0760   32.6950   -8.9390 C   0  0  0  0  0
   57.1770   33.4950  -10.2250 C   0  0  0  0  0
   57.9750   33.1730  -11.1150 O   0  0  0  0  0
   56.3730   34.5490  -10.3260 N   0  0  0  0  0
   56.3420   35.3550  -11.5280 C   0  0  0  0  0
   57.5770   36.2230  -11.6910 C   0  0  0  0  0
   58.4070   36.3740  -10.7930 O   0  0  0  0  0
   57.6900   36.8050  -12.8820 N   0  0  0  0  0
   58.8140   37.6750  -13.1950 C   0  0  0  0  0
   58.6980   38.9920  -12.4330 C   0  0  0  0  0
   57.6000   39.5060  -12.2090 O   0  0  0  0  0
   58.8770   37.9320  -14.7030 C   0  0  0  0  0
   60.0250   38.7800  -15.2520 C   0  0  0  0  0
   61.3640   38.2720  -14.7410 C   0  0  0  0  0
   59.9980   38.7800  -16.7730 C   0  0  0  0  0
   59.8560   39.5370  -12.0540 N   0  0  0  0  0
   60.0010   40.7060  -11.1690 C   0  0  0  0  0
   59.6630   40.3280   -9.7310 C   0  0  0  0  0
   60.2920   40.8110   -8.7880 O   0  0  0  0  0
   59.1300   41.8950  -11.6080 C   0  0  0  0  0
   59.1720   42.2210  -13.0910 C   0  0  0  0  0
   60.5900   42.3170  -13.6100 C   0  0  0  0  0
   60.6190   42.2820  -15.0680 N   0  0  0  0  0
   61.7250   42.1460  -15.7900 C   0  0  0  0  0
   62.9010   42.0280  -15.1880 N   0  0  0  0  0
   61.6560   42.1230  -17.1140 N   0  0  0  0  0
   58.7550   39.5330   -9.4850 O   0  0  0  0  0
   51.8094    8.7926    2.9029 H   0  0  0  0  0
   51.1338    8.5514    4.4070 H   0  0  0  0  0
   51.2519    7.2824    3.3335 H   0  0  0  0  0
   49.7425    8.3025    1.8433 H   0  0  0  0  0
   47.7232    8.2135    3.2354 H   0  0  0  0  0
   48.8149    8.0891    4.7034 H   0  0  0  0  0
   48.8517    6.1338    2.4303 H   0  0  0  0  0
   47.7784    5.9581    3.8848 H   0  0  0  0  0
   51.2680    4.2512    4.1063 H   0  0  0  0  0
   50.1892    4.4146    2.7169 H   0  0  0  0  0
   51.3250   10.4136    2.0190 H   0  0  0  0  0
   49.6995   12.6469    3.1274 H   0  0  0  0  0
   51.8670   13.9218    2.4030 H   0  0  0  0  0
   52.5816   12.2373    2.5070 H   0  0  0  0  0
   52.4180   11.0206    4.6928 H   0  0  0  0  0
   51.5814   15.1993    4.3206 H   0  0  0  0  0
   52.6908   11.2908    7.1294 H   0  0  0  0  0
   51.8537   15.4734    6.7555 H   0  0  0  0  0
   52.3040   14.4733    8.6751 H   0  0  0  0  0
   48.8985   14.2534    1.8530 H   0  0  0  0  0
   49.0881   13.8185   -1.0819 H   0  0  0  0  0
   49.3702   16.6748   -0.4200 H   0  0  0  0  0
   51.1674   16.8481    0.0723 H   0  0  0  0  0
   47.2454   15.2336   -1.3202 H   0  0  0  0  0
   47.4302   15.8547    0.3917 H   0  0  0  0  0
   46.5313   13.9598    1.2898 H   0  0  0  0  0
   46.8037   12.9979   -0.2235 H   0  0  0  0  0
   45.6676   14.5220   -2.5452 H   0  0  0  0  0
   45.2048   12.8440   -2.1694 H   0  0  0  0  0
   43.9494   14.0546   -2.5292 H   0  0  0  0  0
   52.1026   16.5494   -1.3820 H   0  0  0  0  0
   49.5451   15.7273   -2.3300 H   0  0  0  0  0
   50.7002   14.5640   -1.7135 H   0  0  0  0  0
   52.5573   16.3329   -3.9901 H   0  0  0  0  0
   51.4282   14.9632   -3.8201 H   0  0  0  0  0
   52.8352   14.1047   -1.9435 H   0  0  0  0  0
   53.9949   15.4141   -2.2578 H   0  0  0  0  0
   54.3524   14.6056   -4.5269 H   0  0  0  0  0
   53.1067   13.3533   -4.3051 H   0  0  0  0  0
   55.1197   13.1369   -2.2451 H   0  0  0  0  0
   56.9508   10.4669   -4.0457 H   0  0  0  0  0
   56.7432   11.2642   -2.4828 H   0  0  0  0  0
   52.2204   18.6604   -1.6162 H   0  0  0  0  0
   50.0011   19.7040   -3.3411 H   0  0  0  0  0
   50.3031   20.7950   -1.1698 H   0  0  0  0  0
   51.9786   21.2170   -1.6008 H   0  0  0  0  0
   50.6198   21.9394   -2.4969 H   0  0  0  0  0
   50.3228   21.1689   -5.0663 H   0  0  0  0  0
   52.9021   20.7276   -6.4639 H   0  0  0  0  0
   50.4405   22.1507   -7.4845 H   0  0  0  0  0
   50.7212   20.3639   -7.6183 H   0  0  0  0  0
   53.1381   20.3082   -8.2712 H   0  0  0  0  0
   54.3137   22.3287   -7.0080 H   0  0  0  0  0
   54.2704   24.6087   -5.2062 H   0  0  0  0  0
   56.0985   23.7282   -7.4414 H   0  0  0  0  0
   56.3668   23.6517   -5.6256 H   0  0  0  0  0
   56.0433   26.2774   -6.9543 H   0  0  0  0  0
   57.6139   25.3807   -7.1231 H   0  0  0  0  0
   57.6986   27.7100   -4.1542 H   0  0  0  0  0
   57.3078   27.9307   -5.8629 H   0  0  0  0  0
   53.7681   26.6808   -5.5391 H   0  0  0  0  0
   52.6282   27.4769   -8.1323 H   0  0  0  0  0
   51.6419   28.3157   -6.0521 H   0  0  0  0  0
   53.1864   29.0898   -5.6202 H   0  0  0  0  0
   52.2750   29.6535   -7.0423 H   0  0  0  0  0
   53.6128   28.6199   -9.7128 H   0  0  0  0  0
   56.5382   28.8492   -9.4936 H   0  0  0  0  0
   55.5371   27.9467  -11.5462 H   0  0  0  0  0
   54.6475   29.4692  -11.7948 H   0  0  0  0  0
   56.4258   29.4516  -11.8876 H   0  0  0  0  0
   57.6719   30.6318   -9.0764 H   0  0  0  0  0
   57.9994   32.8248   -8.3746 H   0  0  0  0  0
   56.2156   33.0523   -8.3731 H   0  0  0  0  0
   55.7673   34.7940   -9.5427 H   0  0  0  0  0
   55.4775   36.0157  -11.4630 H   0  0  0  0  0
   56.2965   34.6780  -12.3811 H   0  0  0  0  0
   56.9747   36.6382  -13.5898 H   0  0  0  0  0
   59.7351   37.1807  -12.8863 H   0  0  0  0  0
   57.9721   38.4940  -14.9341 H   0  0  0  0  0
   59.0085   36.9485  -15.1542 H   0  0  0  0  0
   59.8958   39.8038  -14.9009 H   0  0  0  0  0
   61.3787   38.3223  -13.6523 H   0  0  0  0  0
   61.5052   37.2394  -15.0603 H   0  0  0  0  0
   62.1645   38.8914  -15.1455 H   0  0  0  0  0
   60.1030   37.7580  -17.1370 H   0  0  0  0  0
   59.0509   39.1945  -17.1183 H   0  0  0  0  0
   60.8208   39.3876  -17.1497 H   0  0  0  0  0
   60.7119   39.1085  -12.4064 H   0  0  0  0  0
   61.0423   41.0210  -11.2359 H   0  0  0  0  0
   60.9635   41.4084   -9.1253 H   0  0  0  0  0
   59.5137   42.7714  -11.0857 H   0  0  0  0  0
   58.0989   41.6274  -11.3773 H   0  0  0  0  0
   58.6877   43.1858  -13.2419 H   0  0  0  0  0
   58.6649   41.4210  -13.6304 H   0  0  0  0  0
   61.1590   41.4688  -13.2293 H   0  0  0  0  0
   61.0209   43.2605  -13.2751 H   0  0  0  0  0
   59.7324   42.3675  -15.5650 H   0  0  0  0  0
   63.7497   41.9199  -15.7434 H   0  0  0  0  0
   62.9567   42.0454  -14.1697 H   0  0  0  0  0
   60.7524   42.2098  -17.5792 H   0  0  0  0  0
  2  1  1  0  0  0
  3  2  1  0  0  0
  2  5  1  0  0  0
  3  4  2  0  0  0
 10  3  1  0  0  0
  5  6  1  0  0  0
  6  7  1  0  0  0
  7  8  2  0  0  0
  7  9  1  0  0  0
 11 10  1  0  0  0
 12 11  1  0  0  0
 11 14  1  0  0  0
 12 13  2  0  0  0
 22 12  1  0  0  0
 14 15  1  0  0  0
 15 16  4  0  0  0
 15 17  4  0  0  0
 16 18  4  0  0  0
 17 19  4  0  0  0
 18 20  4  0  0  0
 19 20  4  0  0  0
 20 21  1  0  0  0
 23 22  1  0  0  0
 24 23  1  0  0  0
 23 26  1  0  0  0
 24 25  1  0  0  0
 33 24  1  0  0  0
 26 27  1  0  0  0
 27 28  1  0  0  0
 28 29  1  0  0  0
 30 31  2  0  0  0
 32 30  1  0  0  0
 30 41  1  0  0  0
 32 33  1  0  0  0
 32 34  1  0  0  0
 34 35  1  0  0  0
 35 36  1  0  0  0
 36 37  1  0  0  0
 37 38  1  0  0  0
 38 39  2  0  0  0
 38 40  1  0  0  0
 41 42  1  0  0  0
 42 43  1  0  0  0
 42 45  1  0  0  0
 43 44  2  0  0  0
 43 46  1  0  0  0
 46 47  1  0  0  0
 47 48  1  0  0  0
 47 50  1  0  0  0
 48 49  2  0  0  0
 48 54  1  0  0  0
 50 51  1  0  0  0
 51 52  2  0  0  0
 51 53  1  0  0  0
 54 55  1  0  0  0
 55 56  1  0  0  0
 55 58  1  0  0  0
 56 57  2  0  0  0
 56 63  1  0  0  0
 58 59  1  0  0  0
 59 60  1  0  0  0
 60 61  2  0  0  0
 60 62  1  0  0  0
 63 64  1  0  0  0
 64 65  1  0  0  0
 64 67  1  0  0  0
 65 66  2  0  0  0
 65 68  1  0  0  0
 68 69  1  0  0  0
 69 70  1  0  0  0
 69 72  1  0  0  0
 70 71  2  0  0  0
 70 73  1  0  0  0
 73 74  1  0  0  0
 74 75  1  0  0  0
 75 76  2  0  0  0
 75 77  1  0  0  0
 77 78  1  0  0  0
 78 79  1  0  0  0
 79 80  2  0  0  0
 79 81  1  0  0  0
 81 82  1  0  0  0
 82 83  1  0  0  0
 82 85  1  0  0  0
 83 84  2  0  0  0
 83 89  1  0  0  0
 85 86  1  0  0  0
 86 87  1  0  0  0
 86 88  1  0  0  0
 89 90  1  0  0  0
 90 91  1  0  0  0
 90 93  1  0  0  0
 91 92  1  0  0  0
 91100  2  0  0  0
 93 94  1  0  0  0
 94 95  1  0  0  0
 95 96  1  0  0  0
 96 97  1  0  0  0
 97 98  1  0  0  0
 97 99  2  0  0  0
  1101  1  0  0  0
  1102  1  0  0  0
  1103  1  0  0  0
  2104  1  0  0  0
  5105  1  0  0  0
  5106  1  0  0  0
  6107  1  0  0  0
  6108  1  0  0  0
  9109  1  0  0  0
  9110  1  0  0  0
 10111  1  0  0  0
 11112  1  0  0  0
 14113  1  0  0  0
 14114  1  0  0  0
 16115  1  0  0  0
 17116  1  0  0  0
 18117  1  0  0  0
 19118  1  0  0  0
 21119  1  0  0  0
 22120  1  0  0  0
 23121  1  0  0  0
 24122  1  0  0  0
 25123  1  0  0  0
 26124  1  0  0  0
 26125  1  0  0  0
 27126  1  0  0  0
 27127  1  0  0  0
 29128  1  0  0  0
 29129  1  0  0  0
 29130  1  0  0  0
 32131  1  0  0  0
 33132  1  0  0  0
 33133  1  0  0  0
 34134  1  0  0  0
 34135  1  0  0  0
 35136  1  0  0  0
 35137  1  0  0  0
 36138  1  0  0  0
 36139  1  0  0  0
 37140  1  0  0  0
 40141  1  0  0  0
 40142  1  0  0  0
 41143  1  0  0  0
 42144  1  0  0  0
 45145  1  0  0  0
 45146  1  0  0  0
 45147  1  0  0  0
 46148  1  0  0  0
 47149  1  0  0  0
 50150  1  0  0  0
 50151  1  0  0  0
 53152  1  0  0  0
 54153  1  0  0  0
 55154  1  0  0  0
 58155  1  0  0  0
 58156  1  0  0  0
 59157  1  0  0  0
 59158  1  0  0  0
 62159  1  0  0  0
 62160  1  0  0  0
 63161  1  0  0  0
 64162  1  0  0  0
 67163  1  0  0  0
 67164  1  0  0  0
 67165  1  0  0  0
 68166  1  0  0  0
 69167  1  0  0  0
 72168  1  0  0  0
 72169  1  0  0  0
 72170  1  0  0  0
 73171  1  0  0  0
 74172  1  0  0  0
 74173  1  0  0  0
 77174  1  0  0  0
 78175  1  0  0  0
 78176  1  0  0  0
 81177  1  0  0  0
 82178  1  0  0  0
 85179  1  0  0  0
 85180  1  0  0  0
 86181  1  0  0  0
 87182  1  0  0  0
 87183  1  0  0  0
 87184  1  0  0  0
 88185  1  0  0  0
 88186  1  0  0  0
 88187  1  0  0  0
 89188  1  0  0  0
 90189  1  0  0  0
 92190  1  0  0  0
 93191  1  0  0  0
 93192  1  0  0  0
 94193  1  0  0  0
 94194  1  0  0  0
 95195  1  0  0  0
 95196  1  0  0  0
 96197  1  0  0  0
 98198  1  0  0  0
 98199  1  0  0  0
 99200  1  0  0  0
M  END
$$$$
