### 
### Created by X-TOOL on Mon Sep 10 21:13:20 2018
### 

@<TRIPOS>MOLECULE
4uv8_ligand
  120   127     1     0     0
SMALL
GAST_HUCK


@<TRIPOS>ATOM
      1 P          -6.3880   65.6770   90.9150 P.3       1 D69         0.2972
      2 N1         -8.1360   57.9650   86.1530 N.am      1 D69        -0.2442
      3 C2         -9.1190   57.0440   86.3310 C.2       1 D69         0.2897
      4 O2         -9.5130   56.7410   87.4800 O.2       1 D69        -0.3910
      5 N3         -9.6650   56.4340   85.2670 N.am      1 D69        -0.1823
      6 C4         -9.2550   56.7250   84.0230 C.2       1 D69         0.2583
      7 O4         -9.8040   56.1440   83.0630 O.2       1 D69        -0.3310
      8 N5         -7.8690   57.9240   82.4820 N.pl3     1 D69        -0.3176
      9 C6         -7.2950   59.6710   80.9940 C.ar      1 D69        -0.0603
     10 C7         -6.7310   60.9210   80.7550 C.ar      1 D69        -0.0686
     11 C8         -6.1230   61.6820   81.8880 C.ar      1 D69        -0.0686
     12 C9         -6.1260   61.1340   83.1710 C.ar      1 D69        -0.0599
     13 PA         -6.5420   67.6670   88.8630 P.3       1 D69         0.2972
     14 C1'        -6.1280   59.9980   85.8520 C.3       1 D69         0.0535
     15 C10        -7.7000   58.2810   84.9030 C.3       1 D69         0.1552
     16 N10        -6.7130   59.2780   84.7050 N.pl3     1 D69        -0.2924
     17 N1A        -4.0990   77.9810   90.5050 N.ar      1 D69        -0.2698
     18 O1A        -5.6030   68.1050   87.7600 O.co2     1 D69        -0.6127
     19 C1B        -6.0340   73.4160   88.9640 C.3       1 D69         0.2010
     20 O1P        -5.2390   65.0190   91.6400 O.co2     1 D69        -0.6127
     21 C2'        -7.1010   60.9410   86.5730 C.3       1 D69         0.1024
     22 O2'        -7.8590   61.6990   85.6270 O.3       1 D69        -0.3872
     23 C2A        -5.2810   77.3930   90.7840 C.ar      1 D69         0.0533
     24 O2A        -7.8940   67.0720   88.5310 O.co2     1 D69        -0.6127
     25 C2B        -6.3690   72.6300   87.7110 C.3       1 D69         0.1385
     26 O2B        -7.1620   73.3920   86.7970 O.3       1 D69        -0.3836
     27 O2P        -7.4580   66.3950   91.7010 O.co2     1 D69        -0.6127
     28 C3'        -6.3430   61.9110   87.4730 C.3       1 D69         0.1111
     29 O3'        -5.3960   61.1810   88.2570 O.3       1 D69        -0.3865
     30 N3A        -5.6330   76.1920   90.2900 N.ar      1 D69        -0.2714
     31 C3B        -7.1310   71.4480   88.2890 C.3       1 D69         0.1149
     32 O3B        -8.5280   71.7280   88.3580 O.3       1 D69        -0.3864
     33 O3P        -5.7190   66.6900   89.8500 O.3       1 D69        -0.1319
     34 C4'        -7.2260   62.7130   88.4250 C.3       1 D69         0.1118
     35 O4'        -8.4130   63.1780   87.7670 O.3       1 D69        -0.3865
     36 C4A        -4.7960   75.4960   89.4750 C.ar      1 D69         0.1613
     37 C4B        -6.6370   71.3060   89.7170 C.3       1 D69         0.1189
     38 O4B        -5.7750   72.4150   89.9510 O.3       1 D69        -0.3364
     39 C4X        -7.8710   57.2490   83.8260 C.3       1 D69         0.1870
     40 C5'        -6.4300   63.9030   88.9510 C.3       1 D69         0.1124
     41 O5'        -7.1240   64.5580   90.0160 O.3       1 D69        -0.2477
     42 C5A        -3.4910   76.0730   89.1210 C.ar      1 D69         0.1045
     43 C5B        -5.8800   70.0070   89.9330 C.3       1 D69         0.1128
     44 O5B        -6.8080   68.9230   89.8380 O.3       1 D69        -0.2476
     45 C5X        -7.2970   59.1290   82.2740 C.ar      1 D69         0.0434
     46 C6A        -3.1730   77.4020   89.7030 C.ar      1 D69         0.1298
     47 N6A        -1.9990   78.0180   89.4380 N.pl3     1 D69        -0.3152
     48 N7A        -2.8790   75.1810   88.3120 N.2       1 D69        -0.2958
     49 C7M        -6.7460   61.4780   79.3540 C.3       1 D69        -0.0426
     50 C8A        -3.7230   74.1260   88.1590 C.2       1 D69         0.1123
     51 C8M        -5.5040   63.0400   81.6670 C.3       1 D69        -0.0426
     52 C9A        -6.6890   59.8770   83.4140 C.ar      1 D69         0.0478
     53 N9A        -4.8650   74.3210   88.8490 N.pl3     1 D69        -0.1919
     54 NAA        -4.0050   55.5550   84.1800 N.2       1 D69        -0.3839
     55 CAB        -7.0410   52.7430   81.1510 C.ar      1 D69        -0.0687
     56 CAC        -0.4280   52.8370   86.5600 C.ar      1 D69        -0.0681
     57 CAD        -7.9430   52.8100   82.2120 C.ar      1 D69        -0.0686
     58 CAE        -6.1030   53.7590   80.9700 C.ar      1 D69        -0.0686
     59 CAF        -0.7640   53.9720   85.8200 C.ar      1 D69        -0.0677
     60 CAG        -1.4450   52.0080   87.0330 C.ar      1 D69        -0.0677
     61 CAH        -7.8970   53.8930   83.0870 C.ar      1 D69        -0.0599
     62 CAI        -6.0650   54.8470   81.8430 C.ar      1 D69        -0.0599
     63 CAJ        -2.1050   54.2760   85.5560 C.ar      1 D69        -0.0568
     64 CAK        -2.7850   52.3140   86.7690 C.ar      1 D69        -0.0568
     65 CAL        -6.3030   55.5330   85.1310 C.3       1 D69         0.0268
     66 CAM        -6.9190   56.0180   83.7960 C.3       1 D69         0.0472
     67 CAN        -4.5050   53.6930   85.7980 C.3       1 D69         0.0440
     68 CAO        -4.8820   54.9600   84.9950 C.2       1 D69         0.0206
     69 CAP        -6.9640   54.9230   82.9110 C.ar      1 D69        -0.0353
     70 CAQ        -3.1320   53.4510   86.0290 C.ar      1 D69        -0.0222
     71 H          -7.7290   58.4149   86.9480 H         1 D69         0.1874
     72 H         -10.3860   55.7545   85.4032 H         1 D69         0.2260
     73 H          -8.3220   57.4480   81.6888 H         1 D69         0.1685
     74 H          -7.7366   59.1153   80.1747 H         1 D69         0.0400
     75 H          -5.6859   61.6901   83.9908 H         1 D69         0.0400
     76 H          -5.2786   60.5940   85.4869 H         1 D69         0.0533
     77 H          -5.7687   59.2539   86.5781 H         1 D69         0.0533
     78 H          -8.5619   58.9066   84.6279 H         1 D69         0.0824
     79 H          -6.9061   74.0203   89.2542 H         1 D69         0.0996
     80 H          -7.7871   60.3393   87.1873 H         1 D69         0.0639
     81 H          -8.4548   62.2761   86.0900 H         1 D69         0.2100
     82 H          -5.9770   77.9106   91.4342 H         1 D69         0.0996
     83 H          -5.4550   72.2963   87.1980 H         1 D69         0.0676
     84 H          -7.9762   73.6417   87.2179 H         1 D69         0.2101
     85 H          -5.8057   62.6207   86.8268 H         1 D69         0.0647
     86 H          -5.8537   60.5415   88.7900 H         1 D69         0.2100
     87 H          -6.9467   70.5364   87.7016 H         1 D69         0.0648
     88 H          -8.6710   72.4854   88.9133 H         1 D69         0.2100
     89 H          -7.5176   62.0701   89.2686 H         1 D69         0.0647
     90 H          -8.9094   62.4333   87.4482 H         1 D69         0.2100
     91 H          -7.4916   71.3395   90.4088 H         1 D69         0.0651
     92 H          -6.2717   64.6195   88.1315 H         1 D69         0.0647
     93 H          -5.4568   63.5485   89.3213 H         1 D69         0.0647
     94 H          -5.4131   70.0102   90.9290 H         1 D69         0.0648
     95 H          -5.1016   69.8982   89.1635 H         1 D69         0.0648
     96 H          -1.3058   77.5640   88.8262 H         1 D69         0.1820
     97 H          -1.7978   78.9413   89.8479 H         1 D69         0.1820
     98 H          -7.2376   60.7613   78.6797 H         1 D69         0.0350
     99 H          -5.7132   61.6497   79.0166 H         1 D69         0.0350
    100 H          -7.2982   62.4293   79.3435 H         1 D69         0.0350
    101 H          -3.5060   73.2428   87.5601 H         1 D69         0.1349
    102 H          -5.5897   63.3135   80.6050 H         1 D69         0.0350
    103 H          -4.4424   63.0101   81.9534 H         1 D69         0.0350
    104 H          -6.0287   63.7865   82.2813 H         1 D69         0.0350
    105 H          -4.2734   56.3799   83.6667 H         1 D69         0.0803
    106 H          -7.0688   51.9021   80.4675 H         1 D69         0.0559
    107 H           0.6105   52.6029   86.7645 H         1 D69         0.0564
    108 H          -8.6757   52.0241   82.3552 H         1 D69         0.0599
    109 H          -5.3998   53.7033   80.1469 H         1 D69         0.0599
    110 H           0.0188   54.6226   85.4471 H         1 D69         0.0601
    111 H          -1.1966   51.1230   87.6075 H         1 D69         0.0601
    112 H          -8.5935   53.9394   83.9163 H         1 D69         0.0557
    113 H          -5.3364   55.6354   81.6927 H         1 D69         0.0557
    114 H          -2.3506   55.1601   84.9789 H         1 D69         0.0564
    115 H          -3.5656   51.6613   87.1428 H         1 D69         0.0564
    116 H          -6.9532   54.7493   85.5470 H         1 D69         0.0572
    117 H          -6.2667   56.3858   85.8248 H         1 D69         0.0572
    118 H          -6.0542   56.5401   83.3607 H         1 D69         0.0509
    119 H          -4.9050   52.8258   85.2521 H         1 D69         0.0702
    120 H          -4.9961   53.7668   86.7795 H         1 D69         0.0702
@<TRIPOS>BOND
     1    1   20 ar 
     2    1   27 ar 
     3    1   33 1  
     4   41    1 1  
     5    2    3 am 
     6   15    2 1  
     7    3    4 2  
     8    5    3 am 
     9    6    5 am 
    10    6    7 2  
    11   39    6 1  
    12   39    8 1  
    13    8   45 1  
    14    9   10 ar 
    15   45    9 ar 
    16   10   11 ar 
    17   10   49 1  
    18   12   11 ar 
    19   11   51 1  
    20   52   12 ar 
    21   13   18 ar 
    22   13   24 ar 
    23   33   13 1  
    24   13   44 1  
    25   16   14 1  
    26   14   21 1  
    27   15   16 1  
    28   39   15 1  
    29   16   52 1  
    30   23   17 ar 
    31   46   17 ar 
    32   19   25 1  
    33   38   19 1  
    34   19   53 1  
    35   21   22 1  
    36   21   28 1  
    37   30   23 ar 
    38   25   26 1  
    39   31   25 1  
    40   28   29 1  
    41   28   34 1  
    42   36   30 ar 
    43   31   32 1  
    44   37   31 1  
    45   34   35 1  
    46   34   40 1  
    47   36   42 ar 
    48   53   36 1  
    49   37   38 1  
    50   43   37 1  
    51   66   39 1  
    52   40   41 1  
    53   42   46 ar 
    54   48   42 1  
    55   44   43 1  
    56   45   52 ar 
    57   46   47 1  
    58   50   48 2  
    59   53   50 1  
    60   68   54 2  
    61   57   55 ar 
    62   58   55 ar 
    63   59   56 ar 
    64   60   56 ar 
    65   61   57 ar 
    66   62   58 ar 
    67   63   59 ar 
    68   64   60 ar 
    69   69   61 ar 
    70   69   62 ar 
    71   70   63 ar 
    72   70   64 ar 
    73   65   66 1  
    74   68   65 1  
    75   66   69 1  
    76   67   68 1  
    77   67   70 1  
    78    2   71 1  
    79    5   72 1  
    80    8   73 1  
    81    9   74 1  
    82   12   75 1  
    83   14   76 1  
    84   14   77 1  
    85   15   78 1  
    86   19   79 1  
    87   21   80 1  
    88   22   81 1  
    89   23   82 1  
    90   25   83 1  
    91   26   84 1  
    92   28   85 1  
    93   29   86 1  
    94   31   87 1  
    95   32   88 1  
    96   34   89 1  
    97   35   90 1  
    98   37   91 1  
    99   40   92 1  
   100   40   93 1  
   101   43   94 1  
   102   43   95 1  
   103   47   96 1  
   104   47   97 1  
   105   49   98 1  
   106   49   99 1  
   107   49  100 1  
   108   50  101 1  
   109   51  102 1  
   110   51  103 1  
   111   51  104 1  
   112   54  105 1  
   113   55  106 1  
   114   56  107 1  
   115   57  108 1  
   116   58  109 1  
   117   59  110 1  
   118   60  111 1  
   119   61  112 1  
   120   62  113 1  
   121   63  114 1  
   122   64  115 1  
   123   65  116 1  
   124   65  117 1  
   125   66  118 1  
   126   67  119 1  
   127   67  120 1  
@<TRIPOS>SUBSTRUCTURE
     1 D69         1

