4uv8_ligand
  -I-interpret- 

122129  0  0  0  0  0  0  0  0999 V2000
   -6.3880   65.6770   90.9150 P   0  0  0  0  0
   -8.1360   57.9650   86.1530 N   0  0  0  0  0
   -9.1190   57.0440   86.3310 C   0  0  0  0  0
   -9.5130   56.7410   87.4800 O   0  0  0  0  0
   -9.6650   56.4340   85.2670 N   0  0  0  0  0
   -9.2550   56.7250   84.0230 C   0  0  0  0  0
   -9.8040   56.1440   83.0630 O   0  0  0  0  0
   -7.8690   57.9240   82.4820 N   0  0  0  0  0
   -7.2950   59.6710   80.9940 C   0  0  0  0  0
   -6.7310   60.9210   80.7550 C   0  0  0  0  0
   -6.1230   61.6820   81.8880 C   0  0  0  0  0
   -6.1260   61.1340   83.1710 C   0  0  0  0  0
   -6.5420   67.6670   88.8630 P   0  0  0  0  0
   -6.1280   59.9980   85.8520 C   0  0  0  0  0
   -7.7000   58.2810   84.9030 C   0  0  0  0  0
   -6.7130   59.2780   84.7050 N   0  0  0  0  0
   -4.0990   77.9810   90.5050 N   0  0  0  0  0
   -5.6030   68.1050   87.7600 O   0  0  0  0  0
   -6.0340   73.4160   88.9640 C   0  0  0  0  0
   -5.2390   65.0190   91.6400 O   0  0  0  0  0
   -7.1010   60.9410   86.5730 C   0  0  0  0  0
   -7.8590   61.6990   85.6270 O   0  0  0  0  0
   -5.2810   77.3930   90.7840 C   0  0  0  0  0
   -7.8940   67.0720   88.5310 O   0  0  0  0  0
   -6.3690   72.6300   87.7110 C   0  0  0  0  0
   -7.1620   73.3920   86.7970 O   0  0  0  0  0
   -7.4580   66.3950   91.7010 O   0  0  0  0  0
   -6.3430   61.9110   87.4730 C   0  0  0  0  0
   -5.3960   61.1810   88.2570 O   0  0  0  0  0
   -5.6330   76.1920   90.2900 N   0  0  0  0  0
   -7.1310   71.4480   88.2890 C   0  0  0  0  0
   -8.5280   71.7280   88.3580 O   0  0  0  0  0
   -5.7190   66.6900   89.8500 O   0  0  0  0  0
   -7.2260   62.7130   88.4250 C   0  0  0  0  0
   -8.4130   63.1780   87.7670 O   0  0  0  0  0
   -4.7960   75.4960   89.4750 C   0  0  0  0  0
   -6.6370   71.3060   89.7170 C   0  0  0  0  0
   -5.7750   72.4150   89.9510 O   0  0  0  0  0
   -7.8710   57.2490   83.8260 C   0  0  0  0  0
   -6.4300   63.9030   88.9510 C   0  0  0  0  0
   -7.1240   64.5580   90.0160 O   0  0  0  0  0
   -3.4910   76.0730   89.1210 C   0  0  0  0  0
   -5.8800   70.0070   89.9330 C   0  0  0  0  0
   -6.8080   68.9230   89.8380 O   0  0  0  0  0
   -7.2970   59.1290   82.2740 C   0  0  0  0  0
   -3.1730   77.4020   89.7030 C   0  0  0  0  0
   -1.9990   78.0180   89.4380 N   0  0  0  0  0
   -2.8790   75.1810   88.3120 N   0  0  0  0  0
   -6.7460   61.4780   79.3540 C   0  0  0  0  0
   -3.7230   74.1260   88.1590 C   0  0  0  0  0
   -5.5040   63.0400   81.6670 C   0  0  0  0  0
   -6.6890   59.8770   83.4140 C   0  0  0  0  0
   -4.8650   74.3210   88.8490 N   0  0  0  0  0
   -4.0050   55.5550   84.1800 N   0  0  0  0  0
   -7.0410   52.7430   81.1510 C   0  0  0  0  0
   -0.4280   52.8370   86.5600 C   0  0  0  0  0
   -7.9430   52.8100   82.2120 C   0  0  0  0  0
   -6.1030   53.7590   80.9700 C   0  0  0  0  0
   -0.7640   53.9720   85.8200 C   0  0  0  0  0
   -1.4450   52.0080   87.0330 C   0  0  0  0  0
   -7.8970   53.8930   83.0870 C   0  0  0  0  0
   -6.0650   54.8470   81.8430 C   0  0  0  0  0
   -2.1050   54.2760   85.5560 C   0  0  0  0  0
   -2.7850   52.3140   86.7690 C   0  0  0  0  0
   -6.3030   55.5330   85.1310 C   0  0  0  0  0
   -6.9190   56.0180   83.7960 C   0  0  0  0  0
   -4.5050   53.6930   85.7980 C   0  0  0  0  0
   -4.8820   54.9600   84.9950 C   0  0  0  0  0
   -6.9640   54.9230   82.9110 C   0  0  0  0  0
   -3.1320   53.4510   86.0290 C   0  0  0  0  0
   -7.7209   58.4239   86.9638 H   0  0  0  0  0
  -10.4004   55.7410   85.4060 H   0  0  0  0  0
   -8.3176   57.4526   81.6965 H   0  0  0  0  0
   -7.7390   59.1123   80.1701 H   0  0  0  0  0
   -5.6835   61.6932   83.9954 H   0  0  0  0  0
   -5.3163   60.6128   85.4630 H   0  0  0  0  0
   -5.8165   59.2455   86.5764 H   0  0  0  0  0
   -8.5284   58.9624   84.7094 H   0  0  0  0  0
   -6.8600   74.0871   89.1993 H   0  0  0  0  0
   -4.6512   64.6096   91.0009 H   0  0  0  0  0
   -7.7699   60.3266   87.1756 H   0  0  0  0  0
   -8.4611   62.2822   86.0949 H   0  0  0  0  0
   -5.9809   77.9134   91.4378 H   0  0  0  0  0
   -8.3541   66.8523   89.3444 H   0  0  0  0  0
   -5.4988   72.3447   87.1198 H   0  0  0  0  0
   -7.3518   72.8610   86.0201 H   0  0  0  0  0
   -5.8669   62.6265   86.8026 H   0  0  0  0  0
   -4.9166   61.7885   88.8251 H   0  0  0  0  0
   -6.9771   70.5607   87.6749 H   0  0  0  0  0
   -8.9875   70.9693   88.7251 H   0  0  0  0  0
   -7.5308   62.0669   89.2483 H   0  0  0  0  0
   -8.9473   63.6777   88.3887 H   0  0  0  0  0
   -7.4818   71.2874   90.4056 H   0  0  0  0  0
   -6.2890   64.6147   88.1375 H   0  0  0  0  0
   -5.4732   63.5425   89.3286 H   0  0  0  0  0
   -5.4081   70.0091   90.9155 H   0  0  0  0  0
   -5.1014   69.8989   89.1779 H   0  0  0  0  0
   -1.7998   78.9323   89.8439 H   0  0  0  0  0
   -1.3125   77.5684   88.8321 H   0  0  0  0  0
   -6.2049   60.8035   78.6904 H   0  0  0  0  0
   -7.7770   61.5747   79.0138 H   0  0  0  0  0
   -6.2669   62.4570   79.3485 H   0  0  0  0  0
   -3.5058   73.2420   87.5595 H   0  0  0  0  0
   -4.6868   62.9532   80.9510 H   0  0  0  0  0
   -6.2590   63.7230   81.2776 H   0  0  0  0  0
   -5.1206   63.4215   82.6133 H   0  0  0  0  0
   -4.2797   56.3839   83.6529 H   0  0  0  0  0
   -7.0689   51.8974   80.4637 H   0  0  0  0  0
    0.6162   52.6016   86.7656 H   0  0  0  0  0
   -8.6798   52.0197   82.3560 H   0  0  0  0  0
   -5.3959   53.7030   80.1424 H   0  0  0  0  0
    0.0231   54.6262   85.4451 H   0  0  0  0  0
   -1.1952   51.1181   87.6107 H   0  0  0  0  0
   -8.5973   53.9396   83.9209 H   0  0  0  0  0
   -5.3324   55.6398   81.6918 H   0  0  0  0  0
   -2.3519   55.1650   84.9757 H   0  0  0  0  0
   -3.5699   51.6577   87.1449 H   0  0  0  0  0
   -6.9392   54.7321   85.5077 H   0  0  0  0  0
   -6.2401   56.3985   85.7906 H   0  0  0  0  0
   -6.3405   56.7236   83.1997 H   0  0  0  0  0
   -4.8544   52.8517   85.1994 H   0  0  0  0  0
   -4.9489   53.8280   86.7843 H   0  0  0  0  0
  1 20  1  0  0  0
  1 27  2  0  0  0
  1 33  1  0  0  0
 41  1  1  0  0  0
  2  3  1  0  0  0
 15  2  1  0  0  0
  3  4  2  0  0  0
  5  3  1  0  0  0
  6  5  1  0  0  0
  6  7  2  0  0  0
 39  6  1  0  0  0
 39  8  1  0  0  0
  8 45  1  0  0  0
  9 10  4  0  0  0
 45  9  4  0  0  0
 10 11  4  0  0  0
 10 49  1  0  0  0
 12 11  4  0  0  0
 11 51  1  0  0  0
 52 12  4  0  0  0
 13 18  2  0  0  0
 13 24  1  0  0  0
 33 13  1  0  0  0
 13 44  1  0  0  0
 16 14  1  0  0  0
 14 21  1  0  0  0
 15 16  1  0  0  0
 39 15  1  0  0  0
 16 52  1  0  0  0
 23 17  4  0  0  0
 46 17  4  0  0  0
 19 25  1  0  0  0
 38 19  1  0  0  0
 19 53  1  0  0  0
 21 22  1  0  0  0
 21 28  1  0  0  0
 30 23  4  0  0  0
 25 26  1  0  0  0
 31 25  1  0  0  0
 28 29  1  0  0  0
 28 34  1  0  0  0
 36 30  4  0  0  0
 31 32  1  0  0  0
 37 31  1  0  0  0
 34 35  1  0  0  0
 34 40  1  0  0  0
 36 42  4  0  0  0
 53 36  4  0  0  0
 37 38  1  0  0  0
 43 37  1  0  0  0
 66 39  1  0  0  0
 40 41  1  0  0  0
 42 46  4  0  0  0
 48 42  4  0  0  0
 44 43  1  0  0  0
 45 52  4  0  0  0
 46 47  1  0  0  0
 50 48  4  0  0  0
 53 50  4  0  0  0
 68 54  2  0  0  0
 57 55  4  0  0  0
 58 55  4  0  0  0
 59 56  4  0  0  0
 60 56  4  0  0  0
 61 57  4  0  0  0
 62 58  4  0  0  0
 63 59  4  0  0  0
 64 60  4  0  0  0
 69 61  4  0  0  0
 69 62  4  0  0  0
 70 63  4  0  0  0
 70 64  4  0  0  0
 65 66  1  0  0  0
 68 65  1  0  0  0
 66 69  1  0  0  0
 67 68  1  0  0  0
 67 70  1  0  0  0
  2 71  1  0  0  0
  5 72  1  0  0  0
  8 73  1  0  0  0
  9 74  1  0  0  0
 12 75  1  0  0  0
 14 76  1  0  0  0
 14 77  1  0  0  0
 15 78  1  0  0  0
 19 79  1  0  0  0
 20 80  1  0  0  0
 21 81  1  0  0  0
 22 82  1  0  0  0
 23 83  1  0  0  0
 24 84  1  0  0  0
 25 85  1  0  0  0
 26 86  1  0  0  0
 28 87  1  0  0  0
 29 88  1  0  0  0
 31 89  1  0  0  0
 32 90  1  0  0  0
 34 91  1  0  0  0
 35 92  1  0  0  0
 37 93  1  0  0  0
 40 94  1  0  0  0
 40 95  1  0  0  0
 43 96  1  0  0  0
 43 97  1  0  0  0
 47 98  1  0  0  0
 47 99  1  0  0  0
 49100  1  0  0  0
 49101  1  0  0  0
 49102  1  0  0  0
 50103  1  0  0  0
 51104  1  0  0  0
 51105  1  0  0  0
 51106  1  0  0  0
 54107  1  0  0  0
 55108  1  0  0  0
 56109  1  0  0  0
 57110  1  0  0  0
 58111  1  0  0  0
 59112  1  0  0  0
 60113  1  0  0  0
 61114  1  0  0  0
 62115  1  0  0  0
 63116  1  0  0  0
 64117  1  0  0  0
 65118  1  0  0  0
 65119  1  0  0  0
 66120  1  0  0  0
 67121  1  0  0  0
 67122  1  0  0  0
M  END
$$$$
