4ayw_ligand
  -I-interpret- 

 48 50  0  0  0  0  0  0  0  0999 V2000
  -26.9970   38.8810   21.4150 P   0  0  0  0  0
  -27.0620   39.5770   20.1100 O   0  0  0  0  0
  -27.9630   37.6410   21.6330 O   0  0  0  0  0
  -27.5850   39.7680   22.5960 O   0  0  0  0  0
  -24.7500   36.8730   21.9080 P   0  0  0  0  0
  -24.4040   36.3900   23.2550 O   0  0  0  0  0
  -25.7160   35.9040   21.1100 O   0  0  0  0  0
  -25.4760   38.3610   21.8490 N   0  0  0  0  0
  -22.8820   36.2550   19.5320 P   0  0  0  0  0
  -22.7660   34.7800   19.5250 O   0  0  0  0  0
  -23.7290   36.8970   18.4320 O   0  0  0  0  0
  -23.5960   36.8150   20.8290 O   0  0  0  0  0
  -21.4490   36.9780   19.3090 O   0  0  0  0  0
  -21.1200   38.2920   19.8090 C   0  0  0  0  0
  -20.8320   39.2240   18.6570 C   0  0  0  0  0
  -20.1020   38.5280   17.6260 O   0  0  0  0  0
  -22.0470   39.8010   17.9430 C   0  0  0  0  0
  -22.5810   40.9180   18.6450 O   0  0  0  0  0
  -21.4790   40.1730   16.5680 C   0  0  0  0  0
  -20.9610   41.4980   16.5100 O   0  0  0  0  0
  -20.3600   39.1340   16.3710 C   0  0  0  0  0
  -20.6490   38.0890   15.3880 N   0  0  0  0  0
  -21.6900   37.1960   15.3990 C   0  0  0  0  0
  -21.7110   36.3870   14.3670 N   0  0  0  0  0
  -20.6040   36.7700   13.6250 C   0  0  0  0  0
  -20.0660   36.3020   12.4070 C   0  0  0  0  0
  -20.6050   35.3150   11.6880 N   0  0  0  0  0
  -18.9420   36.9000   11.9430 N   0  0  0  0  0
  -18.4050   37.9000   12.6520 C   0  0  0  0  0
  -18.8230   38.4260   13.8090 N   0  0  0  0  0
  -19.9360   37.8150   14.2450 C   0  0  0  0  0
  -27.8254   37.2802   22.5119 H   0  0  0  0  0
  -27.5240   39.2812   23.4212 H   0  0  0  0  0
  -25.8995   36.2780   20.2451 H   0  0  0  0  0
  -24.8602   39.1200   22.1406 H   0  0  0  0  0
  -23.7268   37.8505   18.5434 H   0  0  0  0  0
  -20.2374   38.2236   20.4449 H   0  0  0  0  0
  -21.9622   38.6793   20.3824 H   0  0  0  0  0
  -20.2865   40.0392   19.1324 H   0  0  0  0  0
  -22.8891   39.1124   17.8735 H   0  0  0  0  0
  -23.3434   41.2578   18.1708 H   0  0  0  0  0
  -22.2455   40.1590   15.7932 H   0  0  0  0  0
  -20.6221   41.6696   15.6284 H   0  0  0  0  0
  -19.5003   39.6747   15.9752 H   0  0  0  0  0
  -22.4339   37.1618   16.1949 H   0  0  0  0  0
  -21.4548   34.8532   12.0121 H   0  0  0  0  0
  -20.1671   35.0225   10.8144 H   0  0  0  0  0
  -17.5049   38.3466   12.2295 H   0  0  0  0  0
  1  2  2  0  0  0
  1  3  1  0  0  0
  1  4  1  0  0  0
  8  1  1  0  0  0
  5  6  2  0  0  0
  5  7  1  0  0  0
  5  8  1  0  0  0
 12  5  1  0  0  0
  9 10  2  0  0  0
  9 11  1  0  0  0
  9 12  1  0  0  0
  9 13  1  0  0  0
 13 14  1  0  0  0
 14 15  1  0  0  0
 15 16  1  0  0  0
 15 17  1  0  0  0
 16 21  1  0  0  0
 17 18  1  0  0  0
 17 19  1  0  0  0
 19 20  1  0  0  0
 19 21  1  0  0  0
 21 22  1  0  0  0
 22 23  4  0  0  0
 22 31  4  0  0  0
 23 24  4  0  0  0
 24 25  4  0  0  0
 25 26  4  0  0  0
 25 31  4  0  0  0
 26 27  1  0  0  0
 26 28  4  0  0  0
 28 29  4  0  0  0
 29 30  4  0  0  0
 30 31  4  0  0  0
  3 32  1  0  0  0
  4 33  1  0  0  0
  7 34  1  0  0  0
  8 35  1  0  0  0
 11 36  1  0  0  0
 14 37  1  0  0  0
 14 38  1  0  0  0
 15 39  1  0  0  0
 17 40  1  0  0  0
 18 41  1  0  0  0
 19 42  1  0  0  0
 20 43  1  0  0  0
 21 44  1  0  0  0
 23 45  1  0  0  0
 27 46  1  0  0  0
 27 47  1  0  0  0
 29 48  1  0  0  0
M  END
$$$$
