### 
### Created by X-TOOL on Mon Sep 10 21:13:12 2018
### 

@<TRIPOS>MOLECULE
4ayw_ligand
   44    46     1     0     0
SMALL
GAST_HUCK


@<TRIPOS>ATOM
      1 PG        -26.9970   38.8810   21.4150 P.3       1 ANP         0.1803
      2 O1G       -27.0620   39.5770   20.1100 O.co2     1 ANP        -0.5454
      3 O2G       -27.9630   37.6410   21.6330 O.co2     1 ANP        -0.5454
      4 O3G       -27.5850   39.7680   22.5960 O.co2     1 ANP        -0.5454
      5 PB        -24.7500   36.8730   21.9080 P.3       1 ANP         0.2543
      6 O1B       -24.4040   36.3900   23.2550 O.co2     1 ANP        -0.6257
      7 O2B       -25.7160   35.9040   21.1100 O.co2     1 ANP        -0.6257
      8 N3B       -25.4760   38.3610   21.8490 N.am      1 ANP        -0.1803
      9 PA        -22.8820   36.2550   19.5320 P.3       1 ANP         0.2949
     10 O1A       -22.7660   34.7800   19.5250 O.co2     1 ANP        -0.6129
     11 O2A       -23.7290   36.8970   18.4320 O.co2     1 ANP        -0.6129
     12 O3A       -23.5960   36.8150   20.8290 O.3       1 ANP        -0.1431
     13 O5'       -21.4490   36.9780   19.3090 O.3       1 ANP        -0.2478
     14 C5'       -21.1200   38.2920   19.8090 C.3       1 ANP         0.1128
     15 C4'       -20.8320   39.2240   18.6570 C.3       1 ANP         0.1189
     16 O4'       -20.1020   38.5280   17.6260 O.3       1 ANP        -0.3364
     17 C3'       -22.0470   39.8010   17.9430 C.3       1 ANP         0.1149
     18 O3'       -22.5810   40.9180   18.6450 O.3       1 ANP        -0.3864
     19 C2'       -21.4790   40.1730   16.5680 C.3       1 ANP         0.1385
     20 O2'       -20.9610   41.4980   16.5100 O.3       1 ANP        -0.3836
     21 C1'       -20.3600   39.1340   16.3710 C.3       1 ANP         0.2010
     22 N9        -20.6490   38.0890   15.3880 N.pl3     1 ANP        -0.1919
     23 C8        -21.6900   37.1960   15.3990 C.2       1 ANP         0.1123
     24 N7        -21.7110   36.3870   14.3670 N.2       1 ANP        -0.2958
     25 C5        -20.6040   36.7700   13.6250 C.ar      1 ANP         0.1045
     26 C6        -20.0660   36.3020   12.4070 C.ar      1 ANP         0.1298
     27 N6        -20.6050   35.3150   11.6880 N.pl3     1 ANP        -0.3152
     28 N1        -18.9420   36.9000   11.9430 N.ar      1 ANP        -0.2698
     29 C2        -18.4050   37.9000   12.6520 C.ar      1 ANP         0.0533
     30 N3        -18.8230   38.4260   13.8090 N.ar      1 ANP        -0.2714
     31 C4        -19.9360   37.8150   14.2450 C.ar      1 ANP         0.1613
     32 H1        -24.8723   39.1052   22.1349 H         1 ANP         0.2132
     33 H2        -20.2317   38.2247   20.4542 H         1 ANP         0.0648
     34 H3        -21.9673   38.6832   20.3913 H         1 ANP         0.0648
     35 H4        -20.2264   40.0555   19.0466 H         1 ANP         0.0651
     36 H5        -22.8352   39.0408   17.8393 H         1 ANP         0.0648
     37 H6        -21.9188   41.5961   18.7096 H         1 ANP         0.2100
     38 H7        -22.2530   40.0638   15.7940 H         1 ANP         0.0676
     39 H8        -21.6536   42.1166   16.7101 H         1 ANP         0.2101
     40 H9        -19.4583   39.6677   16.0361 H         1 ANP         0.0996
     41 H10       -22.4332   37.1618   16.1942 H         1 ANP         0.1349
     42 H11       -20.1628   35.0197   10.8059 H         1 ANP         0.1820
     43 H12       -21.4631   34.8487   12.0153 H         1 ANP         0.1820
     44 H13       -17.5099   38.3441   12.2318 H         1 ANP         0.0996
@<TRIPOS>BOND
     1    1    2 ar 
     2    1    3 ar 
     3    1    4 ar 
     4    8    1 am 
     5    5    6 ar 
     6    5    7 ar 
     7    5    8 1  
     8   12    5 1  
     9    9   10 ar 
    10    9   11 ar 
    11    9   12 1  
    12    9   13 1  
    13   13   14 1  
    14   14   15 1  
    15   15   16 1  
    16   15   17 1  
    17   16   21 1  
    18   17   18 1  
    19   17   19 1  
    20   19   20 1  
    21   19   21 1  
    22   21   22 1  
    23   22   23 1  
    24   22   31 1  
    25   23   24 2  
    26   24   25 1  
    27   25   26 ar 
    28   25   31 ar 
    29   26   27 1  
    30   26   28 ar 
    31   28   29 ar 
    32   29   30 ar 
    33   30   31 ar 
    34    8   32 1  
    35   14   33 1  
    36   14   34 1  
    37   15   35 1  
    38   17   36 1  
    39   18   37 1  
    40   19   38 1  
    41   20   39 1  
    42   21   40 1  
    43   23   41 1  
    44   27   42 1  
    45   27   43 1  
    46   29   44 1  
@<TRIPOS>SUBSTRUCTURE
     1 ANP         1

