2ggu_ligand
  -I-interpret- 

 66 68  0  0  0  0  0  0  0  0999 V2000
   23.4760   -7.2680    4.5870 C   0  0  0  0  0
   23.1650   -8.6380    3.9260 C   0  0  0  0  0
   23.7880   -9.7760    4.7400 C   0  0  0  0  0
   25.3390   -9.5310    4.7250 C   0  0  0  0  0
   25.6400   -8.1210    5.4410 C   0  0  0  0  0
   27.1320   -7.7310    5.4880 C   0  0  0  0  0
   22.8650   -6.0030    3.7810 O   0  0  0  0  0
   21.7310   -8.7390    3.8510 O   0  0  0  0  0
   23.4690  -11.0270    4.0920 O   0  0  0  0  0
   25.9640  -10.5560    5.4690 O   0  0  0  0  0
   24.9400   -7.0770    4.7150 O   0  0  0  0  0
   27.8630   -7.5290    4.1990 O   0  0  0  0  0
   27.1170  -11.2950    4.7190 C   0  0  0  0  0
   26.9470  -12.8310    4.9250 C   0  0  0  0  0
   27.0300  -13.1650    6.4550 C   0  0  0  0  0
   28.4080  -12.7270    6.9900 C   0  0  0  0  0
   28.5840  -11.1570    6.7800 C   0  0  0  0  0
   29.9680  -10.6760    7.2900 C   0  0  0  0  0
   25.6810  -13.2150    4.3830 O   0  0  0  0  0
   26.8740  -14.5970    6.6360 O   0  0  0  0  0
   28.4960  -13.0450    8.4210 O   0  0  0  0  0
   28.4630  -10.8620    5.3160 O   0  0  0  0  0
   30.2060   -9.2720    7.1300 O   0  0  0  0  0
   29.0870  -14.2090    8.9550 C   0  0  0  0  0
   28.1550  -14.7710   10.1100 C   0  0  0  0  0
   28.0600  -13.6920   11.2700 C   0  0  0  0  0
   29.5020  -13.4630   11.8140 C   0  0  0  0  0
   30.4230  -12.9240   10.6630 C   0  0  0  0  0
   31.8530  -12.7060   11.1400 C   0  0  0  0  0
   26.8770  -15.0360    9.5640 O   0  0  0  0  0
   27.2350  -14.1960   12.3110 O   0  0  0  0  0
   29.4730  -12.4970   12.8690 O   0  0  0  0  0
   30.4420  -13.9080    9.5290 O   0  0  0  0  0
   32.6270  -12.2230   10.0540 O   0  0  0  0  0
   22.9964   -7.3002    5.5653 H   0  0  0  0  0
   23.5944   -8.7144    2.9271 H   0  0  0  0  0
   23.4155   -9.8102    5.7638 H   0  0  0  0  0
   25.7128   -9.5249    3.7011 H   0  0  0  0  0
   25.3041   -8.2294    6.4723 H   0  0  0  0  0
   27.6300   -8.5741    5.9668 H   0  0  0  0  0
   27.1553   -6.7596    5.9819 H   0  0  0  0  0
   21.9156   -6.1116    3.6895 H   0  0  0  0  0
   21.3865   -8.0076    3.3334 H   0  0  0  0  0
   22.5187  -11.1619    4.1094 H   0  0  0  0  0
   28.7748   -7.2919    4.3833 H   0  0  0  0  0
   27.0857  -11.0513    3.6571 H   0  0  0  0  0
   27.7385  -13.3820    4.4170 H   0  0  0  0  0
   26.2428  -12.6398    6.9959 H   0  0  0  0  0
   29.1951  -13.2541    6.4507 H   0  0  0  0  0
   27.8149  -10.6323    7.3468 H   0  0  0  0  0
   30.7232  -11.1964    6.7010 H   0  0  0  0  0
   30.0042  -10.8856    8.3590 H   0  0  0  0  0
   25.5572  -14.1597    4.5004 H   0  0  0  0  0
   26.9240  -14.8075    7.5713 H   0  0  0  0  0
   31.0783   -9.0559    7.4677 H   0  0  0  0  0
   29.2008  -14.9422    8.1565 H   0  0  0  0  0
   28.5638  -15.6917   10.5263 H   0  0  0  0  0
   27.6346  -12.7588   10.9010 H   0  0  0  0  0
   29.8918  -14.4094   12.1887 H   0  0  0  0  0
   30.0151  -11.9671   10.3373 H   0  0  0  0  0
   32.2696  -13.6460   11.5019 H   0  0  0  0  0
   31.8650  -11.9812   11.9540 H   0  0  0  0  0
   26.3009  -15.3772   10.2519 H   0  0  0  0  0
   27.1757  -13.5452   13.0143 H   0  0  0  0  0
   30.3635  -12.3598   13.2003 H   0  0  0  0  0
   33.5311  -12.0822   10.3445 H   0  0  0  0  0
  1  2  1  0  0  0
  1  7  1  0  0  0
  1 11  1  0  0  0
  2  3  1  0  0  0
  2  8  1  0  0  0
  3  4  1  0  0  0
  3  9  1  0  0  0
  4  5  1  0  0  0
  4 10  1  0  0  0
  5  6  1  0  0  0
  5 11  1  0  0  0
  6 12  1  0  0  0
 10 13  1  0  0  0
 13 14  1  0  0  0
 13 22  1  0  0  0
 14 15  1  0  0  0
 14 19  1  0  0  0
 15 16  1  0  0  0
 15 20  1  0  0  0
 16 17  1  0  0  0
 16 21  1  0  0  0
 17 18  1  0  0  0
 17 22  1  0  0  0
 18 23  1  0  0  0
 21 24  1  0  0  0
 24 25  1  0  0  0
 24 33  1  0  0  0
 25 26  1  0  0  0
 25 30  1  0  0  0
 26 27  1  0  0  0
 26 31  1  0  0  0
 27 28  1  0  0  0
 27 32  1  0  0  0
 28 29  1  0  0  0
 28 33  1  0  0  0
 29 34  1  0  0  0
  1 35  1  0  0  0
  2 36  1  0  0  0
  3 37  1  0  0  0
  4 38  1  0  0  0
  5 39  1  0  0  0
  6 40  1  0  0  0
  6 41  1  0  0  0
  7 42  1  0  0  0
  8 43  1  0  0  0
  9 44  1  0  0  0
 12 45  1  0  0  0
 13 46  1  0  0  0
 14 47  1  0  0  0
 15 48  1  0  0  0
 16 49  1  0  0  0
 17 50  1  0  0  0
 18 51  1  0  0  0
 18 52  1  0  0  0
 19 53  1  0  0  0
 20 54  1  0  0  0
 23 55  1  0  0  0
 24 56  1  0  0  0
 25 57  1  0  0  0
 26 58  1  0  0  0
 27 59  1  0  0  0
 28 60  1  0  0  0
 29 61  1  0  0  0
 29 62  1  0  0  0
 30 63  1  0  0  0
 31 64  1  0  0  0
 32 65  1  0  0  0
 34 66  1  0  0  0
M  END
$$$$
