1e1v_ligand
  -I-interpret- 

 34 36  0  0  0  0  0  0  0  0999 V2000
    2.4450   28.9910    7.3460 N   0  0  0  0  0
    2.9810   29.9600    6.6140 C   0  0  0  0  0
    2.3900   31.1700    6.6090 N   0  0  0  0  0
    1.3010   31.4190    7.3260 C   0  0  0  0  0
    0.7490   30.4080    8.0490 C   0  0  0  0  0
    1.3270   29.1410    8.0570 C   0  0  0  0  0
    0.7220   28.1600    8.8410 O   0  0  0  0  0
    1.7060   27.1180    9.1120 C   0  0  0  0  0
   -0.2920   31.0010    8.6180 N   0  0  0  0  0
   -0.4920   32.3190    8.2780 C   0  0  0  0  0
    0.5880   32.5280    7.4900 N   0  0  0  0  0
    4.1220   29.9810    5.8800 N   0  0  0  0  0
    0.9790   26.3030   10.2570 C   0  0  0  0  0
   -0.2230   25.5700    9.5700 C   0  0  0  0  0
   -0.7780   24.5780   10.5920 C   0  0  0  0  0
    0.1720   23.3870   10.3210 C   0  0  0  0  0
    1.3640   23.9990   11.1710 C   0  0  0  0  0
    1.8480   25.0470   10.1260 C   0  0  0  0  0
    2.6854   27.5013    9.3984 H   0  0  0  0  0
    1.9628   26.5175    8.2394 H   0  0  0  0  0
   -1.2930   33.0012    8.5626 H   0  0  0  0  0
    4.7159   29.1528    5.8367 H   0  0  0  0  0
    4.3859   30.8249    5.3715 H   0  0  0  0  0
    0.7895   26.8679   11.1697 H   0  0  0  0  0
    0.1028   25.0542    8.6667 H   0  0  0  0  0
   -0.9894   26.2832    9.2665 H   0  0  0  0  0
   -1.8387   24.3522   10.4819 H   0  0  0  0  0
   -0.7823   24.9354   11.6217 H   0  0  0  0  0
    0.3728   23.1254    9.2821 H   0  0  0  0  0
   -0.1784   22.3892   10.5851 H   0  0  0  0  0
    2.1169   23.2871   11.5093 H   0  0  0  0  0
    1.0911   24.3977   12.1481 H   0  0  0  0  0
    2.8932   25.2975   10.3074 H   0  0  0  0  0
    1.7595   24.6370    9.1199 H   0  0  0  0  0
  1  6  4  0  0  0
  1  2  4  0  0  0
  2 12  1  0  0  0
  2  3  4  0  0  0
  3  4  4  0  0  0
  4 11  4  0  0  0
  4  5  4  0  0  0
  5  9  4  0  0  0
  5  6  4  0  0  0
  6  7  1  0  0  0
  7  8  1  0  0  0
  8 13  1  0  0  0
 13 18  1  0  0  0
 13 14  1  0  0  0
 14 15  1  0  0  0
 15 16  1  0  0  0
 16 17  1  0  0  0
 17 18  1  0  0  0
  9 10  4  0  0  0
 10 11  4  0  0  0
  8 19  1  0  0  0
  8 20  1  0  0  0
 10 21  1  0  0  0
 12 22  1  0  0  0
 12 23  1  0  0  0
 13 24  1  0  0  0
 14 25  1  0  0  0
 14 26  1  0  0  0
 15 27  1  0  0  0
 15 28  1  0  0  0
 16 29  1  0  0  0
 16 30  1  0  0  0
 17 31  1  0  0  0
 17 32  1  0  0  0
 18 33  1  0  0  0
 18 34  1  0  0  0
M  END
$$$$
