3obx_ligand
  -I-interpret- 

128130  0  0  0  0  0  0  0  0999 V2000
   -6.5480    1.3440   -1.0740 N   0  3  0  0  0
   -5.6700    1.1370   -2.2500 C   0  0  0  0  0
   -4.2050    1.4150   -1.9220 C   0  0  0  0  0
   -3.3870    0.4960   -1.8270 O   0  0  0  0  0
   -6.1620    2.0840   -3.3310 C   0  0  0  0  0
   -6.7280    3.2160   -2.4880 C   0  0  0  0  0
   -7.4270    2.5020   -1.3100 C   0  0  0  0  0
   -3.8790    2.6920   -1.7620 N   0  0  0  0  0
   -2.5190    3.1050   -1.4450 C   0  0  0  0  0
   -2.5310    3.8700   -0.1260 C   0  0  0  0  0
   -3.2510    4.8540    0.0200 O   0  0  0  0  0
   -1.9780    4.0020   -2.5600 C   0  0  0  0  0
   -0.4770    3.9140   -2.7510 C   0  0  0  0  0
   -0.0280    2.5250   -3.1780 C   0  0  0  0  0
   -0.5950    1.9890   -4.1520 O   0  0  0  0  0
    0.8960    1.9710   -2.5470 O   0  0  0  0  0
   -1.7410    3.4090    0.8390 N   0  0  0  0  0
   -1.6770    4.0650    2.1430 C   0  0  0  0  0
   -1.1780    5.5020    2.0170 C   0  0  0  0  0
   -0.2220    5.7790    1.2870 O   0  0  0  0  0
   -0.7650    3.2760    3.0800 C   0  0  0  0  0
   -1.8400    6.4140    2.7240 N   0  0  0  0  0
   -1.4580    7.8210    2.7140 C   0  0  0  0  0
   -1.5390    8.4050    4.1180 C   0  0  0  0  0
   -2.2690    7.9010    4.9750 O   0  0  0  0  0
   -2.3590    8.6580    1.7740 C   0  0  0  0  0
   -3.7260    8.5580    2.1920 O   0  0  0  0  0
   -2.2270    8.1730    0.3380 C   0  0  0  0  0
   -0.7810    9.4720    4.3450 N   0  0  0  0  0
   -0.7510   10.1310    5.6410 C   0  0  0  0  0
   -0.6950   11.6400    5.4430 C   0  0  0  0  0
   -0.1920   12.1250    4.4250 O   0  0  0  0  0
    0.4540    9.6600    6.4300 C   0  0  0  0  0
   -1.2140   12.4060    6.4150 N   0  0  0  0  0
   -1.2080   13.8680    6.3180 C   0  0  0  0  0
    0.2050   14.4410    6.4010 C   0  0  0  0  0
    1.1100   13.8050    6.9380 O   0  0  0  0  0
   -2.0870   14.2890    7.4910 C   0  0  0  0  0
   -1.7890   13.2400    8.5120 C   0  0  0  0  0
   -1.8120   11.9670    7.6890 C   0  0  0  0  0
    0.4060   15.6610    5.8760 N   0  0  0  0  0
    1.7180   16.3140    5.8910 C   0  0  0  0  0
    2.3300   16.4890    7.2780 C   0  0  0  0  0
    1.6290   16.7640    8.2520 O   0  0  0  0  0
    1.4470   17.6470    5.1930 C   0  0  0  0  0
    0.0160   17.9200    5.5340 C   0  0  0  0  0
   -0.6180   16.5650    5.3250 C   0  0  0  0  0
    3.6480   16.3250    7.3450 N   0  0  0  0  0
    4.4050   16.4530    8.5840 C   0  0  0  0  0
    4.1040   17.7940    9.2460 C   0  0  0  0  0
    4.2000   18.8440    8.6100 O   0  0  0  0  0
    5.9030   16.3530    8.2820 C   0  0  0  0  0
    6.7840   16.0720    9.4870 C   0  0  0  0  0
    6.5680   14.6820   10.0550 C   0  0  0  0  0
    5.4940   14.4360   10.6450 O   0  0  0  0  0
    7.4710   13.8310    9.9030 O   0  0  0  0  0
    3.7400   17.7540   10.5230 N   0  0  0  0  0
    3.4230   18.9680   11.2660 C   0  0  0  0  0
    3.5430   18.7430   12.7700 C   0  0  0  0  0
    2.5270   18.9120   13.4760 O   0  0  0  0  0
    2.0080   19.4380   10.9200 C   0  0  0  0  0
    0.9610   18.3380   10.9880 C   0  0  0  0  0
   -0.4470   18.8590   10.7870 C   0  0  0  0  0
   -0.9230   19.6230   11.6520 O   0  0  0  0  0
   -1.0750   18.5060    9.7660 O   0  0  0  0  0
    4.6560   18.4010   13.2230 O   0  0  0  0  0
   -5.9737    1.5175   -0.2491 H   0  0  0  0  0
   -7.1178    0.5110   -0.9261 H   0  0  0  0  0
   -5.7175    0.0980   -2.5761 H   0  0  0  0  0
   -6.8854    1.6374   -4.0132 H   0  0  0  0  0
   -5.3860    2.3987   -4.0287 H   0  0  0  0  0
   -7.4161    3.8443   -3.0535 H   0  0  0  0  0
   -5.9524    3.9029   -2.1495 H   0  0  0  0  0
   -7.5416    3.1377   -0.4320 H   0  0  0  0  0
   -8.4562    2.2194   -1.5314 H   0  0  0  0  0
   -4.6019    3.4043   -1.8640 H   0  0  0  0  0
   -1.8778    2.2280   -1.3562 H   0  0  0  0  0
   -2.2086    5.0316   -2.2863 H   0  0  0  0  0
   -2.4414    3.6748   -3.4908 H   0  0  0  0  0
   -0.0014    4.1442   -1.7976 H   0  0  0  0  0
   -0.1949    4.6160   -3.5357 H   0  0  0  0  0
    1.1908    2.5495   -1.8398 H   0  0  0  0  0
   -1.1692    2.5823    0.6658 H   0  0  0  0  0
   -2.6850    4.0927    2.5569 H   0  0  0  0  0
   -1.1589    2.2673    3.2041 H   0  0  0  0  0
    0.2367    3.2263    2.6532 H   0  0  0  0  0
   -0.7242    3.7733    4.0491 H   0  0  0  0  0
   -2.6371    6.1207    3.2888 H   0  0  0  0  0
   -0.4328    7.8676    2.3466 H   0  0  0  0  0
   -2.0396    9.6989    1.8243 H   0  0  0  0  0
   -4.2780    9.0794    1.6046 H   0  0  0  0  0
   -1.1903    8.2719    0.0163 H   0  0  0  0  0
   -2.5286    7.1272    0.2799 H   0  0  0  0  0
   -2.8679    8.7737   -0.3074 H   0  0  0  0  0
   -0.2036    9.8395    3.5888 H   0  0  0  0  0
   -1.6535    9.8787    6.1978 H   0  0  0  0  0
    0.3926    8.5815    6.5752 H   0  0  0  0  0
    1.3637    9.9028    5.8809 H   0  0  0  0  0
    0.4693   10.1582    7.3994 H   0  0  0  0  0
   -1.5783   14.2400    5.3627 H   0  0  0  0  0
   -3.1446   14.3454    7.2332 H   0  0  0  0  0
   -1.8751   15.2989    7.8422 H   0  0  0  0  0
   -2.5032   13.2297    9.3354 H   0  0  0  0  0
   -0.8409   13.4001    9.0253 H   0  0  0  0  0
   -1.2705   11.1444    8.1561 H   0  0  0  0  0
   -2.8122   11.5498    7.5721 H   0  0  0  0  0
    2.4733   15.7054    5.3937 H   0  0  0  0  0
    1.6248   17.6052    4.1184 H   0  0  0  0  0
    2.1185   18.4403    5.5215 H   0  0  0  0  0
   -0.4315   18.7056    4.9252 H   0  0  0  0  0
   -0.1215   18.3111    6.5421 H   0  0  0  0  0
   -1.5896   16.4633    5.8085 H   0  0  0  0  0
   -0.8617   16.3580    4.2830 H   0  0  0  0  0
    4.1534   16.0988    6.4883 H   0  0  0  0  0
    4.1158   15.6502    9.2622 H   0  0  0  0  0
    6.2096   17.3217    7.8873 H   0  0  0  0  0
    6.0304   15.5148    7.5970 H   0  0  0  0  0
    6.5319   16.7947   10.2630 H   0  0  0  0  0
    7.8235   16.1464    9.1676 H   0  0  0  0  0
    8.2045   14.2261    9.4262 H   0  0  0  0  0
    3.6808   16.8519   10.9954 H   0  0  0  0  0
    4.1409   19.7368   10.9800 H   0  0  0  0  0
    2.0292   19.8029    9.8931 H   0  0  0  0  0
    1.7299   20.1965   11.6517 H   0  0  0  0  0
    1.0130   17.8869   11.9789 H   0  0  0  0  0
    1.1715   17.6254   10.1905 H   0  0  0  0  0
   -0.5250   17.9211    9.2397 H   0  0  0  0  0
    5.2863   18.3324   12.5021 H   0  0  0  0  0
  1  2  1  0  0  0
  1  7  1  0  0  0
  2  3  1  0  0  0
  2  5  1  0  0  0
  3  4  2  0  0  0
  3  8  1  0  0  0
  5  6  1  0  0  0
  6  7  1  0  0  0
  8  9  1  0  0  0
  9 10  1  0  0  0
  9 12  1  0  0  0
 10 11  2  0  0  0
 10 17  1  0  0  0
 12 13  1  0  0  0
 13 14  1  0  0  0
 14 15  2  0  0  0
 14 16  1  0  0  0
 17 18  1  0  0  0
 18 19  1  0  0  0
 18 21  1  0  0  0
 19 20  2  0  0  0
 19 22  1  0  0  0
 22 23  1  0  0  0
 23 24  1  0  0  0
 23 26  1  0  0  0
 24 25  2  0  0  0
 24 29  1  0  0  0
 26 27  1  0  0  0
 26 28  1  0  0  0
 29 30  1  0  0  0
 30 31  1  0  0  0
 30 33  1  0  0  0
 31 32  2  0  0  0
 31 34  1  0  0  0
 34 35  1  0  0  0
 34 40  1  0  0  0
 35 36  1  0  0  0
 35 38  1  0  0  0
 36 37  2  0  0  0
 36 41  1  0  0  0
 38 39  1  0  0  0
 39 40  1  0  0  0
 41 42  1  0  0  0
 41 47  1  0  0  0
 42 43  1  0  0  0
 42 45  1  0  0  0
 43 44  2  0  0  0
 43 48  1  0  0  0
 45 46  1  0  0  0
 46 47  1  0  0  0
 48 49  1  0  0  0
 49 50  1  0  0  0
 49 52  1  0  0  0
 50 51  2  0  0  0
 50 57  1  0  0  0
 52 53  1  0  0  0
 53 54  1  0  0  0
 54 55  2  0  0  0
 54 56  1  0  0  0
 57 58  1  0  0  0
 58 59  1  0  0  0
 58 61  1  0  0  0
 59 60  2  0  0  0
 59 66  1  0  0  0
 61 62  1  0  0  0
 62 63  1  0  0  0
 63 64  2  0  0  0
 63 65  1  0  0  0
  1 67  1  0  0  0
  1 68  1  0  0  0
  2 69  1  0  0  0
  5 70  1  0  0  0
  5 71  1  0  0  0
  6 72  1  0  0  0
  6 73  1  0  0  0
  7 74  1  0  0  0
  7 75  1  0  0  0
  8 76  1  0  0  0
  9 77  1  0  0  0
 12 78  1  0  0  0
 12 79  1  0  0  0
 13 80  1  0  0  0
 13 81  1  0  0  0
 16 82  1  0  0  0
 17 83  1  0  0  0
 18 84  1  0  0  0
 21 85  1  0  0  0
 21 86  1  0  0  0
 21 87  1  0  0  0
 22 88  1  0  0  0
 23 89  1  0  0  0
 26 90  1  0  0  0
 27 91  1  0  0  0
 28 92  1  0  0  0
 28 93  1  0  0  0
 28 94  1  0  0  0
 29 95  1  0  0  0
 30 96  1  0  0  0
 33 97  1  0  0  0
 33 98  1  0  0  0
 33 99  1  0  0  0
 35100  1  0  0  0
 38101  1  0  0  0
 38102  1  0  0  0
 39103  1  0  0  0
 39104  1  0  0  0
 40105  1  0  0  0
 40106  1  0  0  0
 42107  1  0  0  0
 45108  1  0  0  0
 45109  1  0  0  0
 46110  1  0  0  0
 46111  1  0  0  0
 47112  1  0  0  0
 47113  1  0  0  0
 48114  1  0  0  0
 49115  1  0  0  0
 52116  1  0  0  0
 52117  1  0  0  0
 53118  1  0  0  0
 53119  1  0  0  0
 56120  1  0  0  0
 57121  1  0  0  0
 58122  1  0  0  0
 61123  1  0  0  0
 61124  1  0  0  0
 62125  1  0  0  0
 62126  1  0  0  0
 65127  1  0  0  0
 66128  1  0  0  0
M  END
$$$$
