3ej5_ligand
  -I-interpret- 

 35 36  0  0  0  0  0  0  0  0999 V2000
   -2.0670    9.4530    5.1680 C   0  0  0  0  0
   -1.5940   10.5040    5.9710 C   0  0  0  0  0
   -0.4380   10.3470    6.7590 C   0  0  0  0  0
    0.1290   11.4790    7.6570 C   0  0  0  0  0
    0.2580   11.2490    8.8900 O   0  0  0  0  0
    0.4480   12.5620    7.1000 O   0  0  0  0  0
    0.2330    9.1280    6.7280 C   0  0  0  0  0
   -0.2370    8.0980    5.9230 C   0  0  0  0  0
   -1.3890    8.2380    5.1420 C   0  0  0  0  0
   -1.8800    7.0610    4.2680 C   0  0  0  0  0
   -0.8590    5.9010    4.2900 C   0  0  0  0  0
   -0.9480    5.1070    5.6270 C   0  0  0  0  0
    0.3430    4.6980    6.3930 C   0  0  0  0  0
    0.2860    4.0320    7.6490 C   0  0  0  0  0
   -0.8760    3.7150    8.2490 O   0  0  0  0  0
    1.3560    3.6380    8.3530 N   0  0  0  0  0
    2.5830    3.8560    7.8980 C   0  0  0  0  0
    3.6170    3.4450    8.6410 N   0  0  0  0  0
    2.7330    4.5090    6.6480 N   0  0  0  0  0
    1.6290    4.9290    5.8980 C   0  0  0  0  0
    1.8260    5.4980    4.8130 O   0  0  0  0  0
   -2.9650    9.5891    4.5653 H   0  0  0  0  0
   -2.1290   11.4536    5.9842 H   0  0  0  0  0
   -0.0504   10.3605    9.0826 H   0  0  0  0  0
    1.1265    8.9816    7.3349 H   0  0  0  0  0
    0.3073    7.1540    5.8993 H   0  0  0  0  0
   -1.9960    7.4088    3.2415 H   0  0  0  0  0
   -2.8303    6.7015    4.6628 H   0  0  0  0  0
    0.1445    6.3157    4.1949 H   0  0  0  0  0
   -1.0802    5.2239    3.4650 H   0  0  0  0  0
   -1.4035    4.1579    5.3446 H   0  0  0  0  0
   -1.4592    5.7870    6.3084 H   0  0  0  0  0
   -0.6947    3.2732    9.0818 H   0  0  0  0  0
    1.2258    3.1658    9.2477 H   0  0  0  0  0
    4.5715    3.5967    8.3150 H   0  0  0  0  0
  1  2  4  0  0  0
  1  9  4  0  0  0
  2  3  4  0  0  0
  3  4  1  0  0  0
  3  7  4  0  0  0
  4  5  1  0  0  0
  4  6  2  0  0  0
  7  8  4  0  0  0
  8  9  4  0  0  0
  9 10  1  0  0  0
 10 11  1  0  0  0
 11 12  1  0  0  0
 12 13  1  0  0  0
 13 14  2  0  0  0
 13 20  1  0  0  0
 14 15  1  0  0  0
 14 16  1  0  0  0
 16 17  1  0  0  0
 17 18  2  0  0  0
 17 19  4  0  0  0
 19 20  1  0  0  0
 20 21  2  0  0  0
  1 22  1  0  0  0
  2 23  1  0  0  0
  5 24  1  0  0  0
  7 25  1  0  0  0
  8 26  1  0  0  0
 10 27  1  0  0  0
 10 28  1  0  0  0
 11 29  1  0  0  0
 11 30  1  0  0  0
 12 31  1  0  0  0
 12 32  1  0  0  0
 15 33  1  0  0  0
 16 34  1  0  0  0
 18 35  1  0  0  0
M  END
$$$$
