2p8o_ligand
  -I-interpret- 

 20 21  0  0  0  0  0  0  0  0999 V2000
   26.8290    2.7420   39.7040 C   0  0  0  0  0
   26.4230    5.0710   40.3900 C   0  0  0  0  0
   25.8240    5.6450   42.6270 C   0  0  0  0  0
   26.2660    3.3680   42.0550 C   0  0  0  0  0
   25.9140    4.3290   42.9900 C   0  0  0  0  0
   26.0680    6.0270   41.3340 C   0  0  0  0  0
   27.1780    0.5370   39.0740 O   0  0  0  0  0
   25.6780    0.6970   36.7890 O   0  0  0  0  0
   26.9940    3.0670   38.4850 O   0  0  0  0  0
   28.2220   -0.0240   36.7140 O   0  0  0  0  0
   28.9140    2.1630   37.8980 O   0  0  0  0  0
   26.9310    1.4830   40.0100 N   0  0  0  0  0
   26.5110    3.7370   40.7510 C   0  0  0  0  0
   27.2240    1.4220   37.4020 V   0  0  0  0  0
   26.6326    5.3717   39.3635 H   0  0  0  0  0
   25.5563    6.3947   43.3715 H   0  0  0  0  0
   26.3487    2.3223   42.3513 H   0  0  0  0  0
   25.7080    4.0348   44.0191 H   0  0  0  0  0
   25.9841    7.0753   41.0473 H   0  0  0  0  0
   26.8217    1.1996   40.9837 H   0  0  0  0  0
  1  9  2  0  0  0
  1 12  1  0  0  0
 13  1  1  0  0  0
  6  2  4  0  0  0
  2 13  4  0  0  0
  3  5  4  0  0  0
  3  6  4  0  0  0
  5  4  4  0  0  0
  4 13  4  0  0  0
 12  7  1  0  0  0
  7 14  1  0  0  0
 14  8  2  0  0  0
 14  9  1  0  0  0
 14 10  2  0  0  0
 14 11  2  0  0  0
  2 15  1  0  0  0
  3 16  1  0  0  0
  4 17  1  0  0  0
  5 18  1  0  0  0
  6 19  1  0  0  0
 12 20  1  0  0  0
M  END
$$$$
