### 
### Created by X-TOOL on Mon Sep 10 21:12:55 2018
### 

@<TRIPOS>MOLECULE
2p8o_ligand
   20    21     1     0     0
SMALL
GAST_HUCK


@<TRIPOS>ATOM
      1 C14        26.8290    2.7420   39.7040 C.2       1 BVA         0.4493
      2 C17        26.4230    5.0710   40.3900 C.ar      1 BVA        -0.0361
      3 C19        25.8240    5.6450   42.6270 C.ar      1 BVA        -0.0561
      4 C21        26.2660    3.3680   42.0550 C.ar      1 BVA        -0.0361
      5 C20        25.9140    4.3290   42.9900 C.ar      1 BVA        -0.0546
      6 C18        26.0680    6.0270   41.3340 C.ar      1 BVA        -0.0546
      7 O8         27.1780    0.5370   39.0740 O.3       1 BVA         0.2355
      8 O9         25.6780    0.6970   36.7890 O.2       1 BVA         0.0804
      9 O10        26.9940    3.0670   38.4850 O.2       1 BVA        -0.1293
     10 O11        28.2220   -0.0240   36.7140 O.2       1 BVA         0.0804
     11 O12        28.9140    2.1630   37.8980 O.2       1 BVA         0.0804
     12 N13        26.9310    1.4830   40.0100 N.am      1 BVA         0.0705
     13 C15        26.5110    3.7370   40.7510 C.ar      1 BVA         0.1046
     14 V16        27.2240    1.4220   37.4020 V         1 BVA         0.4887
     15 H1         26.6314    5.3701   39.3691 H         1 BVA         0.0677
     16 H2         25.5578    6.3906   43.3674 H         1 BVA         0.0665
     17 H3         26.3483    2.3281   42.3497 H         1 BVA         0.0677
     18 H4         25.7091    4.0364   44.0135 H         1 BVA         0.0634
     19 H5         25.9846    7.0695   41.0489 H         1 BVA         0.0634
     20 H6         26.8239    1.2052   40.9646 H         1 BVA         0.4484
@<TRIPOS>BOND
     1    1    9 2  
     2    1   12 am 
     3   13    1 1  
     4    6    2 ar 
     5    2   13 ar 
     6    3    5 ar 
     7    3    6 ar 
     8    5    4 ar 
     9    4   13 ar 
    10   12    7 1  
    11    7   14 1  
    12   14    8 2  
    13   14    9 1  
    14   14   10 2  
    15   14   11 2  
    16    2   15 1  
    17    3   16 1  
    18    4   17 1  
    19    5   18 1  
    20    6   19 1  
    21   12   20 1  
@<TRIPOS>SUBSTRUCTURE
     1 BVA         1

