6phx_ligand
  -I-interpret- 

 66 68  0  0  0  0  0  0  0  0999 V2000
  -30.2170  -56.7700  -25.4250 C   0  0  0  0  0
  -30.1760  -55.4920  -24.6020 C   0  0  0  0  0
  -31.3680  -55.5110  -23.6710 C   0  0  0  0  0
  -32.6310  -55.5570  -24.5380 C   0  0  0  0  0
  -32.6380  -56.7360  -25.5450 C   0  0  0  0  0
  -33.7770  -56.6640  -26.5770 C   0  0  0  0  0
  -28.9720  -55.4340  -23.8560 O   0  0  0  0  0
  -31.3010  -54.3240  -22.8690 O   0  0  0  0  0
  -32.7090  -54.3140  -25.2370 O   0  0  0  0  0
  -31.3990  -56.7180  -26.2420 O   0  0  0  0  0
  -33.6870  -57.7830  -27.4750 O   0  0  0  0  0
  -31.8580  -62.2710  -24.0320 C   0  0  0  0  0
  -30.8570  -63.2990  -24.5930 C   0  0  0  0  0
  -29.4230  -62.8270  -24.3690 C   0  0  0  0  0
  -29.2520  -61.3710  -24.8470 C   0  0  0  0  0
  -30.3050  -60.3740  -24.3530 C   0  0  0  0  0
  -30.1830  -59.1460  -25.2520 C   0  0  0  0  0
  -31.0630  -64.5670  -23.9490 O   0  0  0  0  0
  -28.5510  -63.7120  -25.0920 O   0  0  0  0  0
  -27.9690  -60.8670  -24.4980 O   0  0  0  0  0
  -31.6390  -60.9200  -24.5010 O   0  0  0  0  0
  -30.1440  -57.9020  -24.5330 O   0  0  0  0  0
  -34.7960  -62.2930  -22.4640 C   0  0  0  0  0
  -33.4050  -62.0510  -21.8240 C   0  0  0  0  0
  -33.2770  -62.7390  -20.4500 C   0  0  0  0  0
  -32.4080  -61.7820  -19.6410 C   0  0  0  0  0
  -32.7150  -60.4090  -20.2470 C   0  0  0  0  0
  -31.4540  -59.5830  -20.4000 C   0  0  0  0  0
  -35.0020  -63.5760  -23.0930 O   0  0  0  0  0
  -32.3010  -62.4620  -22.6840 O   0  0  0  0  0
  -32.6390  -64.0190  -20.5340 O   0  0  0  0  0
  -32.5900  -61.8800  -18.2120 O   0  0  0  0  0
  -33.2490  -60.6360  -21.5630 O   0  0  0  0  0
  -31.8650  -58.3000  -20.8260 O   0  0  0  0  0
  -29.3673  -56.8752  -26.0996 H   0  0  0  0  0
  -30.2130  -54.6161  -25.2497 H   0  0  0  0  0
  -31.3794  -56.3756  -23.0073 H   0  0  0  0  0
  -33.4941  -55.7149  -23.8913 H   0  0  0  0  0
  -32.7896  -57.6518  -24.9736 H   0  0  0  0  0
  -33.6930  -55.7371  -27.1444 H   0  0  0  0  0
  -34.7361  -56.6914  -26.0598 H   0  0  0  0  0
  -28.9552  -54.6246  -23.3401 H   0  0  0  0  0
  -32.0465  -54.3051  -22.2645 H   0  0  0  0  0
  -33.4922  -54.3089  -25.7921 H   0  0  0  0  0
  -34.3990  -57.7346  -28.1171 H   0  0  0  0  0
  -32.8001  -62.5261  -24.5172 H   0  0  0  0  0
  -31.0208  -63.4043  -25.6655 H   0  0  0  0  0
  -29.1773  -62.8484  -23.3073 H   0  0  0  0  0
  -29.3800  -61.4460  -25.9269 H   0  0  0  0  0
  -30.1456  -60.1420  -23.3000 H   0  0  0  0  0
  -31.0645  -59.1235  -25.8928 H   0  0  0  0  0
  -29.2440  -59.2352  -25.7983 H   0  0  0  0  0
  -30.4391  -65.2074  -24.2988 H   0  0  0  0  0
  -27.6404  -63.4352  -24.9665 H   0  0  0  0  0
  -27.8876  -59.9613  -24.8058 H   0  0  0  0  0
  -34.8976  -61.5497  -23.2547 H   0  0  0  0  0
  -35.5170  -62.2378  -21.6484 H   0  0  0  0  0
  -34.2560  -62.9284  -20.0097 H   0  0  0  0  0
  -31.3469  -62.0198  -19.7163 H   0  0  0  0  0
  -33.4082  -59.8755  -19.5967 H   0  0  0  0  0
  -30.7757  -60.0360  -21.1231 H   0  0  0  0  0
  -30.9081  -59.5256  -19.4583 H   0  0  0  0  0
  -35.8911  -63.6156  -23.4528 H   0  0  0  0  0
  -32.5830  -64.4055  -19.6570 H   0  0  0  0  0
  -32.0129  -61.2508  -17.7732 H   0  0  0  0  0
  -31.0941  -57.7387  -20.9368 H   0  0  0  0  0
  1 22  1  0  0  0
 12 30  1  0  0  0
  5 10  1  0  0  0
 10  1  1  0  0  0
  5  4  1  0  0  0
  4  3  1  0  0  0
  3  2  1  0  0  0
  1  2  1  0  0  0
  4  9  1  0  0  0
  3  8  1  0  0  0
  2  7  1  0  0  0
  5  6  1  0  0  0
  6 11  1  0  0  0
 13 12  1  0  0  0
 12 21  1  0  0  0
 13 14  1  0  0  0
 13 18  1  0  0  0
 14 15  1  0  0  0
 14 19  1  0  0  0
 15 16  1  0  0  0
 15 20  1  0  0  0
 16 17  1  0  0  0
 16 21  1  0  0  0
 17 22  1  0  0  0
 24 23  1  0  0  0
 23 29  1  0  0  0
 24 25  1  0  0  0
 24 30  1  0  0  0
 24 33  1  0  0  0
 25 26  1  0  0  0
 25 31  1  0  0  0
 26 27  1  0  0  0
 26 32  1  0  0  0
 27 28  1  0  0  0
 27 33  1  0  0  0
 28 34  1  0  0  0
  1 35  1  0  0  0
  2 36  1  0  0  0
  3 37  1  0  0  0
  4 38  1  0  0  0
  5 39  1  0  0  0
  6 40  1  0  0  0
  6 41  1  0  0  0
  7 42  1  0  0  0
  8 43  1  0  0  0
  9 44  1  0  0  0
 11 45  1  0  0  0
 12 46  1  0  0  0
 13 47  1  0  0  0
 14 48  1  0  0  0
 15 49  1  0  0  0
 16 50  1  0  0  0
 17 51  1  0  0  0
 17 52  1  0  0  0
 18 53  1  0  0  0
 19 54  1  0  0  0
 20 55  1  0  0  0
 23 56  1  0  0  0
 23 57  1  0  0  0
 25 58  1  0  0  0
 26 59  1  0  0  0
 27 60  1  0  0  0
 28 61  1  0  0  0
 28 62  1  0  0  0
 29 63  1  0  0  0
 31 64  1  0  0  0
 32 65  1  0  0  0
 34 66  1  0  0  0
M  END
$$$$
