5o0a_ligand
  -I-interpret- 

 25 26  0  0  0  0  0  0  0  0999 V2000
  -10.0770  -36.4120  -20.5900 C   0  0  0  0  0
   -7.6910  -33.5580  -20.2380 C   0  0  0  0  0
   -4.6940  -36.9330  -22.0670 C   0  0  0  0  0
   -3.8570  -36.7600  -20.9700 C   0  0  0  0  0
   -4.3630  -36.3450  -19.7470 C   0  0  0  0  0
   -5.7230  -36.1180  -19.6110 C   0  0  0  0  0
   -6.5560  -36.3090  -20.7020 C   0  0  0  0  0
   -6.0590  -36.7100  -21.9340 C   0  0  0  0  0
   -7.9450  -36.0670  -20.5990 N   0  0  0  0  0
   -8.4520  -34.8590  -20.4110 C   0  0  0  0  0
   -9.8580  -35.0250  -20.3840 C   0  0  0  0  0
   -8.8850  -36.9670  -20.7320 N   0  0  0  0  0
  -10.8580  -33.9350  -20.2050 C   0  0  0  0  0
  -10.4760  -32.7550  -19.9470 O   0  0  0  0  0
  -12.0750  -34.1900  -20.3340 O   0  0  0  0  0
  -11.0403  -36.9209  -20.6245 H   0  0  0  0  0
   -7.0450  -33.6300  -19.3630 H   0  0  0  0  0
   -7.0847  -33.3726  -21.1246 H   0  0  0  0  0
   -8.3985  -32.7400  -20.1025 H   0  0  0  0  0
   -4.2810  -37.2422  -23.0271 H   0  0  0  0  0
   -2.7892  -36.9531  -21.0726 H   0  0  0  0  0
   -3.6949  -36.1984  -18.8983 H   0  0  0  0  0
   -6.1337  -35.7924  -18.6553 H   0  0  0  0  0
   -6.7283  -36.8477  -22.7832 H   0  0  0  0  0
   -9.5184  -32.7370  -19.8816 H   0  0  0  0  0
  1 11  4  0  0  0
 12  1  4  0  0  0
 10  2  1  0  0  0
  3  4  4  0  0  0
  8  3  4  0  0  0
  5  4  4  0  0  0
  6  5  4  0  0  0
  7  6  4  0  0  0
  7  8  4  0  0  0
  9  7  1  0  0  0
  9 10  4  0  0  0
  9 12  4  0  0  0
 10 11  4  0  0  0
 11 13  1  0  0  0
 13 14  1  0  0  0
 13 15  2  0  0  0
  1 16  1  0  0  0
  2 17  1  0  0  0
  2 18  1  0  0  0
  2 19  1  0  0  0
  3 20  1  0  0  0
  4 21  1  0  0  0
  5 22  1  0  0  0
  6 23  1  0  0  0
  8 24  1  0  0  0
 14 25  1  0  0  0
M  END
$$$$
