4bgx_ligand
  -I-interpret- 

 61 62  0  0  0  0  0  0  0  0999 V2000
   36.2720   -5.3090   21.5890 C   0  0  0  0  0
   36.5300   -5.4420   23.0840 C   0  0  0  0  0
   35.2050   -5.2870   23.8360 C   0  0  0  0  0
   34.3580   -6.5300   23.6620 C   0  0  0  0  0
   35.1640   -7.7150   24.1570 C   0  0  0  0  0
   36.4390   -7.8520   23.3210 C   0  0  0  0  0
   37.4030   -8.9740   23.6990 C   0  0  0  0  0
   38.7620   -8.8460   22.9850 C   0  0  0  0  0
   39.5740  -10.1410   23.0160 C   0  0  0  0  0
   34.3470   -9.9610   24.5330 C   0  0  0  0  0
   33.3420  -11.0030   24.1350 C   0  0  0  0  0
   34.2620   -8.8180   23.8790 N   0  0  0  0  0
   35.6210   -4.3300   21.1570 O   0  0  0  0  0
   36.7240   -6.1790   20.8170 O   0  0  0  0  0
   33.1130   -6.4330   24.3650 O   0  0  0  0  0
   37.1950   -6.6610   23.4300 O   0  0  0  0  0
   37.5580   -8.9620   25.1100 O   0  0  0  0  0
   38.5660   -8.5170   21.6000 O   0  0  0  0  0
   40.8620   -9.9660   22.3880 O   0  0  0  0  0
   35.1980  -10.1520   25.3860 O   0  0  0  0  0
   38.3990   -0.6130   23.0120 C   0  0  0  0  0
   39.5370   -0.1600   22.0740 C   0  0  0  0  0
   39.9370   -1.2230   21.0270 C   0  0  0  0  0
   39.9960   -2.6460   21.6010 C   0  0  0  0  0
   38.7160   -2.9080   22.3720 C   0  0  0  0  0
   38.6800   -4.3130   22.9350 C   0  0  0  0  0
   38.2830    0.2500   24.1570 O   0  0  0  0  0
   39.1310    1.0290   21.3780 O   0  0  0  0  0
   41.1950   -0.8830   20.4290 O   0  0  0  0  0
   41.1100   -2.8480   22.4840 O   0  0  0  0  0
   38.6200   -1.9640   23.4510 O   0  0  0  0  0
   37.3980   -4.4130   23.5480 O   0  0  0  0  0
   34.6656   -4.4283   23.4362 H   0  0  0  0  0
   35.4110   -5.1406   24.8963 H   0  0  0  0  0
   34.1068   -6.6510   22.6083 H   0  0  0  0  0
   35.4773   -7.6487   25.1989 H   0  0  0  0  0
   36.0582   -8.0767   22.3247 H   0  0  0  0  0
   36.9877   -9.9275   23.3726 H   0  0  0  0  0
   39.3044   -8.0658   23.5191 H   0  0  0  0  0
   39.0239  -10.9092   22.4725 H   0  0  0  0  0
   39.7305  -10.4282   24.0558 H   0  0  0  0  0
   33.8628  -11.8816   23.7543 H   0  0  0  0  0
   32.7452  -11.2809   25.0037 H   0  0  0  0  0
   32.6909  -10.6003   23.3591 H   0  0  0  0  0
   33.5457   -8.7069   23.1613 H   0  0  0  0  0
   35.3577   -3.7724   21.8928 H   0  0  0  0  0
   32.6195   -5.6778   24.0368 H   0  0  0  0  0
   36.6967   -9.0431   25.5261 H   0  0  0  0  0
   39.4192   -8.4401   21.1667 H   0  0  0  0  0
   41.3484  -10.7930   22.4221 H   0  0  0  0  0
   37.4689   -0.5600   22.4461 H   0  0  0  0  0
   40.4066    0.0159   22.7072 H   0  0  0  0  0
   39.1530   -1.2213   20.2697 H   0  0  0  0  0
   40.1149   -3.3322   20.7625 H   0  0  0  0  0
   37.8758   -2.7983   21.6864 H   0  0  0  0  0
   39.4889   -4.4924   23.6432 H   0  0  0  0  0
   38.8261   -5.0686   22.1631 H   0  0  0  0  0
   37.5680   -0.0591   24.7181 H   0  0  0  0  0
   39.8374    1.3132   20.7934 H   0  0  0  0  0
   41.4311   -1.5511   19.7813 H   0  0  0  0  0
   41.0976   -3.7502   22.8118 H   0  0  0  0  0
  2  1  1  0  0  0
  1 13  1  0  0  0
  1 14  2  0  0  0
  2  3  1  0  0  0
  2 16  1  0  0  0
 32  2  1  0  0  0
  3  4  1  0  0  0
  4  5  1  0  0  0
  4 15  1  0  0  0
  6  5  1  0  0  0
  5 12  1  0  0  0
  6  7  1  0  0  0
 16  6  1  0  0  0
  7  8  1  0  0  0
  7 17  1  0  0  0
  8  9  1  0  0  0
  8 18  1  0  0  0
  9 19  1  0  0  0
 10 11  1  0  0  0
 12 10  1  0  0  0
 10 20  2  0  0  0
 21 22  1  0  0  0
 21 27  1  0  0  0
 31 21  1  0  0  0
 23 22  1  0  0  0
 22 28  1  0  0  0
 24 23  1  0  0  0
 23 29  1  0  0  0
 25 24  1  0  0  0
 24 30  1  0  0  0
 26 25  1  0  0  0
 25 31  1  0  0  0
 26 32  1  0  0  0
  3 33  1  0  0  0
  3 34  1  0  0  0
  4 35  1  0  0  0
  5 36  1  0  0  0
  6 37  1  0  0  0
  7 38  1  0  0  0
  8 39  1  0  0  0
  9 40  1  0  0  0
  9 41  1  0  0  0
 11 42  1  0  0  0
 11 43  1  0  0  0
 11 44  1  0  0  0
 12 45  1  0  0  0
 13 46  1  0  0  0
 15 47  1  0  0  0
 17 48  1  0  0  0
 18 49  1  0  0  0
 19 50  1  0  0  0
 21 51  1  0  0  0
 22 52  1  0  0  0
 23 53  1  0  0  0
 24 54  1  0  0  0
 25 55  1  0  0  0
 26 56  1  0  0  0
 26 57  1  0  0  0
 27 58  1  0  0  0
 28 59  1  0  0  0
 29 60  1  0  0  0
 30 61  1  0  0  0
M  END
$$$$
