5oxn_ligand
  -I-interpret- 

 34 34  0  0  0  0  0  0  0  0999 V2000
   19.6800   17.1370   -2.4420 N   0  3  0  0  0
   21.0190   17.6900   -2.5880 C   0  0  0  0  0
   21.2490   18.2560   -3.9860 C   0  0  0  0  0
   20.9000   17.6280   -4.9860 O   0  0  0  0  0
   22.0730   16.6250   -2.2790 C   0  0  0  0  0
   22.1360   16.2310   -0.8280 C   0  0  0  0  0
   22.0040   17.1840    0.1700 C   0  0  0  0  0
   22.3100   14.9040   -0.4640 C   0  0  0  0  0
   22.0530   16.8230    1.5070 C   0  0  0  0  0
   22.3600   14.5370    0.8660 C   0  0  0  0  0
   22.2310   15.4960    1.8540 C   0  0  0  0  0
   21.8140   19.4590   -4.0380 N   0  0  0  0  0
   22.3170   20.0290   -5.2810 C   0  0  0  0  0
   23.5650   19.2750   -5.6950 C   0  0  0  0  0
   24.3870   18.9220   -4.8530 O   0  0  0  0  0
   22.6280   21.5120   -5.1210 C   0  0  0  0  0
   23.7980   19.0040   -6.8670 O   0  0  0  0  0
   18.9906   17.8590   -2.6513 H   0  0  0  0  0
   19.5635   16.3564   -3.0882 H   0  0  0  0  0
   19.5512   16.8095   -1.4846 H   0  0  0  0  0
   21.1119   18.5089   -1.8746 H   0  0  0  0  0
   23.0439   17.0441   -2.5432 H   0  0  0  0  0
   21.8074   15.7325   -2.8456 H   0  0  0  0  0
   21.8599   18.2301   -0.1002 H   0  0  0  0  0
   22.4084   14.1419   -1.2371 H   0  0  0  0  0
   21.9516   17.5822    2.2825 H   0  0  0  0  0
   22.5012   13.4908    1.1375 H   0  0  0  0  0
   22.2695   15.2067    2.9042 H   0  0  0  0  0
   21.8980   20.0012   -3.1781 H   0  0  0  0  0
   21.5507   19.9339   -6.0503 H   0  0  0  0  0
   24.0878   19.1931   -3.9820 H   0  0  0  0  0
   21.7201   22.0437   -4.8363 H   0  0  0  0  0
   23.3844   21.6419   -4.3470 H   0  0  0  0  0
   23.0012   21.9076   -6.0656 H   0  0  0  0  0
  1  2  1  0  0  0
  2  3  1  0  0  0
  2  5  1  0  0  0
  3  4  2  0  0  0
  3 12  1  0  0  0
  5  6  1  0  0  0
  6  7  4  0  0  0
  6  8  4  0  0  0
  7  9  4  0  0  0
  8 10  4  0  0  0
  9 11  4  0  0  0
 10 11  4  0  0  0
 12 13  1  0  0  0
 13 14  1  0  0  0
 13 16  1  0  0  0
 14 15  1  0  0  0
 14 17  2  0  0  0
  1 18  1  0  0  0
  1 19  1  0  0  0
  1 20  1  0  0  0
  2 21  1  0  0  0
  5 22  1  0  0  0
  5 23  1  0  0  0
  7 24  1  0  0  0
  8 25  1  0  0  0
  9 26  1  0  0  0
 10 27  1  0  0  0
 11 28  1  0  0  0
 12 29  1  0  0  0
 13 30  1  0  0  0
 15 31  1  0  0  0
 16 32  1  0  0  0
 16 33  1  0  0  0
 16 34  1  0  0  0
M  END
$$$$
