1mxu_ligand
  -I-interpret- 

 24 24  0  0  0  0  0  0  0  0999 V2000
   78.0040   26.6240   42.2490 N   0  0  0  0  0
   78.1420   25.3240   41.6740 C   0  0  0  0  0
   78.2260   24.2960   42.3090 O   0  0  0  0  0
   78.1740   25.3310   40.2610 N   0  0  0  0  0
   78.0770   26.4150   39.4140 C   0  0  0  0  0
   78.1310   26.3090   38.2070 O   0  0  0  0  0
   77.9220   27.7380   40.1450 C   0  0  0  0  0
   77.7130   29.3370   39.1690 Br  0  0  0  0  0
   77.8770   27.7360   41.4940 C   0  0  0  0  0
   77.8990   26.7760   43.7040 C   0  0  0  0  0
   76.5990   26.2400   44.2790 C   0  0  0  0  0
   75.4960   27.2190   43.9740 N   0  3  0  0  0
   76.6350   25.9120   45.7760 C   0  0  0  0  0
   75.7940   26.4080   46.4900 O   0  0  0  0  0
   77.6170   25.1630   46.1440 O   0  0  0  0  0
   78.2823   24.4215   39.8121 H   0  0  0  0  0
   77.7295   28.6881   42.0038 H   0  0  0  0  0
   77.9390   27.8426   43.9250 H   0  0  0  0  0
   78.7137   26.2069   44.1518 H   0  0  0  0  0
   76.4201   25.2788   43.7971 H   0  0  0  0  0
   74.6173   26.8691   44.3558 H   0  0  0  0  0
   75.7167   28.1206   44.3968 H   0  0  0  0  0
   75.4096   27.3280   42.9635 H   0  0  0  0  0
   78.1297   24.9080   45.3735 H   0  0  0  0  0
  1  2  1  0  0  0
  1  9  1  0  0  0
  1 10  1  0  0  0
  2  3  2  0  0  0
  2  4  1  0  0  0
  4  5  1  0  0  0
  5  6  2  0  0  0
  5  7  1  0  0  0
  7  8  1  0  0  0
  7  9  2  0  0  0
 10 11  1  0  0  0
 11 12  1  0  0  0
 11 13  1  0  0  0
 13 14  2  0  0  0
 13 15  1  0  0  0
  4 16  1  0  0  0
  9 17  1  0  0  0
 10 18  1  0  0  0
 10 19  1  0  0  0
 11 20  1  0  0  0
 12 21  1  0  0  0
 12 22  1  0  0  0
 12 23  1  0  0  0
 15 24  1  0  0  0
M  END
$$$$
