4jsa_ligand
  -I-interpret- 

 17 17  0  0  0  0  0  0  0  0999 V2000
   16.5460    4.5980   14.2460 C   0  0  0  0  0
   17.3480    3.5240   14.6260 C   0  0  0  0  0
   16.8700    2.4000   15.3100 C   0  0  0  0  0
   15.4820    2.4030   15.5800 C   0  0  0  0  0
   14.6810    3.4610   15.1490 C   0  0  0  0  0
   15.2040    4.5910   14.4710 C   0  0  0  0  0
   14.9430    0.9370   16.4320 S   0  0  0  0  0
   13.4490    1.0210   16.6330 O   0  0  0  0  0
   15.5400    0.8390   17.8140 O   0  0  0  0  0
   15.4680   -0.4640   15.5280 N   0  0  0  0  0
   17.0021    5.4601   13.7593 H   0  0  0  0  0
   18.4084    3.5610   14.3764 H   0  0  0  0  0
   17.5217    1.5805   15.6130 H   0  0  0  0  0
   13.6090    3.4170   15.3415 H   0  0  0  0  0
   14.5642    5.4117   14.1467 H   0  0  0  0  0
   14.7820   -1.1377   15.1875 H   0  0  0  0  0
   16.4603   -0.6078   15.3410 H   0  0  0  0  0
  1  2  4  0  0  0
  1  6  4  0  0  0
  2  3  4  0  0  0
  3  4  4  0  0  0
  4  5  4  0  0  0
  4  7  1  0  0  0
  5  6  4  0  0  0
  7  8  2  0  0  0
  7  9  2  0  0  0
  7 10  1  0  0  0
  1 11  1  0  0  0
  2 12  1  0  0  0
  3 13  1  0  0  0
  5 14  1  0  0  0
  6 15  1  0  0  0
 10 16  1  0  0  0
 10 17  1  0  0  0
M  END
$$$$
