4erw_ligand
  -I-interpret- 

 65 72  0  0  0  0  0  0  0  0999 V2000
    0.1090  -10.3950   27.0790 O   0  0  0  0  0
   -1.3380  -10.1870   27.2060 C   0  0  0  0  0
   -2.1750  -10.5230   25.9560 C   0  0  0  0  0
   -1.2570  -10.8750   24.8530 C   0  0  0  0  0
   -0.2640   -9.7690   24.7040 C   0  0  0  0  0
    0.6950   -9.7820   25.9750 C   0  0  0  0  0
    1.8400  -10.7380   25.6710 C   0  0  0  0  0
    1.1580   -8.3350   26.1810 N   0  0  0  0  0
    0.4020   -7.4870   26.9140 C   0  0  0  0  0
   -0.7870   -7.6990   27.5900 C   0  0  0  0  0
   -1.4450   -6.6360   28.3290 C   0  0  0  0  0
   -0.8150   -5.2830   28.3510 C   0  0  0  0  0
    0.3680   -5.0600   27.6660 C   0  0  0  0  0
    1.0050   -6.1670   26.9220 C   0  0  0  0  0
    2.2510   -6.2780   26.1040 C   0  0  0  0  0
    2.3350   -7.6060   25.6510 C   0  0  0  0  0
    3.4580   -7.9580   24.8300 C   0  0  0  0  0
    4.4300   -7.0170   24.5150 C   0  0  0  0  0
    4.3210   -5.6970   24.9760 C   0  0  0  0  0
    3.2160   -5.3270   25.7810 C   0  0  0  0  0
    0.7190   -3.6710   27.8680 C   0  0  0  0  0
   -0.2390   -3.1070   28.6350 N   0  3  0  0  0
   -1.1710   -4.0150   28.9650 C   0  0  0  0  0
   -2.2740   -3.7760   29.7170 O   0  0  0  0  0
   -2.7210   -7.2570   28.9420 C   0  0  0  0  0
   -2.7600   -8.6430   28.5390 C   0  0  0  0  0
   -3.8310   -9.4880   28.9590 C   0  0  0  0  0
   -4.8640   -8.9540   29.7770 C   0  0  0  0  0
   -4.8290   -7.5780   30.1710 C   0  0  0  0  0
   -3.7500   -6.7330   29.7530 C   0  0  0  0  0
   -1.5710   -8.8530   27.7200 N   0  0  0  0  0
   -0.9630   -8.5490   24.5810 O   0  0  0  0  0
   -0.5720   -7.5750   23.6500 C   0  0  0  0  0
   -2.0480  -11.0390   23.6320 N   0  3  0  0  0
   -2.6750  -12.3510   23.5940 C   0  0  0  0  0
   -1.7086  -10.9239   27.9185 H   0  0  0  0  0
   -2.7811   -9.6622   25.6734 H   0  0  0  0  0
   -2.8380  -11.3617   26.1684 H   0  0  0  0  0
   -0.7241  -11.8044   25.0538 H   0  0  0  0  0
    0.3495   -9.8964   23.8121 H   0  0  0  0  0
    2.3453  -10.4194   24.7592 H   0  0  0  0  0
    2.5468  -10.7318   26.5007 H   0  0  0  0  0
    1.4449  -11.7449   25.5361 H   0  0  0  0  0
    3.5493   -8.9752   24.4493 H   0  0  0  0  0
    5.2849   -7.3071   23.9042 H   0  0  0  0  0
    5.0817   -4.9607   24.7165 H   0  0  0  0  0
    3.1214   -4.3041   26.1456 H   0  0  0  0  0
    0.7866   -3.1560   26.9097 H   0  0  0  0  0
    1.6889   -3.5948   28.3594 H   0  0  0  0  0
   -0.6820   -2.3524   28.1109 H   0  0  0  0  0
    0.1887   -2.7457   29.4876 H   0  0  0  0  0
   -1.9740   -3.8877   29.6910 H   0  0  0  0  0
   -2.2730   -2.8593   30.0022 H   0  0  0  0  0
   -3.8567  -10.5344   28.6550 H   0  0  0  0  0
   -5.6839   -9.5932   30.1047 H   0  0  0  0  0
   -5.6271   -7.1712   30.7920 H   0  0  0  0  0
   -3.7241   -5.6877   30.0608 H   0  0  0  0  0
    0.4489   -7.2587   23.8640 H   0  0  0  0  0
   -0.6207   -7.9945   22.6451 H   0  0  0  0  0
   -1.2415   -6.7177   23.7201 H   0  0  0  0  0
   -1.4304  -10.9465   22.8255 H   0  0  0  0  0
   -2.7770  -10.3258   23.6145 H   0  0  0  0  0
   -1.9044  -13.1214   23.6199 H   0  0  0  0  0
   -3.3321  -12.4634   24.4564 H   0  0  0  0  0
   -3.2567  -12.4479   22.6773 H   0  0  0  0  0
  1  2  1  0  0  0
  1  6  1  0  0  0
  2  3  1  0  0  0
  2 31  1  0  0  0
  3  4  1  0  0  0
  4  5  1  0  0  0
  4 34  1  0  0  0
  5  6  1  0  0  0
  5 32  1  0  0  0
  6  7  1  0  0  0
  6  8  1  0  0  0
  8  9  4  0  0  0
  8 16  4  0  0  0
  9 10  4  0  0  0
  9 14  4  0  0  0
 10 11  4  0  0  0
 10 31  4  0  0  0
 11 12  4  0  0  0
 11 25  4  0  0  0
 12 13  4  0  0  0
 12 23  1  0  0  0
 13 14  4  0  0  0
 13 21  1  0  0  0
 14 15  4  0  0  0
 15 16  4  0  0  0
 15 20  4  0  0  0
 16 17  4  0  0  0
 17 18  4  0  0  0
 18 19  4  0  0  0
 19 20  4  0  0  0
 21 22  1  0  0  0
 22 23  1  0  0  0
 23 24  1  0  0  0
 25 26  4  0  0  0
 25 30  4  0  0  0
 26 27  4  0  0  0
 26 31  4  0  0  0
 27 28  4  0  0  0
 28 29  4  0  0  0
 29 30  4  0  0  0
 32 33  1  0  0  0
 34 35  1  0  0  0
  2 36  1  0  0  0
  3 37  1  0  0  0
  3 38  1  0  0  0
  4 39  1  0  0  0
  5 40  1  0  0  0
  7 41  1  0  0  0
  7 42  1  0  0  0
  7 43  1  0  0  0
 17 44  1  0  0  0
 18 45  1  0  0  0
 19 46  1  0  0  0
 20 47  1  0  0  0
 21 48  1  0  0  0
 21 49  1  0  0  0
 22 50  1  0  0  0
 22 51  1  0  0  0
 23 52  1  0  0  0
 24 53  1  0  0  0
 27 54  1  0  0  0
 28 55  1  0  0  0
 29 56  1  0  0  0
 30 57  1  0  0  0
 33 58  1  0  0  0
 33 59  1  0  0  0
 33 60  1  0  0  0
 34 61  1  0  0  0
 34 62  1  0  0  0
 35 63  1  0  0  0
 35 64  1  0  0  0
 35 65  1  0  0  0
M  END
$$$$
