1vsn_ligand
  -I-interpret- 

 61 62  0  0  0  0  0  0  0  0999 V2000
   -6.1900   24.6940    7.2220 C   0  0  0  0  0
   -3.9650   25.6090    6.5830 C   0  0  0  0  0
   -4.9350   24.5680    6.5520 C   0  0  0  0  0
   -4.5770   23.3670    5.8320 C   0  0  0  0  0
   -3.3280   23.2740    5.2140 C   0  0  0  0  0
   -2.6920   25.4990    5.9580 C   0  0  0  0  0
   -2.3760   24.3380    5.2790 C   0  0  0  0  0
   -1.0180   24.2380    4.6400 C   0  0  0  0  0
   -0.9860   24.9190    3.2150 C   0  0  0  0  0
   -2.0390   24.5580    2.4420 F   0  0  0  0  0
   -1.0050   26.2760    3.2870 F   0  0  0  0  0
    0.1240   24.5930    2.5000 F   0  0  0  0  0
    1.6450   21.2740    5.3060 N   0  0  0  0  0
    1.5660   19.8650    5.6750 C   0  0  0  0  0
    0.0270   24.4460    5.4490 N   0  3  0  0  0
    1.2480   23.6280    5.4390 C   0  0  0  0  0
    2.3600   24.3240    6.1560 C   0  0  0  0  0
    3.1980   25.5110    5.6400 C   0  0  0  0  0
    2.6860   26.1420    4.3520 C   0  0  0  0  0
    3.2440   26.5420    6.7290 C   0  0  0  0  0
    1.0670   22.2530    5.9860 C   0  0  0  0  0
    0.4220   22.0650    7.0060 O   0  0  0  0  0
   -7.3950   24.2250    6.6140 C   0  0  0  0  0
   -8.6080   24.3170    7.2770 C   0  0  0  0  0
   -8.6540   24.8740    8.5690 C   0  0  0  0  0
   -7.4920   25.3490    9.1910 C   0  0  0  0  0
   -6.2700   25.2610    8.5310 C   0  0  0  0  0
  -10.1260   24.7790    9.4760 S   0  0  0  0  0
   -9.8050   23.5450   10.5960 N   0  0  0  0  0
  -10.3390   26.0180   10.1400 O   0  0  0  0  0
  -11.1780   24.3560    8.5750 O   0  0  0  0  0
    2.6990   19.4010    6.5420 C   0  0  0  0  0
    2.8200   18.1450    6.8060 N   0  0  0  0  0
   -4.2085   26.5319    7.1093 H   0  0  0  0  0
   -5.2799   22.5361    5.7715 H   0  0  0  0  0
   -3.0725   22.3660    4.6677 H   0  0  0  0  0
   -1.9760   26.3190    6.0140 H   0  0  0  0  0
   -0.8537   23.1804    4.4336 H   0  0  0  0  0
    2.1785   21.5209    4.4724 H   0  0  0  0  0
    1.6041   19.2851    4.7528 H   0  0  0  0  0
    0.6457   19.7291    6.2430 H   0  0  0  0  0
   -0.3624   24.2582    6.3728 H   0  0  0  0  0
    0.3658   25.3601    5.1489 H   0  0  0  0  0
    1.5049   23.5049    4.3869 H   0  0  0  0  0
    3.1107   23.5355    6.2093 H   0  0  0  0  0
    1.8277   24.7808    6.9903 H   0  0  0  0  0
    4.1862   25.1249    5.3901 H   0  0  0  0  0
    2.6793   25.3933    3.5598 H   0  0  0  0  0
    1.6742   26.5156    4.5092 H   0  0  0  0  0
    3.3394   26.9671    4.0684 H   0  0  0  0  0
    2.2301   26.8659    6.9640 H   0  0  0  0  0
    3.7038   26.1097    7.6177 H   0  0  0  0  0
    3.8314   27.3968    6.3937 H   0  0  0  0  0
   -7.3594   23.7892    5.6156 H   0  0  0  0  0
   -9.5214   23.9602    6.8010 H   0  0  0  0  0
   -7.5449   25.7859   10.1882 H   0  0  0  0  0
   -5.3659   25.6279    9.0170 H   0  0  0  0  0
   -9.7868   23.7543   11.5941 H   0  0  0  0  0
   -9.6302   22.5941   10.2710 H   0  0  0  0  0
    3.4132   20.1191    6.9449 H   0  0  0  0  0
    2.1490   17.4771    6.4264 H   0  0  0  0  0
  3  1  1  0  0  0
  1 23  4  0  0  0
  1 27  4  0  0  0
  2  3  4  0  0  0
  6  2  4  0  0  0
  4  3  4  0  0  0
  5  4  4  0  0  0
  7  5  4  0  0  0
  7  6  4  0  0  0
  8  7  1  0  0  0
  8  9  1  0  0  0
 15  8  1  0  0  0
  9 10  1  0  0  0
  9 11  1  0  0  0
  9 12  1  0  0  0
 13 14  1  0  0  0
 21 13  1  0  0  0
 14 32  1  0  0  0
 16 15  1  0  0  0
 16 17  1  0  0  0
 16 21  1  0  0  0
 17 18  1  0  0  0
 18 19  1  0  0  0
 18 20  1  0  0  0
 21 22  2  0  0  0
 23 24  4  0  0  0
 24 25  4  0  0  0
 25 26  4  0  0  0
 25 28  1  0  0  0
 26 27  4  0  0  0
 28 29  1  0  0  0
 28 30  2  0  0  0
 28 31  2  0  0  0
 32 33  2  0  0  0
  2 34  1  0  0  0
  4 35  1  0  0  0
  5 36  1  0  0  0
  6 37  1  0  0  0
  8 38  1  0  0  0
 13 39  1  0  0  0
 14 40  1  0  0  0
 14 41  1  0  0  0
 15 42  1  0  0  0
 15 43  1  0  0  0
 16 44  1  0  0  0
 17 45  1  0  0  0
 17 46  1  0  0  0
 18 47  1  0  0  0
 19 48  1  0  0  0
 19 49  1  0  0  0
 19 50  1  0  0  0
 20 51  1  0  0  0
 20 52  1  0  0  0
 20 53  1  0  0  0
 23 54  1  0  0  0
 24 55  1  0  0  0
 26 56  1  0  0  0
 27 57  1  0  0  0
 29 58  1  0  0  0
 29 59  1  0  0  0
 32 60  1  0  0  0
 33 61  1  0  0  0
M  END
$$$$
