### 
### Created by X-TOOL on Mon Sep 10 21:12:55 2018
### 

@<TRIPOS>MOLECULE
1vsn_ligand
   61    62     1     0     0
SMALL
GAST_HUCK


@<TRIPOS>ATOM
      1 C46        -6.1900   24.6940    7.2220 C.ar      1 NFT        -0.0220
      2 C08        -3.9650   25.6090    6.5830 C.ar      1 NFT        -0.0598
      3 C09        -4.9350   24.5680    6.5520 C.ar      1 NFT        -0.0242
      4 C10        -4.5770   23.3670    5.8320 C.ar      1 NFT        -0.0598
      5 C11        -3.3280   23.2740    5.2140 C.ar      1 NFT        -0.0533
      6 C07        -2.6920   25.4990    5.9580 C.ar      1 NFT        -0.0533
      7 C06        -2.3760   24.3380    5.2790 C.ar      1 NFT         0.0141
      8 C15        -1.0180   24.2380    4.6400 C.3       1 NFT         0.1110
      9 C16        -0.9860   24.9190    3.2150 C.3       1 NFT         0.4439
     10 F35        -2.0390   24.5580    2.4420 F         1 NFT        -0.1634
     11 F36        -1.0050   26.2760    3.2870 F         1 NFT        -0.1634
     12 F37         0.1240   24.5930    2.5000 F         1 NFT        -0.1634
     13 N26         1.6450   21.2740    5.3060 N.am      1 NFT        -0.2624
     14 C41         1.5660   19.8650    5.6750 C.3       1 NFT         0.0899
     15 N24         0.0270   24.4460    5.4490 N.4       1 NFT         0.2668
     16 C17         1.2480   23.6280    5.4390 C.3       1 NFT         0.0691
     17 C18         2.3600   24.3240    6.1560 C.3       1 NFT         0.0103
     18 C19         3.1980   25.5110    5.6400 C.3       1 NFT        -0.0394
     19 C20         2.6860   26.1420    4.3520 C.3       1 NFT        -0.0623
     20 C21         3.2440   26.5420    6.7290 C.3       1 NFT        -0.0623
     21 C22         1.0670   22.2530    5.9860 C.2       1 NFT         0.2275
     22 O23         0.4220   22.0650    7.0060 O.2       1 NFT        -0.3906
     23 C47        -7.3950   24.2250    6.6140 C.ar      1 NFT        -0.0538
     24 C48        -8.6080   24.3170    7.2770 C.ar      1 NFT        -0.0356
     25 C50        -8.6540   24.8740    8.5690 C.ar      1 NFT         0.1070
     26 C51        -7.4920   25.3490    9.1910 C.ar      1 NFT        -0.0356
     27 C52        -6.2700   25.2610    8.5310 C.ar      1 NFT        -0.0538
     28 S60       -10.1260   24.7790    9.4760 S.o2      1 NFT         0.0655
     29 N63        -9.8050   23.5450   10.5960 N.am      1 NFT        -0.2610
     30 O61       -10.3390   26.0180   10.1400 O.2       1 NFT        -0.1506
     31 O62       -11.1780   24.3560    8.5750 O.2       1 NFT        -0.1506
     32 C44         2.6990   19.4010    6.5420 C.2       1 NFT         0.0176
     33 N45         2.8200   18.1450    6.8060 N.2       1 NFT        -0.3621
     34 H1         -4.2072   26.5269    7.1064 H         1 NFT         0.0609
     35 H2         -5.2760   22.5407    5.7718 H         1 NFT         0.0609
     36 H3         -3.0739   22.3710    4.6707 H         1 NFT         0.0562
     37 H4         -1.9800   26.3145    6.0136 H         1 NFT         0.0562
     38 H5         -0.9243   23.1672    4.4065 H         1 NFT         0.1111
     39 H6          2.1681   21.5160    4.4888 H         1 NFT         0.1895
     40 H7          1.5665   19.2647    4.7533 H         1 NFT         0.0803
     41 H8          0.6239   19.7013    6.2187 H         1 NFT         0.0803
     42 H9         -0.3365   24.3832    6.3871 H         1 NFT         0.2057
     43 H10         0.3291   25.3905    5.2682 H         1 NFT         0.2057
     44 H11         1.5482   23.5174    4.3866 H         1 NFT         0.1099
     45 H12         3.0933   23.5342    6.3762 H         1 NFT         0.0348
     46 H13         1.9120   24.6806    7.0952 H         1 NFT         0.0348
     47 H14         4.2185   25.1479    5.4483 H         1 NFT         0.0299
     48 H15         3.3446   26.9749    4.0647 H         1 NFT         0.0232
     49 H16         1.6649   26.5195    4.5093 H         1 NFT         0.0232
     50 H17         2.6788   25.3874    3.5516 H         1 NFT         0.0232
     51 H18         3.6144   26.0799    7.6560 H         1 NFT         0.0232
     52 H19         2.2336   26.9427    6.8975 H         1 NFT         0.0232
     53 H20         3.9178   27.3592    6.4321 H         1 NFT         0.0232
     54 H21        -7.3596   23.7916    5.6211 H         1 NFT         0.0615
     55 H22        -9.5163   23.9622    6.8036 H         1 NFT         0.0635
     56 H23        -7.5446   25.7835   10.1827 H         1 NFT         0.0635
     57 H24        -5.3709   25.6259    9.0143 H         1 NFT         0.0615
     58 H25       -10.5037   23.2779   11.2597 H         1 NFT         0.1635
     59 H26        -8.9171   23.0849   10.5923 H         1 NFT         0.1635
     60 H27         3.4125   20.1185    6.9446 H         1 NFT         0.1222
     61 H28         3.5777   17.8229    7.3875 H         1 NFT         0.1054
@<TRIPOS>BOND
     1    3    1 1  
     2    1   23 ar 
     3    1   27 ar 
     4    2    3 ar 
     5    6    2 ar 
     6    4    3 ar 
     7    5    4 ar 
     8    7    5 ar 
     9    7    6 ar 
    10    8    7 1  
    11    8    9 1  
    12   15    8 1  
    13    9   10 1  
    14    9   11 1  
    15    9   12 1  
    16   13   14 1  
    17   21   13 am 
    18   14   32 1  
    19   16   15 1  
    20   16   17 1  
    21   16   21 1  
    22   17   18 1  
    23   18   19 1  
    24   18   20 1  
    25   21   22 2  
    26   23   24 ar 
    27   24   25 ar 
    28   25   26 ar 
    29   25   28 1  
    30   26   27 ar 
    31   28   29 am 
    32   28   30 2  
    33   28   31 2  
    34   32   33 2  
    35    2   34 1  
    36    4   35 1  
    37    5   36 1  
    38    6   37 1  
    39    8   38 1  
    40   13   39 1  
    41   14   40 1  
    42   14   41 1  
    43   15   42 1  
    44   15   43 1  
    45   16   44 1  
    46   17   45 1  
    47   17   46 1  
    48   18   47 1  
    49   19   48 1  
    50   19   49 1  
    51   19   50 1  
    52   20   51 1  
    53   20   52 1  
    54   20   53 1  
    55   23   54 1  
    56   24   55 1  
    57   26   56 1  
    58   27   57 1  
    59   29   58 1  
    60   29   59 1  
    61   32   60 1  
    62   33   61 1  
@<TRIPOS>SUBSTRUCTURE
     1 NFT         1

