3u0d_ligand
  -I-interpret- 

 17 17  0  0  0  0  0  0  0  0999 V2000
   17.5970   22.2060    6.1670 O   0  0  0  0  0
   18.1110   21.7030    5.1500 C   0  0  0  0  0
   18.7950   22.3920    4.3470 O   0  0  0  0  0
   17.8300   20.2620    4.8300 C   0  0  0  0  0
   16.7770   19.5580    5.4430 C   0  0  0  0  0
   16.4870   18.2240    5.0840 C   0  0  0  0  0
   18.6330   19.5890    3.7710 C   0  0  0  0  0
   19.6480   20.2230    3.1120 O   0  0  0  0  0
   18.2840   18.1980    3.4230 C   0  0  0  0  0
   17.2320   17.5530    4.0940 C   0  0  0  0  0
   19.0180   17.5860    2.4590 O   0  0  0  0  0
   19.1046   21.8329    3.6307 H   0  0  0  0  0
   16.1758   20.0506    6.2072 H   0  0  0  0  0
   15.6702   17.7024    5.5828 H   0  0  0  0  0
   20.0375   19.6220    2.4727 H   0  0  0  0  0
   16.9888   16.5199    3.8456 H   0  0  0  0  0
   18.6917   16.6926    2.3288 H   0  0  0  0  0
  1  2  2  0  0  0
  2  3  1  0  0  0
  2  4  1  0  0  0
  4  5  4  0  0  0
  4  7  4  0  0  0
  5  6  4  0  0  0
  6 10  4  0  0  0
  7  8  1  0  0  0
  7  9  4  0  0  0
  9 10  4  0  0  0
  9 11  1  0  0  0
  3 12  1  0  0  0
  5 13  1  0  0  0
  6 14  1  0  0  0
  8 15  1  0  0  0
 10 16  1  0  0  0
 11 17  1  0  0  0
M  END
$$$$
