1drv_ligand
  -I-interpret- 

 74 78  0  0  0  0  0  0  0  0999 V2000
    6.4970   29.2330   18.0680 P   0  0  0  0  0
    5.3980   30.0940   17.5830 O   0  0  0  0  0
    6.1500   27.8390   17.7880 O   0  0  0  0  0
    7.7020   29.5480   17.0490 O   0  0  0  0  0
    8.5670   28.5130   16.6890 C   0  0  0  0  0
    9.4700   29.0540   15.6130 C   0  0  0  0  0
   10.5320   28.1480   15.1970 O   0  0  0  0  0
    8.7450   29.3410   14.3100 C   0  0  0  0  0
    9.4710   30.4400   13.7270 O   0  0  0  0  0
    8.9610   28.0290   13.5330 C   0  0  0  0  0
    8.7910   28.0200   12.1220 O   0  0  0  0  0
   10.4430   27.9030   13.7930 C   0  0  0  0  0
   10.7570   26.5140   13.6130 N   0  0  0  0  0
   10.0530   25.4580   14.1710 C   0  0  0  0  0
   10.6750   24.3110   13.9940 N   0  0  0  0  0
   11.7870   24.6160   13.2010 C   0  0  0  0  0
   12.7970   23.8220   12.6320 C   0  0  0  0  0
   12.9190   22.4810   12.7890 N   0  0  0  0  0
   13.7270   24.4810   11.8820 N   0  0  0  0  0
   13.6990   25.8180   11.7870 C   0  0  0  0  0
   12.7910   26.6600   12.2690 N   0  0  0  0  0
   11.8560   25.9810   12.9580 C   0  0  0  0  0
    7.0600   29.2950   19.4720 O   0  0  0  0  0
    7.8060   30.2900   20.2670 P   0  0  0  0  0
    6.6080   30.3520   21.1000 O   0  0  0  0  0
    8.3120   31.5280   19.6720 O   0  0  0  0  0
    8.9590   29.5430   21.0360 O   0  0  0  0  0
   10.2430   29.9480   20.4760 C   0  0  0  0  0
   11.4100   29.2300   21.1560 C   0  0  0  0  0
   12.1450   30.0880   22.0870 O   0  0  0  0  0
   10.9120   28.0460   21.9890 C   0  0  0  0  0
   11.7480   26.8430   22.0890 O   0  0  0  0  0
   10.7110   28.7030   23.3330 C   0  0  0  0  0
   10.7130   27.7190   24.3500 O   0  0  0  0  0
   11.9160   29.6350   23.4410 C   0  0  0  0  0
   11.5890   30.7520   24.3630 N   0  0  0  0  0
   12.5450   31.1780   25.1900 C   0  0  0  0  0
   12.5600   32.2140   26.0230 C   0  0  0  0  0
   13.6550   32.5050   26.8740 C   0  0  0  0  0
   13.4710   33.2660   27.8420 O   0  0  0  0  0
   14.9910   31.7760   26.7090 C   0  0  0  0  0
   11.3770   32.8740   25.9620 C   0  0  0  0  0
   10.2740   32.5470   25.1700 C   0  0  0  0  0
   10.3830   31.3930   24.3650 C   0  0  0  0  0
    5.6112   31.0132   17.7598 H   0  0  0  0  0
    8.0084   27.6495   16.3277 H   0  0  0  0  0
    9.1471   28.1766   17.5483 H   0  0  0  0  0
    9.8630   29.9481   16.0969 H   0  0  0  0  0
    7.6880   29.6029   14.3582 H   0  0  0  0  0
    9.3100   31.2359   14.2391 H   0  0  0  0  0
    8.2434   27.2711   13.8473 H   0  0  0  0  0
    8.9593   27.1365   11.7862 H   0  0  0  0  0
   11.0730   28.5440   13.1763 H   0  0  0  0  0
    9.1016   25.5642   14.6922 H   0  0  0  0  0
   12.2438   21.9706   13.3582 H   0  0  0  0  0
   13.6860   21.9824   12.3379 H   0  0  0  0  0
   14.5278   26.2729   11.2445 H   0  0  0  0  0
    9.0976   31.3354   19.1550 H   0  0  0  0  0
   10.3623   31.0202   20.6319 H   0  0  0  0  0
   10.2519   29.6902   19.4170 H   0  0  0  0  0
   12.0607   28.9169   20.3395 H   0  0  0  0  0
   10.0386   27.5994   21.5137 H   0  0  0  0  0
   11.3064   26.1927   22.6400 H   0  0  0  0  0
    9.7656   29.2356   23.4364 H   0  0  0  0  0
   10.5849   28.1413   25.2026 H   0  0  0  0  0
   12.8083   29.1576   23.8459 H   0  0  0  0  0
   13.4580   30.5827   25.1815 H   0  0  0  0  0
   15.7944   32.5076   26.6231 H   0  0  0  0  0
   15.1670   31.1416   27.5777 H   0  0  0  0  0
   14.9595   31.1616   25.8092 H   0  0  0  0  0
   11.6813   33.8268   25.5288 H   0  0  0  0  0
   10.9825   32.7069   26.9643 H   0  0  0  0  0
    9.3698   33.1557   25.1735 H   0  0  0  0  0
    9.5434   31.0300   23.7722 H   0  0  0  0  0
  1  2  1  0  0  0
  1  3  2  0  0  0
  1  4  1  0  0  0
  1 23  1  0  0  0
  4  5  1  0  0  0
  5  6  1  0  0  0
  6  7  1  0  0  0
  6  8  1  0  0  0
  7 12  1  0  0  0
  8  9  1  0  0  0
  8 10  1  0  0  0
 10 11  1  0  0  0
 10 12  1  0  0  0
 12 13  1  0  0  0
 13 14  4  0  0  0
 13 22  4  0  0  0
 14 15  4  0  0  0
 15 16  4  0  0  0
 16 17  4  0  0  0
 16 22  4  0  0  0
 17 18  1  0  0  0
 17 19  4  0  0  0
 19 20  4  0  0  0
 20 21  4  0  0  0
 21 22  4  0  0  0
 23 24  1  0  0  0
 24 25  2  0  0  0
 24 26  1  0  0  0
 24 27  1  0  0  0
 27 28  1  0  0  0
 28 29  1  0  0  0
 29 30  1  0  0  0
 29 31  1  0  0  0
 30 35  1  0  0  0
 31 32  1  0  0  0
 31 33  1  0  0  0
 33 34  1  0  0  0
 33 35  1  0  0  0
 35 36  1  0  0  0
 36 37  1  0  0  0
 36 44  1  0  0  0
 37 38  2  0  0  0
 38 39  1  0  0  0
 38 42  1  0  0  0
 39 40  2  0  0  0
 39 41  1  0  0  0
 42 43  1  0  0  0
 43 44  2  0  0  0
  2 45  1  0  0  0
  5 46  1  0  0  0
  5 47  1  0  0  0
  6 48  1  0  0  0
  8 49  1  0  0  0
  9 50  1  0  0  0
 10 51  1  0  0  0
 11 52  1  0  0  0
 12 53  1  0  0  0
 14 54  1  0  0  0
 18 55  1  0  0  0
 18 56  1  0  0  0
 20 57  1  0  0  0
 26 58  1  0  0  0
 28 59  1  0  0  0
 28 60  1  0  0  0
 29 61  1  0  0  0
 31 62  1  0  0  0
 32 63  1  0  0  0
 33 64  1  0  0  0
 34 65  1  0  0  0
 35 66  1  0  0  0
 37 67  1  0  0  0
 41 68  1  0  0  0
 41 69  1  0  0  0
 41 70  1  0  0  0
 42 71  1  0  0  0
 42 72  1  0  0  0
 43 73  1  0  0  0
 44 74  1  0  0  0
M  END
$$$$
