4his_ligand
  -I-interpret- 

 27 29  0  0  0  0  0  0  0  0999 V2000
   -0.4960    0.7860    0.4060 O   0  0  0  0  0
   -2.0390    1.9230   -0.5970 O   0  0  0  0  0
    0.2140   -0.4800   -1.8940 C   0  0  0  0  0
    0.6470   -1.0250   -3.0910 C   0  0  0  0  0
    0.0020    0.0130  -10.4790 C   0  0  0  0  0
    0.3700   -1.1200   -8.3480 C   0  0  0  0  0
   -0.3830    1.1500   -8.3570 C   0  0  0  0  0
   -1.0050    1.1780   -3.1230 C   0  0  0  0  0
    0.5550   -0.8230   -5.4960 N   0  0  0  0  0
   -0.7240    0.9400   -5.5870 O   0  0  0  0  0
   -1.0610    1.1380   -0.6590 C   0  0  0  0  0
    0.3620   -1.1180   -9.7460 C   0  0  0  0  0
   -0.3610    1.1410   -9.7500 C   0  0  0  0  0
   -0.6360    0.6190   -1.8930 C   0  0  0  0  0
   -0.0010    0.0220   -7.6450 C   0  0  0  0  0
   -0.0340    0.0410   -6.3130 C   0  0  0  0  0
    0.2670   -0.4700   -4.2400 C   0  0  0  0  0
   -0.5390    0.6130   -4.2570 C   0  0  0  0  0
    0.7960   -2.5700  -10.6060 Cl  0  0  0  0  0
   -0.7890    2.5770  -10.6070 Cl  0  0  0  0  0
    0.2282    0.1901    0.2009 H   0  0  0  0  0
    0.5411   -0.9146   -0.9494 H   0  0  0  0  0
    1.2943   -1.9020   -3.0926 H   0  0  0  0  0
    0.0050    0.0130  -11.5690 H   0  0  0  0  0
    0.6676   -2.0185   -7.8074 H   0  0  0  0  0
   -0.7014    2.0463   -7.8246 H   0  0  0  0  0
   -1.6554    2.0517   -3.1638 H   0  0  0  0  0
 11  1  1  0  0  0
 11  2  2  0  0  0
  4  3  4  0  0  0
 14  3  4  0  0  0
 17  4  4  0  0  0
 12  5  4  0  0  0
 13  5  4  0  0  0
  6 12  4  0  0  0
 15  6  4  0  0  0
  7 13  4  0  0  0
 15  7  4  0  0  0
  8 14  4  0  0  0
 18  8  4  0  0  0
 16  9  4  0  0  0
  9 17  4  0  0  0
 16 10  4  0  0  0
 10 18  4  0  0  0
 14 11  1  0  0  0
 12 19  1  0  0  0
 13 20  1  0  0  0
 15 16  1  0  0  0
 17 18  4  0  0  0
  1 21  1  0  0  0
  3 22  1  0  0  0
  4 23  1  0  0  0
  5 24  1  0  0  0
  6 25  1  0  0  0
  7 26  1  0  0  0
  8 27  1  0  0  0
M  END
$$$$
