6a84_ligand
  -I-interpret- 

 49 53  0  0  0  0  0  0  0  0999 V2000
    2.3890  -11.8920   -7.2460 C   0  0  0  0  0
    2.1430  -12.5190   -5.9090 C   0  0  0  0  0
    1.8150  -13.7790   -5.5480 C   0  0  0  0  0
    1.6420  -14.2520   -4.2420 C   0  0  0  0  0
    1.8800  -13.2930   -3.2200 C   0  0  0  0  0
    3.7460  -12.7660  -15.8840 C   0  0  0  0  0
    3.4800  -12.5200  -14.4070 C   0  0  0  0  0
    2.0980  -12.3900  -13.9380 C   0  0  0  0  0
    3.0920  -12.0450  -11.6960 C   0  0  0  0  0
    3.8850  -11.6470   -9.3040 C   0  0  0  0  0
    3.6290  -12.3380   -7.9690 C   0  0  0  0  0
    2.2630  -11.9510   -3.5360 C   0  0  0  0  0
    2.4060  -11.5860   -4.9030 C   0  0  0  0  0
    2.7410  -10.4350   -6.9230 C   0  0  0  0  0
    1.2530  -12.1430   -8.2000 C   0  0  0  0  0
    1.4200  -11.5970   -9.6390 C   0  0  0  0  0
    4.4940  -12.4010  -13.5320 C   0  0  0  0  0
    6.0040  -12.5350  -14.0270 C   0  0  0  0  0
    6.1630  -13.0390  -15.4400 C   0  0  0  0  0
    5.1390  -12.3720  -16.3260 C   0  0  0  0  0
    1.8700  -12.1490  -12.5080 N   0  0  0  0  0
    2.7930  -11.8000  -10.2810 N   0  0  0  0  0
    2.7650  -10.3290   -5.4270 N   0  0  0  0  0
    4.2700  -12.1530  -12.1770 N   0  0  0  0  0
    1.0480  -12.4770  -14.6320 O   0  0  0  0  0
    1.5310  -14.9770   -6.8910 Cl  0  0  0  0  0
    1.3469  -15.2786   -4.0249 H   0  0  0  0  0
    1.7686  -13.5855   -2.1759 H   0  0  0  0  0
    3.0406  -12.1557  -16.4480 H   0  0  0  0  0
    3.6389  -13.8363  -16.0603 H   0  0  0  0  0
    4.7729  -12.1057   -9.7390 H   0  0  0  0  0
    3.9880  -10.5811   -9.1004 H   0  0  0  0  0
    3.5015  -13.3988   -8.1847 H   0  0  0  0  0
    4.4728  -12.0946   -7.3233 H   0  0  0  0  0
    2.4416  -11.2230   -2.7447 H   0  0  0  0  0
    2.0095   -9.7506   -7.3527 H   0  0  0  0  0
    3.7053  -10.1607   -7.3508 H   0  0  0  0  0
    0.3895  -11.6263   -7.7812 H   0  0  0  0  0
    1.1760  -13.2260   -8.2968 H   0  0  0  0  0
    1.2691  -10.5193   -9.5758 H   0  0  0  0  0
    0.7098  -12.1455  -10.2577 H   0  0  0  0  0
    6.4879  -13.2621  -13.3749 H   0  0  0  0  0
    6.4373  -11.5353  -13.9965 H   0  0  0  0  0
    6.0155  -14.1188  -15.4609 H   0  0  0  0  0
    7.1648  -12.8050  -15.8002 H   0  0  0  0  0
    5.2483  -11.2900  -16.2526 H   0  0  0  0  0
    5.2933  -12.6886  -17.3575 H   0  0  0  0  0
    2.9992   -9.4963   -4.8864 H   0  0  0  0  0
    5.0706  -12.0552  -11.5526 H   0  0  0  0  0
  1  2  1  0  0  0
 11  1  1  0  0  0
  1 14  1  0  0  0
  1 15  1  0  0  0
  2  3  4  0  0  0
  2 13  4  0  0  0
  3  4  4  0  0  0
  3 26  1  0  0  0
  4  5  4  0  0  0
  5 12  4  0  0  0
  7  6  1  0  0  0
  6 20  1  0  0  0
  8  7  1  0  0  0
  7 17  2  0  0  0
 21  8  1  0  0  0
  8 25  2  0  0  0
  9 21  4  0  0  0
 22  9  1  0  0  0
  9 24  1  0  0  0
 10 11  1  0  0  0
 10 22  1  0  0  0
 12 13  4  0  0  0
 13 23  1  0  0  0
 14 23  1  0  0  0
 15 16  1  0  0  0
 16 22  1  0  0  0
 17 18  1  0  0  0
 17 24  1  0  0  0
 18 19  1  0  0  0
 19 20  1  0  0  0
  4 27  1  0  0  0
  5 28  1  0  0  0
  6 29  1  0  0  0
  6 30  1  0  0  0
 10 31  1  0  0  0
 10 32  1  0  0  0
 11 33  1  0  0  0
 11 34  1  0  0  0
 12 35  1  0  0  0
 14 36  1  0  0  0
 14 37  1  0  0  0
 15 38  1  0  0  0
 15 39  1  0  0  0
 16 40  1  0  0  0
 16 41  1  0  0  0
 18 42  1  0  0  0
 18 43  1  0  0  0
 19 44  1  0  0  0
 19 45  1  0  0  0
 20 46  1  0  0  0
 20 47  1  0  0  0
 23 48  1  0  0  0
 24 49  1  0  0  0
M  END
$$$$
