5nxo_ligand
  -I-interpret- 

 32 33  0  0  0  0  0  0  0  0999 V2000
   -3.0750    8.8730   14.8010 C   0  0  0  0  0
   -2.0380    9.7580   15.0470 C   0  0  0  0  0
   -1.0360    9.9470   14.1000 C   0  0  0  0  0
   -0.0390   10.8060   14.3530 N   0  0  0  0  0
   -0.1460   11.5910   15.3980 O   0  0  0  0  0
    0.9660   10.8860   13.4730 O   0  0  0  0  0
   -1.0690    9.1960   12.9270 C   0  0  0  0  0
   -2.1290    8.3230   12.6820 C   0  0  0  0  0
   -3.1370    8.1450   13.6270 C   0  0  0  0  0
   -4.2730    7.3120   13.3540 C   0  0  0  0  0
   -4.6520    6.2510   14.2520 C   0  0  0  0  0
   -5.9800    6.1260   14.6560 C   0  0  0  0  0
   -6.3920    5.0650   15.4530 C   0  0  0  0  0
   -5.4720    4.0780   15.8350 C   0  0  0  0  0
   -6.0670    2.6720   16.7820 S   0  0  0  0  0
   -5.4800    2.8250   18.1430 O   0  0  0  0  0
   -7.5250    2.7110   16.6980 O   0  0  0  0  0
   -5.4990    1.3840   16.0690 N   0  0  0  0  0
   -4.1210    4.1820   15.4710 C   0  0  0  0  0
   -3.7440    5.2720   14.6760 C   0  0  0  0  0
   -3.8584    8.7479   15.5485 H   0  0  0  0  0
   -2.0068   10.3090   15.9870 H   0  0  0  0  0
   -0.2639    9.2909   12.1984 H   0  0  0  0  0
   -2.1691    7.7742   11.7411 H   0  0  0  0  0
   -4.0043    6.7941   12.4333 H   0  0  0  0  0
   -5.1179    7.9998   13.3879 H   0  0  0  0  0
   -6.7081    6.8736   14.3413 H   0  0  0  0  0
   -7.4294    4.9999   15.7810 H   0  0  0  0  0
   -4.8226    0.7912   16.5501 H   0  0  0  0  0
   -5.8082    1.1443   15.1270 H   0  0  0  0  0
   -3.3906    3.4408   15.7954 H   0  0  0  0  0
   -2.7004    5.3622   14.3746 H   0  0  0  0  0
  1  2  4  0  0  0
  1  9  4  0  0  0
  2  3  4  0  0  0
  3  4  1  0  0  0
  3  7  4  0  0  0
  4  5  2  0  0  0
  4  6  2  0  0  0
  7  8  4  0  0  0
  8  9  4  0  0  0
  9 10  1  0  0  0
 10 11  1  0  0  0
 11 12  4  0  0  0
 11 20  4  0  0  0
 12 13  4  0  0  0
 13 14  4  0  0  0
 14 15  1  0  0  0
 14 19  4  0  0  0
 15 16  2  0  0  0
 15 17  2  0  0  0
 15 18  1  0  0  0
 19 20  4  0  0  0
  1 21  1  0  0  0
  2 22  1  0  0  0
  7 23  1  0  0  0
  8 24  1  0  0  0
 10 25  1  0  0  0
 10 26  1  0  0  0
 12 27  1  0  0  0
 13 28  1  0  0  0
 18 29  1  0  0  0
 18 30  1  0  0  0
 19 31  1  0  0  0
 20 32  1  0  0  0
M  END
$$$$
