6maj_ligand
  -I-interpret- 

 45 47  0  0  0  0  0  0  0  0999 V2000
   26.0900  187.9670  -69.1910 C   0  0  0  0  0
   26.7040  187.2460  -70.1710 C   0  0  0  0  0
   27.1240  185.9670  -69.9030 C   0  0  0  0  0
   26.9180  185.4230  -68.6480 C   0  0  0  0  0
   26.3020  186.1520  -67.6740 C   0  0  0  0  0
   25.8810  187.4240  -67.9400 C   0  0  0  0  0
   29.3520  188.5100  -75.7630 C   0  0  0  0  0
   29.0600  189.9480  -75.1340 C   0  0  0  0  0
   29.5930  191.0580  -75.7010 C   0  0  0  0  0
   29.3380  192.2890  -75.1610 C   0  0  0  0  0
   28.5600  192.3970  -74.0620 C   0  0  0  0  0
   28.0360  191.3100  -73.5060 C   0  0  0  0  0
   28.2900  190.0590  -74.0460 C   0  0  0  0  0
   27.1260  191.4370  -72.1910 C   0  0  0  0  0
   29.9070  193.5000  -75.7460 C   0  0  0  0  0
   31.1780  193.4560  -76.3130 C   0  0  0  0  0
   31.7400  194.6090  -76.8630 C   0  0  0  0  0
   31.0180  195.8280  -76.8390 C   0  0  0  0  0
   29.7680  195.8720  -76.2700 C   0  0  0  0  0
   29.1980  194.6940  -75.7120 C   0  0  0  0  0
   27.7350  188.9330  -73.4580 F   0  0  0  0  0
   27.5610  190.6820  -71.0000 N   0  0  0  0  0
   26.8050  190.7350  -69.7550 N   0  0  0  0  0
   26.1550  192.1260  -72.1680 O   0  0  0  0  0
   24.6180  189.6770  -70.6490 O   0  0  0  0  0
   24.6380  190.1840  -68.4520 O   0  0  0  0  0
   26.0850  185.5920  -66.3690 O   0  0  0  0  0
   25.5060  189.6860  -69.5230 S   0  0  0  0  0
   26.8601  187.6808  -71.1582 H   0  0  0  0  0
   27.6189  185.3812  -70.6776 H   0  0  0  0  0
   27.2497  184.4065  -68.4365 H   0  0  0  0  0
   25.3818  188.0079  -67.1667 H   0  0  0  0  0
   28.9867  188.4829  -76.7896 H   0  0  0  0  0
   30.4255  188.3216  -75.7529 H   0  0  0  0  0
   28.8424  187.7471  -75.1744 H   0  0  0  0  0
   30.2237  190.9700  -76.5856 H   0  0  0  0  0
   28.3617  193.3781  -73.6304 H   0  0  0  0  0
   31.7351  192.5192  -76.3273 H   0  0  0  0  0
   32.7332  194.5718  -77.3105 H   0  0  0  0  0
   31.4533  196.7291  -77.2711 H   0  0  0  0  0
   29.2130  196.8098  -76.2462 H   0  0  0  0  0
   28.2072  194.7283  -75.2589 H   0  0  0  0  0
   28.4060  190.1128  -71.0489 H   0  0  0  0  0
   27.0606  191.4032  -69.0280 H   0  0  0  0  0
   25.6426  186.2385  -65.8141 H   0  0  0  0  0
  1  2  4  0  0  0
  1  6  4  0  0  0
 28  1  1  0  0  0
  2  3  4  0  0  0
  3  4  4  0  0  0
  5  4  4  0  0  0
  6  5  4  0  0  0
  5 27  1  0  0  0
  8  7  1  0  0  0
  8  9  4  0  0  0
 13  8  4  0  0  0
 10  9  4  0  0  0
 11 10  4  0  0  0
 10 15  1  0  0  0
 12 11  4  0  0  0
 12 13  4  0  0  0
 14 12  1  0  0  0
 13 21  1  0  0  0
 22 14  1  0  0  0
 14 24  2  0  0  0
 15 16  4  0  0  0
 15 20  4  0  0  0
 16 17  4  0  0  0
 17 18  4  0  0  0
 19 18  4  0  0  0
 20 19  4  0  0  0
 23 22  1  0  0  0
 23 28  1  0  0  0
 28 25  2  0  0  0
 28 26  2  0  0  0
  2 29  1  0  0  0
  3 30  1  0  0  0
  4 31  1  0  0  0
  6 32  1  0  0  0
  7 33  1  0  0  0
  7 34  1  0  0  0
  7 35  1  0  0  0
  9 36  1  0  0  0
 11 37  1  0  0  0
 16 38  1  0  0  0
 17 39  1  0  0  0
 18 40  1  0  0  0
 19 41  1  0  0  0
 20 42  1  0  0  0
 22 43  1  0  0  0
 23 44  1  0  0  0
 27 45  1  0  0  0
M  END
$$$$
