5i8b_ligand
  -I-interpret- 

 49 52  0  0  0  0  0  0  0  0999 V2000
   26.5240   12.3280   14.7010 C   0  0  0  0  0
   26.3070   12.4370   13.2270 C   0  0  0  0  0
   30.7420   14.8730   13.8000 C   0  0  0  0  0
   28.3500   13.7320   13.0030 C   0  0  0  0  0
   28.6860   15.0090   12.5750 C   0  0  0  0  0
   29.8750   15.5830   12.9920 C   0  0  0  0  0
   30.4270   13.5740   14.2240 C   0  0  0  0  0
   29.2120   12.9840   13.8240 C   0  0  0  0  0
   27.2050    9.9600   14.6170 C   0  0  0  0  0
   27.6740   11.3660   14.9910 C   0  0  0  0  0
   25.3490   11.9340   12.6600 O   0  0  0  0  0
   27.1760   13.1510   12.5120 N   0  0  0  0  0
   28.9190   11.6700   14.2350 N   0  0  0  0  0
   31.4010   12.8540   15.0830 C   0  0  0  0  0
   31.1260   12.4870   16.4000 C   0  0  0  0  0
   32.0910   11.8220   17.1400 C   0  0  0  0  0
   33.3250   11.5140   16.5930 C   0  0  0  0  0
   33.6010   11.8710   15.2800 C   0  0  0  0  0
   32.6490   12.5470   14.5300 C   0  0  0  0  0
   34.8170   11.5630   14.7520 O   0  0  0  0  0
   35.0940   11.8670   13.3790 C   0  0  0  0  0
   36.5010   11.4050   13.0960 C   0  0  0  0  0
   37.4670   12.3080   12.6800 C   0  0  0  0  0
   38.7560   11.8710   12.4310 C   0  0  0  0  0
   39.0800   10.5360   12.6050 C   0  0  0  0  0
   38.1160    9.6360   13.0210 C   0  0  0  0  0
   36.8270   10.0720   13.2720 C   0  0  0  0  0
   25.6150   11.9514   15.1700 H   0  0  0  0  0
   26.7705   13.3117   15.1005 H   0  0  0  0  0
   31.6822   15.3280   14.1117 H   0  0  0  0  0
   28.0162   15.5579   11.9130 H   0  0  0  0  0
   30.1275   16.5971   12.6822 H   0  0  0  0  0
   27.0084    9.9169   13.5457 H   0  0  0  0  0
   27.9809    9.2390   14.8746 H   0  0  0  0  0
   26.2925    9.7250   15.1649 H   0  0  0  0  0
   27.9241   11.4619   16.0476 H   0  0  0  0  0
   26.9673   13.2852   11.5226 H   0  0  0  0  0
   29.5688   10.9162   14.0116 H   0  0  0  0  0
   30.1587   12.7215   16.8444 H   0  0  0  0  0
   31.8748   11.5368   18.1696 H   0  0  0  0  0
   34.0751   10.9945   17.1894 H   0  0  0  0  0
   32.8747   12.8403   13.5048 H   0  0  0  0  0
   34.9968   12.9370   13.1953 H   0  0  0  0  0
   34.3847   11.3622   12.7231 H   0  0  0  0  0
   37.2118   13.3596   12.5494 H   0  0  0  0  0
   39.5163   12.5775   12.0979 H   0  0  0  0  0
   40.0970   10.1938   12.4137 H   0  0  0  0  0
   38.3713    8.5843   13.1510 H   0  0  0  0  0
   36.0684    9.3652   13.6084 H   0  0  0  0  0
  2  1  1  0  0  0
  1 10  1  0  0  0
  2 11  2  0  0  0
 12  2  1  0  0  0
  6  3  4  0  0  0
  3  7  4  0  0  0
  5  4  4  0  0  0
  4  8  4  0  0  0
  4 12  1  0  0  0
  5  6  4  0  0  0
  7  8  4  0  0  0
  7 14  1  0  0  0
  8 13  1  0  0  0
 10  9  1  0  0  0
 10 13  1  0  0  0
 14 15  4  0  0  0
 14 19  4  0  0  0
 15 16  4  0  0  0
 16 17  4  0  0  0
 17 18  4  0  0  0
 18 19  4  0  0  0
 18 20  1  0  0  0
 20 21  1  0  0  0
 21 22  1  0  0  0
 22 23  4  0  0  0
 22 27  4  0  0  0
 23 24  4  0  0  0
 24 25  4  0  0  0
 25 26  4  0  0  0
 26 27  4  0  0  0
  1 28  1  0  0  0
  1 29  1  0  0  0
  3 30  1  0  0  0
  5 31  1  0  0  0
  6 32  1  0  0  0
  9 33  1  0  0  0
  9 34  1  0  0  0
  9 35  1  0  0  0
 10 36  1  0  0  0
 12 37  1  0  0  0
 13 38  1  0  0  0
 15 39  1  0  0  0
 16 40  1  0  0  0
 17 41  1  0  0  0
 19 42  1  0  0  0
 21 43  1  0  0  0
 21 44  1  0  0  0
 23 45  1  0  0  0
 24 46  1  0  0  0
 25 47  1  0  0  0
 26 48  1  0  0  0
 27 49  1  0  0  0
M  END
$$$$
