3omm_ligand
  -I-interpret- 

 61 65  0  0  0  0  0  0  0  0999 V2000
   12.9810   24.0630    3.5100 N   0  0  0  0  0
   13.8570   24.7570    2.7100 C   0  0  0  0  0
   13.2470   25.7640    2.1550 N   0  0  0  0  0
   11.7750   24.6890    3.4130 C   0  0  0  0  0
   11.9630   25.7760    2.5420 C   0  0  0  0  0
   12.3870   21.7510    3.9800 C   0  0  0  0  0
   13.2960   22.8910    4.3450 C   0  0  0  0  0
   10.5500   24.4400    4.0080 C   0  0  0  0  0
   12.0580   21.6120    2.6660 N   0  0  0  0  0
   10.8810   26.6170    2.2720 C   0  0  0  0  0
    9.5030   25.2750    3.7390 C   0  0  0  0  0
   11.1750   20.6570    2.1580 C   0  0  0  0  0
    8.4240   17.7020    0.7000 C   0  0  0  0  0
   15.2670   24.3620    2.5130 C   0  0  0  0  0
    9.6690   26.3360    2.8600 C   0  0  0  0  0
    9.3630   18.7370    1.2150 C   0  0  0  0  0
   11.5600   19.3330    2.0340 C   0  0  0  0  0
   10.6660   18.3760    1.5710 C   0  0  0  0  0
   11.9640   21.0010    4.8510 O   0  0  0  0  0
    8.8080   16.5740    0.6150 O   0  0  0  0  0
    9.8650   21.0340    1.8220 C   0  0  0  0  0
    8.9890   20.0820    1.3210 C   0  0  0  0  0
   13.2270   23.2860    5.8410 C   0  0  0  0  0
   16.2780   25.1200    3.0880 C   0  0  0  0  0
   15.5810   23.1560    1.8700 C   0  0  0  0  0
    8.3170   25.0340    4.3400 F   0  0  0  0  0
    8.6210   27.1270    2.6080 F   0  0  0  0  0
   12.7930   18.9690    2.4420 F   0  0  0  0  0
    7.1660   17.9770    0.2900 O   0  0  0  0  0
   17.9080   23.5550    2.2660 C   0  0  0  0  0
   16.8980   22.7470    1.7700 C   0  0  0  0  0
   17.5810   24.7170    2.9490 C   0  0  0  0  0
   19.5890   23.1000    2.1280 Cl  0  0  0  0  0
   13.8810   22.2020    6.7140 C   0  0  0  0  0
   13.9930   24.6000    6.0520 C   0  0  0  0  0
   13.9010   25.0240    7.5330 C   0  0  0  0  0
   13.9050   22.6010    8.1990 C   0  0  0  0  0
   14.6330   23.9460    8.3530 C   0  0  0  0  0
   14.3136   22.5466    4.1608 H   0  0  0  0  0
   10.4231   23.5914    4.6802 H   0  0  0  0  0
   12.4896   22.2547    2.0019 H   0  0  0  0  0
   10.9940   27.4761    1.6108 H   0  0  0  0  0
   10.9824   17.3365    1.4846 H   0  0  0  0  0
    9.5390   22.0658    1.9536 H   0  0  0  0  0
    7.9916   20.3867    1.0042 H   0  0  0  0  0
   12.1801   23.3986    6.1229 H   0  0  0  0  0
   16.0383   26.0262    3.6442 H   0  0  0  0  0
   14.7862   22.5405    1.4487 H   0  0  0  0  0
    6.9880   18.9124    0.4124 H   0  0  0  0  0
   17.1406   21.7926    1.3027 H   0  0  0  0  0
   18.3763   25.3222    3.3842 H   0  0  0  0  0
   14.9095   22.0672    6.3791 H   0  0  0  0  0
   13.2991   21.2857    6.6151 H   0  0  0  0  0
   13.5556   25.3776    5.4258 H   0  0  0  0  0
   15.0391   24.4556    5.7819 H   0  0  0  0  0
   12.8607   25.1088    7.8471 H   0  0  0  0  0
   14.3581   26.0019    7.6844 H   0  0  0  0  0
   14.4272   21.8360    8.7736 H   0  0  0  0  0
   12.8836   22.6951    8.5677 H   0  0  0  0  0
   14.6438   24.2345    9.4041 H   0  0  0  0  0
   15.6567   23.8480    7.9917 H   0  0  0  0  0
  1  2  4  0  0  0
  1  4  4  0  0  0
  7  1  1  0  0  0
  2  3  4  0  0  0
  2 14  1  0  0  0
  5  3  4  0  0  0
  4  5  4  0  0  0
  4  8  4  0  0  0
  5 10  4  0  0  0
  6  7  1  0  0  0
  9  6  1  0  0  0
  6 19  2  0  0  0
  7 23  1  0  0  0
  8 11  4  0  0  0
 12  9  1  0  0  0
 10 15  4  0  0  0
 11 15  4  0  0  0
 11 26  1  0  0  0
 17 12  4  0  0  0
 12 21  4  0  0  0
 16 13  1  0  0  0
 13 20  2  0  0  0
 13 29  1  0  0  0
 14 24  4  0  0  0
 14 25  4  0  0  0
 15 27  1  0  0  0
 18 16  4  0  0  0
 16 22  4  0  0  0
 17 18  4  0  0  0
 17 28  1  0  0  0
 21 22  4  0  0  0
 23 34  1  0  0  0
 23 35  1  0  0  0
 24 32  4  0  0  0
 25 31  4  0  0  0
 31 30  4  0  0  0
 30 32  4  0  0  0
 30 33  1  0  0  0
 34 37  1  0  0  0
 35 36  1  0  0  0
 36 38  1  0  0  0
 37 38  1  0  0  0
  7 39  1  0  0  0
  8 40  1  0  0  0
  9 41  1  0  0  0
 10 42  1  0  0  0
 18 43  1  0  0  0
 21 44  1  0  0  0
 22 45  1  0  0  0
 23 46  1  0  0  0
 24 47  1  0  0  0
 25 48  1  0  0  0
 29 49  1  0  0  0
 31 50  1  0  0  0
 32 51  1  0  0  0
 34 52  1  0  0  0
 34 53  1  0  0  0
 35 54  1  0  0  0
 35 55  1  0  0  0
 36 56  1  0  0  0
 36 57  1  0  0  0
 37 58  1  0  0  0
 37 59  1  0  0  0
 38 60  1  0  0  0
 38 61  1  0  0  0
M  END
$$$$
