4m5h_ligand
  -I-interpret- 

 29 31  0  0  0  0  0  0  0  0999 V2000
   73.9470    8.1060   67.4920 C   0  0  0  0  0
   72.9230    7.8280   66.5890 N   0  0  0  0  0
   72.4150    8.7750   65.6860 C   0  0  0  0  0
   72.8920   10.0810   65.6070 N   0  0  0  0  0
   73.9410   10.3780   66.5390 C   0  0  0  0  0
   74.4680    9.4920   67.4360 C   0  0  0  0  0
   74.3460    7.2370   68.2640 O   0  0  0  0  0
   71.4000    8.4070   64.8290 N   0  0  0  0  0
   74.5430   11.5550   66.6850 N   0  0  0  0  0
   75.4630   11.3880   67.6590 C   0  0  0  0  0
   75.4280   10.1220   68.1550 N   0  0  0  0  0
   76.4770   12.6610   68.2250 S   0  0  0  0  0
   75.5470   13.3010   69.6060 C   0  0  0  0  0
   74.3270   14.0660   69.1780 C   0  0  0  0  0
   72.9690   13.4440   69.2050 C   0  0  0  0  0
   71.7730   14.2240   68.7720 C   0  0  0  0  0
   71.9380   15.6270   68.3040 C   0  0  0  0  0
   73.2840   16.2550   68.2750 C   0  0  0  0  0
   74.4720   15.4750   68.7130 C   0  0  0  0  0
   70.7510   16.4050   67.8680 C   0  0  0  0  0
   69.8440   17.0080   67.5320 N   0  0  0  0  0
   72.5275   10.7659   64.9448 H   0  0  0  0  0
   71.0283    7.4575   64.8566 H   0  0  0  0  0
   76.1936   13.9833   70.1578 H   0  0  0  0  0
   75.2173   12.4547   70.2087 H   0  0  0  0  0
   72.8512   12.4144   69.5430 H   0  0  0  0  0
   70.7832   13.7684   68.7983 H   0  0  0  0  0
   73.4004   17.2837   67.9339 H   0  0  0  0  0
   75.4586   15.9381   68.6939 H   0  0  0  0  0
  1  2  1  0  0  0
  1  6  1  0  0  0
  1  7  2  0  0  0
  2  3  4  0  0  0
  3  4  1  0  0  0
  3  8  2  0  0  0
  4  5  1  0  0  0
  5  6  4  0  0  0
  5  9  4  0  0  0
  6 11  4  0  0  0
  9 10  4  0  0  0
 10 11  4  0  0  0
 10 12  1  0  0  0
 12 13  1  0  0  0
 13 14  1  0  0  0
 14 15  4  0  0  0
 14 19  4  0  0  0
 15 16  4  0  0  0
 16 17  4  0  0  0
 17 18  4  0  0  0
 17 20  1  0  0  0
 18 19  4  0  0  0
 20 21  3  0  0  0
  4 22  1  0  0  0
  8 23  1  0  0  0
 13 24  1  0  0  0
 13 25  1  0  0  0
 15 26  1  0  0  0
 16 27  1  0  0  0
 18 28  1  0  0  0
 19 29  1  0  0  0
M  END
$$$$
