5l6j_ligand
  -I-interpret- 

 54 57  0  0  0  0  0  0  0  0999 V2000
  -13.4540   28.0480  -14.3040 O   0  0  0  0  0
  -12.5440   30.4410  -19.9920 O   0  0  0  0  0
  -12.5310   28.0060  -19.6590 O   0  0  0  0  0
  -14.3370   27.2910  -16.9140 O   0  0  0  0  0
  -10.6170   25.0020  -13.4390 C   0  0  0  0  0
  -10.1130   23.9600  -12.4770 C   0  0  0  0  0
   -8.6010   25.4430  -11.6840 C   0  0  0  0  0
   -7.6010   26.0070  -10.9790 C   0  0  0  0  0
   -7.4500   27.3960  -11.4330 C   0  0  0  0  0
   -6.5200   28.4310  -10.9740 C   0  0  0  0  0
   -4.6820   30.3940  -10.0380 C   0  0  0  0  0
   -4.7050   29.1170   -9.4880 C   0  0  0  0  0
   -5.6030   28.1500   -9.9550 C   0  0  0  0  0
   -2.3340   27.6490   -8.8660 C   0  0  0  0  0
  -12.5070   28.1810  -15.3760 C   0  0  0  0  0
  -13.0750   27.9540  -16.7830 C   0  0  0  0  0
  -13.6360   29.0770  -21.5500 O   0  0  0  0  0
  -12.5050   29.1790  -20.6810 S   0  0  0  0  0
  -11.1170   29.1890  -21.4950 N   0  0  0  0  0
  -11.4820   27.8170  -18.7080 C   0  0  0  0  0
  -12.0520   27.0840  -17.5120 C   0  0  0  0  0
  -10.9370   26.6850  -16.5630 C   0  0  0  0  0
  -11.4230   27.1750  -15.2580 C   0  0  0  0  0
  -10.3870   27.3440  -14.2750 N   0  0  0  0  0
  -10.0250   26.2140  -13.4190 C   0  0  0  0  0
   -9.1170   24.2130  -11.6170 N   0  0  0  0  0
   -9.0330   26.3750  -12.5410 N   0  0  0  0  0
   -8.3620   27.5840  -12.4360 N   0  0  0  0  0
   -6.4970   29.7190  -11.5250 C   0  0  0  0  0
   -5.5920   30.6780  -11.0600 C   0  0  0  0  0
   -3.6700   28.6320   -8.2520 S   0  0  0  0  0
   -1.4130   27.4640   -7.9350 F   0  0  0  0  0
   -1.7480   28.3400   -9.8170 F   0  0  0  0  0
   -2.7880   26.4800   -9.3110 F   0  0  0  0  0
  -13.0120   28.2062  -13.4666 H   0  0  0  0  0
  -14.5646   27.2194  -17.8439 H   0  0  0  0  0
  -11.4327   24.7847  -14.1285 H   0  0  0  0  0
  -10.5714   22.9711  -12.4799 H   0  0  0  0  0
   -7.0075   25.5180  -10.2065 H   0  0  0  0  0
   -3.9784   31.1476   -9.6842 H   0  0  0  0  0
   -5.5876   27.1533   -9.5139 H   0  0  0  0  0
  -12.1714   29.2130  -15.2734 H   0  0  0  0  0
  -13.2539   28.9544  -17.1771 H   0  0  0  0  0
  -10.4965   29.9963  -21.4352 H   0  0  0  0  0
  -10.8577   28.3880  -22.0708 H   0  0  0  0  0
  -11.0792   28.7814  -18.3986 H   0  0  0  0  0
  -10.6740   27.2360  -19.1527 H   0  0  0  0  0
  -12.5546   26.1845  -17.8676 H   0  0  0  0  0
   -9.9723   27.1090  -16.8416 H   0  0  0  0  0
  -10.7420   25.6126  -16.5664 H   0  0  0  0  0
  -11.9761   26.3710  -14.7725 H   0  0  0  0  0
   -9.9105   28.2404  -14.1758 H   0  0  0  0  0
   -7.1919   29.9761  -12.3245 H   0  0  0  0  0
   -5.5963   31.6726  -11.5060 H   0  0  0  0  0
 15  1  1  0  0  0
 18  2  2  0  0  0
  3 18  1  0  0  0
 20  3  1  0  0  0
 16  4  1  0  0  0
  5  6  4  0  0  0
 25  5  4  0  0  0
  6 26  4  0  0  0
  7  8  4  0  0  0
 26  7  4  0  0  0
  7 27  4  0  0  0
  8  9  4  0  0  0
  9 10  1  0  0  0
  9 28  4  0  0  0
 10 13  4  0  0  0
 10 29  4  0  0  0
 12 11  4  0  0  0
 11 30  4  0  0  0
 13 12  4  0  0  0
 12 31  1  0  0  0
 31 14  1  0  0  0
 14 32  1  0  0  0
 14 33  1  0  0  0
 14 34  1  0  0  0
 15 16  1  0  0  0
 23 15  1  0  0  0
 21 16  1  0  0  0
 18 17  2  0  0  0
 18 19  1  0  0  0
 21 20  1  0  0  0
 22 21  1  0  0  0
 23 22  1  0  0  0
 24 23  1  0  0  0
 24 25  1  0  0  0
 25 27  4  0  0  0
 27 28  4  0  0  0
 29 30  4  0  0  0
  1 35  1  0  0  0
  4 36  1  0  0  0
  5 37  1  0  0  0
  6 38  1  0  0  0
  8 39  1  0  0  0
 11 40  1  0  0  0
 13 41  1  0  0  0
 15 42  1  0  0  0
 16 43  1  0  0  0
 19 44  1  0  0  0
 19 45  1  0  0  0
 20 46  1  0  0  0
 20 47  1  0  0  0
 21 48  1  0  0  0
 22 49  1  0  0  0
 22 50  1  0  0  0
 23 51  1  0  0  0
 24 52  1  0  0  0
 29 53  1  0  0  0
 30 54  1  0  0  0
M  END
$$$$
