1lhc_ligand
  -I-interpret- 

 66 67  0  0  0  0  0  0  0  0999 V2000
   14.9200  -11.6050   19.6240 C   0  0  0  0  0
   15.1520  -10.7780   18.3210 B   0  0  0  0  0
   13.8680  -10.9770   20.5780 C   0  0  0  0  0
   13.0240  -11.9600   21.3870 C   0  0  0  0  0
   12.4600  -11.3720   22.6580 C   0  0  0  0  0
   10.6870  -12.0550   24.4080 C   0  0  0  0  0
   18.1490  -13.1300   21.2240 C   0  0  0  0  0
   16.8130  -12.9650   20.4300 C   0  0  0  0  0
   19.3610  -13.0570   20.2790 C   0  0  0  0  0
   20.0420  -14.4220   20.2840 C   0  0  0  0  0
   19.4810  -15.1750   21.4100 C   0  0  0  0  0
   17.4530  -14.8930   22.8660 C   0  0  0  0  0
   18.1530  -16.1470   25.0630 C   0  0  0  0  0
   17.6100  -16.2780   23.5950 C   0  0  0  0  0
   15.8020  -17.8590   22.8860 C   0  0  0  0  0
   14.3440  -18.2790   23.1070 C   0  0  0  0  0
   21.9520  -15.6830   24.6230 C   0  0  0  0  0
   22.2020  -14.5660   25.4200 C   0  0  0  0  0
   21.1590  -13.9760   26.1020 C   0  0  0  0  0
   19.8530  -14.4670   25.9800 C   0  0  0  0  0
   19.5890  -15.5820   25.1850 C   0  0  0  0  0
   20.6570  -16.2080   24.4980 C   0  0  0  0  0
   16.2060  -11.7670   20.3800 N   0  0  0  0  0
   11.6320  -12.3340   23.3950 N   0  0  0  0  0
    9.9480  -12.9740   24.8340 N   0  0  0  0  0
   10.5540  -10.7490   24.9570 N   0  0  0  0  0
   18.3140  -14.4440   21.9170 N   0  0  0  0  0
   16.2400  -16.8490   23.6650 N   0  0  0  0  0
   16.3120  -11.0190   17.5080 O   0  0  0  0  0
   14.0400  -10.6470   17.3290 O   0  0  0  0  0
   16.3480  -13.9610   19.8640 O   0  0  0  0  0
   16.4820  -14.1910   23.2090 O   0  0  0  0  0
   16.5130  -18.4380   22.0500 O   0  0  0  0  0
   14.5366  -12.5702   19.2931 H   0  0  0  0  0
   13.1724  -10.4258   19.9453 H   0  0  0  0  0
   14.4275  -10.3859   21.3031 H   0  0  0  0  0
   13.6718  -12.7894   21.6708 H   0  0  0  0  0
   12.1811  -12.2566   20.7628 H   0  0  0  0  0
   11.8334  -10.5217   22.3891 H   0  0  0  0  0
   13.2944  -11.0834   23.2972 H   0  0  0  0  0
   18.1009  -12.3234   21.9556 H   0  0  0  0  0
   20.0558  -12.2872   20.6148 H   0  0  0  0  0
   19.0382  -12.7998   19.2702 H   0  0  0  0  0
   21.1215  -14.3147   20.3906 H   0  0  0  0  0
   19.8662  -14.9448   19.3439 H   0  0  0  0  0
   20.2270  -15.2811   22.1976 H   0  0  0  0  0
   19.1848  -16.1717   21.0829 H   0  0  0  0  0
   18.1758  -17.1539   25.4798 H   0  0  0  0  0
   17.4958  -15.4470   25.5790 H   0  0  0  0  0
   18.3252  -16.8911   23.0467 H   0  0  0  0  0
   13.7887  -18.1629   22.1762 H   0  0  0  0  0
   14.3115  -19.3216   23.4233 H   0  0  0  0  0
   13.8989  -17.6500   23.8780 H   0  0  0  0  0
   22.7761  -16.1557   24.0886 H   0  0  0  0  0
   23.2116  -14.1636   25.5028 H   0  0  0  0  0
   21.3533  -13.1168   26.7440 H   0  0  0  0  0
   19.0377  -13.9745   26.5098 H   0  0  0  0  0
   20.4753  -17.0870   23.8796 H   0  0  0  0  0
   16.6203  -10.9662   20.8569 H   0  0  0  0  0
   11.7524  -13.3162   23.1477 H   0  0  0  0  0
   10.0314  -13.9151   24.4495 H   0  0  0  0  0
    9.8644  -10.5705   25.6871 H   0  0  0  0  0
   11.1482   -9.9914   24.6205 H   0  0  0  0  0
   15.5906  -16.4525   24.3443 H   0  0  0  0  0
   17.0823  -11.1167   18.0725 H   0  0  0  0  0
   13.2161  -10.4822   17.7934 H   0  0  0  0  0
  1  2  1  0  0  0
  1  3  1  0  0  0
 23  1  1  0  0  0
  2 29  1  0  0  0
  2 30  1  0  0  0
  3  4  1  0  0  0
  4  5  1  0  0  0
  5 24  1  0  0  0
 24  6  1  0  0  0
  6 25  2  0  0  0
  6 26  1  0  0  0
  7  8  1  0  0  0
  7  9  1  0  0  0
 27  7  1  0  0  0
  8 23  1  0  0  0
  8 31  2  0  0  0
 10  9  1  0  0  0
 11 10  1  0  0  0
 27 11  1  0  0  0
 14 12  1  0  0  0
 12 27  1  0  0  0
 12 32  2  0  0  0
 13 14  1  0  0  0
 21 13  1  0  0  0
 14 28  1  0  0  0
 15 16  1  0  0  0
 28 15  1  0  0  0
 15 33  2  0  0  0
 18 17  4  0  0  0
 17 22  4  0  0  0
 19 18  4  0  0  0
 20 19  4  0  0  0
 20 21  4  0  0  0
 21 22  4  0  0  0
  1 34  1  0  0  0
  3 35  1  0  0  0
  3 36  1  0  0  0
  4 37  1  0  0  0
  4 38  1  0  0  0
  5 39  1  0  0  0
  5 40  1  0  0  0
  7 41  1  0  0  0
  9 42  1  0  0  0
  9 43  1  0  0  0
 10 44  1  0  0  0
 10 45  1  0  0  0
 11 46  1  0  0  0
 11 47  1  0  0  0
 13 48  1  0  0  0
 13 49  1  0  0  0
 14 50  1  0  0  0
 16 51  1  0  0  0
 16 52  1  0  0  0
 16 53  1  0  0  0
 17 54  1  0  0  0
 18 55  1  0  0  0
 19 56  1  0  0  0
 20 57  1  0  0  0
 22 58  1  0  0  0
 23 59  1  0  0  0
 24 60  1  0  0  0
 25 61  1  0  0  0
 26 62  1  0  0  0
 26 63  1  0  0  0
 28 64  1  0  0  0
 29 65  1  0  0  0
 30 66  1  0  0  0
M  END
$$$$
