### 
### Created by X-TOOL on Mon Sep 10 21:12:45 2018
### 

@<TRIPOS>MOLECULE
1lhc_ligand
   67    68     1     0     0
SMALL
GAST_HUCK


@<TRIPOS>ATOM
      1 C1         14.9200  -11.6050   19.6240 C.3       1 DP7         0.0533
      2 B2         15.1520  -10.7780   18.3210 B         1 DP7         0.7164
      3 C3         13.8680  -10.9770   20.5780 C.3       1 DP7        -0.0356
      4 C4         13.0240  -11.9600   21.3870 C.3       1 DP7        -0.0189
      5 C5         12.4600  -11.3720   22.6580 C.3       1 DP7         0.0626
      6 C6         10.6870  -12.0550   24.4080 C.cat     1 DP7         0.2882
      7 C7         18.1490  -13.1300   21.2240 C.3       1 DP7         0.1336
      8 C8         16.8130  -12.9650   20.4300 C.2       1 DP7         0.2010
      9 C9         19.3610  -13.0570   20.2790 C.3       1 DP7        -0.0104
     10 C10        20.0420  -14.4220   20.2840 C.3       1 DP7        -0.0281
     11 C11        19.4810  -15.1750   21.4100 C.3       1 DP7         0.0369
     12 C12        17.4530  -14.8930   22.8660 C.2       1 DP7         0.2085
     13 C13        18.1530  -16.1470   25.0630 C.3       1 DP7         0.0214
     14 C14        17.6100  -16.2780   23.5950 C.3       1 DP7         0.1406
     15 C15        15.8020  -17.8590   22.8860 C.2       1 DP7         0.1752
     16 C16        14.3440  -18.2790   23.1070 C.3       1 DP7         0.0258
     17 C17        21.9520  -15.6830   24.6230 C.ar      1 DP7        -0.0686
     18 C18        22.2020  -14.5660   25.4200 C.ar      1 DP7        -0.0687
     19 C19        21.1590  -13.9760   26.1020 C.ar      1 DP7        -0.0686
     20 C20        19.8530  -14.4670   25.9800 C.ar      1 DP7        -0.0601
     21 C21        19.5890  -15.5820   25.1850 C.ar      1 DP7        -0.0386
     22 C22        20.6570  -16.2080   24.4980 C.ar      1 DP7        -0.0601
     23 N1         16.2060  -11.7670   20.3800 N.am      1 DP7        -0.2918
     24 N2         11.6320  -12.3340   23.3950 N.pl3     1 DP7        -0.2723
     25 N3          9.9480  -12.9740   24.8340 N.pl3     1 DP7        -0.2849
     26 N4         10.5540  -10.7490   24.9570 N.pl3     1 DP7        -0.2849
     27 N5         18.3140  -14.4440   21.9170 N.am      1 DP7        -0.2497
     28 N6         16.2400  -16.8490   23.6650 N.am      1 DP7        -0.2640
     29 O1         16.3120  -11.0190   17.5080 O.3       1 DP7        -0.4967
     30 O2         14.0400  -10.6470   17.3290 O.3       1 DP7        -0.4967
     31 O3         16.3480  -13.9610   19.8640 O.2       1 DP7        -0.3946
     32 O4         16.4820  -14.1910   23.2090 O.2       1 DP7        -0.3940
     33 O5         16.5130  -18.4380   22.0500 O.2       1 DP7        -0.3972
     34 H1         14.5590  -12.6006   19.3267 H         1 DP7         0.0431
     35 H2         13.1835  -10.3678   19.9695 H         1 DP7         0.0276
     36 H3         14.4025  -10.3291   21.2882 H         1 DP7         0.0276
     37 H4         13.6537  -12.8219   21.6526 H         1 DP7         0.0299
     38 H5         12.1864  -12.2975   20.7589 H         1 DP7         0.0299
     39 H6         11.8434  -10.4982   22.4008 H         1 DP7         0.0689
     40 H7         13.2936  -11.0557   23.3022 H         1 DP7         0.0689
     41 H8         18.2013  -12.3207   21.9671 H         1 DP7         0.0802
     42 H9         20.0637  -12.2875   20.6311 H         1 DP7         0.0313
     43 H10        19.0266  -12.8099   19.2606 H         1 DP7         0.0313
     44 H11        21.1278  -14.3023   20.4128 H         1 DP7         0.0287
     45 H12        19.8406  -14.9485   19.3394 H         1 DP7         0.0287
     46 H13        20.2344  -15.2708   22.2057 H         1 DP7         0.0524
     47 H14        19.1749  -16.1762   21.0724 H         1 DP7         0.0524
     48 H15        18.1404  -17.1469   25.5213 H         1 DP7         0.0474
     49 H16        17.4765  -15.4806   25.6182 H         1 DP7         0.0474
     50 H17        18.2788  -16.9312   23.0153 H         1 DP7         0.0823
     51 H18        14.0928  -19.1045   22.4247 H         1 DP7         0.0467
     52 H19        13.6817  -17.4238   22.9072 H         1 DP7         0.0467
     53 H20        14.2115  -18.6102   24.1475 H         1 DP7         0.0467
     54 H21        22.7716  -16.1531   24.0916 H         1 DP7         0.0599
     55 H22        23.2061  -14.1658   25.5024 H         1 DP7         0.0559
     56 H23        21.3522  -13.1216   26.7405 H         1 DP7         0.0599
     57 H24        19.0421  -13.9772   26.5069 H         1 DP7         0.0557
     58 H25        20.4763  -17.0822   23.8830 H         1 DP7         0.0557
     59 H26        16.6122  -10.9819   20.8476 H         1 DP7         0.1840
     60 H27        11.7536  -13.3259   23.1453 H         1 DP7         0.2642
     61 H28         9.2568  -12.7786   25.5722 H         1 DP7         0.2615
     62 H29        10.0322  -13.9243   24.4458 H         1 DP7         0.2615
     63 H30        11.1541   -9.9839   24.6172 H         1 DP7         0.2615
     64 H31         9.8577  -10.5687   25.6942 H         1 DP7         0.2615
     65 H32        15.6033  -16.4603   24.3310 H         1 DP7         0.1884
     66 H33        16.4415  -10.2860   16.9177 H         1 DP7         0.1667
     67 H34        14.2243   -9.9230   16.7422 H         1 DP7         0.1667
@<TRIPOS>BOND
     1    1    2 1  
     2    1    3 1  
     3   23    1 1  
     4    2   29 1  
     5    2   30 1  
     6    3    4 1  
     7    4    5 1  
     8    5   24 1  
     9   24    6 ar 
    10    6   25 ar 
    11    6   26 ar 
    12    7    8 1  
    13    7    9 1  
    14   27    7 1  
    15    8   23 am 
    16    8   31 2  
    17   10    9 1  
    18   11   10 1  
    19   27   11 1  
    20   14   12 1  
    21   12   27 am 
    22   12   32 2  
    23   13   14 1  
    24   21   13 1  
    25   14   28 1  
    26   15   16 1  
    27   28   15 am 
    28   15   33 2  
    29   18   17 ar 
    30   17   22 ar 
    31   19   18 ar 
    32   20   19 ar 
    33   20   21 ar 
    34   21   22 ar 
    35    1   34 1  
    36    3   35 1  
    37    3   36 1  
    38    4   37 1  
    39    4   38 1  
    40    5   39 1  
    41    5   40 1  
    42    7   41 1  
    43    9   42 1  
    44    9   43 1  
    45   10   44 1  
    46   10   45 1  
    47   11   46 1  
    48   11   47 1  
    49   13   48 1  
    50   13   49 1  
    51   14   50 1  
    52   16   51 1  
    53   16   52 1  
    54   16   53 1  
    55   17   54 1  
    56   18   55 1  
    57   19   56 1  
    58   20   57 1  
    59   22   58 1  
    60   23   59 1  
    61   24   60 1  
    62   25   61 1  
    63   25   62 1  
    64   26   63 1  
    65   26   64 1  
    66   28   65 1  
    67   29   66 1  
    68   30   67 1  
@<TRIPOS>SUBSTRUCTURE
     1 DP7         1

