5g5v_ligand
  -I-interpret- 

 69 73  0  0  0  0  0  0  0  0999 V2000
  135.9070   85.7140   63.9910 O   0  0  0  0  0
  135.7240   86.7580   64.6020 C   0  0  0  0  0
  134.7600   87.6810   64.1930 N   0  0  0  0  0
  133.8830   87.4410   63.0180 C   0  0  0  0  0
  134.2830   88.3340   61.8630 C   0  0  0  0  0
  132.4310   87.6270   63.4010 C   0  0  0  0  0
  136.5570   87.1320   65.8110 C   0  0  0  0  0
  137.2950   85.9680   66.4910 C   0  0  0  0  0
  136.4410   85.2200   67.4580 C   0  0  0  0  0
  135.2760   85.6600   67.8870 C   0  0  0  0  0
  134.7030   86.9830   67.5080 C   0  0  0  0  0
  135.6980   87.9390   66.8080 C   0  0  0  0  0
  134.9880   89.0280   66.0240 C   0  0  0  0  0
  134.5570   88.8820   64.8210 N   0  0  0  0  0
  134.7310   90.3490   66.6470 C   0  0  0  0  0
  134.6220   91.4860   65.8430 C   0  0  0  0  0
  134.3180   92.7130   66.4190 C   0  0  0  0  0
  134.1940   92.8060   67.8210 C   0  0  0  0  0
  133.9430   94.0660   68.3030 O   0  0  0  0  0
  133.5420   94.2370   69.6590 C   0  0  0  0  0
  134.3070   91.6720   68.6160 C   0  0  0  0  0
  134.5700   90.4500   68.0260 C   0  0  0  0  0
  134.2990   93.8900   65.6510 C   0  0  0  0  0
  133.1240   94.5680   65.3330 C   0  0  0  0  0
  133.1650   95.7830   64.6660 C   0  0  0  0  0
  134.3820   96.3670   64.3250 C   0  0  0  0  0
  135.5550   95.7180   64.6940 C   0  0  0  0  0
  135.5100   94.4990   65.3430 C   0  0  0  0  0
  134.4220   97.7230   63.6890 C   0  0  0  0  0
  133.7030   98.6150   64.1500 O   0  0  0  0  0
  135.3270   98.0040   62.7370 N   0  0  0  0  0
  135.3600   99.3200   62.0770 C   0  0  0  0  0
  135.8800   98.9320   60.7040 C   0  0  0  0  0
  134.8690   98.2480   59.9730 O   0  0  0  0  0
  137.0040   97.9860   61.0880 C   0  0  0  0  0
  136.4040   97.1500   62.2040 C   0  0  0  0  0
  134.0069   86.4100   62.6867 H   0  0  0  0  0
  133.6681   88.0993   60.9941 H   0  0  0  0  0
  134.1350   89.3768   62.1435 H   0  0  0  0  0
  135.3329   88.1666   61.6227 H   0  0  0  0  0
  132.2644   88.6628   63.6969 H   0  0  0  0  0
  131.7976   87.3853   62.5475 H   0  0  0  0  0
  132.1887   86.9665   64.2335 H   0  0  0  0  0
  137.3680   87.7557   65.4349 H   0  0  0  0  0
  138.1349   86.3867   67.0454 H   0  0  0  0  0
  137.6028   85.2704   65.7120 H   0  0  0  0  0
  136.7993   84.2597   67.8289 H   0  0  0  0  0
  134.6990   85.0216   68.5560 H   0  0  0  0  0
  134.3896   87.4703   68.4313 H   0  0  0  0  0
  133.8965   86.7896   66.8007 H   0  0  0  0  0
  136.3052   88.4026   67.5855 H   0  0  0  0  0
  134.7751   91.4107   64.7664 H   0  0  0  0  0
  132.6125   93.6949   69.8328 H   0  0  0  0  0
  134.3189   93.8492   70.3179 H   0  0  0  0  0
  133.3889   95.2972   69.8603 H   0  0  0  0  0
  134.1891   91.7456   69.6971 H   0  0  0  0  0
  134.6521   89.5574   68.6461 H   0  0  0  0  0
  132.1617   94.1385   65.6117 H   0  0  0  0  0
  132.2340   96.2865   64.4057 H   0  0  0  0  0
  136.5187   96.1750   64.4693 H   0  0  0  0  0
  136.4419   94.0055   65.6187 H   0  0  0  0  0
  135.9730  100.0600   62.5916 H   0  0  0  0  0
  134.3982   99.8326   62.0594 H   0  0  0  0  0
  136.1873   99.7653   60.0721 H   0  0  0  0  0
  135.2084   98.0078   59.1077 H   0  0  0  0  0
  137.9040   98.5148   61.4019 H   0  0  0  0  0
  137.3417   97.3784   60.2484 H   0  0  0  0  0
  136.0358   96.1867   61.8511 H   0  0  0  0  0
  137.1377   96.8816   62.9641 H   0  0  0  0  0
  1  2  2  0  0  0
  2  3  1  0  0  0
  2  7  1  0  0  0
  3  4  1  0  0  0
  3 14  1  0  0  0
  4  5  1  0  0  0
  4  6  1  0  0  0
  7  8  1  0  0  0
  7 12  1  0  0  0
  8  9  1  0  0  0
  9 10  2  0  0  0
 10 11  1  0  0  0
 11 12  1  0  0  0
 12 13  1  0  0  0
 13 14  2  0  0  0
 13 15  1  0  0  0
 15 16  4  0  0  0
 15 22  4  0  0  0
 16 17  4  0  0  0
 17 18  4  0  0  0
 17 23  1  0  0  0
 18 19  1  0  0  0
 18 21  4  0  0  0
 19 20  1  0  0  0
 21 22  4  0  0  0
 23 24  4  0  0  0
 23 28  4  0  0  0
 24 25  4  0  0  0
 25 26  4  0  0  0
 26 27  4  0  0  0
 26 29  1  0  0  0
 27 28  4  0  0  0
 29 30  2  0  0  0
 29 31  1  0  0  0
 31 32  1  0  0  0
 31 36  1  0  0  0
 32 33  1  0  0  0
 33 34  1  0  0  0
 33 35  1  0  0  0
 35 36  1  0  0  0
  4 37  1  0  0  0
  5 38  1  0  0  0
  5 39  1  0  0  0
  5 40  1  0  0  0
  6 41  1  0  0  0
  6 42  1  0  0  0
  6 43  1  0  0  0
  7 44  1  0  0  0
  8 45  1  0  0  0
  8 46  1  0  0  0
  9 47  1  0  0  0
 10 48  1  0  0  0
 11 49  1  0  0  0
 11 50  1  0  0  0
 12 51  1  0  0  0
 16 52  1  0  0  0
 20 53  1  0  0  0
 20 54  1  0  0  0
 20 55  1  0  0  0
 21 56  1  0  0  0
 22 57  1  0  0  0
 24 58  1  0  0  0
 25 59  1  0  0  0
 27 60  1  0  0  0
 28 61  1  0  0  0
 32 62  1  0  0  0
 32 63  1  0  0  0
 33 64  1  0  0  0
 34 65  1  0  0  0
 35 66  1  0  0  0
 35 67  1  0  0  0
 36 68  1  0  0  0
 36 69  1  0  0  0
M  END
$$$$
