### 
### Created by X-TOOL on Mon Sep 10 21:13:10 2018
### 

@<TRIPOS>MOLECULE
4b4g_ligand
   47    48     1     0     0
SMALL
GAST_HUCK


@<TRIPOS>ATOM
      1 CAW        37.8170    6.7790   10.2840 C.ar      1 KKT        -0.0578
      2 CAX        37.2140    7.7820   11.0500 C.ar      1 KKT        -0.0685
      3 CBA        37.1740    7.6680   12.4460 C.ar      1 KKT        -0.0687
      4 CAZ        37.7280    6.5620   13.0810 C.ar      1 KKT        -0.0685
      5 CAY        38.3330    5.5680   12.3100 C.ar      1 KKT        -0.0578
      6 CAV        38.3890    5.6680   10.9170 C.ar      1 KKT        -0.0133
      7 CAU        38.9780    4.6530   10.1510 C.3       1 KKT         0.1020
      8 NAN        38.1190    3.4290   10.1720 N.am      1 KKT        -0.1513
      9 CAO        37.1740    3.1830    9.2330 C.2       1 KKT         0.1624
     10 NAP        36.9580    4.0080    8.2300 N.2       1 KKT        -0.3924
     11 CAM        38.2910    2.5520   11.1720 C.2       1 KKT         0.3372
     12 OAL        39.1480    2.7940   12.0180 O.2       1 KKT        -0.3761
     13 NAD        37.5200    1.3720   11.2640 N.am      1 KKT        -0.1727
     14 CAE        36.5290    1.1210   10.3320 C.2       1 KKT         0.2502
     15 OAA        35.8620    0.0910   10.4560 O.2       1 KKT        -0.3802
     16 CAF        36.3550    2.0560    9.2980 C.3       1 KKT         0.2170
     17 NAG        35.4850    1.7950    8.2840 N.am      1 KKT        -0.1979
     18 CAB        35.9960    0.8980    7.2370 C.3       1 KKT         0.0240
     19 SAH        33.9440    2.1590    8.2930 S.o2      1 KKT         0.0459
     20 OAC        33.7240    3.6030    8.6830 O.2       1 KKT        -0.1550
     21 OAQ        33.4100    1.9710    6.8910 O.2       1 KKT        -0.1550
     22 CAI        33.1500    0.9250    9.4120 C.3       1 KKT         0.0850
     23 CAJ        31.7340    1.3110    9.8060 C.3       1 KKT        -0.0321
     24 CAK        31.4650    0.9640   11.2850 C.3       1 KKT        -0.0544
     25 CAT        31.6870   -0.5040   11.4530 C.3       1 KKT        -0.0652
     26 H1         37.8416    6.8612    9.2034 H         1 KKT         0.0557
     27 H2         36.7778    8.6472   10.5639 H         1 KKT         0.0599
     28 H3         36.7073    8.4486   13.0359 H         1 KKT         0.0559
     29 H4         37.6906    6.4728   14.1607 H         1 KKT         0.0599
     30 H5         38.7668    4.7038   12.8000 H         1 KKT         0.0557
     31 H6         39.9670    4.4105   10.5671 H         1 KKT         0.0774
     32 H7         39.0918    4.9998    9.1133 H         1 KKT         0.0774
     33 H8         36.2471    3.7963    7.5474 H         1 KKT         0.0533
     34 H9         37.6903    0.7189   12.0019 H         1 KKT         0.2272
     35 H10        35.5872    2.5995    9.8681 H         1 KKT         0.1053
     36 H11        37.0772    0.7507    7.3760 H         1 KKT         0.0446
     37 H12        35.8109    1.3447    6.2490 H         1 KKT         0.0446
     38 H13        35.4823   -0.0725    7.3027 H         1 KKT         0.0446
     39 H14        33.7570    0.8372   10.3251 H         1 KKT         0.0518
     40 H15        33.1188   -0.0468    8.8975 H         1 KKT         0.0518
     41 H16        31.0210    0.7642    9.1715 H         1 KKT         0.0281
     42 H17        31.6007    2.3929    9.6591 H         1 KKT         0.0281
     43 H18        30.4275    1.2187   11.5472 H         1 KKT         0.0263
     44 H19        32.1551    1.5241   11.9331 H         1 KKT         0.0263
     45 H20        31.5028   -0.7852   12.5004 H         1 KKT         0.0230
     46 H21        32.7246   -0.7511   11.1841 H         1 KKT         0.0230
     47 H22        30.9970   -1.0565   10.7983 H         1 KKT         0.0230
@<TRIPOS>BOND
     1    1    2 ar 
     2    1    6 ar 
     3    2    3 ar 
     4    3    4 ar 
     5    4    5 ar 
     6    5    6 ar 
     7    6    7 1  
     8    7    8 1  
     9    8    9 1  
    10    8   11 am 
    11    9   10 2  
    12    9   16 1  
    13   11   12 2  
    14   11   13 am 
    15   13   14 am 
    16   14   15 2  
    17   14   16 1  
    18   16   17 1  
    19   17   18 1  
    20   17   19 am 
    21   19   20 2  
    22   19   21 2  
    23   19   22 1  
    24   22   23 1  
    25   23   24 1  
    26   24   25 1  
    27    1   26 1  
    28    2   27 1  
    29    3   28 1  
    30    4   29 1  
    31    5   30 1  
    32    7   31 1  
    33    7   32 1  
    34   10   33 1  
    35   13   34 1  
    36   16   35 1  
    37   18   36 1  
    38   18   37 1  
    39   18   38 1  
    40   22   39 1  
    41   22   40 1  
    42   23   41 1  
    43   23   42 1  
    44   24   43 1  
    45   24   44 1  
    46   25   45 1  
    47   25   46 1  
    48   25   47 1  
@<TRIPOS>SUBSTRUCTURE
     1 KKT         1

