4b4g_ligand
  -I-interpret- 

 47 48  0  0  0  0  0  0  0  0999 V2000
   37.8170    6.7790   10.2840 C   0  0  0  0  0
   37.2140    7.7820   11.0500 C   0  0  0  0  0
   37.1740    7.6680   12.4460 C   0  0  0  0  0
   37.7280    6.5620   13.0810 C   0  0  0  0  0
   38.3330    5.5680   12.3100 C   0  0  0  0  0
   38.3890    5.6680   10.9170 C   0  0  0  0  0
   38.9780    4.6530   10.1510 C   0  0  0  0  0
   38.1190    3.4290   10.1720 N   0  0  0  0  0
   37.1740    3.1830    9.2330 C   0  0  0  0  0
   36.9580    4.0080    8.2300 N   0  0  0  0  0
   38.2910    2.5520   11.1720 C   0  0  0  0  0
   39.1480    2.7940   12.0180 O   0  0  0  0  0
   37.5200    1.3720   11.2640 N   0  0  0  0  0
   36.5290    1.1210   10.3320 C   0  0  0  0  0
   35.8620    0.0910   10.4560 O   0  0  0  0  0
   36.3550    2.0560    9.2980 C   0  0  0  0  0
   35.4850    1.7950    8.2840 N   0  0  0  0  0
   35.9960    0.8980    7.2370 C   0  0  0  0  0
   33.9440    2.1590    8.2930 S   0  0  0  0  0
   33.7240    3.6030    8.6830 O   0  0  0  0  0
   33.4100    1.9710    6.8910 O   0  0  0  0  0
   33.1500    0.9250    9.4120 C   0  0  0  0  0
   31.7340    1.3110    9.8060 C   0  0  0  0  0
   31.4650    0.9640   11.2850 C   0  0  0  0  0
   31.6870   -0.5040   11.4530 C   0  0  0  0  0
   37.8418    6.8617    9.1974 H   0  0  0  0  0
   36.7754    8.6519   10.5612 H   0  0  0  0  0
   36.7047    8.4529   13.0391 H   0  0  0  0  0
   37.6904    6.4723   14.1667 H   0  0  0  0  0
   38.7692    4.6990   12.8027 H   0  0  0  0  0
   39.9554    4.4112   10.5685 H   0  0  0  0  0
   39.0848    4.9974    9.1224 H   0  0  0  0  0
   37.5100    4.8614    8.1436 H   0  0  0  0  0
   37.6937    0.7059   12.0166 H   0  0  0  0  0
   35.5955    2.5748    9.8829 H   0  0  0  0  0
   35.4862   -0.0632    7.3032 H   0  0  0  0  0
   35.8119    1.3417    6.2586 H   0  0  0  0  0
   37.0673    0.7528    7.3758 H   0  0  0  0  0
   33.7460    0.8690   10.3229 H   0  0  0  0  0
   33.1007   -0.0248    8.8794 H   0  0  0  0  0
   31.0318    0.7588    9.1814 H   0  0  0  0  0
   31.6106    2.3852    9.6683 H   0  0  0  0  0
   30.4429    1.2273   11.5572 H   0  0  0  0  0
   32.1351    1.5265   11.9352 H   0  0  0  0  0
   31.0028   -1.0503   10.8037 H   0  0  0  0  0
   32.7154   -0.7475   11.1863 H   0  0  0  0  0
   31.5042   -0.7814   12.4911 H   0  0  0  0  0
  1  2  4  0  0  0
  1  6  4  0  0  0
  2  3  4  0  0  0
  3  4  4  0  0  0
  4  5  4  0  0  0
  5  6  4  0  0  0
  6  7  1  0  0  0
  7  8  1  0  0  0
  8  9  1  0  0  0
  8 11  1  0  0  0
  9 10  2  0  0  0
  9 16  1  0  0  0
 11 12  2  0  0  0
 11 13  1  0  0  0
 13 14  1  0  0  0
 14 15  2  0  0  0
 14 16  1  0  0  0
 16 17  1  0  0  0
 17 18  1  0  0  0
 17 19  1  0  0  0
 19 20  2  0  0  0
 19 21  2  0  0  0
 19 22  1  0  0  0
 22 23  1  0  0  0
 23 24  1  0  0  0
 24 25  1  0  0  0
  1 26  1  0  0  0
  2 27  1  0  0  0
  3 28  1  0  0  0
  4 29  1  0  0  0
  5 30  1  0  0  0
  7 31  1  0  0  0
  7 32  1  0  0  0
 10 33  1  0  0  0
 13 34  1  0  0  0
 16 35  1  0  0  0
 18 36  1  0  0  0
 18 37  1  0  0  0
 18 38  1  0  0  0
 22 39  1  0  0  0
 22 40  1  0  0  0
 23 41  1  0  0  0
 23 42  1  0  0  0
 24 43  1  0  0  0
 24 44  1  0  0  0
 25 45  1  0  0  0
 25 46  1  0  0  0
 25 47  1  0  0  0
M  END
$$$$
