5nhh_ligand
  -I-interpret- 

 51 54  0  0  0  0  0  0  0  0999 V2000
  -10.0700   15.5430   39.4660 C   0  0  0  0  0
  -10.3900   14.4150   40.4290 C   0  0  0  0  0
  -12.3900   15.4530   41.5030 C   0  0  0  0  0
  -14.9960   12.3780   40.2380 C   0  0  0  0  0
  -16.1230   12.7830   40.9250 C   0  0  0  0  0
  -17.4980   12.2750   40.9440 C   0  0  0  0  0
  -17.8540   11.0860   40.3170 C   0  0  0  0  0
  -19.1690   10.6790   40.4710 C   0  0  0  0  0
  -19.6480   12.5440   41.6850 C   0  0  0  0  0
  -20.3380   14.5940   42.9960 C   0  0  0  0  0
  -19.7130   14.4750   44.3810 C   0  0  0  0  0
  -19.5830   15.8530   45.0000 C   0  0  0  0  0
  -21.4270   16.7050   43.7810 C   0  0  0  0  0
  -12.0270   12.3240   39.6850 O   0  0  0  0  0
  -12.5330   13.2570   40.2970 C   0  0  0  0  0
  -11.8170   14.3090   40.7650 N   0  0  0  0  0
  -10.9860   15.4760   38.3920 O   0  0  0  0  0
  -10.9250   16.6160   37.5670 C   0  0  0  0  0
  -13.9270   13.2240   40.6630 C   0  0  0  0  0
  -15.7760   13.8340   41.7390 N   0  0  0  0  0
  -14.4410   14.1040   41.5720 C   0  0  0  0  0
  -13.6560   15.1430   42.2920 C   0  0  0  0  0
  -18.3820   13.0190   41.6260 N   0  0  0  0  0
  -20.0890   11.3900   41.1490 N   0  0  0  0  0
  -20.5510   13.2800   42.3710 N   0  0  0  0  0
  -21.6390   15.3930   43.0590 C   0  0  0  0  0
  -20.8650   16.4990   45.0950 O   0  0  0  0  0
   -9.0495   15.4434   39.0963 H   0  0  0  0  0
  -10.1541   16.5046   39.9723 H   0  0  0  0  0
   -9.8519   14.6159   41.3554 H   0  0  0  0  0
  -10.0997   13.4823   39.9452 H   0  0  0  0  0
  -12.6589   16.2035   40.7597 H   0  0  0  0  0
  -11.6382   15.7685   42.2265 H   0  0  0  0  0
  -14.9341   11.5682   39.5110 H   0  0  0  0  0
  -17.1372   10.5058   39.7359 H   0  0  0  0  0
  -19.4743    9.7348   40.0201 H   0  0  0  0  0
  -19.6326   15.1340   42.3643 H   0  0  0  0  0
  -18.7254   14.0217   44.2951 H   0  0  0  0  0
  -20.3470   13.8525   45.0124 H   0  0  0  0  0
  -18.9320   16.4592   44.3701 H   0  0  0  0  0
  -19.1693   15.7480   46.0030 H   0  0  0  0  0
  -22.3923   17.1992   43.8912 H   0  0  0  0  0
  -20.7332   17.3119   43.1992 H   0  0  0  0  0
  -11.1587   17.5025   38.1566 H   0  0  0  0  0
   -9.9217   16.7087   37.1511 H   0  0  0  0  0
  -11.6476   16.5159   36.7571 H   0  0  0  0  0
  -14.2545   16.0484   42.3927 H   0  0  0  0  0
  -13.3882   14.7769   43.2831 H   0  0  0  0  0
  -21.4842   12.8792   42.4656 H   0  0  0  0  0
  -22.3845   14.8099   43.5998 H   0  0  0  0  0
  -21.9744   15.6005   42.0428 H   0  0  0  0  0
  2  1  1  0  0  0
  1 17  1  0  0  0
 16  2  1  0  0  0
 16  3  1  0  0  0
  3 22  1  0  0  0
  4  5  4  0  0  0
 19  4  4  0  0  0
  5  6  1  0  0  0
  5 20  4  0  0  0
  6  7  4  0  0  0
  6 23  4  0  0  0
  7  8  4  0  0  0
  8 24  4  0  0  0
 23  9  4  0  0  0
  9 24  4  0  0  0
  9 25  1  0  0  0
 10 11  1  0  0  0
 25 10  1  0  0  0
 10 26  1  0  0  0
 11 12  1  0  0  0
 12 27  1  0  0  0
 26 13  1  0  0  0
 13 27  1  0  0  0
 15 14  2  0  0  0
 15 16  1  0  0  0
 15 19  1  0  0  0
 17 18  1  0  0  0
 19 21  4  0  0  0
 20 21  4  0  0  0
 21 22  1  0  0  0
  1 28  1  0  0  0
  1 29  1  0  0  0
  2 30  1  0  0  0
  2 31  1  0  0  0
  3 32  1  0  0  0
  3 33  1  0  0  0
  4 34  1  0  0  0
  7 35  1  0  0  0
  8 36  1  0  0  0
 10 37  1  0  0  0
 11 38  1  0  0  0
 11 39  1  0  0  0
 12 40  1  0  0  0
 12 41  1  0  0  0
 13 42  1  0  0  0
 13 43  1  0  0  0
 18 44  1  0  0  0
 18 45  1  0  0  0
 18 46  1  0  0  0
 22 47  1  0  0  0
 22 48  1  0  0  0
 25 49  1  0  0  0
 26 50  1  0  0  0
 26 51  1  0  0  0
M  END
$$$$
