### 
### Created by X-TOOL on Mon Sep 10 21:12:51 2018
### 

@<TRIPOS>MOLECULE
1o4d_ligand
   20    20     1     0     0
SMALL
GAST_HUCK


@<TRIPOS>ATOM
      1 C1         17.3440   24.5310   19.4360 C.ar      1 262        -0.0657
      2 C2         18.0020   24.8400   20.6550 C.ar      1 262        -0.0790
      3 C3         17.8620   26.1430   21.1930 C.ar      1 262        -0.0767
      4 C4         17.0680   27.1100   20.4950 C.ar      1 262        -0.0348
      5 C5         16.4050   26.7880   19.2680 C.ar      1 262         0.1275
      6 C6         16.5180   25.4430   18.7450 C.ar      1 262         0.0163
      7 C7         15.6710   24.8320   17.7000 C.3       1 262         0.0770
      8 O8         15.4660   27.7390   18.7770 O.3       1 262        -0.2208
      9 P9         15.8570   28.6660   17.5660 P.3       1 262         0.2275
     10 O10        14.5170   29.0690   16.9400 O.co2     1 262        -0.5498
     11 O11        16.6830   27.8300   16.5400 O.co2     1 262        -0.5498
     12 O14        16.5710   29.9010   18.0600 O.co2     1 262        -0.5498
     13 O12        15.3390   25.2720   16.5240 O.3       1 262        -0.3843
     14 H1         17.4833   23.5425   19.0135 H         1 262         0.0528
     15 H2         18.6002   24.0933   21.1646 H         1 262         0.0511
     16 H3         18.3510   26.4059   22.1240 H         1 262         0.0533
     17 H4         16.9671   28.1082   20.9055 H         1 262         0.0530
     18 H5         14.7076   24.6619   18.2030 H         1 262         0.0699
     19 H6         16.1542   23.8650   17.4964 H         1 262         0.0699
     20 H7         14.8731   26.0949   16.6149 H         1 262         0.2123
@<TRIPOS>BOND
     1    1    2 ar 
     2    1    6 ar 
     3    2    3 ar 
     4    3    4 ar 
     5    4    5 ar 
     6    5    6 ar 
     7    5    8 1  
     8    6    7 1  
     9    7   13 1  
    10    8    9 1  
    11    9   10 ar 
    12    9   11 ar 
    13    9   12 ar 
    14    1   14 1  
    15    2   15 1  
    16    3   16 1  
    17    4   17 1  
    18    7   18 1  
    19    7   19 1  
    20   13   20 1  
@<TRIPOS>SUBSTRUCTURE
     1 262         1

