4gj3_ligand
  -I-interpret- 

 37 39  0  0  0  0  0  0  0  0999 V2000
   -9.3500   -9.7140  -15.2270 C   0  0  0  0  0
  -10.1590  -10.8300  -15.3970 C   0  0  0  0  0
  -10.2190  -11.4610  -16.5650 N   0  0  0  0  0
   -9.5060  -11.0690  -17.6230 C   0  0  0  0  0
   -8.7070   -9.9280  -17.5340 C   0  0  0  0  0
   -8.5880   -9.2470  -16.3170 C   0  0  0  0  0
   -7.7790   -8.0990  -16.3170 N   0  0  0  0  0
   -7.5430   -7.1890  -15.3400 C   0  0  0  0  0
   -8.0030   -7.2710  -14.2150 O   0  0  0  0  0
   -6.6730   -6.0450  -15.6910 C   0  0  0  0  0
   -7.2250   -4.7480  -15.7860 C   0  0  0  0  0
   -6.4130   -3.6810  -16.1360 C   0  0  0  0  0
   -5.0600   -3.8900  -16.4350 C   0  0  0  0  0
   -4.5140   -5.1790  -16.3650 C   0  0  0  0  0
   -5.3130   -6.2520  -16.0090 C   0  0  0  0  0
   -4.6060   -7.8380  -15.9560 Cl  0  0  0  0  0
   -4.2310   -2.7840  -16.8040 C   0  0  0  0  0
   -3.5700   -1.9080  -17.0950 N   0  0  0  0  0
   -8.9060   -4.4440  -15.4500 Cl  0  0  0  0  0
   -9.6660  -11.7610  -18.8310 N   0  0  0  0  0
   -8.7230  -12.0170  -19.7730 C   0  0  0  0  0
   -7.5630  -11.6590  -19.6640 O   0  0  0  0  0
   -9.1760  -12.7790  -20.9950 C   0  0  0  0  0
   -8.3260  -12.7310  -22.2670 C   0  0  0  0  0
   -8.3670  -14.0020  -21.4130 C   0  0  0  0  0
   -7.2530  -14.3110  -20.6290 F   0  0  0  0  0
   -9.3049   -9.2061  -14.2636 H   0  0  0  0  0
  -10.7540  -11.1940  -14.5594 H   0  0  0  0  0
   -8.1747   -9.5666  -18.4139 H   0  0  0  0  0
   -7.2897   -7.9210  -17.1941 H   0  0  0  0  0
   -6.8287   -2.6743  -16.1789 H   0  0  0  0  0
   -3.4594   -5.3367  -16.5910 H   0  0  0  0  0
  -10.6028  -12.1144  -19.0255 H   0  0  0  0  0
  -10.2237  -12.5779  -20.7714 H   0  0  0  0  0
   -7.5864  -12.0811  -22.7347 H   0  0  0  0  0
   -8.4311  -12.4423  -23.3128 H   0  0  0  0  0
   -8.5852  -15.0498  -21.6194 H   0  0  0  0  0
  1  2  4  0  0  0
  1  6  4  0  0  0
  2  3  4  0  0  0
  3  4  4  0  0  0
  4  5  4  0  0  0
  4 20  1  0  0  0
  5  6  4  0  0  0
  6  7  1  0  0  0
  7  8  1  0  0  0
  8  9  2  0  0  0
  8 10  1  0  0  0
 10 11  4  0  0  0
 10 15  4  0  0  0
 11 12  4  0  0  0
 11 19  1  0  0  0
 12 13  4  0  0  0
 13 14  4  0  0  0
 13 17  1  0  0  0
 14 15  4  0  0  0
 15 16  1  0  0  0
 17 18  3  0  0  0
 20 21  1  0  0  0
 21 22  2  0  0  0
 21 23  1  0  0  0
 23 24  1  0  0  0
 23 25  1  0  0  0
 24 25  1  0  0  0
 25 26  1  0  0  0
  1 27  1  0  0  0
  2 28  1  0  0  0
  5 29  1  0  0  0
  7 30  1  0  0  0
 12 31  1  0  0  0
 14 32  1  0  0  0
 20 33  1  0  0  0
 23 34  1  0  0  0
 24 35  1  0  0  0
 24 36  1  0  0  0
 25 37  1  0  0  0
M  END
$$$$
