4jpe_ligand
  -I-interpret- 

 46 49  0  0  0  0  0  0  0  0999 V2000
   26.9220   15.5280    9.4710 C   0  0  0  0  0
   27.6930   14.3620    9.1990 C   0  0  0  0  0
   27.0620   13.1950    8.6920 C   0  0  0  0  0
   25.6610   13.1670    8.4420 C   0  0  0  0  0
   24.8860   14.3290    8.7110 C   0  0  0  0  0
   25.5200   15.4950    9.2170 C   0  0  0  0  0
   24.9900   11.8980    7.9020 C   0  0  0  0  0
   23.4720   11.7820    8.1960 C   0  0  0  0  0
   22.7700   13.0920    7.7680 C   0  0  0  0  0
   23.3790   14.3520    8.4320 C   0  0  0  0  0
   27.5100   16.7270    9.9630 C   0  0  0  0  0
   23.0830   15.5720    7.5430 C   0  0  0  0  0
   22.2800   16.4100    8.2250 N   0  0  0  0  0
   22.0470   15.8540    9.4480 C   0  0  0  0  0
   22.6180   14.7120    9.6310 N   0  0  0  0  0
   23.5120   15.7300    6.3950 O   0  0  0  0  0
   21.7750   17.6870    7.7060 C   0  0  0  0  0
   21.2500   16.5310   10.3440 N   0  0  0  0  0
   28.7330   17.2280    9.4320 C   0  0  0  0  0
   29.2650   18.3750    9.8890 N   0  0  0  0  0
   28.5880   19.0290   10.8520 C   0  0  0  0  0
   27.4230   18.6560   11.4060 N   0  0  0  0  0
   26.8810   17.5100   10.9660 C   0  0  0  0  0
   22.8510   10.6230    7.3770 C   0  0  0  0  0
   23.2220   11.4870    9.7010 C   0  0  0  0  0
   28.7679   14.3652    9.3800 H   0  0  0  0  0
   27.6603   12.3063    8.4911 H   0  0  0  0  0
   24.9212   16.3839    9.4154 H   0  0  0  0  0
   25.4711   11.0537    8.3958 H   0  0  0  0  0
   25.0991   11.9219    6.8177 H   0  0  0  0  0
   21.7270   13.0255    8.0776 H   0  0  0  0  0
   22.8897   13.1951    6.6895 H   0  0  0  0  0
   22.5503   14.1478   10.4780 H   0  0  0  0  0
   20.6852   17.6678    7.6950 H   0  0  0  0  0
   22.1189   18.4994    8.3462 H   0  0  0  0  0
   22.1472   17.8386    6.6928 H   0  0  0  0  0
   20.8458   17.4318   10.0877 H   0  0  0  0  0
   29.2444   16.6741    8.6447 H   0  0  0  0  0
   29.0305   19.9550   11.2190 H   0  0  0  0  0
   25.9349   17.1723   11.3890 H   0  0  0  0  0
   22.9939   10.8141    6.3134 H   0  0  0  0  0
   23.3385    9.6865    7.6479 H   0  0  0  0  0
   21.7852   10.5558    7.5954 H   0  0  0  0  0
   23.7054   10.5482    9.9711 H   0  0  0  0  0
   23.6360   12.2965   10.3022 H   0  0  0  0  0
   22.1498   11.4102    9.8817 H   0  0  0  0  0
  1  2  4  0  0  0
  1  6  4  0  0  0
  1 11  1  0  0  0
  2  3  4  0  0  0
  3  4  4  0  0  0
  4  5  4  0  0  0
  4  7  1  0  0  0
  5  6  4  0  0  0
  5 10  1  0  0  0
  7  8  1  0  0  0
  8  9  1  0  0  0
  8 24  1  0  0  0
  8 25  1  0  0  0
  9 10  1  0  0  0
 10 12  1  0  0  0
 10 15  1  0  0  0
 11 19  4  0  0  0
 11 23  4  0  0  0
 12 13  1  0  0  0
 12 16  2  0  0  0
 13 14  4  0  0  0
 13 17  1  0  0  0
 14 15  1  0  0  0
 14 18  2  0  0  0
 19 20  4  0  0  0
 20 21  4  0  0  0
 21 22  4  0  0  0
 22 23  4  0  0  0
  2 26  1  0  0  0
  3 27  1  0  0  0
  6 28  1  0  0  0
  7 29  1  0  0  0
  7 30  1  0  0  0
  9 31  1  0  0  0
  9 32  1  0  0  0
 15 33  1  0  0  0
 17 34  1  0  0  0
 17 35  1  0  0  0
 17 36  1  0  0  0
 18 37  1  0  0  0
 19 38  1  0  0  0
 21 39  1  0  0  0
 23 40  1  0  0  0
 24 41  1  0  0  0
 24 42  1  0  0  0
 24 43  1  0  0  0
 25 44  1  0  0  0
 25 45  1  0  0  0
 25 46  1  0  0  0
M  END
$$$$
