5l30_ligand
  -I-interpret- 

 80 86  0  0  0  0  0  0  0  0999 V2000
    7.4800   37.6790   24.4210 C   0  0  0  0  0
    9.5940   32.9510   27.4660 C   0  0  0  0  0
    9.4180   33.3290   28.8150 C   0  0  0  0  0
    8.7550   34.5610   29.0860 C   0  0  0  0  0
    8.3080   35.3610   28.0060 C   0  0  0  0  0
    9.1730   33.7550   26.4540 C   0  0  0  0  0
    8.5920   34.9610   30.4280 C   0  0  0  0  0
    9.1450   34.2130   31.4260 C   0  0  0  0  0
    9.9270   32.5840   29.9470 C   0  0  0  0  0
    0.9160   35.2910   27.1410 C   0  0  0  0  0
    6.0810   39.2800   22.1330 C   0  0  0  0  0
    1.5150   35.5930   25.7580 C   0  0  0  0  0
    0.7810   36.8240   25.1320 C   0  0  0  0  0
    3.0330   35.7960   25.7910 C   0  0  0  0  0
    3.6030   36.5750   26.7960 C   0  0  0  0  0
    4.9530   36.8890   26.7760 C   0  0  0  0  0
    5.7740   36.4290   25.7550 C   0  0  0  0  0
    5.2120   35.6190   24.7720 C   0  0  0  0  0
    3.8570   35.2950   24.7680 C   0  0  0  0  0
    3.3370   34.3910   23.6640 C   0  0  0  0  0
    7.2350   36.8460   25.6680 C   0  0  0  0  0
    8.1390   35.7130   25.6020 N   0  0  0  0  0
    8.5260   34.9580   26.7050 C   0  0  0  0  0
    9.8160   33.0690   31.2300 N   0  0  0  0  0
    7.9620   37.1380   23.4320 O   0  0  0  0  0
    7.1080   38.9750   24.3850 N   0  0  0  0  0
    7.1740   39.6760   23.1000 C   0  0  0  0  0
    6.2210   39.4810   20.7540 C   0  0  0  0  0
    5.1500   39.1750   19.9210 C   0  0  0  0  0
    3.9850   38.6180   20.4170 C   0  0  0  0  0
    3.8310   38.4360   21.7820 C   0  0  0  0  0
    4.8910   38.7480   22.6300 C   0  0  0  0  0
    2.6290   37.8840   22.2860 N   0  0  0  0  0
    1.2450   36.9960   23.7710 O   0  0  0  0  0
    2.2230   37.9090   23.5750 C   0  0  0  0  0
    2.6230   38.6800   24.4210 O   0  0  0  0  0
    6.6070   39.7370   25.5300 C   0  0  0  0  0
   10.4740   31.3640   29.7950 N   0  0  0  0  0
    7.5550   39.9470   20.1490 C   0  0  0  0  0
    7.9280   41.3840   20.4170 C   0  0  0  0  0
    9.1430   41.9140   20.2760 N   0  0  0  0  0
    9.0780   43.2350   20.5460 N   0  0  0  0  0
    7.8450   43.4780   20.8420 N   0  0  0  0  0
    7.1040   42.3400   20.7870 N   0  0  0  0  0
    7.9970   39.4100   18.7950 C   0  0  0  0  0
    8.6900   38.9410   20.0190 C   0  0  0  0  0
   10.0744   32.0008   27.2327 H   0  0  0  0  0
    7.7895   36.2991   28.2038 H   0  0  0  0  0
    9.3471   33.4487   25.4225 H   0  0  0  0  0
    8.0276   35.8624   30.6668 H   0  0  0  0  0
    9.0340   34.5690   32.4502 H   0  0  0  0  0
    1.0429   36.1590   27.7879 H   0  0  0  0  0
   -0.1455   35.0675   27.0348 H   0  0  0  0  0
    1.4274   34.4331   27.5775 H   0  0  0  0  0
    1.3554   34.7182   25.1277 H   0  0  0  0  0
    0.9972   37.7201   25.7137 H   0  0  0  0  0
   -0.2960   36.6564   25.1384 H   0  0  0  0  0
    2.9781   36.9429   27.6098 H   0  0  0  0  0
    5.3749   37.5041   27.5709 H   0  0  0  0  0
    5.8515   35.2264   23.9815 H   0  0  0  0  0
    2.9261   33.4822   24.1037 H   0  0  0  0  0
    2.5577   34.9112   23.1071 H   0  0  0  0  0
    4.1553   34.1331   22.9917 H   0  0  0  0  0
    7.4324   37.4150   26.5765 H   0  0  0  0  0
    8.5144   35.4536   24.6898 H   0  0  0  0  0
    7.0582   40.7405   23.3037 H   0  0  0  0  0
    8.1268   39.4184   22.6374 H   0  0  0  0  0
    5.2305   39.3787   18.8532 H   0  0  0  0  0
    3.1884   38.3223   19.7343 H   0  0  0  0  0
    4.7889   38.5734   23.7011 H   0  0  0  0  0
    2.0127   37.4253   21.6150 H   0  0  0  0  0
    7.2492   40.6015   25.6986 H   0  0  0  0  0
    5.5904   40.0725   25.3248 H   0  0  0  0  0
    6.6096   39.1025   26.4163 H   0  0  0  0  0
   10.5367   30.9452   28.8671 H   0  0  0  0  0
   10.8260   30.8580   30.6077 H   0  0  0  0  0
    8.2624   39.8044   17.8141 H   0  0  0  0  0
    7.5386   38.9758   17.9065 H   0  0  0  0  0
    8.9892   37.9942   20.4685 H   0  0  0  0  0
    9.7130   38.8227   20.3762 H   0  0  0  0  0
  1 21  1  0  0  0
  1 25  2  0  0  0
 26  1  1  0  0  0
  2  3  4  0  0  0
  6  2  4  0  0  0
  4  3  4  0  0  0
  3  9  4  0  0  0
  5  4  4  0  0  0
  4  7  4  0  0  0
 23  5  4  0  0  0
 23  6  4  0  0  0
  7  8  4  0  0  0
  8 24  4  0  0  0
  9 24  4  0  0  0
  9 38  1  0  0  0
 12 10  1  0  0  0
 27 11  1  0  0  0
 11 28  4  0  0  0
 11 32  4  0  0  0
 12 13  1  0  0  0
 14 12  1  0  0  0
 13 34  1  0  0  0
 15 14  4  0  0  0
 19 14  4  0  0  0
 16 15  4  0  0  0
 17 16  4  0  0  0
 17 18  4  0  0  0
 21 17  1  0  0  0
 18 19  4  0  0  0
 19 20  1  0  0  0
 21 22  1  0  0  0
 22 23  1  0  0  0
 26 27  1  0  0  0
 26 37  1  0  0  0
 28 29  4  0  0  0
 28 39  1  0  0  0
 29 30  4  0  0  0
 30 31  4  0  0  0
 31 32  4  0  0  0
 31 33  1  0  0  0
 33 35  1  0  0  0
 34 35  1  0  0  0
 35 36  2  0  0  0
 39 40  1  0  0  0
 39 45  1  0  0  0
 39 46  1  0  0  0
 40 41  4  0  0  0
 40 44  4  0  0  0
 41 42  4  0  0  0
 42 43  4  0  0  0
 43 44  4  0  0  0
 45 46  1  0  0  0
  2 47  1  0  0  0
  5 48  1  0  0  0
  6 49  1  0  0  0
  7 50  1  0  0  0
  8 51  1  0  0  0
 10 52  1  0  0  0
 10 53  1  0  0  0
 10 54  1  0  0  0
 12 55  1  0  0  0
 13 56  1  0  0  0
 13 57  1  0  0  0
 15 58  1  0  0  0
 16 59  1  0  0  0
 18 60  1  0  0  0
 20 61  1  0  0  0
 20 62  1  0  0  0
 20 63  1  0  0  0
 21 64  1  0  0  0
 22 65  1  0  0  0
 27 66  1  0  0  0
 27 67  1  0  0  0
 29 68  1  0  0  0
 30 69  1  0  0  0
 32 70  1  0  0  0
 33 71  1  0  0  0
 37 72  1  0  0  0
 37 73  1  0  0  0
 37 74  1  0  0  0
 38 75  1  0  0  0
 38 76  1  0  0  0
 45 77  1  0  0  0
 45 78  1  0  0  0
 46 79  1  0  0  0
 46 80  1  0  0  0
M  END
$$$$
