3hf6_ligand
  -I-interpret- 

 57 60  0  0  0  0  0  0  0  0999 V2000
   15.7660    5.8280   19.3850 O   0  0  0  0  0
   15.2430    5.1580   18.4630 C   0  0  0  0  0
   15.4650    5.3890   17.2530 O   0  0  0  0  0
   14.2970    4.0460   18.8170 C   0  0  0  0  0
   14.4200    3.7060   20.2280 N   0  3  0  0  0
   12.8890    4.5660   18.5400 C   0  0  0  0  0
   11.8000    3.5370   18.7530 C   0  0  0  0  0
   10.8560    3.7370   19.7670 C   0  0  0  0  0
    9.8390    2.8030   19.9610 C   0  0  0  0  0
    9.7600    1.6670   19.1480 C   0  0  0  0  0
   10.6960    1.4780   18.1290 C   0  0  0  0  0
   11.7110    2.4150   17.9330 C   0  0  0  0  0
    8.6600    0.6830   19.3470 C   0  0  0  0  0
    7.6950    0.9280   20.2640 N   0  0  0  0  0
    6.6770    0.0520   20.4350 C   0  0  0  0  0
    6.6160   -1.0690   19.6780 N   0  0  0  0  0
    7.5790   -1.3140   18.7530 C   0  0  0  0  0
    7.5430   -2.4350   17.9930 N   0  0  0  0  0
    8.5910   -0.4340   18.5890 N   0  0  0  0  0
    5.7140    0.3000   21.3590 N   0  0  0  0  0
    5.6300    1.5680   22.0790 C   0  0  0  0  0
    4.7050    1.3810   23.2870 C   0  0  0  0  0
    5.1680    2.7030   21.2220 C   0  0  0  0  0
    4.7550    2.4880   19.8990 C   0  0  0  0  0
    4.3230    3.5190   19.0650 C   0  0  0  0  0
    4.2940    4.8190   19.5540 C   0  0  0  0  0
    3.8710    5.8840   18.7630 C   0  0  0  0  0
    3.8610    7.1700   19.3020 C   0  0  0  0  0
    4.2730    7.4030   20.6220 C   0  0  0  0  0
    4.7080    6.3660   21.4490 C   0  0  0  0  0
    4.7330    5.0680   20.9550 C   0  0  0  0  0
    5.1610    4.0000   21.7420 C   0  0  0  0  0
   15.4673    5.4912   20.2329 H   0  0  0  0  0
   14.5169    3.1512   18.2347 H   0  0  0  0  0
   15.3612    3.3586   20.4120 H   0  0  0  0  0
   14.2465    4.5372   20.7932 H   0  0  0  0  0
   13.7381    2.9849   20.4634 H   0  0  0  0  0
   12.8539    4.8617   17.4915 H   0  0  0  0  0
   12.7029    5.3828   19.2373 H   0  0  0  0  0
   10.9157    4.6202   20.4030 H   0  0  0  0  0
    9.1025    2.9585   20.7493 H   0  0  0  0  0
   10.6337    0.5991   17.4873 H   0  0  0  0  0
   12.4379    2.2681   17.1341 H   0  0  0  0  0
    6.7856   -3.1078   18.1120 H   0  0  0  0  0
    8.2733   -2.6062   17.3018 H   0  0  0  0  0
    5.0245   -0.4250   21.5576 H   0  0  0  0  0
    6.6339    1.8394   22.4055 H   0  0  0  0  0
    3.7151    1.0820   22.9422 H   0  0  0  0  0
    5.1127    0.6085   23.9391 H   0  0  0  0  0
    4.6317    2.3200   23.8357 H   0  0  0  0  0
    4.7724    1.4716   19.5058 H   0  0  0  0  0
    4.0119    3.3074   18.0420 H   0  0  0  0  0
    3.5515    5.7145   17.7348 H   0  0  0  0  0
    3.5279    8.0068   18.6880 H   0  0  0  0  0
    4.2531    8.4205   21.0125 H   0  0  0  0  0
    5.0246    6.5726   22.4713 H   0  0  0  0  0
    5.4911    4.1771   22.7656 H   0  0  0  0  0
  1  2  1  0  0  0
  2  3  2  0  0  0
  2  4  1  0  0  0
  4  5  1  0  0  0
  4  6  1  0  0  0
  6  7  1  0  0  0
  7  8  4  0  0  0
  7 12  4  0  0  0
  8  9  4  0  0  0
  9 10  4  0  0  0
 10 11  4  0  0  0
 10 13  1  0  0  0
 11 12  4  0  0  0
 13 14  4  0  0  0
 13 19  4  0  0  0
 14 15  4  0  0  0
 15 16  4  0  0  0
 15 20  1  0  0  0
 16 17  4  0  0  0
 17 18  1  0  0  0
 17 19  4  0  0  0
 20 21  1  0  0  0
 21 22  1  0  0  0
 21 23  1  0  0  0
 23 24  4  0  0  0
 23 32  4  0  0  0
 24 25  4  0  0  0
 25 26  4  0  0  0
 26 27  4  0  0  0
 26 31  4  0  0  0
 27 28  4  0  0  0
 28 29  4  0  0  0
 29 30  4  0  0  0
 30 31  4  0  0  0
 31 32  4  0  0  0
  1 33  1  0  0  0
  4 34  1  0  0  0
  5 35  1  0  0  0
  5 36  1  0  0  0
  5 37  1  0  0  0
  6 38  1  0  0  0
  6 39  1  0  0  0
  8 40  1  0  0  0
  9 41  1  0  0  0
 11 42  1  0  0  0
 12 43  1  0  0  0
 18 44  1  0  0  0
 18 45  1  0  0  0
 20 46  1  0  0  0
 21 47  1  0  0  0
 22 48  1  0  0  0
 22 49  1  0  0  0
 22 50  1  0  0  0
 24 51  1  0  0  0
 25 52  1  0  0  0
 27 53  1  0  0  0
 28 54  1  0  0  0
 29 55  1  0  0  0
 30 56  1  0  0  0
 32 57  1  0  0  0
M  END
$$$$
