6m8q_ligand
  -I-interpret- 

 62 64  0  0  0  0  0  0  0  0999 V2000
   -6.9830  -33.9440  -30.9590 C   0  0  0  0  0
   -8.0900  -34.8910  -31.4870 C   0  0  0  0  0
  -12.8470  -32.0780  -32.7380 C   0  0  0  0  0
  -12.5870  -30.7490  -32.3630 C   0  0  0  0  0
  -13.5980  -29.7840  -32.3590 C   0  0  0  0  0
  -14.8860  -30.1380  -32.7920 C   0  0  0  0  0
  -15.1540  -31.4920  -33.1590 C   0  0  0  0  0
  -14.1240  -32.4510  -33.1850 C   0  0  0  0  0
  -15.9790  -29.0900  -32.6990 C   0  0  0  0  0
  -18.4350  -28.5420  -32.6440 C   0  0  0  0  0
  -19.4950  -29.2370  -31.8250 C   0  0  0  0  0
  -18.9920  -27.9640  -33.9770 C   0  0  0  0  0
  -19.6060  -29.0060  -34.9300 C   0  0  0  0  0
  -20.9480  -29.4210  -34.7780 C   0  0  0  0  0
  -21.4920  -30.3640  -35.6670 C   0  0  0  0  0
   -6.5060  -33.0370  -32.0350 N   0  3  0  0  0
   -9.1640  -34.0690  -32.0820 N   0  3  0  0  0
   -8.7130  -33.1900  -33.2010 C   0  0  0  0  0
   -7.5930  -32.2430  -32.6830 C   0  0  0  0  0
  -10.4630  -34.7820  -32.2130 C   0  0  0  0  0
  -11.5890  -33.8550  -31.6960 C   0  0  0  0  0
  -11.7890  -32.9760  -32.8070 O   0  0  0  0  0
   -5.3400  -32.2390  -31.5890 C   0  0  0  0  0
  -14.3910  -34.1130  -33.7280 Cl  0  0  0  0  0
  -10.9710  -30.3130  -31.8860 Cl  0  0  0  0  0
  -16.4220  -31.9070  -33.5510 O   0  0  0  0  0
  -15.5990  -27.9510  -32.4890 O   0  0  0  0  0
  -17.2890  -29.4390  -32.8080 N   0  0  0  0  0
  -19.4070  -30.5740  -31.7520 O   0  0  0  0  0
  -20.3750  -28.5890  -31.2880 O   0  0  0  0  0
  -20.7190  -30.8630  -36.7340 C   0  0  0  0  0
  -19.3910  -30.4250  -36.9140 C   0  0  0  0  0
  -18.8400  -29.4970  -36.0090 C   0  0  0  0  0
   -6.1440  -34.5453  -30.6090 H   0  0  0  0  0
   -7.3932  -33.3418  -30.1483 H   0  0  0  0  0
   -8.4894  -35.4900  -30.6686 H   0  0  0  0  0
   -7.6770  -35.5646  -32.2379 H   0  0  0  0  0
  -13.3890  -28.7682  -32.0236 H   0  0  0  0  0
  -18.0855  -27.6595  -32.1082 H   0  0  0  0  0
  -18.1493  -27.5144  -34.5022 H   0  0  0  0  0
  -19.7902  -27.2711  -33.7110 H   0  0  0  0  0
  -21.5594  -29.0112  -33.9740 H   0  0  0  0  0
  -22.5163  -30.7107  -35.5304 H   0  0  0  0  0
   -6.1696  -33.6279  -32.7953 H   0  0  0  0  0
   -9.4112  -33.3600  -31.3916 H   0  0  0  0  0
   -9.5535  -32.5995  -33.5656 H   0  0  0  0  0
   -8.3280  -33.8023  -34.0165 H   0  0  0  0  0
   -7.1772  -31.6882  -33.5241 H   0  0  0  0  0
   -8.0171  -31.5549  -31.9517 H   0  0  0  0  0
  -10.4420  -35.7020  -31.6288 H   0  0  0  0  0
  -10.6426  -35.0374  -33.2573 H   0  0  0  0  0
  -11.3279  -33.3327  -30.7756 H   0  0  0  0  0
  -12.4909  -34.3939  -31.4058 H   0  0  0  0  0
   -4.8955  -31.7363  -32.4479 H   0  0  0  0  0
   -5.6666  -31.4966  -30.8608 H   0  0  0  0  0
   -4.6032  -32.8991  -31.1314 H   0  0  0  0  0
  -16.4013  -32.8445  -33.7565 H   0  0  0  0  0
  -17.4919  -30.4150  -33.0238 H   0  0  0  0  0
  -18.6397  -30.8706  -32.2469 H   0  0  0  0  0
  -21.1491  -31.5902  -37.4227 H   0  0  0  0  0
  -18.7960  -30.8012  -37.7462 H   0  0  0  0  0
  -17.8137  -29.1552  -36.1430 H   0  0  0  0  0
  2  1  1  0  0  0
  1 16  1  0  0  0
 17  2  1  0  0  0
  3  4  4  0  0  0
  3  8  4  0  0  0
 22  3  1  0  0  0
  4  5  4  0  0  0
  4 25  1  0  0  0
  5  6  4  0  0  0
  7  6  4  0  0  0
  6  9  1  0  0  0
  8  7  4  0  0  0
  7 26  1  0  0  0
  8 24  1  0  0  0
  9 27  2  0  0  0
  9 28  1  0  0  0
 10 11  1  0  0  0
 10 12  1  0  0  0
 28 10  1  0  0  0
 11 29  1  0  0  0
 11 30  2  0  0  0
 12 13  1  0  0  0
 13 14  4  0  0  0
 13 33  4  0  0  0
 14 15  4  0  0  0
 15 31  4  0  0  0
 19 16  1  0  0  0
 16 23  1  0  0  0
 17 18  1  0  0  0
 20 17  1  0  0  0
 18 19  1  0  0  0
 21 20  1  0  0  0
 21 22  1  0  0  0
 31 32  4  0  0  0
 32 33  4  0  0  0
  1 34  1  0  0  0
  1 35  1  0  0  0
  2 36  1  0  0  0
  2 37  1  0  0  0
  5 38  1  0  0  0
 10 39  1  0  0  0
 12 40  1  0  0  0
 12 41  1  0  0  0
 14 42  1  0  0  0
 15 43  1  0  0  0
 16 44  1  0  0  0
 17 45  1  0  0  0
 18 46  1  0  0  0
 18 47  1  0  0  0
 19 48  1  0  0  0
 19 49  1  0  0  0
 20 50  1  0  0  0
 20 51  1  0  0  0
 21 52  1  0  0  0
 21 53  1  0  0  0
 23 54  1  0  0  0
 23 55  1  0  0  0
 23 56  1  0  0  0
 26 57  1  0  0  0
 28 58  1  0  0  0
 29 59  1  0  0  0
 31 60  1  0  0  0
 32 61  1  0  0  0
 33 62  1  0  0  0
M  END
$$$$
