2aox_ligand
  -I-interpret- 

 29 31  0  0  0  0  0  0  0  0999 V2000
   51.8020   -5.6770   30.6340 C   0  0  0  0  0
   51.6420   -7.1800   31.2170 C   0  0  0  0  0
   52.0990   -8.2670   30.2830 C   0  0  0  0  0
   52.8870   -7.9830   29.0650 C   0  0  0  0  0
   53.2950   -6.5630   28.6640 C   0  0  0  0  0
   52.9660   -5.3990   29.6420 C   0  0  0  0  0
   51.7520   -9.5340   30.6130 N   0  0  0  0  0
   52.1910  -10.7210   29.7860 C   0  0  0  0  0
   52.9800  -10.4410   28.5340 C   0  0  0  0  0
   53.3020   -9.0660   28.1970 C   0  0  0  0  0
   51.8670  -12.1120   30.1510 C   0  0  0  0  0
   52.3090  -13.1960   29.3010 C   0  0  0  0  0
   53.0730  -12.8760   28.0910 C   0  0  0  0  0
   53.4090  -11.5310   27.7040 C   0  0  0  0  0
   54.0600   -8.7480   26.9680 N   0  0  0  0  0
   52.0062   -5.0504   31.5022 H   0  0  0  0  0
   50.8893   -5.4873   30.0692 H   0  0  0  0  0
   50.5786   -7.3403   31.3950 H   0  0  0  0  0
   52.2666   -7.2433   32.1081 H   0  0  0  0  0
   52.7282   -6.3462   27.7585 H   0  0  0  0  0
   54.3828   -6.5844   28.5986 H   0  0  0  0  0
   53.8589   -5.2353   30.2453 H   0  0  0  0  0
   52.6587   -4.5521   29.0284 H   0  0  0  0  0
   51.2976  -12.3226   31.0563 H   0  0  0  0  0
   52.0786  -14.2306   29.5551 H   0  0  0  0  0
   53.4025  -13.6966   27.4537 H   0  0  0  0  0
   53.9803  -11.3430   26.7949 H   0  0  0  0  0
   54.2828   -7.7785   26.7427 H   0  0  0  0  0
   54.3601   -9.4982   26.3454 H   0  0  0  0  0
  1  2  1  0  0  0
  1  6  1  0  0  0
  2  3  1  0  0  0
  3  4  4  0  0  0
  3  7  4  0  0  0
  4  5  1  0  0  0
  4 10  4  0  0  0
  5  6  1  0  0  0
  7  8  4  0  0  0
  8  9  4  0  0  0
  8 11  4  0  0  0
  9 10  4  0  0  0
  9 14  4  0  0  0
 10 15  1  0  0  0
 11 12  4  0  0  0
 12 13  4  0  0  0
 13 14  4  0  0  0
  1 16  1  0  0  0
  1 17  1  0  0  0
  2 18  1  0  0  0
  2 19  1  0  0  0
  5 20  1  0  0  0
  5 21  1  0  0  0
  6 22  1  0  0  0
  6 23  1  0  0  0
 11 24  1  0  0  0
 12 25  1  0  0  0
 13 26  1  0  0  0
 14 27  1  0  0  0
 15 28  1  0  0  0
 15 29  1  0  0  0
M  END
$$$$
