6ht1_ligand
  -I-interpret- 

 53 57  0  0  0  0  0  0  0  0999 V2000
  -14.7090    3.7530   49.6890 C   0  0  0  0  0
  -15.1850    1.4410   50.1650 C   0  0  0  0  0
  -14.3490    5.0890   49.8600 N   0  0  0  0  0
  -11.1860    8.3860   46.5750 C   0  0  0  0  0
  -15.2860    0.3550   51.0660 N   0  0  0  0  0
  -15.1240    0.3720   52.4140 C   0  0  0  0  0
  -12.5600    6.4070   46.5590 C   0  0  0  0  0
  -16.3510   -5.2730   54.1540 N   0  0  0  0  0
  -14.9250    4.7590   47.7340 N   0  0  0  0  0
  -14.4870    5.6350   48.6660 C   0  0  0  0  0
  -15.0560    1.4050   53.0770 O   0  0  0  0  0
  -15.1430   -0.9610   53.0850 C   0  0  0  0  0
  -14.2890   -1.1830   54.1700 C   0  0  0  0  0
  -14.2760   -2.4010   54.8360 C   0  0  0  0  0
  -15.1490   -3.3880   54.4150 C   0  0  0  0  0
  -15.3390   -4.6620   54.8370 N   0  0  0  0  0
  -14.5570   -5.4110   55.8040 C   0  0  0  0  0
  -16.7790   -4.3940   53.2730 C   0  0  0  0  0
  -16.0510   -3.1750   53.3630 C   0  0  0  0  0
  -16.0250   -1.9650   52.6740 C   0  0  0  0  0
  -14.7510    2.6980   50.5970 C   0  0  0  0  0
  -15.5830    1.2480   48.8340 C   0  0  0  0  0
  -15.5390    2.2970   47.9230 C   0  0  0  0  0
  -15.0880    3.5390   48.3670 C   0  0  0  0  0
  -14.1440    7.0510   48.3310 C   0  0  0  0  0
  -12.7800    7.1850   47.7970 N   0  3  0  0  0
  -12.4260    8.5850   47.4360 C   0  0  0  0  0
  -12.1900    9.4700   48.6410 C   0  0  0  0  0
  -11.6230    7.2690   45.6900 C   0  0  0  0  0
  -10.2851    8.1655   47.1475 H   0  0  0  0  0
  -10.8797    9.2809   46.0333 H   0  0  0  0  0
  -15.5074   -0.5509   50.6528 H   0  0  0  0  0
  -13.4993    6.1984   46.0468 H   0  0  0  0  0
  -12.1211    5.4325   46.7731 H   0  0  0  0  0
  -13.6220   -0.3859   54.4984 H   0  0  0  0  0
  -13.5953   -2.5751   55.6693 H   0  0  0  0  0
  -15.2143   -5.7867   56.5881 H   0  0  0  0  0
  -14.0694   -6.2483   55.3047 H   0  0  0  0  0
  -13.8022   -4.7584   56.2426 H   0  0  0  0  0
  -17.5875   -4.5765   52.5652 H   0  0  0  0  0
  -16.6858   -1.8023   51.8226 H   0  0  0  0  0
  -14.4489    2.8505   51.6331 H   0  0  0  0  0
  -15.9300    0.2665   48.5110 H   0  0  0  0  0
  -15.8492    2.1521   46.8882 H   0  0  0  0  0
  -14.2076    7.6395   49.2463 H   0  0  0  0  0
  -14.8410    7.3957   47.5672 H   0  0  0  0  0
  -12.2020    6.8394   48.5631 H   0  0  0  0  0
  -13.2255    9.1161   46.9195 H   0  0  0  0  0
  -13.0949    9.5045   49.2476 H   0  0  0  0  0
  -11.3695    9.0644   49.2329 H   0  0  0  0  0
  -11.9362   10.4761   48.3072 H   0  0  0  0  0
  -10.7744    6.6931   45.3209 H   0  0  0  0  0
  -12.1286    7.6376   44.7975 H   0  0  0  0  0
  3  1  4  0  0  0
  1 21  4  0  0  0
 24  1  4  0  0  0
  2  5  1  0  0  0
 21  2  4  0  0  0
 22  2  4  0  0  0
 10  3  4  0  0  0
  4 27  1  0  0  0
 29  4  1  0  0  0
  5  6  1  0  0  0
  6 11  2  0  0  0
  6 12  1  0  0  0
 26  7  1  0  0  0
  7 29  1  0  0  0
  8 16  4  0  0  0
 18  8  4  0  0  0
 10  9  4  0  0  0
  9 24  4  0  0  0
 25 10  1  0  0  0
 12 13  4  0  0  0
 12 20  4  0  0  0
 13 14  4  0  0  0
 14 15  4  0  0  0
 15 16  4  0  0  0
 19 15  4  0  0  0
 16 17  1  0  0  0
 19 18  4  0  0  0
 20 19  4  0  0  0
 23 22  4  0  0  0
 24 23  4  0  0  0
 25 26  1  0  0  0
 26 27  1  0  0  0
 27 28  1  0  0  0
  4 30  1  0  0  0
  4 31  1  0  0  0
  5 32  1  0  0  0
  7 33  1  0  0  0
  7 34  1  0  0  0
 13 35  1  0  0  0
 14 36  1  0  0  0
 17 37  1  0  0  0
 17 38  1  0  0  0
 17 39  1  0  0  0
 18 40  1  0  0  0
 20 41  1  0  0  0
 21 42  1  0  0  0
 22 43  1  0  0  0
 23 44  1  0  0  0
 25 45  1  0  0  0
 25 46  1  0  0  0
 26 47  1  0  0  0
 27 48  1  0  0  0
 28 49  1  0  0  0
 28 50  1  0  0  0
 28 51  1  0  0  0
 29 52  1  0  0  0
 29 53  1  0  0  0
M  END
$$$$
