3ud9_ligand
  -I-interpret- 

 60 61  0  0  0  0  0  0  0  0999 V2000
  -39.4380   -4.9870   17.8860 C   0  0  0  0  0
  -40.8180   -4.4850   17.4600 C   0  0  0  0  0
  -41.8370   -4.8980   18.5040 C   0  0  0  0  0
  -41.7390   -6.3830   18.7200 C   0  0  0  0  0
  -40.3260   -6.8490   19.0490 C   0  0  0  0  0
  -40.2550   -8.3580   19.0110 C   0  0  0  0  0
  -40.8000   -3.0500   17.3290 N   0  0  0  0  0
  -43.1690   -4.6570   18.1120 O   0  0  0  0  0
  -42.6110   -6.5830   19.7940 O   0  0  0  0  0
  -39.4170   -6.3880   18.0880 O   0  0  0  0  0
  -39.6940   -8.7440   17.7790 O   0  0  0  0  0
  -40.9060   -2.4120   15.8920 S   0  0  0  0  0
  -41.4260   -1.0840   16.0060 O   0  0  0  0  0
  -41.8200   -3.2660   15.2100 O   0  0  0  0  0
  -39.6120   -2.4650   15.2790 O   0  0  0  0  0
  -38.9340  -10.0900   17.7470 S   0  0  0  0  0
  -38.7020  -10.4580   16.3660 O   0  0  0  0  0
  -39.8280  -11.0010   18.4100 O   0  0  0  0  0
  -37.6930   -9.9420   18.4960 O   0  0  0  0  0
  -40.1070    0.4560   19.4840 S   0  0  0  0  0
  -38.0420   -1.2500   21.0500 C   0  0  0  0  0
  -37.0000   -0.7620   21.5010 O   0  0  0  0  0
  -38.1370   -1.1630   19.5490 C   0  0  0  0  0
  -39.5230   -0.9150   19.2290 O   0  0  0  0  0
  -37.6170   -2.3650   18.8280 C   0  0  0  0  0
  -36.1770   -2.1360   18.5400 O   0  0  0  0  0
  -37.7850   -3.6660   19.5360 C   0  0  0  0  0
  -39.0440   -4.3560   19.0760 O   0  0  0  0  0
  -37.7730   -3.6210   21.0560 C   0  0  0  0  0
  -38.4390   -2.4800   21.6200 O   0  0  0  0  0
  -38.5250   -4.8060   21.6170 C   0  0  0  0  0
  -35.6730   -0.2900   21.6370 C   0  0  0  0  0
  -37.8490   -5.6610   22.3410 O   0  0  0  0  0
  -39.8480   -4.6070   21.7720 O   0  0  0  0  0
  -41.5740    0.3570   19.4430 O   0  0  0  0  0
  -39.6430    1.3650   18.4130 O   0  0  0  0  0
  -39.6250    0.9990   20.7980 O   0  0  0  0  0
  -38.7483   -4.7464   17.0769 H   0  0  0  0  0
  -41.0851   -4.9193   16.4966 H   0  0  0  0  0
  -41.6122   -4.3099   19.3938 H   0  0  0  0  0
  -41.9920   -6.9550   17.8273 H   0  0  0  0  0
  -40.0793   -6.4613   20.0374 H   0  0  0  0  0
  -41.2538   -8.7817   19.1158 H   0  0  0  0  0
  -39.6394   -8.7238   19.8328 H   0  0  0  0  0
  -40.7198   -2.4560   18.1543 H   0  0  0  0  0
  -43.2913   -3.7172   17.9590 H   0  0  0  0  0
  -43.4891   -6.2793   19.5526 H   0  0  0  0  0
  -39.3189   -3.3779   15.2314 H   0  0  0  0  0
  -37.8947   -9.6986   19.4025 H   0  0  0  0  0
  -38.8306   -0.5893   21.4101 H   0  0  0  0  0
  -37.4928   -0.3534   19.2059 H   0  0  0  0  0
  -38.2185   -2.4660   17.9246 H   0  0  0  0  0
  -35.8197   -2.8967   18.0759 H   0  0  0  0  0
  -36.8895   -4.2233   19.2610 H   0  0  0  0  0
  -36.7141   -3.5999   21.3136 H   0  0  0  0  0
  -34.9771   -1.1101   21.4603 H   0  0  0  0  0
  -35.4944    0.5026   20.9104 H   0  0  0  0  0
  -35.5289    0.0998   22.6447 H   0  0  0  0  0
  -40.1460   -3.9426   21.1464 H   0  0  0  0  0
  -38.6664    1.0499   20.7896 H   0  0  0  0  0
  1  2  1  0  0  0
  1 10  1  0  0  0
 28  1  1  0  0  0
  2  3  1  0  0  0
  2  7  1  0  0  0
  3  4  1  0  0  0
  3  8  1  0  0  0
  5  4  1  0  0  0
  4  9  1  0  0  0
  5  6  1  0  0  0
 10  5  1  0  0  0
  6 11  1  0  0  0
  7 12  1  0  0  0
 11 16  1  0  0  0
 12 13  2  0  0  0
 12 14  2  0  0  0
 12 15  1  0  0  0
 16 17  2  0  0  0
 16 18  2  0  0  0
 16 19  1  0  0  0
 24 20  1  0  0  0
 20 35  2  0  0  0
 20 36  2  0  0  0
 20 37  1  0  0  0
 21 22  1  0  0  0
 23 21  1  0  0  0
 21 30  1  0  0  0
 22 32  1  0  0  0
 23 24  1  0  0  0
 25 23  1  0  0  0
 25 26  1  0  0  0
 27 25  1  0  0  0
 27 28  1  0  0  0
 27 29  1  0  0  0
 29 30  1  0  0  0
 29 31  1  0  0  0
 31 33  2  0  0  0
 31 34  1  0  0  0
  1 38  1  0  0  0
  2 39  1  0  0  0
  3 40  1  0  0  0
  4 41  1  0  0  0
  5 42  1  0  0  0
  6 43  1  0  0  0
  6 44  1  0  0  0
  7 45  1  0  0  0
  8 46  1  0  0  0
  9 47  1  0  0  0
 15 48  1  0  0  0
 19 49  1  0  0  0
 21 50  1  0  0  0
 23 51  1  0  0  0
 25 52  1  0  0  0
 26 53  1  0  0  0
 27 54  1  0  0  0
 29 55  1  0  0  0
 32 56  1  0  0  0
 32 57  1  0  0  0
 32 58  1  0  0  0
 34 59  1  0  0  0
 37 60  1  0  0  0
M  END
$$$$
