3uvm_ligand
  -I-interpret- 

159159  0  0  0  0  0  0  0  0999 V2000
    7.7940   31.0760  -11.8680 N   0  3  0  0  0
    9.0700   30.3740  -12.0020 C   0  0  0  0  0
    9.1430   29.2490  -10.9940 C   0  0  0  0  0
    8.1090   28.7680  -10.5280 O   0  0  0  0  0
   10.3630   28.8490  -10.6170 N   0  0  0  0  0
   10.5460   27.8120   -9.5840 C   0  0  0  0  0
   11.5370   28.3680   -8.5940 C   0  0  0  0  0
   12.5810   28.9100   -8.9990 O   0  0  0  0  0
   11.0700   26.5290  -10.1990 C   0  0  0  0  0
   11.2440   28.2310   -7.2960 N   0  0  0  0  0
   12.1290   28.8000   -6.2620 C   0  0  0  0  0
   13.5630   28.2900   -6.3550 C   0  0  0  0  0
   14.4960   29.0480   -6.0930 O   0  0  0  0  0
   11.5530   28.5200   -4.8810 C   0  0  0  0  0
   13.7790   27.0210   -6.7410 N   0  0  0  0  0
   15.1620   26.5280   -6.8350 C   0  0  0  0  0
   15.9950   27.2950   -7.8670 C   0  0  0  0  0
   17.2260   27.3560   -7.7640 O   0  0  0  0  0
   15.1850   25.0290   -7.1330 C   0  0  0  0  0
   16.5920   24.4650   -6.9100 C   0  0  0  0  0
   16.6580   22.9670   -7.1610 C   0  0  0  0  0
   15.8090   22.2180   -6.2430 N   0  0  0  0  0
   16.2210   21.7210   -5.0810 C   0  0  0  0  0
   17.4780   21.9020   -4.6800 N   0  0  0  0  0
   15.3830   21.0500   -4.3070 N   0  0  0  0  0
   15.3260   27.8740   -8.8640 N   0  0  0  0  0
   16.0510   28.6080   -9.9050 C   0  0  0  0  0
   16.2470   30.0640   -9.5320 C   0  0  0  0  0
   16.7260   30.8570  -10.3690 O   0  0  0  0  0
   15.3090   28.4780  -11.2270 C   0  0  0  0  0
   15.9720   30.4210   -8.2630 N   0  0  0  0  0
   16.1300   31.8030   -7.8000 C   0  0  0  0  0
   17.0530   31.8930   -6.6170 C   0  0  0  0  0
   17.2540   30.9120   -5.9130 O   0  0  0  0  0
   14.7630   32.3990   -7.3790 C   0  0  0  0  0
   13.6830   32.2700   -8.4310 C   0  0  0  0  0
   13.8080   33.1780   -9.6400 C   0  0  0  0  0
   14.6690   34.0850   -9.6290 O   0  0  0  0  0
   13.0290   32.9840  -10.5990 O   0  0  0  0  0
   17.5990   33.0940   -6.3740 N   0  0  0  0  0
   18.4510   33.3450   -5.2160 C   0  0  0  0  0
   17.5110   33.6640   -4.0460 C   0  0  0  0  0
   16.4810   34.3100   -4.2540 O   0  0  0  0  0
   19.4370   34.5140   -5.5020 C   0  0  0  0  0
   20.3530   34.7800   -4.3110 C   0  0  0  0  0
   20.2650   34.2420   -6.7540 C   0  0  0  0  0
   17.8200   33.1590   -2.8380 N   0  0  0  0  0
   17.0400   33.4790   -1.6450 C   0  0  0  0  0
   18.0150   34.1590   -0.7080 C   0  0  0  0  0
   19.0660   33.5870   -0.3940 O   0  0  0  0  0
   16.4790   32.2240   -0.9640 C   0  0  0  0  0
   15.8500   32.5340    0.3820 C   0  0  0  0  0
   14.5690   33.0550    0.4650 C   0  0  0  0  0
   16.5630   32.3610    1.5640 C   0  0  0  0  0
   13.9940   33.3690    1.6960 C   0  0  0  0  0
   15.9890   32.6490    2.8070 C   0  0  0  0  0
   14.7090   33.1620    2.8620 C   0  0  0  0  0
   14.1230   33.4210    4.0780 O   0  0  0  0  0
   17.6670   35.3360   -0.2320 N   0  0  0  0  0
   18.5350   36.0360    0.7180 C   0  0  0  0  0
   17.8700   36.1480    2.0810 C   0  0  0  0  0
   16.7370   36.6340    2.1860 O   0  0  0  0  0
   18.9680   37.4110    0.1840 C   0  0  0  0  0
   19.6940   37.4170   -1.1710 C   0  0  0  0  0
   19.7990   38.8210   -1.7180 C   0  0  0  0  0
   21.0750   36.7450   -1.0830 C   0  0  0  0  0
   18.5710   35.6520    3.1160 N   0  0  0  0  0
   18.1440   35.6600    4.5260 C   0  0  0  0  0
   17.5640   36.9980    4.9710 C   0  0  0  0  0
   16.6860   37.0250    5.8290 O   0  0  0  0  0
   19.3200   35.3100    5.4410 C   0  0  0  0  0
   19.9310   33.9600    5.1510 C   0  0  0  0  0
   21.2290   33.7960    5.8910 C   0  0  0  0  0
   21.2370   32.4880    6.5160 N   0  0  0  0  0
   22.2660   31.9400    7.1410 C   0  0  0  0  0
   23.4140   32.6010    7.2610 N   0  0  0  0  0
   22.1570   30.7350    7.6590 N   0  0  0  0  0
   17.9836   38.0709    4.4608 O   0  0  0  0  0
    7.7506   31.8332  -12.5500 H   0  0  0  0  0
    7.0287   30.4226  -12.0345 H   0  0  0  0  0
    7.7159   31.4601  -10.9263 H   0  0  0  0  0
    9.8869   31.0730  -11.8223 H   0  0  0  0  0
    9.1515   29.9627  -13.0081 H   0  0  0  0  0
   11.1835   29.2699  -11.0530 H   0  0  0  0  0
    9.5997   27.5690   -9.1007 H   0  0  0  0  0
   12.0092   26.7315  -10.7138 H   0  0  0  0  0
   11.2365   25.7924   -9.4130 H   0  0  0  0  0
   10.3397   26.1440  -10.9107 H   0  0  0  0  0
   10.4008   27.7284   -7.0186 H   0  0  0  0  0
   12.1740   29.8753   -6.4348 H   0  0  0  0  0
   10.5655   28.9746   -4.8016 H   0  0  0  0  0
   11.4715   27.4430   -4.7343 H   0  0  0  0  0
   12.2110   28.9427   -4.1218 H   0  0  0  0  0
   12.9951   26.4082   -6.9656 H   0  0  0  0  0
   15.6226   26.7032   -5.8628 H   0  0  0  0  0
   14.8972   24.8679   -8.1719 H   0  0  0  0  0
   14.4882   24.5224   -6.4652 H   0  0  0  0  0
   16.8692   24.6470   -5.8717 H   0  0  0  0  0
   17.2685   24.9558   -7.6097 H   0  0  0  0  0
   17.6880   22.6428   -7.0120 H   0  0  0  0  0
   16.3103   22.7773   -8.1765 H   0  0  0  0  0
   14.8363   22.0654   -6.5093 H   0  0  0  0  0
   17.7868   21.5250   -3.7840 H   0  0  0  0  0
   18.1320   22.4177   -5.2689 H   0  0  0  0  0
   14.4161   20.9122   -4.6012 H   0  0  0  0  0
   14.3090   27.8062   -8.9025 H   0  0  0  0  0
   17.0447   28.1719  -10.0070 H   0  0  0  0  0
   15.2424   27.4256  -11.5028 H   0  0  0  0  0
   14.3060   28.8914  -11.1214 H   0  0  0  0  0
   15.8489   29.0242  -12.0005 H   0  0  0  0  0
   15.6453   29.7115   -7.6070 H   0  0  0  0  0
   16.5523   32.3627   -8.6346 H   0  0  0  0  0
   14.9158   33.4637   -7.2024 H   0  0  0  0  0
   14.4265   31.8465   -6.5017 H   0  0  0  0  0
   12.7487   32.5446   -7.9413 H   0  0  0  0  0
   13.7495   31.2502   -8.8099 H   0  0  0  0  0
   12.4546   32.2415  -10.3981 H   0  0  0  0  0
   17.4120   33.8593   -7.0219 H   0  0  0  0  0
   19.0697   32.4793   -4.9798 H   0  0  0  0  0
   18.8350   35.4067   -5.6718 H   0  0  0  0  0
   19.7498   35.0425   -3.4419 H   0  0  0  0  0
   20.9344   33.8839   -4.0941 H   0  0  0  0  0
   21.0268   35.6030   -4.5492 H   0  0  0  0  0
   20.8402   33.3265   -6.6158 H   0  0  0  0  0
   19.6001   34.1291   -7.6103 H   0  0  0  0  0
   20.9442   35.0767   -6.9273 H   0  0  0  0  0
   18.6221   32.5346   -2.7526 H   0  0  0  0  0
   16.1824   34.0995   -1.9050 H   0  0  0  0  0
   17.3033   31.5297   -0.8010 H   0  0  0  0  0
   15.7079   31.8040   -1.6098 H   0  0  0  0  0
   13.9998   33.2227   -0.4493 H   0  0  0  0  0
   17.5885   31.9941    1.5209 H   0  0  0  0  0
   12.9839   33.7764    1.7393 H   0  0  0  0  0
   16.5486   32.4695    3.7250 H   0  0  0  0  0
   14.7476   33.2272    4.7807 H   0  0  0  0  0
   16.7885   35.7627   -0.5262 H   0  0  0  0  0
   19.4411   35.4423    0.8386 H   0  0  0  0  0
   19.6767   37.8094    0.9101 H   0  0  0  0  0
   18.0516   37.9833    0.0401 H   0  0  0  0  0
   19.0968   36.8273   -1.8665 H   0  0  0  0  0
   18.7988   39.2327   -1.8531 H   0  0  0  0  0
   20.3572   39.4418   -1.0172 H   0  0  0  0  0
   20.3165   38.7982   -2.6771 H   0  0  0  0  0
   21.6925   37.2796   -0.3612 H   0  0  0  0  0
   20.9542   35.7099   -0.7636 H   0  0  0  0  0
   21.5534   36.7711   -2.0621 H   0  0  0  0  0
   19.4774   35.2338    2.9065 H   0  0  0  0  0
   17.3556   34.9115    4.6044 H   0  0  0  0  0
   18.9424   35.2849    6.4632 H   0  0  0  0  0
   20.0940   36.0604    5.2798 H   0  0  0  0  0
   20.1226   33.8819    4.0808 H   0  0  0  0  0
   19.2392   33.1825    5.4752 H   0  0  0  0  0
   21.3266   34.5726    6.6496 H   0  0  0  0  0
   22.0666   33.8840    5.1991 H   0  0  0  0  0
   20.3756   31.9437    6.4699 H   0  0  0  0  0
   24.1998   32.1735    7.7510 H   0  0  0  0  0
   23.5085   33.5354    6.8630 H   0  0  0  0  0
   21.2785   30.2229    7.5787 H   0  0  0  0  0
   18.6634   37.8714    3.8130 H   0  0  0  0  0
  1  2  1  0  0  0
  2  3  1  0  0  0
  3  4  2  0  0  0
  3  5  1  0  0  0
  5  6  1  0  0  0
  6  7  1  0  0  0
  6  9  1  0  0  0
  7  8  2  0  0  0
  7 10  1  0  0  0
 10 11  1  0  0  0
 11 12  1  0  0  0
 11 14  1  0  0  0
 12 13  2  0  0  0
 12 15  1  0  0  0
 15 16  1  0  0  0
 16 17  1  0  0  0
 16 19  1  0  0  0
 17 18  2  0  0  0
 17 26  1  0  0  0
 19 20  1  0  0  0
 20 21  1  0  0  0
 21 22  1  0  0  0
 22 23  1  0  0  0
 23 24  1  0  0  0
 23 25  2  0  0  0
 26 27  1  0  0  0
 27 28  1  0  0  0
 27 30  1  0  0  0
 28 29  2  0  0  0
 28 31  1  0  0  0
 31 32  1  0  0  0
 32 33  1  0  0  0
 32 35  1  0  0  0
 33 34  2  0  0  0
 33 40  1  0  0  0
 35 36  1  0  0  0
 36 37  1  0  0  0
 37 38  2  0  0  0
 37 39  1  0  0  0
 40 41  1  0  0  0
 41 42  1  0  0  0
 41 44  1  0  0  0
 42 43  2  0  0  0
 42 47  1  0  0  0
 44 45  1  0  0  0
 44 46  1  0  0  0
 47 48  1  0  0  0
 48 49  1  0  0  0
 48 51  1  0  0  0
 49 50  2  0  0  0
 49 59  1  0  0  0
 51 52  1  0  0  0
 52 53  4  0  0  0
 52 54  4  0  0  0
 53 55  4  0  0  0
 54 56  4  0  0  0
 55 57  4  0  0  0
 56 57  4  0  0  0
 57 58  1  0  0  0
 59 60  1  0  0  0
 60 61  1  0  0  0
 60 63  1  0  0  0
 61 62  2  0  0  0
 61 67  1  0  0  0
 63 64  1  0  0  0
 64 65  1  0  0  0
 64 66  1  0  0  0
 67 68  1  0  0  0
 68 69  1  0  0  0
 68 71  1  0  0  0
 69 70  2  0  0  0
 71 72  1  0  0  0
 72 73  1  0  0  0
 73 74  1  0  0  0
 74 75  1  0  0  0
 75 76  1  0  0  0
 75 77  2  0  0  0
 69 78  1  0  0  0
  1 79  1  0  0  0
  1 80  1  0  0  0
  1 81  1  0  0  0
  2 82  1  0  0  0
  2 83  1  0  0  0
  5 84  1  0  0  0
  6 85  1  0  0  0
  9 86  1  0  0  0
  9 87  1  0  0  0
  9 88  1  0  0  0
 10 89  1  0  0  0
 11 90  1  0  0  0
 14 91  1  0  0  0
 14 92  1  0  0  0
 14 93  1  0  0  0
 15 94  1  0  0  0
 16 95  1  0  0  0
 19 96  1  0  0  0
 19 97  1  0  0  0
 20 98  1  0  0  0
 20 99  1  0  0  0
 21100  1  0  0  0
 21101  1  0  0  0
 22102  1  0  0  0
 24103  1  0  0  0
 24104  1  0  0  0
 25105  1  0  0  0
 26106  1  0  0  0
 27107  1  0  0  0
 30108  1  0  0  0
 30109  1  0  0  0
 30110  1  0  0  0
 31111  1  0  0  0
 32112  1  0  0  0
 35113  1  0  0  0
 35114  1  0  0  0
 36115  1  0  0  0
 36116  1  0  0  0
 39117  1  0  0  0
 40118  1  0  0  0
 41119  1  0  0  0
 44120  1  0  0  0
 45121  1  0  0  0
 45122  1  0  0  0
 45123  1  0  0  0
 46124  1  0  0  0
 46125  1  0  0  0
 46126  1  0  0  0
 47127  1  0  0  0
 48128  1  0  0  0
 51129  1  0  0  0
 51130  1  0  0  0
 53131  1  0  0  0
 54132  1  0  0  0
 55133  1  0  0  0
 56134  1  0  0  0
 58135  1  0  0  0
 59136  1  0  0  0
 60137  1  0  0  0
 63138  1  0  0  0
 63139  1  0  0  0
 64140  1  0  0  0
 65141  1  0  0  0
 65142  1  0  0  0
 65143  1  0  0  0
 66144  1  0  0  0
 66145  1  0  0  0
 66146  1  0  0  0
 67147  1  0  0  0
 68148  1  0  0  0
 71149  1  0  0  0
 71150  1  0  0  0
 72151  1  0  0  0
 72152  1  0  0  0
 73153  1  0  0  0
 73154  1  0  0  0
 74155  1  0  0  0
 76156  1  0  0  0
 76157  1  0  0  0
 77158  1  0  0  0
 78159  1  0  0  0
M  END
$$$$
