### 
### Created by X-TOOL on Mon Sep 10 21:13:05 2018
### 

@<TRIPOS>MOLECULE
3uvm_ligand
  159   159     1     0     0
SMALL
GAST_HUCK


@<TRIPOS>ATOM
      1 N           7.7940   31.0760  -11.8680 N.4       1 GLY         0.2357
      2 CA          9.0700   30.3740  -12.0020 C.3       1 GLY         0.0545
      3 C           9.1430   29.2490  -10.9940 C.2       1 GLY         0.2236
      4 O           8.1090   28.7680  -10.5280 O.2       1 GLY        -0.3910
      5 N          10.3630   28.8490  -10.6170 N.am      1 ALA        -0.2615
      6 CA         10.5460   27.8120   -9.5840 C.3       1 ALA         0.1283
      7 C          11.5370   28.3680   -8.5940 C.2       1 ALA         0.2036
      8 O          12.5810   28.9100   -8.9990 O.2       1 ALA        -0.3944
      9 CB         11.0700   26.5290  -10.1990 C.3       1 ALA        -0.0244
     10 N          11.2440   28.2310   -7.2960 N.am      1 ALA        -0.2640
     11 CA         12.1290   28.8000   -6.2620 C.3       1 ALA         0.1282
     12 C          13.5630   28.2900   -6.3550 C.2       1 ALA         0.2036
     13 O          14.4960   29.0480   -6.0930 O.2       1 ALA        -0.3944
     14 CB         11.5530   28.5200   -4.8810 C.3       1 ALA        -0.0244
     15 N          13.7790   27.0210   -6.7410 N.am      1 ARG        -0.2637
     16 CA         15.1620   26.5280   -6.8350 C.3       1 ARG         0.1311
     17 C          15.9950   27.2950   -7.8670 C.2       1 ARG         0.2039
     18 O          17.2260   27.3560   -7.7640 O.2       1 ARG        -0.3944
     19 CB         15.1850   25.0290   -7.1330 C.3       1 ARG        -0.0092
     20 CG         16.5920   24.4650   -6.9100 C.3       1 ARG        -0.0156
     21 CD         16.6580   22.9670   -7.1610 C.3       1 ARG         0.0627
     22 NE         15.8090   22.2180   -6.2430 N.pl3     1 ARG        -0.2723
     23 CZ         16.2210   21.7210   -5.0810 C.cat     1 ARG         0.2882
     24 NH1        17.4780   21.9020   -4.6800 N.pl3     1 ARG        -0.2849
     25 NH2        15.3830   21.0500   -4.3070 N.pl3     1 ARG        -0.2849
     26 N          15.3260   27.8740   -8.8640 N.am      1 ALA        -0.2640
     27 CA         16.0510   28.6080   -9.9050 C.3       1 ALA         0.1282
     28 C          16.2470   30.0640   -9.5320 C.2       1 ALA         0.2036
     29 O          16.7260   30.8570  -10.3690 O.2       1 ALA        -0.3944
     30 CB         15.3090   28.4780  -11.2270 C.3       1 ALA        -0.0244
     31 N          15.9720   30.4210   -8.2630 N.am      1 GLU        -0.2636
     32 CA         16.1300   31.8030   -7.8000 C.3       1 GLU         0.1325
     33 C          17.0530   31.8930   -6.6170 C.2       1 GLU         0.2040
     34 O          17.2540   30.9120   -5.9130 O.2       1 GLU        -0.3944
     35 CB         14.7630   32.3990   -7.3790 C.3       1 GLU        -0.0008
     36 CG         13.6830   32.2700   -8.4310 C.3       1 GLU         0.0044
     37 CD         13.8080   33.1780   -9.6400 C.2       1 GLU         0.0350
     38 OE1        14.6690   34.0850   -9.6290 O.co2     1 GLU        -0.5690
     39 OE2        13.0290   32.9840  -10.5990 O.co2     1 GLU        -0.5690
     40 N          17.5990   33.0940   -6.3740 N.am      1 VAL        -0.2635
     41 CA         18.4510   33.3450   -5.2160 C.3       1 VAL         0.1333
     42 C          17.5110   33.6640   -4.0460 C.2       1 VAL         0.2043
     43 O          16.4810   34.3100   -4.2540 O.2       1 VAL        -0.3944
     44 CB         19.4370   34.5140   -5.5020 C.3       1 VAL        -0.0063
     45 CG1        20.3530   34.7800   -4.3110 C.3       1 VAL        -0.0584
     46 CG2        20.2650   34.2420   -6.7540 C.3       1 VAL        -0.0584
     47 N          17.8200   33.1590   -2.8380 N.am      1 TYR        -0.2621
     48 CA         17.0400   33.4790   -1.6450 C.3       1 TYR         0.1390
     49 C          18.0150   34.1590   -0.7080 C.2       1 TYR         0.2057
     50 O          19.0660   33.5870   -0.3940 O.2       1 TYR        -0.3942
     51 CB         16.4790   32.2240   -0.9640 C.3       1 TYR         0.0163
     52 CG         15.8500   32.5340    0.3820 C.ar      1 TYR        -0.0493
     53 CD1        14.5690   33.0550    0.4650 C.ar      1 TYR        -0.0685
     54 CD2        16.5630   32.3610    1.5640 C.ar      1 TYR        -0.0685
     55 CE1        13.9940   33.3690    1.6960 C.ar      1 TYR        -0.0398
     56 CE2        15.9890   32.6490    2.8070 C.ar      1 TYR        -0.0398
     57 CZ         14.7090   33.1620    2.8620 C.ar      1 TYR         0.0805
     58 OH         14.1230   33.4210    4.0780 O.3       1 TYR        -0.3376
     59 N          17.6670   35.3360   -0.2320 N.am      1 LEU        -0.2636
     60 CA         18.5350   36.0360    0.7180 C.3       1 LEU         0.1312
     61 C          17.8700   36.1480    2.0810 C.2       1 LEU         0.2033
     62 O          16.7370   36.6340    2.1860 O.2       1 LEU        -0.3944
     63 CB         18.9680   37.4110    0.1840 C.3       1 LEU        -0.0101
     64 CG         19.6940   37.4170   -1.1710 C.3       1 LEU        -0.0425
     65 CD1        19.7990   38.8210   -1.7180 C.3       1 LEU        -0.0625
     66 CD2        21.0750   36.7450   -1.0830 C.3       1 LEU        -0.0625
     67 N          18.5710   35.6520    3.1160 N.am      1 ARG        -0.2695
     68 CA         18.1440   35.6600    4.5260 C.3       1 ARG         0.0945
     69 C          17.5640   36.9980    4.9710 C.2       1 ARG         0.0601
     70 O          16.6860   37.0250    5.8290 O.co2     1 ARG        -0.5666
     71 CB         19.3200   35.3100    5.4410 C.3       1 ARG        -0.0148
     72 CG         19.9310   33.9600    5.1510 C.3       1 ARG        -0.0162
     73 CD         21.2290   33.7960    5.8910 C.3       1 ARG         0.0627
     74 NE         21.2370   32.4880    6.5160 N.pl3     1 ARG        -0.2723
     75 CZ         22.2660   31.9400    7.1410 C.cat     1 ARG         0.2882
     76 NH1        23.4140   32.6010    7.2610 N.pl3     1 ARG        -0.2849
     77 NH2        22.1570   30.7350    7.6590 N.pl3     1 ARG        -0.2849
     78 H           7.7506   31.8332  -12.5500 H         1 GLY         0.2012
     79 H           7.0287   30.4226  -12.0345 H         1 GLY         0.2012
     80 H           7.7159   31.4601  -10.9263 H         1 GLY         0.2012
     81 H           9.8869   31.0730  -11.8223 H         1 GLY         0.1061
     82 H           9.1515   29.9627  -13.0081 H         1 GLY         0.1061
     83 H          11.1835   29.2699  -11.0530 H         1 ALA         0.1884
     84 H           9.5997   27.5690   -9.1007 H         1 ALA         0.0797
     85 H          12.0092   26.7315  -10.7138 H         1 ALA         0.0277
     86 H          11.2365   25.7924   -9.4130 H         1 ALA         0.0277
     87 H          10.3397   26.1440  -10.9107 H         1 ALA         0.0277
     88 H          10.4008   27.7284   -7.0186 H         1 ALA         0.1883
     89 H          12.1740   29.8753   -6.4348 H         1 ALA         0.0797
     90 H          10.5655   28.9746   -4.8016 H         1 ALA         0.0277
     91 H          11.4715   27.4430   -4.7343 H         1 ALA         0.0277
     92 H          12.2110   28.9427   -4.1218 H         1 ALA         0.0277
     93 H          12.9951   26.4082   -6.9656 H         1 ARG         0.1883
     94 H          15.6226   26.7032   -5.8628 H         1 ARG         0.0800
     95 H          14.8972   24.8679   -8.1719 H         1 ARG         0.0313
     96 H          14.4882   24.5224   -6.4652 H         1 ARG         0.0313
     97 H          16.8692   24.6470   -5.8717 H         1 ARG         0.0301
     98 H          17.2685   24.9558   -7.6097 H         1 ARG         0.0301
     99 H          17.6880   22.6428   -7.0120 H         1 ARG         0.0689
    100 H          16.3103   22.7773   -8.1765 H         1 ARG         0.0689
    101 H          14.8363   22.0654   -6.5093 H         1 ARG         0.2642
    102 H          18.1299   22.4242   -5.2654 H         1 ARG         0.2615
    103 H          17.7888   21.5185   -3.7874 H         1 ARG         0.2615
    104 H          14.4161   20.9122   -4.6012 H         1 ARG         0.2615
    105 H          15.7040   20.6706   -3.4163 H         1 ARG         0.2615
    106 H          14.3090   27.8062   -8.9025 H         1 ALA         0.1883
    107 H          17.0447   28.1719  -10.0070 H         1 ALA         0.0797
    108 H          15.2424   27.4256  -11.5028 H         1 ALA         0.0277
    109 H          14.3060   28.8914  -11.1214 H         1 ALA         0.0277
    110 H          15.8489   29.0242  -12.0005 H         1 ALA         0.0277
    111 H          15.6453   29.7115   -7.6070 H         1 GLU         0.1883
    112 H          16.5523   32.3627   -8.6346 H         1 GLU         0.0801
    113 H          14.9158   33.4637   -7.2024 H         1 GLU         0.0330
    114 H          14.4265   31.8465   -6.5017 H         1 GLU         0.0330
    115 H          12.7487   32.5446   -7.9413 H         1 GLU         0.0433
    116 H          13.7495   31.2502   -8.8099 H         1 GLU         0.0433
    117 H          17.4120   33.8593   -7.0219 H         1 VAL         0.1883
    118 H          19.0697   32.4793   -4.9798 H         1 VAL         0.0802
    119 H          18.8350   35.4067   -5.6718 H         1 VAL         0.0343
    120 H          19.7498   35.0425   -3.4419 H         1 VAL         0.0234
    121 H          20.9344   33.8839   -4.0941 H         1 VAL         0.0234
    122 H          21.0268   35.6030   -4.5492 H         1 VAL         0.0234
    123 H          20.8402   33.3265   -6.6158 H         1 VAL         0.0234
    124 H          19.6001   34.1291   -7.6103 H         1 VAL         0.0234
    125 H          20.9442   35.0767   -6.9273 H         1 VAL         0.0234
    126 H          18.6221   32.5346   -2.7526 H         1 TYR         0.1885
    127 H          16.1824   34.0995   -1.9050 H         1 TYR         0.0821
    128 H          17.3033   31.5297   -0.8010 H         1 TYR         0.0453
    129 H          15.7079   31.8040   -1.6098 H         1 TYR         0.0453
    130 H          13.9998   33.2227   -0.4493 H         1 TYR         0.0530
    131 H          17.5885   31.9941    1.5209 H         1 TYR         0.0530
    132 H          12.9839   33.7764    1.7393 H         1 TYR         0.0525
    133 H          16.5486   32.4695    3.7250 H         1 TYR         0.0525
    134 H          14.0694   32.6081    4.5857 H         1 TYR         0.2458
    135 H          16.7885   35.7627   -0.5262 H         1 LEU         0.1883
    136 H          19.4411   35.4423    0.8386 H         1 LEU         0.0800
    137 H          19.6767   37.8094    0.9101 H         1 LEU         0.0315
    138 H          18.0516   37.9833    0.0401 H         1 LEU         0.0315
    139 H          19.0968   36.8273   -1.8665 H         1 LEU         0.0298
    140 H          18.7988   39.2327   -1.8531 H         1 LEU         0.0232
    141 H          20.3572   39.4418   -1.0172 H         1 LEU         0.0232
    142 H          20.3165   38.7982   -2.6771 H         1 LEU         0.0232
    143 H          21.6925   37.2796   -0.3612 H         1 LEU         0.0232
    144 H          20.9542   35.7099   -0.7636 H         1 LEU         0.0232
    145 H          21.5534   36.7711   -2.0621 H         1 LEU         0.0232
    146 H          19.4774   35.2338    2.9065 H         1 ARG         0.1875
    147 H          17.3556   34.9115    4.6044 H         1 ARG         0.0726
    148 O1         17.9836   38.0709    4.4608 O.co2     1 ARG        -0.5666
    149 H          18.9424   35.2849    6.4632 H         1 ARG         0.0307
    150 H          20.0940   36.0604    5.2798 H         1 ARG         0.0307
    151 H          20.1226   33.8819    4.0808 H         1 ARG         0.0301
    152 H          19.2392   33.1825    5.4752 H         1 ARG         0.0301
    153 H          21.3266   34.5726    6.6496 H         1 ARG         0.0689
    154 H          22.0666   33.8840    5.1991 H         1 ARG         0.0689
    155 H          20.3756   31.9437    6.4699 H         1 ARG         0.2642
    156 H          23.5061   33.5383    6.8694 H         1 ARG         0.2615
    157 H          24.2022   32.1706    7.7446 H         1 ARG         0.2615
    158 H          21.2785   30.2229    7.5787 H         1 ARG         0.2615
    159 H          22.9510   30.3132    8.1408 H         1 ARG         0.2615
@<TRIPOS>BOND
     1    1    2 1  
     2    2    3 1  
     3    3    4 2  
     4    3    5 am 
     5    5    6 1  
     6    6    7 1  
     7    6    9 1  
     8    7    8 2  
     9    7   10 am 
    10   10   11 1  
    11   11   12 1  
    12   11   14 1  
    13   12   13 2  
    14   12   15 am 
    15   15   16 1  
    16   16   17 1  
    17   16   19 1  
    18   17   18 2  
    19   17   26 am 
    20   19   20 1  
    21   20   21 1  
    22   21   22 1  
    23   22   23 ar 
    24   23   24 ar 
    25   23   25 ar 
    26   26   27 1  
    27   27   28 1  
    28   27   30 1  
    29   28   29 2  
    30   28   31 am 
    31   31   32 1  
    32   32   33 1  
    33   32   35 1  
    34   33   34 2  
    35   33   40 am 
    36   35   36 1  
    37   36   37 1  
    38   37   38 ar 
    39   37   39 ar 
    40   40   41 1  
    41   41   42 1  
    42   41   44 1  
    43   42   43 2  
    44   42   47 am 
    45   44   45 1  
    46   44   46 1  
    47   47   48 1  
    48   48   49 1  
    49   48   51 1  
    50   49   50 2  
    51   49   59 am 
    52   51   52 1  
    53   52   53 ar 
    54   52   54 ar 
    55   53   55 ar 
    56   54   56 ar 
    57   55   57 ar 
    58   56   57 ar 
    59   57   58 1  
    60   59   60 1  
    61   60   61 1  
    62   60   63 1  
    63   61   62 2  
    64   61   67 am 
    65   63   64 1  
    66   64   65 1  
    67   64   66 1  
    68   67   68 1  
    69   68   69 1  
    70   68   71 1  
    71   69   70 ar 
    72   71   72 1  
    73   72   73 1  
    74   73   74 1  
    75   74   75 ar 
    76   75   76 ar 
    77   75   77 ar 
    78    1   78 1  
    79    1   79 1  
    80    1   80 1  
    81    2   81 1  
    82    2   82 1  
    83    5   83 1  
    84    6   84 1  
    85    9   85 1  
    86    9   86 1  
    87    9   87 1  
    88   10   88 1  
    89   11   89 1  
    90   14   90 1  
    91   14   91 1  
    92   14   92 1  
    93   15   93 1  
    94   16   94 1  
    95   19   95 1  
    96   19   96 1  
    97   20   97 1  
    98   20   98 1  
    99   21   99 1  
   100   21  100 1  
   101   22  101 1  
   102   24  102 1  
   103   24  103 1  
   104   25  104 1  
   105   25  105 1  
   106   26  106 1  
   107   27  107 1  
   108   30  108 1  
   109   30  109 1  
   110   30  110 1  
   111   31  111 1  
   112   32  112 1  
   113   35  113 1  
   114   35  114 1  
   115   36  115 1  
   116   36  116 1  
   117   40  117 1  
   118   41  118 1  
   119   44  119 1  
   120   45  120 1  
   121   45  121 1  
   122   45  122 1  
   123   46  123 1  
   124   46  124 1  
   125   46  125 1  
   126   47  126 1  
   127   48  127 1  
   128   51  128 1  
   129   51  129 1  
   130   53  130 1  
   131   54  131 1  
   132   55  132 1  
   133   56  133 1  
   134   58  134 1  
   135   59  135 1  
   136   60  136 1  
   137   63  137 1  
   138   63  138 1  
   139   64  139 1  
   140   65  140 1  
   141   65  141 1  
   142   65  142 1  
   143   66  143 1  
   144   66  144 1  
   145   66  145 1  
   146   67  146 1  
   147   68  147 1  
   148   69  148 ar 
   149   71  149 1  
   150   71  150 1  
   151   72  151 1  
   152   72  152 1  
   153   73  153 1  
   154   73  154 1  
   155   74  155 1  
   156   76  156 1  
   157   76  157 1  
   158   77  158 1  
   159   77  159 1  
@<TRIPOS>SUBSTRUCTURE
     1 GLY         1

