4ql8_ligand
  -I-interpret- 

 37 39  0  0  0  0  0  0  0  0999 V2000
   23.6410    5.0210    4.0810 Cl  0  0  0  0  0
   25.3710    4.5570    3.9880 C   0  0  0  0  0
   26.3140    5.5590    3.8100 C   0  0  0  0  0
   25.9620    6.7930    3.7130 C   0  0  0  0  0
   25.6640    7.9120    3.6620 N   0  0  0  0  0
   25.7490    3.2160    4.0980 C   0  0  0  0  0
   24.6550    2.1880    4.2910 C   0  0  0  0  0
   27.1080    2.8790    4.0190 C   0  0  0  0  0
   28.0450    3.9020    3.8430 C   0  0  0  0  0
   27.6590    5.2300    3.7370 C   0  0  0  0  0
   27.6490    1.4720    4.1240 C   0  0  0  0  0
   29.0690    1.1900    4.4710 C   0  0  0  0  0
   29.3190    1.6760    5.7850 O   0  0  0  0  0
   30.6990    1.8220    6.1040 C   0  0  0  0  0
   29.1070   -0.3210    4.4080 C   0  0  0  0  0
   29.7970   -0.8830    3.1690 C   0  0  0  0  0
   30.9870   -1.5980    3.5090 O   0  0  0  0  0
   28.7990   -1.8120    2.5030 C   0  0  0  0  0
   27.5460   -1.8030    3.3710 C   0  0  0  0  0
   27.6890   -0.7070    4.3430 N   0  0  0  0  0
   27.0210    0.3890    3.9590 N   0  0  0  0  0
   24.1097    2.4076    5.2089 H   0  0  0  0  0
   23.9710    2.2237    3.4431 H   0  0  0  0  0
   25.0993    1.1950    4.3595 H   0  0  0  0  0
   29.1040    3.6498    3.7878 H   0  0  0  0  0
   28.4078    6.0096    3.5973 H   0  0  0  0  0
   29.8162    1.6543    3.8274 H   0  0  0  0  0
   31.1939    0.8543    6.0221 H   0  0  0  0  0
   31.1584    2.5263    5.4104 H   0  0  0  0  0
   30.7974    2.1968    7.1228 H   0  0  0  0  0
   29.6681   -0.7057    5.2597 H   0  0  0  0  0
   30.0988   -0.0737    2.5042 H   0  0  0  0  0
   31.3948   -1.9371    2.7088 H   0  0  0  0  0
   29.2044   -2.8201    2.4164 H   0  0  0  0  0
   28.5727   -1.4777    1.4905 H   0  0  0  0  0
   27.4322   -2.7569    3.8861 H   0  0  0  0  0
   26.6579   -1.6543    2.7568 H   0  0  0  0  0
  1  2  1  0  0  0
  2  3  4  0  0  0
  2  6  4  0  0  0
  3  4  1  0  0  0
  3 10  4  0  0  0
  4  5  3  0  0  0
  6  7  1  0  0  0
  6  8  4  0  0  0
  8  9  4  0  0  0
  8 11  1  0  0  0
  9 10  4  0  0  0
 11 12  1  0  0  0
 11 21  2  0  0  0
 12 13  1  0  0  0
 12 15  1  0  0  0
 13 14  1  0  0  0
 15 16  1  0  0  0
 15 20  1  0  0  0
 16 17  1  0  0  0
 16 18  1  0  0  0
 18 19  1  0  0  0
 19 20  1  0  0  0
 20 21  1  0  0  0
  7 22  1  0  0  0
  7 23  1  0  0  0
  7 24  1  0  0  0
  9 25  1  0  0  0
 10 26  1  0  0  0
 12 27  1  0  0  0
 14 28  1  0  0  0
 14 29  1  0  0  0
 14 30  1  0  0  0
 15 31  1  0  0  0
 16 32  1  0  0  0
 17 33  1  0  0  0
 18 34  1  0  0  0
 18 35  1  0  0  0
 19 36  1  0  0  0
 19 37  1  0  0  0
M  END
$$$$
