6en5_ligand
  -I-interpret- 

 60 61  0  0  0  0  0  0  0  0999 V2000
   -2.3190   29.5000   -0.3620 C   0  0  0  0  0
   -1.8220   28.6540   -1.5220 C   0  0  0  0  0
   -2.3200   28.1470   -3.8950 C   0  0  0  0  0
   -0.8380   28.5350   -4.2240 C   0  0  0  0  0
   -3.4010   28.6470   -4.9600 C   0  0  0  0  0
   -4.5300   27.8170   -5.0420 C   0  0  0  0  0
   -3.9550   26.5640   -5.7850 C   0  0  0  0  0
   -2.9880   27.2230   -6.8430 C   0  0  0  0  0
   -2.2630   29.6020   -7.1590 C   0  0  0  0  0
   -1.7550   29.2450   -8.6250 C   0  0  0  0  0
   -0.2030   29.6630   -8.6640 C   0  0  0  0  0
    0.4940   29.1390   -9.9480 C   0  0  0  0  0
   -1.7530   27.1680   -1.1130 C   0  0  0  0  0
    0.4810   27.5100   -0.0070 C   0  0  0  0  0
    1.5560   26.5060    0.5470 C   0  0  0  0  0
    0.7130   25.2580    0.9630 C   0  0  0  0  0
   -0.4180   25.2580    0.1740 C   0  0  0  0  0
   -1.6740   24.9830    0.9970 C   0  0  0  0  0
   -2.7980   28.7950   -2.6460 N   0  3  0  0  0
   -2.8090   28.5050   -6.4150 N   0  0  0  0  0
   -2.6220   29.9850   -9.5370 N   0  3  0  0  0
   -0.5730   26.7420   -0.3670 N   0  0  0  0  0
    0.0060   27.6340   -4.5310 O   0  0  0  0  0
   -0.4750   29.7730   -4.1720 O   0  0  0  0  0
   -2.1780   30.7200   -6.6960 O   0  0  0  0  0
    1.0530   29.9770  -10.7340 O   0  0  0  0  0
    0.4920   27.8970  -10.1720 O   0  0  0  0  0
   -2.6230   26.3710   -1.3400 O   0  0  0  0  0
   -2.2210   23.8570    1.0090 O   0  0  0  0  0
   -2.1620   25.9000    1.7020 O   0  0  0  0  0
   -3.3142   29.1650   -0.0699 H   0  0  0  0  0
   -1.6366   29.3946    0.4814 H   0  0  0  0  0
   -2.3614   30.5452   -0.6683 H   0  0  0  0  0
   -0.8266   28.9862   -1.8168 H   0  0  0  0  0
   -2.2628   27.0592   -3.8556 H   0  0  0  0  0
   -3.6528   29.6582   -4.6403 H   0  0  0  0  0
   -5.3706   28.2793   -5.5595 H   0  0  0  0  0
   -4.9663   27.5823   -4.0711 H   0  0  0  0  0
   -4.7257   25.9389   -6.2360 H   0  0  0  0  0
   -3.4522   25.8617   -5.1201 H   0  0  0  0  0
   -3.4093   27.1900   -7.8478 H   0  0  0  0  0
   -2.0417   26.6864   -6.9114 H   0  0  0  0  0
   -1.8104   28.1952   -8.9129 H   0  0  0  0  0
    0.2944   29.2264   -7.7980 H   0  0  0  0  0
   -0.1377   30.7510   -8.6548 H   0  0  0  0  0
    0.8653   28.0843   -0.8500 H   0  0  0  0  0
    0.2004   28.2507    0.7418 H   0  0  0  0  0
    2.1246   26.9213    1.3791 H   0  0  0  0  0
    2.3210   26.2651   -0.1911 H   0  0  0  0  0
    0.4479   25.3048    2.0192 H   0  0  0  0  0
    1.2840   24.3405    0.8206 H   0  0  0  0  0
   -0.3171   24.4984   -0.6012 H   0  0  0  0  0
   -2.9219   29.7899   -2.8338 H   0  0  0  0  0
   -3.6680   28.3411   -2.3677 H   0  0  0  0  0
   -2.3426   29.7946  -10.4994 H   0  0  0  0  0
   -3.5890   29.6917   -9.3981 H   0  0  0  0  0
   -2.5381   30.9839   -9.3486 H   0  0  0  0  0
   -1.2280   30.3161   -3.9276 H   0  0  0  0  0
    0.9421   30.8644  -10.3851 H   0  0  0  0  0
   -1.6410   26.6987    1.5916 H   0  0  0  0  0
  2  1  1  0  0  0
 13  2  1  0  0  0
  2 19  1  0  0  0
  3  4  1  0  0  0
  3  5  1  0  0  0
 19  3  1  0  0  0
  4 23  2  0  0  0
  4 24  1  0  0  0
  5  6  1  0  0  0
  5 20  1  0  0  0
  6  7  1  0  0  0
  8  7  1  0  0  0
 20  8  1  0  0  0
  9 10  1  0  0  0
 20  9  1  0  0  0
  9 25  2  0  0  0
 10 11  1  0  0  0
 10 21  1  0  0  0
 11 12  1  0  0  0
 12 26  1  0  0  0
 12 27  2  0  0  0
 22 13  1  0  0  0
 13 28  2  0  0  0
 14 15  1  0  0  0
 14 22  1  0  0  0
 15 16  1  0  0  0
 16 17  1  0  0  0
 17 18  1  0  0  0
 17 22  1  0  0  0
 18 29  2  0  0  0
 18 30  1  0  0  0
  1 31  1  0  0  0
  1 32  1  0  0  0
  1 33  1  0  0  0
  2 34  1  0  0  0
  3 35  1  0  0  0
  5 36  1  0  0  0
  6 37  1  0  0  0
  6 38  1  0  0  0
  7 39  1  0  0  0
  7 40  1  0  0  0
  8 41  1  0  0  0
  8 42  1  0  0  0
 10 43  1  0  0  0
 11 44  1  0  0  0
 11 45  1  0  0  0
 14 46  1  0  0  0
 14 47  1  0  0  0
 15 48  1  0  0  0
 15 49  1  0  0  0
 16 50  1  0  0  0
 16 51  1  0  0  0
 17 52  1  0  0  0
 19 53  1  0  0  0
 19 54  1  0  0  0
 21 55  1  0  0  0
 21 56  1  0  0  0
 21 57  1  0  0  0
 24 58  1  0  0  0
 26 59  1  0  0  0
 30 60  1  0  0  0
M  END
$$$$
