2az8_ligand
  -I-interpret- 

 66 67  0  0  0  0  0  0  0  0999 V2000
  -27.1160   38.0960   19.2660 C   0  0  0  0  0
  -27.2050   39.3340   19.2570 O   0  0  0  0  0
  -27.3250   37.5400   18.0500 O   0  0  0  0  0
  -28.2130   38.1180   17.1260 C   0  0  0  0  0
  -29.6130   38.4910   17.3220 C   0  0  0  0  0
  -29.9660   39.7100   16.5430 C   0  0  0  0  0
  -31.2700   40.1690   16.6460 C   0  0  0  0  0
  -32.2020   39.4300   17.5070 C   0  0  0  0  0
  -31.8590   38.2020   18.2980 C   0  0  0  0  0
  -30.4980   37.7100   18.1980 C   0  0  0  0  0
  -26.8780   37.1090   20.1170 N   0  0  0  0  0
  -26.6230   37.2710   21.4170 C   0  0  0  0  0
  -25.1420   37.0150   21.7730 C   0  0  0  0  0
  -24.5030   36.0030   21.3890 O   0  0  0  0  0
  -27.6020   36.2060   22.0180 C   0  0  0  0  0
  -24.6950   37.9970   22.5700 N   0  0  0  0  0
  -23.3420   38.1000   23.1880 C   0  0  0  0  0
  -23.5470   38.4730   24.6480 C   0  0  0  0  0
  -23.7860   39.5560   25.1520 O   0  0  0  0  0
  -22.4330   39.0530   22.3770 C   0  0  0  0  0
  -21.0950   39.1160   23.0460 C   0  0  0  0  0
  -22.2220   38.6210   20.9060 C   0  0  0  0  0
  -23.4030   37.4180   25.4500 N   0  0  0  0  0
  -23.5000   37.3670   26.9690 C   0  0  0  0  0
  -22.3020   36.4660   27.2640 C   0  0  0  0  0
  -22.0650   35.2140   26.8080 O   0  0  0  0  0
  -24.7470   36.8200   27.4780 C   0  0  0  0  0
  -26.0620   37.1720   27.0740 C   0  0  0  0  0
  -26.8090   36.5680   25.9410 C   0  0  0  0  0
  -26.5890   38.1760   27.8800 C   0  0  0  0  0
  -28.1640   37.0350   25.6160 C   0  0  0  0  0
  -27.8830   38.6540   27.6130 C   0  0  0  0  0
  -28.6690   38.0830   26.4860 C   0  0  0  0  0
  -28.3145   37.3083   16.4034 H   0  0  0  0  0
  -27.7562   39.0977   16.9861 H   0  0  0  0  0
  -29.2313   40.2191   15.9192 H   0  0  0  0  0
  -31.5951   41.0557   16.1018 H   0  0  0  0  0
  -33.2238   39.8030   17.5771 H   0  0  0  0  0
  -32.6003   37.7013   18.9208 H   0  0  0  0  0
  -30.1561   36.8246   18.7340 H   0  0  0  0  0
  -26.8905   36.1565   19.7524 H   0  0  0  0  0
  -26.7725   38.2829   21.7936 H   0  0  0  0  0
  -28.6246   36.4520   21.7319 H   0  0  0  0  0
  -27.3434   35.2191   21.6342 H   0  0  0  0  0
  -27.5168   36.2084   23.1047 H   0  0  0  0  0
  -25.3492   38.7523   22.7747 H   0  0  0  0  0
  -22.7998   37.1548   23.1627 H   0  0  0  0  0
  -22.9345   40.0205   22.3536 H   0  0  0  0  0
  -21.2157   39.4909   24.0624 H   0  0  0  0  0
  -20.6574   38.1181   23.0750 H   0  0  0  0  0
  -20.4413   39.7847   22.4859 H   0  0  0  0  0
  -21.7587   37.6347   20.8812 H   0  0  0  0  0
  -23.1855   38.5841   20.3977 H   0  0  0  0  0
  -21.5737   39.3410   20.4066 H   0  0  0  0  0
  -23.2022   36.5315   24.9871 H   0  0  0  0  0
  -23.4895   38.3469   27.4462 H   0  0  0  0  0
  -22.4405   36.2772   28.3285 H   0  0  0  0  0
  -21.4996   37.0203   26.7772 H   0  0  0  0  0
  -21.2307   34.8981   27.1627 H   0  0  0  0  0
  -24.7345   37.1737   28.5089 H   0  0  0  0  0
  -24.6851   35.7860   27.1388 H   0  0  0  0  0
  -26.3507   35.7759   25.3488 H   0  0  0  0  0
  -26.0071   38.5854   28.7058 H   0  0  0  0  0
  -28.7440   36.6274   24.7880 H   0  0  0  0  0
  -28.3110   39.4430   28.2314 H   0  0  0  0  0
  -29.6718   38.4696   26.3045 H   0  0  0  0  0
  1  2  2  0  0  0
  1  3  1  0  0  0
  1 11  1  0  0  0
  3  4  1  0  0  0
  4  5  1  0  0  0
  5  6  4  0  0  0
  5 10  4  0  0  0
  6  7  4  0  0  0
  7  8  4  0  0  0
  8  9  4  0  0  0
  9 10  4  0  0  0
 11 12  1  0  0  0
 12 13  1  0  0  0
 12 15  1  0  0  0
 13 14  2  0  0  0
 13 16  1  0  0  0
 16 17  1  0  0  0
 17 18  1  0  0  0
 17 20  1  0  0  0
 18 19  2  0  0  0
 18 23  1  0  0  0
 20 21  1  0  0  0
 20 22  1  0  0  0
 23 24  1  0  0  0
 24 25  1  0  0  0
 24 27  1  0  0  0
 25 26  1  0  0  0
 27 28  1  0  0  0
 28 29  4  0  0  0
 28 30  4  0  0  0
 29 31  4  0  0  0
 30 32  4  0  0  0
 31 33  4  0  0  0
 32 33  4  0  0  0
  4 34  1  0  0  0
  4 35  1  0  0  0
  6 36  1  0  0  0
  7 37  1  0  0  0
  8 38  1  0  0  0
  9 39  1  0  0  0
 10 40  1  0  0  0
 11 41  1  0  0  0
 12 42  1  0  0  0
 15 43  1  0  0  0
 15 44  1  0  0  0
 15 45  1  0  0  0
 16 46  1  0  0  0
 17 47  1  0  0  0
 20 48  1  0  0  0
 21 49  1  0  0  0
 21 50  1  0  0  0
 21 51  1  0  0  0
 22 52  1  0  0  0
 22 53  1  0  0  0
 22 54  1  0  0  0
 23 55  1  0  0  0
 24 56  1  0  0  0
 25 57  1  0  0  0
 25 58  1  0  0  0
 26 59  1  0  0  0
 27 60  1  0  0  0
 27 61  1  0  0  0
 29 62  1  0  0  0
 30 63  1  0  0  0
 31 64  1  0  0  0
 32 65  1  0  0  0
 33 66  1  0  0  0
M  END
$$$$
