3nzc_ligand
  -I-interpret- 

 56 59  0  0  0  0  0  0  0  0999 V2000
   10.3390   -1.8500   13.0660 N   0  0  0  0  0
   10.6040   -2.6740   12.0590 C   0  0  0  0  0
   11.5410   -2.3620   11.1990 N   0  0  0  0  0
   12.2380   -1.2480   11.3160 C   0  0  0  0  0
   11.9870   -0.3660   12.3500 C   0  0  0  0  0
   10.9840   -0.7140   13.2480 C   0  0  0  0  0
   18.4830    1.4460   12.0370 C   0  0  0  0  0
   12.6480    1.8960   13.4090 C   0  0  0  0  0
    9.9350   -3.8000   11.8910 N   0  0  0  0  0
   10.6440    0.0190   14.2690 N   0  0  0  0  0
   15.9380    1.7570    2.1840 C   0  0  0  0  0
   16.8320    1.7960    3.2410 C   0  0  0  0  0
   14.8670    2.6410    2.1070 C   0  0  0  0  0
   16.6220    2.7480    4.2300 C   0  0  0  0  0
   14.6720    3.5790    3.0970 C   0  0  0  0  0
   17.6430    2.6430    8.5760 C   0  0  0  0  0
   17.9140    2.1950    9.8500 C   0  0  0  0  0
   13.8960    0.1100   10.4360 C   0  0  0  0  0
   15.3340    2.9190    9.1340 C   0  0  0  0  0
   14.9620    4.0470    6.6390 C   0  0  0  0  0
   15.3250    4.6790    5.2900 C   0  0  0  0  0
   14.5290    2.3370   11.4900 C   0  0  0  0  0
   13.1730   -0.9940   10.4080 N   0  0  0  0  0
   17.1070    1.6740   12.0150 O   0  0  0  0  0
   16.1730    3.4440    6.9720 O   0  0  0  0  0
   15.5480    3.6360    4.1670 C   0  0  0  0  0
   16.3650    3.0170    8.2200 C   0  0  0  0  0
   13.7120    1.0570   11.4310 C   0  0  0  0  0
   15.6110    2.4430   10.4230 C   0  0  0  0  0
   12.7560    0.8100   12.3840 C   0  0  0  0  0
   16.8910    2.0980   10.7610 C   0  0  0  0  0
   18.7373    0.6937   11.2904 H   0  0  0  0  0
   19.0075    2.3747   11.8122 H   0  0  0  0  0
   18.7756    1.0921   13.0256 H   0  0  0  0  0
   11.6397    2.3098   13.3932 H   0  0  0  0  0
   12.8578    1.4843   14.3962 H   0  0  0  0  0
   13.3682    2.6818   13.1811 H   0  0  0  0  0
    9.1938   -4.0551   12.5437 H   0  0  0  0  0
   10.1594   -4.4147   11.1085 H   0  0  0  0  0
    9.9015   -0.2920   14.8954 H   0  0  0  0  0
   11.1202    0.9042   14.4424 H   0  0  0  0  0
   16.0767    1.0175    1.3953 H   0  0  0  0  0
   17.6717    1.1032    3.2948 H   0  0  0  0  0
   14.1806    2.5916    1.2617 H   0  0  0  0  0
   17.3107    2.8025    5.0731 H   0  0  0  0  0
   13.8328    4.2721    3.0379 H   0  0  0  0  0
   18.4469    2.7023    7.8423 H   0  0  0  0  0
   18.9303    1.9202   10.1323 H   0  0  0  0  0
   14.6484    0.2792    9.6657 H   0  0  0  0  0
   14.3200    3.2075    8.8570 H   0  0  0  0  0
   14.1186    3.3579    6.5954 H   0  0  0  0  0
   14.5999    4.7586    7.3811 H   0  0  0  0  0
   16.2584    5.2261    5.4224 H   0  0  0  0  0
   14.4927    5.3152    4.9890 H   0  0  0  0  0
   15.0313    2.3515   12.4573 H   0  0  0  0  0
   13.8385    3.1648   11.3285 H   0  0  0  0  0
  2  1  4  0  0  0
  6  1  4  0  0  0
  3  2  4  0  0  0
  2  9  1  0  0  0
  4  3  4  0  0  0
  4  5  4  0  0  0
 23  4  4  0  0  0
  5  6  4  0  0  0
  5 30  4  0  0  0
  6 10  1  0  0  0
 24  7  1  0  0  0
 30  8  1  0  0  0
 12 11  4  0  0  0
 13 11  4  0  0  0
 14 12  4  0  0  0
 15 13  4  0  0  0
 26 14  4  0  0  0
 26 15  4  0  0  0
 16 17  4  0  0  0
 27 16  4  0  0  0
 17 31  4  0  0  0
 18 23  4  0  0  0
 28 18  4  0  0  0
 27 19  4  0  0  0
 19 29  4  0  0  0
 20 21  1  0  0  0
 25 20  1  0  0  0
 21 26  1  0  0  0
 22 28  1  0  0  0
 29 22  1  0  0  0
 31 24  1  0  0  0
 25 27  1  0  0  0
 28 30  4  0  0  0
 29 31  4  0  0  0
  7 32  1  0  0  0
  7 33  1  0  0  0
  7 34  1  0  0  0
  8 35  1  0  0  0
  8 36  1  0  0  0
  8 37  1  0  0  0
  9 38  1  0  0  0
  9 39  1  0  0  0
 10 40  1  0  0  0
 10 41  1  0  0  0
 11 42  1  0  0  0
 12 43  1  0  0  0
 13 44  1  0  0  0
 14 45  1  0  0  0
 15 46  1  0  0  0
 16 47  1  0  0  0
 17 48  1  0  0  0
 18 49  1  0  0  0
 19 50  1  0  0  0
 20 51  1  0  0  0
 20 52  1  0  0  0
 21 53  1  0  0  0
 21 54  1  0  0  0
 22 55  1  0  0  0
 22 56  1  0  0  0
M  END
$$$$
