### 
### Created by X-TOOL on Mon Sep 10 21:12:46 2018
### 

@<TRIPOS>MOLECULE
1nlp_ligand
  156   163     1     0     0
SMALL
GAST_HUCK


@<TRIPOS>ATOM
      1 C          57.9850    3.9240   11.5370 C.2       1 ACE         0.1799
      2 O          58.6320    4.3260   12.4830 O.2       1 ACE        -0.3968
      3 CH3        57.7920    4.8070   10.2970 C.3       1 ACE         0.0262
      4 H1         57.1819    4.2699    9.5558 H         1 ACE         0.0467
      5 H2         58.7731    5.0458    9.8605 H         1 ACE         0.0467
      6 H3         57.2826    5.7382   10.5856 H         1 ACE         0.0467
      7 C1         59.6970   -2.5220   12.6760 C.2       1 MN8         0.1883
      8 O1         60.4630   -2.8260   13.5680 O.2       1 MN8        -0.4017
      9 C2         59.5810   -1.1810   12.2750 C.2       1 MN8         0.0790
     10 C3         60.4160   -0.5190   11.4350 C.2       1 MN8         0.0543
     11 C4         61.6430   -1.0110   10.7260 C.3       1 MN8         0.0050
     12 C5         61.3480   -1.1520    9.2320 C.3       1 MN8        -0.0497
     13 C6         62.7830   -0.0110   10.9290 C.3       1 MN8        -0.0497
     14 S7         59.8640    1.1120   11.2510 S.3       1 MN8         0.0159
     15 C8         58.5490    0.7490   12.3310 C.2       1 MN8         0.1163
     16 N9         58.5210   -0.4850   12.7930 N.2       1 MN8        -0.3186
     17 C10        57.5640    1.8310   12.6630 C.3       1 MN8         0.1215
     18 N11        57.4160    2.7410   11.4960 N.am      1 MN8        -0.2410
     19 C12        56.6340    2.3220   10.2850 C.3       1 MN8         0.0685
     20 C13        55.9110    1.0030   10.5000 C.ar      1 MN8        -0.0182
     21 C14        55.7020    0.4840   11.7890 C.ar      1 MN8        -0.0342
     22 C15        56.2110    1.2190   12.9950 C.3       1 MN8         0.0178
     23 C16        55.0200   -0.7280   11.9540 C.ar      1 MN8        -0.0665
     24 C17        54.5460   -1.4240   10.8390 C.ar      1 MN8        -0.0755
     25 C18        54.7530   -0.9110    9.5550 C.ar      1 MN8        -0.0754
     26 C19        55.4330    0.3000    9.3860 C.ar      1 MN8        -0.0649
     27 H4         61.9358   -1.9890   11.1356 H         1 MN8         0.0501
     28 H5         62.2482   -1.5128    8.7130 H         1 MN8         0.0259
     29 H6         61.0556   -0.1740    8.8221 H         1 MN8         0.0259
     30 H7         60.5280   -1.8706    9.0864 H         1 MN8         0.0259
     31 H8         62.9949    0.0902   12.0036 H         1 MN8         0.0259
     32 H9         62.4902    0.9670   10.5194 H         1 MN8         0.0259
     33 H10        63.6835   -0.3712   10.4100 H         1 MN8         0.0259
     34 H11        57.9287    2.4020   13.5296 H         1 MN8         0.0826
     35 H12        57.3254    2.2133    9.4364 H         1 MN8         0.0673
     36 H13        55.8913    3.1003   10.0555 H         1 MN8         0.0673
     37 H14        55.5027    2.0148   13.2688 H         1 MN8         0.0464
     38 H15        56.3187    0.5186   13.8363 H         1 MN8         0.0464
     39 H16        54.8595   -1.1271   12.9490 H         1 MN8         0.0537
     40 H17        54.0178   -2.3616   10.9695 H         1 MN8         0.0541
     41 H18        54.3865   -1.4518    8.6900 H         1 MN8         0.0541
     42 H19        55.5907    0.6960    8.3893 H         1 MN8         0.0538
     43 N1         58.9490   -3.3990   12.0360 N.am      1 MN1        -0.2772
     44 C2         58.0100   -2.9970   10.9400 C.3       1 MN1         0.0349
     45 C3         58.2970   -3.8680    9.7150 C.3       1 MN1        -0.0128
     46 C4         58.1900   -5.3420   10.1170 C.3       1 MN1         0.0526
     47 C          58.3730   -6.2240    8.8760 C.2       1 MN1         0.1839
     48 O1         58.9100   -5.7830    7.8790 O.2       1 MN1        -0.3964
     49 C5         59.2930   -5.6480   11.1340 C.3       1 MN1        -0.0128
     50 C6         59.0290   -4.8380   12.4050 C.3       1 MN1         0.0349
     51 H20        58.1654   -1.9378   10.6874 H         1 MN1         0.0522
     52 H21        56.9707   -3.1472   11.2674 H         1 MN1         0.0522
     53 H22        59.3111   -3.6596    9.3433 H         1 MN1         0.0312
     54 H23        57.5642   -3.6468    8.9250 H         1 MN1         0.0312
     55 H24        57.2048   -5.5363   10.5660 H         1 MN1         0.0539
     56 H25        60.2708   -5.3693   10.7143 H         1 MN1         0.0312
     57 H26        59.2889   -6.7219   11.3723 H         1 MN1         0.0312
     58 H27        58.0799   -5.1585   12.8594 H         1 MN1         0.0522
     59 H28        59.8492   -4.9929   13.1214 H         1 MN1         0.0522
     60 N          57.9170   -7.4480    8.9760 N.am      1 PRO        -0.2515
     61 CA         58.0140   -8.4230    7.8770 C.3       1 PRO         0.1337
     62 C          56.9310   -8.1550    6.8280 C.2       1 PRO         0.2041
     63 O          55.8060   -7.8320    7.1530 O.2       1 PRO        -0.3944
     64 CB         57.7800   -9.7680    8.5690 C.3       1 PRO        -0.0104
     65 CG         57.0100   -9.4580    9.8750 C.3       1 PRO        -0.0281
     66 CD         57.2610   -7.9720   10.1920 C.3       1 PRO         0.0369
     67 H29        59.0061   -8.3895    7.4030 H         1 PRO         0.0802
     68 H30        58.7416  -10.2499    8.7994 H         1 PRO         0.0313
     69 H31        57.1836  -10.4295    7.9235 H         1 PRO         0.0313
     70 H32        57.3836  -10.0892   10.6948 H         1 PRO         0.0287
     71 H33        55.9343   -9.6394    9.7335 H         1 PRO         0.0287
     72 H34        56.3125   -7.4477   10.3804 H         1 PRO         0.0524
     73 H35        57.9190   -7.8655   11.0670 H         1 PRO         0.0524
     74 N          57.2610   -8.2860    5.5730 N.am      1 LEU        -0.2637
     75 CA         56.2490   -8.0390    4.5080 C.3       1 LEU         0.1314
     76 C          55.2450   -9.1960    4.4790 C.2       1 LEU         0.2064
     77 O          55.5260  -10.2690    4.9750 O.2       1 LEU        -0.3942
     78 CB         56.9490   -7.9390    3.1510 C.3       1 LEU        -0.0101
     79 CG         57.7480   -6.6370    3.0830 C.3       1 LEU        -0.0425
     80 CD1        59.0580   -6.8810    2.3330 C.3       1 LEU        -0.0625
     81 CD2        56.9290   -5.5750    2.3460 C.3       1 LEU        -0.0625
     82 H36        58.1927   -8.5521    5.3258 H         1 LEU         0.1883
     83 H37        55.7188   -7.0983    4.7173 H         1 LEU         0.0800
     84 H38        56.1964   -7.9494    2.3488 H         1 LEU         0.0315
     85 H39        57.6300   -8.7938    3.0261 H         1 LEU         0.0315
     86 H40        57.9685   -6.2881    4.1026 H         1 LEU         0.0298
     87 H41        59.6325   -5.9442    2.2843 H         1 LEU         0.0232
     88 H42        58.8373   -7.2292    1.3132 H         1 LEU         0.0232
     89 H43        59.6466   -7.6450    2.8620 H         1 LEU         0.0232
     90 H44        55.9865   -5.3993    2.8853 H         1 LEU         0.0232
     91 H45        56.7084   -5.9242    1.3265 H         1 LEU         0.0232
     92 H46        57.5033   -4.6381    2.2965 H         1 LEU         0.0232
     93 N          54.1020   -8.9380    3.8970 N.am      1 PRO        -0.2498
     94 CA         53.0270   -9.9390    3.7820 C.3       1 PRO         0.1340
     95 C          53.3440  -10.9380    2.6630 C.2       1 PRO         0.2066
     96 O          54.2340  -10.7130    1.8670 O.2       1 PRO        -0.3942
     97 CB         51.7920   -9.1020    3.4390 C.3       1 PRO        -0.0104
     98 CG         52.3170   -7.7810    2.8280 C.3       1 PRO        -0.0281
     99 CD         53.7760   -7.6270    3.2980 C.3       1 PRO         0.0369
    100 H47        52.8856  -10.4789    4.7299 H         1 PRO         0.0802
    101 H48        51.2079   -8.8953    4.3478 H         1 PRO         0.0313
    102 H49        51.1618   -9.6340    2.7111 H         1 PRO         0.0313
    103 H50        51.7128   -6.9327    3.1821 H         1 PRO         0.0287
    104 H51        52.2752   -7.8279    1.7298 H         1 PRO         0.0287
    105 H52        54.4393   -7.4104    2.4477 H         1 PRO         0.0524
    106 H53        53.8629   -6.8240    4.0447 H         1 PRO         0.0524
    107 N          52.6020  -12.0150    2.6420 N.am      1 PRO        -0.2498
    108 CA         52.7750  -13.0780    1.6370 C.3       1 PRO         0.1338
    109 C          52.1400  -12.6700    0.3030 C.2       1 PRO         0.2041
    110 O          50.9510  -12.8160    0.1010 O.2       1 PRO        -0.3944
    111 CB         52.0360  -14.2720    2.2500 C.3       1 PRO        -0.0104
    112 CG         51.0230  -13.6860    3.2630 C.3       1 PRO        -0.0281
    113 CD         51.5240  -12.2740    3.6180 C.3       1 PRO         0.0369
    114 H54        53.8396  -13.3086    1.4841 H         1 PRO         0.0802
    115 H55        52.7466  -14.9362    2.7637 H         1 PRO         0.0313
    116 H56        51.5079  -14.8354    1.4667 H         1 PRO         0.0313
    117 H57        50.9832  -14.3129    4.1660 H         1 PRO         0.0287
    118 H58        50.0220  -13.6310    2.8103 H         1 PRO         0.0287
    119 H59        50.7159  -11.5353    3.5116 H         1 PRO         0.0524
    120 H60        51.9138  -12.2456    4.6462 H         1 PRO         0.0524
    121 N          52.9270  -12.1650   -0.6110 N.am      1 LEU        -0.2637
    122 CA         52.3730  -11.7560   -1.9330 C.3       1 LEU         0.1314
    123 C          51.3910  -12.8260   -2.4260 C.2       1 LEU         0.2064
    124 O          51.5230  -13.9860   -2.0920 O.2       1 LEU        -0.3942
    125 CB         53.5200  -11.5900   -2.9310 C.3       1 LEU        -0.0101
    126 CG         53.9560  -10.1200   -2.9550 C.3       1 LEU        -0.0425
    127 CD1        55.1530   -9.9520   -3.8840 C.3       1 LEU        -0.0625
    128 CD2        52.8160   -9.2600   -3.4820 C.3       1 LEU        -0.0625
    129 H61        53.9027  -12.0529   -0.4227 H         1 LEU         0.1883
    130 H62        51.8425  -10.7982   -1.8273 H         1 LEU         0.0800
    131 H63        53.1820  -11.8903   -3.9338 H         1 LEU         0.0315
    132 H64        54.3680  -12.2206   -2.6257 H         1 LEU         0.0315
    133 H65        54.2261   -9.7994   -1.9380 H         1 LEU         0.0298
    134 H66        55.4614   -8.8962   -3.8974 H         1 LEU         0.0232
    135 H67        54.8748  -10.2656   -4.9010 H         1 LEU         0.0232
    136 H68        55.9866  -10.5729   -3.5240 H         1 LEU         0.0232
    137 H69        51.9411   -9.3676   -2.8240 H         1 LEU         0.0232
    138 H70        52.5518   -9.5846   -4.4993 H         1 LEU         0.0232
    139 H71        53.1312   -8.2064   -3.5035 H         1 LEU         0.0232
    140 N          50.4250  -12.3930   -3.1950 N.am      1 PRO        -0.2498
    141 CA         49.3830  -13.2790   -3.7440 C.3       1 PRO         0.1334
    142 C          49.9340  -14.0910   -4.9200 C.2       1 PRO         0.1994
    143 O          49.7290  -15.2860   -5.0030 O.2       1 PRO        -0.3947
    144 CB         48.2970  -12.3020   -4.2110 C.3       1 PRO        -0.0104
    145 CG         49.0000  -10.9480   -4.4320 C.3       1 PRO        -0.0281
    146 CD         50.2870  -10.9810   -3.5950 C.3       1 PRO         0.0369
    147 H72        48.9955  -13.9613   -2.9731 H         1 PRO         0.0802
    148 H73        47.5160  -12.2048   -3.4425 H         1 PRO         0.0313
    149 H74        47.8456  -12.6546   -5.1501 H         1 PRO         0.0313
    150 H75        48.3514  -10.1245   -4.0986 H         1 PRO         0.0287
    151 H76        49.2428  -10.8156   -5.4966 H         1 PRO         0.0287
    152 H77        51.1508  -10.6599   -4.1956 H         1 PRO         0.0524
    153 H78        50.1937  -10.3329   -2.7111 H         1 PRO         0.0524
    154 N          50.6320  -13.4870   -5.8420 N.am      1 NH2        -0.2990
    155 H79        50.9966  -14.0072   -6.6143 H         1 NH2         0.1815
    156 H80        50.8024  -12.5038   -5.7764 H         1 NH2         0.1815
@<TRIPOS>BOND
     1    1    2 2  
     2    1    3 1  
     3   18    1 am 
     4    3    4 1  
     5    3    5 1  
     6    3    6 1  
     7    7    8 2  
     8    9    7 1  
     9    7   43 am 
    10    9   10 2  
    11   16    9 1  
    12   10   11 1  
    13   14   10 1  
    14   11   12 1  
    15   11   13 1  
    16   11   27 1  
    17   12   28 1  
    18   12   29 1  
    19   12   30 1  
    20   13   31 1  
    21   13   32 1  
    22   13   33 1  
    23   15   14 1  
    24   15   16 2  
    25   17   15 1  
    26   17   18 1  
    27   17   22 1  
    28   17   34 1  
    29   18   19 1  
    30   19   20 1  
    31   19   35 1  
    32   19   36 1  
    33   20   21 ar 
    34   20   26 ar 
    35   21   22 1  
    36   21   23 ar 
    37   22   37 1  
    38   22   38 1  
    39   23   24 ar 
    40   23   39 1  
    41   24   25 ar 
    42   24   40 1  
    43   25   26 ar 
    44   25   41 1  
    45   26   42 1  
    46   43   44 1  
    47   43   50 1  
    48   44   45 1  
    49   44   51 1  
    50   44   52 1  
    51   45   46 1  
    52   45   53 1  
    53   45   54 1  
    54   46   47 1  
    55   46   49 1  
    56   46   55 1  
    57   47   48 2  
    58   47   60 am 
    59   49   50 1  
    60   49   56 1  
    61   49   57 1  
    62   50   58 1  
    63   50   59 1  
    64   60   61 1  
    65   60   66 1  
    66   61   62 1  
    67   61   64 1  
    68   61   67 1  
    69   62   63 2  
    70   62   74 am 
    71   64   65 1  
    72   64   68 1  
    73   64   69 1  
    74   65   66 1  
    75   65   70 1  
    76   65   71 1  
    77   66   72 1  
    78   66   73 1  
    79   74   75 1  
    80   74   82 1  
    81   75   76 1  
    82   75   78 1  
    83   75   83 1  
    84   76   77 2  
    85   76   93 am 
    86   78   79 1  
    87   78   84 1  
    88   78   85 1  
    89   79   80 1  
    90   79   81 1  
    91   79   86 1  
    92   80   87 1  
    93   80   88 1  
    94   80   89 1  
    95   81   90 1  
    96   81   91 1  
    97   81   92 1  
    98   93   94 1  
    99   93   99 1  
   100   94   95 1  
   101   94   97 1  
   102   94  100 1  
   103   95   96 2  
   104   95  107 am 
   105   97   98 1  
   106   97  101 1  
   107   97  102 1  
   108   98   99 1  
   109   98  103 1  
   110   98  104 1  
   111   99  105 1  
   112   99  106 1  
   113  107  108 1  
   114  107  113 1  
   115  108  109 1  
   116  108  111 1  
   117  108  114 1  
   118  109  110 2  
   119  109  121 am 
   120  111  112 1  
   121  111  115 1  
   122  111  116 1  
   123  112  113 1  
   124  112  117 1  
   125  112  118 1  
   126  113  119 1  
   127  113  120 1  
   128  121  122 1  
   129  121  129 1  
   130  122  123 1  
   131  122  125 1  
   132  122  130 1  
   133  123  124 2  
   134  123  140 am 
   135  125  126 1  
   136  125  131 1  
   137  125  132 1  
   138  126  127 1  
   139  126  128 1  
   140  126  133 1  
   141  127  134 1  
   142  127  135 1  
   143  127  136 1  
   144  128  137 1  
   145  128  138 1  
   146  128  139 1  
   147  140  141 1  
   148  140  146 1  
   149  141  142 1  
   150  141  144 1  
   151  141  147 1  
   152  142  143 2  
   153  142  154 am 
   154  144  145 1  
   155  144  148 1  
   156  144  149 1  
   157  145  146 1  
   158  145  150 1  
   159  145  151 1  
   160  146  152 1  
   161  146  153 1  
   162  154  155 1  
   163  154  156 1  
@<TRIPOS>SUBSTRUCTURE
     1 ACE         1

