1nlp_ligand
  -I-interpret- 

156163  0  0  0  0  0  0  0  0999 V2000
   57.9850    3.9240   11.5370 C   0  0  0  0  0
   58.6320    4.3260   12.4830 O   0  0  0  0  0
   57.7920    4.8070   10.2970 C   0  0  0  0  0
   59.6970   -2.5220   12.6760 C   0  0  0  0  0
   60.4630   -2.8260   13.5680 O   0  0  0  0  0
   59.5810   -1.1810   12.2750 C   0  0  0  0  0
   60.4160   -0.5190   11.4350 C   0  0  0  0  0
   61.6430   -1.0110   10.7260 C   0  0  0  0  0
   61.3480   -1.1520    9.2320 C   0  0  0  0  0
   62.7830   -0.0110   10.9290 C   0  0  0  0  0
   59.8640    1.1120   11.2510 S   0  0  0  0  0
   58.5490    0.7490   12.3310 C   0  0  0  0  0
   58.5210   -0.4850   12.7930 N   0  0  0  0  0
   57.5640    1.8310   12.6630 C   0  0  0  0  0
   57.4160    2.7410   11.4960 N   0  0  0  0  0
   56.6340    2.3220   10.2850 C   0  0  0  0  0
   55.9110    1.0030   10.5000 C   0  0  0  0  0
   55.7020    0.4840   11.7890 C   0  0  0  0  0
   56.2110    1.2190   12.9950 C   0  0  0  0  0
   55.0200   -0.7280   11.9540 C   0  0  0  0  0
   54.5460   -1.4240   10.8390 C   0  0  0  0  0
   54.7530   -0.9110    9.5550 C   0  0  0  0  0
   55.4330    0.3000    9.3860 C   0  0  0  0  0
   58.9490   -3.3990   12.0360 N   0  0  0  0  0
   58.0100   -2.9970   10.9400 C   0  0  0  0  0
   58.2970   -3.8680    9.7150 C   0  0  0  0  0
   58.1900   -5.3420   10.1170 C   0  0  0  0  0
   58.3730   -6.2240    8.8760 C   0  0  0  0  0
   58.9100   -5.7830    7.8790 O   0  0  0  0  0
   59.2930   -5.6480   11.1340 C   0  0  0  0  0
   59.0290   -4.8380   12.4050 C   0  0  0  0  0
   57.9170   -7.4480    8.9760 N   0  0  0  0  0
   58.0140   -8.4230    7.8770 C   0  0  0  0  0
   56.9310   -8.1550    6.8280 C   0  0  0  0  0
   55.8060   -7.8320    7.1530 O   0  0  0  0  0
   57.7800   -9.7680    8.5690 C   0  0  0  0  0
   57.0100   -9.4580    9.8750 C   0  0  0  0  0
   57.2610   -7.9720   10.1920 C   0  0  0  0  0
   57.2610   -8.2860    5.5730 N   0  0  0  0  0
   56.2490   -8.0390    4.5080 C   0  0  0  0  0
   55.2450   -9.1960    4.4790 C   0  0  0  0  0
   55.5260  -10.2690    4.9750 O   0  0  0  0  0
   56.9490   -7.9390    3.1510 C   0  0  0  0  0
   57.7480   -6.6370    3.0830 C   0  0  0  0  0
   59.0580   -6.8810    2.3330 C   0  0  0  0  0
   56.9290   -5.5750    2.3460 C   0  0  0  0  0
   54.1020   -8.9380    3.8970 N   0  0  0  0  0
   53.0270   -9.9390    3.7820 C   0  0  0  0  0
   53.3440  -10.9380    2.6630 C   0  0  0  0  0
   54.2340  -10.7130    1.8670 O   0  0  0  0  0
   51.7920   -9.1020    3.4390 C   0  0  0  0  0
   52.3170   -7.7810    2.8280 C   0  0  0  0  0
   53.7760   -7.6270    3.2980 C   0  0  0  0  0
   52.6020  -12.0150    2.6420 N   0  0  0  0  0
   52.7750  -13.0780    1.6370 C   0  0  0  0  0
   52.1400  -12.6700    0.3030 C   0  0  0  0  0
   50.9510  -12.8160    0.1010 O   0  0  0  0  0
   52.0360  -14.2720    2.2500 C   0  0  0  0  0
   51.0230  -13.6860    3.2630 C   0  0  0  0  0
   51.5240  -12.2740    3.6180 C   0  0  0  0  0
   52.9270  -12.1650   -0.6110 N   0  0  0  0  0
   52.3730  -11.7560   -1.9330 C   0  0  0  0  0
   51.3910  -12.8260   -2.4260 C   0  0  0  0  0
   51.5230  -13.9860   -2.0920 O   0  0  0  0  0
   53.5200  -11.5900   -2.9310 C   0  0  0  0  0
   53.9560  -10.1200   -2.9550 C   0  0  0  0  0
   55.1530   -9.9520   -3.8840 C   0  0  0  0  0
   52.8160   -9.2600   -3.4820 C   0  0  0  0  0
   50.4250  -12.3930   -3.1950 N   0  0  0  0  0
   49.3830  -13.2790   -3.7440 C   0  0  0  0  0
   49.9340  -14.0910   -4.9200 C   0  0  0  0  0
   49.7290  -15.2860   -5.0030 O   0  0  0  0  0
   48.2970  -12.3020   -4.2110 C   0  0  0  0  0
   49.0000  -10.9480   -4.4320 C   0  0  0  0  0
   50.2870  -10.9810   -3.5950 C   0  0  0  0  0
   50.6320  -13.4870   -5.8420 N   0  0  0  0  0
   57.2872    5.7294   10.5843 H   0  0  0  0  0
   58.7648    5.0429    9.8655 H   0  0  0  0  0
   57.1874    4.2738    9.5634 H   0  0  0  0  0
   61.9327   -1.9806   11.1311 H   0  0  0  0  0
   60.5354   -1.8643    9.0891 H   0  0  0  0  0
   61.0584   -0.1823    8.8270 H   0  0  0  0  0
   62.2407   -1.5095    8.7188 H   0  0  0  0  0
   62.4914    0.9577   10.5233 H   0  0  0  0  0
   62.9925    0.0879   11.9941 H   0  0  0  0  0
   63.6744   -0.3687   10.4137 H   0  0  0  0  0
   57.9274    2.3906   13.5249 H   0  0  0  0  0
   57.3312    2.1965    9.4566 H   0  0  0  0  0
   55.8876    3.0894   10.0799 H   0  0  0  0  0
   55.5084    2.0051   13.2717 H   0  0  0  0  0
   56.3139    0.5282   13.8318 H   0  0  0  0  0
   54.8586   -1.1293   12.9545 H   0  0  0  0  0
   54.0149   -2.3668   10.9702 H   0  0  0  0  0
   54.3844   -1.4548    8.6852 H   0  0  0  0  0
   55.5916    0.6982    8.3838 H   0  0  0  0  0
   58.1542   -1.9454   10.6922 H   0  0  0  0  0
   56.9782   -3.1357   11.2630 H   0  0  0  0  0
   59.2999   -3.6600    9.3422 H   0  0  0  0  0
   57.5746   -3.6474    8.9291 H   0  0  0  0  0
   57.2124   -5.5434   10.5550 H   0  0  0  0  0
   60.2640   -5.3782   10.7187 H   0  0  0  0  0
   59.2953   -6.7126   11.3679 H   0  0  0  0  0
   58.0936   -5.1581   12.8640 H   0  0  0  0  0
   59.8350   -4.9952   13.1218 H   0  0  0  0  0
   58.9665   -8.3803    7.3488 H   0  0  0  0  0
   58.7246  -10.2689    8.7809 H   0  0  0  0  0
   57.2111  -10.4433    7.9300 H   0  0  0  0  0
   57.3551  -10.0936   10.6905 H   0  0  0  0  0
   55.9448   -9.6558    9.7551 H   0  0  0  0  0
   56.3387   -7.4393   10.4239 H   0  0  0  0  0
   57.8770   -7.8394   11.0814 H   0  0  0  0  0
   58.2114   -8.5574    5.3209 H   0  0  0  0  0
   55.7243   -7.1065    4.7160 H   0  0  0  0  0
   56.2031   -7.9490    2.3563 H   0  0  0  0  0
   57.6240   -8.7859    3.0276 H   0  0  0  0  0
   57.9669   -6.2917    4.0934 H   0  0  0  0  0
   59.6402   -7.6382    2.8582 H   0  0  0  0  0
   58.8379   -7.2260    1.3227 H   0  0  0  0  0
   59.6263   -5.9521    2.2854 H   0  0  0  0  0
   56.7114   -5.9221    1.3359 H   0  0  0  0  0
   55.9953   -5.4020    2.8812 H   0  0  0  0  0
   57.4990   -4.6472    2.2978 H   0  0  0  0  0
   52.8931  -10.5324    4.6865 H   0  0  0  0  0
   51.1898   -8.9105    4.3271 H   0  0  0  0  0
   51.1450   -9.6281    2.7371 H   0  0  0  0  0
   51.7121   -6.9346    3.1532 H   0  0  0  0  0
   52.2594   -7.8058    1.7398 H   0  0  0  0  0
   54.4477   -7.3696    2.4791 H   0  0  0  0  0
   53.8961   -6.8084    4.0076 H   0  0  0  0  0
   53.8210  -13.2931    1.4183 H   0  0  0  0  0
   52.7317  -14.9520    2.7416 H   0  0  0  0  0
   51.5279  -14.8541    1.4811 H   0  0  0  0  0
   50.9565  -14.3111    4.1534 H   0  0  0  0  0
   50.0214  -13.6478    2.8346 H   0  0  0  0  0
   50.7299  -11.5296    3.5604 H   0  0  0  0  0
   51.8773  -12.2100    4.6472 H   0  0  0  0  0
   53.9222  -12.0507   -0.4189 H   0  0  0  0  0
   51.8443  -10.8076   -1.8374 H   0  0  0  0  0
   53.1875  -11.8899   -3.9248 H   0  0  0  0  0
   54.3601  -12.2166   -2.6314 H   0  0  0  0  0
   54.2230   -9.8149   -1.9432 H   0  0  0  0  0
   55.9782  -10.5677   -3.5262 H   0  0  0  0  0
   54.8760  -10.2631   -4.8913 H   0  0  0  0  0
   55.4576   -8.9055   -3.8964 H   0  0  0  0  0
   52.5585   -9.5794   -4.4918 H   0  0  0  0  0
   51.9481   -9.3712   -2.8320 H   0  0  0  0  0
   53.1279   -8.2157   -3.4983 H   0  0  0  0  0
   49.0136  -14.0084   -3.0231 H   0  0  0  0  0
   47.5025  -12.2151   -3.4698 H   0  0  0  0  0
   47.8225  -12.6519   -5.1278 H   0  0  0  0  0
   48.3581  -10.1215   -4.1272 H   0  0  0  0  0
   49.2254  -10.7937   -5.4872 H   0  0  0  0  0
   51.1513  -10.6273   -4.1571 H   0  0  0  0  0
   50.2342  -10.3140   -2.7345 H   0  0  0  0  0
   51.0039  -14.0176   -6.6297 H   0  0  0  0  0
   50.8058  -12.4841   -5.7751 H   0  0  0  0  0
  1  2  2  0  0  0
  1  3  1  0  0  0
 15  1  1  0  0  0
  4  5  2  0  0  0
  6  4  1  0  0  0
  4 24  1  0  0  0
  6  7  4  0  0  0
 13  6  4  0  0  0
  7  8  1  0  0  0
 11  7  4  0  0  0
  8  9  1  0  0  0
  8 10  1  0  0  0
 12 11  4  0  0  0
 12 13  4  0  0  0
 14 12  1  0  0  0
 14 15  1  0  0  0
 14 19  1  0  0  0
 15 16  1  0  0  0
 16 17  1  0  0  0
 17 18  4  0  0  0
 17 23  4  0  0  0
 18 19  1  0  0  0
 18 20  4  0  0  0
 20 21  4  0  0  0
 21 22  4  0  0  0
 22 23  4  0  0  0
 24 25  1  0  0  0
 24 31  1  0  0  0
 25 26  1  0  0  0
 26 27  1  0  0  0
 27 28  1  0  0  0
 27 30  1  0  0  0
 28 29  2  0  0  0
 28 32  1  0  0  0
 30 31  1  0  0  0
 32 33  1  0  0  0
 32 38  1  0  0  0
 33 34  1  0  0  0
 33 36  1  0  0  0
 34 35  2  0  0  0
 34 39  1  0  0  0
 36 37  1  0  0  0
 37 38  1  0  0  0
 39 40  1  0  0  0
 40 41  1  0  0  0
 40 43  1  0  0  0
 41 42  2  0  0  0
 41 47  1  0  0  0
 43 44  1  0  0  0
 44 45  1  0  0  0
 44 46  1  0  0  0
 47 48  1  0  0  0
 47 53  1  0  0  0
 48 49  1  0  0  0
 48 51  1  0  0  0
 49 50  2  0  0  0
 49 54  1  0  0  0
 51 52  1  0  0  0
 52 53  1  0  0  0
 54 55  1  0  0  0
 54 60  1  0  0  0
 55 56  1  0  0  0
 55 58  1  0  0  0
 56 57  2  0  0  0
 56 61  1  0  0  0
 58 59  1  0  0  0
 59 60  1  0  0  0
 61 62  1  0  0  0
 62 63  1  0  0  0
 62 65  1  0  0  0
 63 64  2  0  0  0
 63 69  1  0  0  0
 65 66  1  0  0  0
 66 67  1  0  0  0
 66 68  1  0  0  0
 69 70  1  0  0  0
 69 75  1  0  0  0
 70 71  1  0  0  0
 70 73  1  0  0  0
 71 72  2  0  0  0
 71 76  1  0  0  0
 73 74  1  0  0  0
 74 75  1  0  0  0
  3 77  1  0  0  0
  3 78  1  0  0  0
  3 79  1  0  0  0
  8 80  1  0  0  0
  9 81  1  0  0  0
  9 82  1  0  0  0
  9 83  1  0  0  0
 10 84  1  0  0  0
 10 85  1  0  0  0
 10 86  1  0  0  0
 14 87  1  0  0  0
 16 88  1  0  0  0
 16 89  1  0  0  0
 19 90  1  0  0  0
 19 91  1  0  0  0
 20 92  1  0  0  0
 21 93  1  0  0  0
 22 94  1  0  0  0
 23 95  1  0  0  0
 25 96  1  0  0  0
 25 97  1  0  0  0
 26 98  1  0  0  0
 26 99  1  0  0  0
 27100  1  0  0  0
 30101  1  0  0  0
 30102  1  0  0  0
 31103  1  0  0  0
 31104  1  0  0  0
 33105  1  0  0  0
 36106  1  0  0  0
 36107  1  0  0  0
 37108  1  0  0  0
 37109  1  0  0  0
 38110  1  0  0  0
 38111  1  0  0  0
 39112  1  0  0  0
 40113  1  0  0  0
 43114  1  0  0  0
 43115  1  0  0  0
 44116  1  0  0  0
 45117  1  0  0  0
 45118  1  0  0  0
 45119  1  0  0  0
 46120  1  0  0  0
 46121  1  0  0  0
 46122  1  0  0  0
 48123  1  0  0  0
 51124  1  0  0  0
 51125  1  0  0  0
 52126  1  0  0  0
 52127  1  0  0  0
 53128  1  0  0  0
 53129  1  0  0  0
 55130  1  0  0  0
 58131  1  0  0  0
 58132  1  0  0  0
 59133  1  0  0  0
 59134  1  0  0  0
 60135  1  0  0  0
 60136  1  0  0  0
 61137  1  0  0  0
 62138  1  0  0  0
 65139  1  0  0  0
 65140  1  0  0  0
 66141  1  0  0  0
 67142  1  0  0  0
 67143  1  0  0  0
 67144  1  0  0  0
 68145  1  0  0  0
 68146  1  0  0  0
 68147  1  0  0  0
 70148  1  0  0  0
 73149  1  0  0  0
 73150  1  0  0  0
 74151  1  0  0  0
 74152  1  0  0  0
 75153  1  0  0  0
 75154  1  0  0  0
 76155  1  0  0  0
 76156  1  0  0  0
M  END
$$$$
