3dsz_ligand
  -I-interpret- 

 97 98  0  0  0  0  0  0  0  0999 V2000
   -1.1940   57.3830   68.6820 N   0  3  0  0  0
    0.5960   61.6400   67.4580 N   0  3  0  0  0
   -0.4540   57.1230   69.9240 C   0  0  0  0  0
   -1.5890   58.5140   65.2810 C   0  0  0  0  0
   -0.0880   58.7930   65.3010 C   0  0  0  0  0
    0.1460   62.2210   69.7970 C   0  0  0  0  0
    1.2260   62.0240   68.7310 C   0  0  0  0  0
   -0.0290   62.8220   66.8510 C   0  0  0  0  0
    1.7460   59.5670   66.6930 C   0  0  0  0  0
    2.6860   59.0460   65.6040 C   0  0  0  0  0
    3.8840   61.2720   65.5710 C   0  0  0  0  0
   -0.5750   54.3430   65.4220 C   0  0  0  0  0
   -0.0840   53.6380   64.3330 C   0  0  0  0  0
    1.1600   52.9980   64.4100 C   0  0  0  0  0
    1.3760   53.7840   66.6900 C   0  0  0  0  0
    1.3550   52.1310   62.1570 C   0  0  0  0  0
    1.9310   51.0710   59.9800 C   0  0  0  0  0
   -1.0140   61.8640   69.5030 O   0  0  0  0  0
    0.5010   62.7090   70.8910 O   0  0  0  0  0
   -1.0250   62.3860   65.7730 C   0  0  0  0  0
   -1.2070   63.1670   64.8160 O   0  0  0  0  0
   -1.5870   61.2820   65.9370 O   0  0  0  0  0
    1.5610   61.0710   66.5060 C   0  0  0  0  0
    2.9110   61.7820   66.6330 C   0  0  0  0  0
    4.0410   59.7530   65.6680 C   0  0  0  0  0
    0.4690   58.8310   66.6630 N   0  3  0  0  0
   -2.0710   58.0300   64.2340 O   0  0  0  0  0
   -2.2520   58.8010   66.3030 O   0  0  0  0  0
    0.7200   57.4570   67.1340 C   0  0  0  0  0
   -0.5720   56.7350   67.5150 C   0  0  0  0  0
    0.5480   58.2510   70.1940 C   0  0  0  0  0
    1.4440   58.0320   71.0360 O   0  0  0  0  0
    0.3960   59.3100   69.5490 O   0  0  0  0  0
   -2.5900   56.9380   68.8260 C   0  0  0  0  0
   -3.3910   58.0080   69.5690 C   0  0  0  0  0
   -4.5020   57.6650   70.0300 O   0  0  0  0  0
   -2.8800   59.1450   69.6640 O   0  0  0  0  0
   -0.3230   55.2490   67.8090 C   0  0  0  0  0
    0.1580   54.4360   66.6080 C   0  0  0  0  0
    1.8650   53.0640   65.6010 C   0  0  0  0  0
    1.7400   52.3220   63.4250 N   0  0  0  0  0
    0.0470   53.0500   61.4440 S   0  0  0  0  0
    2.1410   51.3630   61.4050 N   0  0  0  0  0
    2.2350   52.3110   59.1360 C   0  0  0  0  0
    3.6250   52.6330   59.2170 O   0  0  0  0  0
    0.4990   50.6180   59.6960 C   0  0  0  0  0
    0.4750   49.2140   59.4300 O   0  0  0  0  0
    2.8920   49.9510   59.5820 C   0  0  0  0  0
    4.2360   50.3130   59.9140 O   0  0  0  0  0
   -1.1699   58.3893   68.5169 H   0  0  0  0  0
   -0.0997   60.9233   67.6647 H   0  0  0  0  0
    0.0880   56.1825   69.8245 H   0  0  0  0  0
   -1.1594   57.0683   70.7531 H   0  0  0  0  0
    0.0752   59.7704   64.8470 H   0  0  0  0  0
    0.4079   57.9866   64.7607 H   0  0  0  0  0
    1.7775   62.9546   68.5968 H   0  0  0  0  0
    1.9105   61.2376   69.0489 H   0  0  0  0  0
    0.7423   63.4451   66.3982 H   0  0  0  0  0
   -0.5552   63.3867   67.6206 H   0  0  0  0  0
    2.1768   59.3992   67.6801 H   0  0  0  0  0
    2.2356   59.2393   64.6304 H   0  0  0  0  0
    2.8406   57.9778   65.7562 H   0  0  0  0  0
    4.8563   61.7381   65.7304 H   0  0  0  0  0
    3.4939   61.5241   64.5849 H   0  0  0  0  0
   -1.5468   54.8316   65.3516 H   0  0  0  0  0
   -0.6679   53.5817   63.4143 H   0  0  0  0  0
    1.9563   53.8337   67.6114 H   0  0  0  0  0
    1.4417   62.8988   70.8652 H   0  0  0  0  0
   -1.2715   60.8813   66.7503 H   0  0  0  0  0
    1.1550   61.2276   65.5066 H   0  0  0  0  0
    2.7627   62.8528   66.4935 H   0  0  0  0  0
    3.3263   61.5812   67.6206 H   0  0  0  0  0
    4.6482   59.4137   64.8288 H   0  0  0  0  0
    4.5112   59.5140   66.6219 H   0  0  0  0  0
   -0.2069   59.3022   67.2643 H   0  0  0  0  0
   -1.6652   59.1568   66.9743 H   0  0  0  0  0
    1.3530   57.5115   68.0197 H   0  0  0  0  0
    1.1941   56.9014   66.3249 H   0  0  0  0  0
   -1.2499   56.7994   66.6639 H   0  0  0  0  0
   -0.3638   59.2236   68.9687 H   0  0  0  0  0
   -2.6182   56.0056   69.3899 H   0  0  0  0  0
   -3.0244   56.7783   67.8392 H   0  0  0  0  0
   -4.6620   56.7415   69.8223 H   0  0  0  0  0
   -1.2760   54.8221   68.1215 H   0  0  0  0  0
    0.4637   55.2007   68.5620 H   0  0  0  0  0
    2.8189   52.5437   65.6880 H   0  0  0  0  0
    2.6224   51.8757   63.6752 H   0  0  0  0  0
   -0.5848   53.7308   62.3960 H   0  0  0  0  0
    1.6512   53.1511   59.5121 H   0  0  0  0  0
    1.9752   52.1084   58.0970 H   0  0  0  0  0
    3.8036   53.4115   58.6843 H   0  0  0  0  0
    0.1185   51.1545   58.8268 H   0  0  0  0  0
   -0.1234   50.8292   60.5655 H   0  0  0  0  0
   -0.4274   48.9384   59.2529 H   0  0  0  0  0
    2.8219   49.7855   58.5069 H   0  0  0  0  0
    2.6236   49.0420   60.1204 H   0  0  0  0  0
    4.8296   49.6027   59.6597 H   0  0  0  0  0
  1  3  1  0  0  0
 30  1  1  0  0  0
  1 34  1  0  0  0
  2  7  1  0  0  0
  2  8  1  0  0  0
 23  2  1  0  0  0
  3 31  1  0  0  0
  5  4  1  0  0  0
  4 27  2  0  0  0
  4 28  1  0  0  0
 26  5  1  0  0  0
  7  6  1  0  0  0
  6 18  2  0  0  0
  6 19  1  0  0  0
  8 20  1  0  0  0
  9 10  1  0  0  0
  9 23  1  0  0  0
 26  9  1  0  0  0
 10 25  1  0  0  0
 24 11  1  0  0  0
 25 11  1  0  0  0
 12 13  4  0  0  0
 39 12  4  0  0  0
 13 14  4  0  0  0
 40 14  4  0  0  0
 14 41  1  0  0  0
 39 15  4  0  0  0
 15 40  4  0  0  0
 41 16  1  0  0  0
 16 42  1  0  0  0
 16 43  2  0  0  0
 43 17  1  0  0  0
 17 44  1  0  0  0
 17 46  1  0  0  0
 17 48  1  0  0  0
 20 21  2  0  0  0
 20 22  1  0  0  0
 23 24  1  0  0  0
 29 26  1  0  0  0
 30 29  1  0  0  0
 38 30  1  0  0  0
 31 32  2  0  0  0
 31 33  1  0  0  0
 34 35  1  0  0  0
 35 36  1  0  0  0
 35 37  2  0  0  0
 38 39  1  0  0  0
 44 45  1  0  0  0
 46 47  1  0  0  0
 48 49  1  0  0  0
  1 50  1  0  0  0
  2 51  1  0  0  0
  3 52  1  0  0  0
  3 53  1  0  0  0
  5 54  1  0  0  0
  5 55  1  0  0  0
  7 56  1  0  0  0
  7 57  1  0  0  0
  8 58  1  0  0  0
  8 59  1  0  0  0
  9 60  1  0  0  0
 10 61  1  0  0  0
 10 62  1  0  0  0
 11 63  1  0  0  0
 11 64  1  0  0  0
 12 65  1  0  0  0
 13 66  1  0  0  0
 15 67  1  0  0  0
 19 68  1  0  0  0
 22 69  1  0  0  0
 23 70  1  0  0  0
 24 71  1  0  0  0
 24 72  1  0  0  0
 25 73  1  0  0  0
 25 74  1  0  0  0
 26 75  1  0  0  0
 28 76  1  0  0  0
 29 77  1  0  0  0
 29 78  1  0  0  0
 30 79  1  0  0  0
 33 80  1  0  0  0
 34 81  1  0  0  0
 34 82  1  0  0  0
 36 83  1  0  0  0
 38 84  1  0  0  0
 38 85  1  0  0  0
 40 86  1  0  0  0
 41 87  1  0  0  0
 42 88  1  0  0  0
 44 89  1  0  0  0
 44 90  1  0  0  0
 45 91  1  0  0  0
 46 92  1  0  0  0
 46 93  1  0  0  0
 47 94  1  0  0  0
 48 95  1  0  0  0
 48 96  1  0  0  0
 49 97  1  0  0  0
M  END
$$$$
