5hmh_ligand
  -I-interpret- 

 90 94  0  0  0  0  0  0  0  0999 V2000
  -16.5730    5.5420   21.0740 C   0  0  0  0  0
  -17.3740    5.8590   22.2190 C   0  0  0  0  0
  -18.1710    4.8700   22.7960 C   0  0  0  0  0
  -18.2020    3.5620   22.2810 C   0  0  0  0  0
  -17.3890    3.2340   21.1740 C   0  0  0  0  0
  -15.7230    7.8300   20.7510 C   0  0  0  0  0
  -12.5370    7.9150   21.0440 C   0  0  0  0  0
  -14.1900    3.8860   19.9350 C   0  0  0  0  0
  -13.2480    3.7910   18.7290 C   0  0  0  0  0
  -12.6300    1.5750   17.7740 C   0  0  0  0  0
  -12.9440    0.2210   17.0830 C   0  0  0  0  0
  -12.4610   -1.9790   15.1100 C   0  0  0  0  0
  -14.6820   -1.0610   14.1910 C   0  0  0  0  0
  -15.6970   -4.5520   12.8960 C   0  0  0  0  0
  -12.3650    1.6850   13.3220 C   0  0  0  0  0
  -17.8150   -0.5610   21.7640 F   0  0  0  0  0
  -17.0050   -1.5270   21.4180 C   0  0  0  0  0
  -17.7550   -2.3560   20.7440 F   0  0  0  0  0
  -16.7290   -2.1990   22.5170 F   0  0  0  0  0
  -15.8120   -1.0350   20.6870 C   0  0  0  0  0
  -14.3940   -0.5410   21.4650 S   0  0  0  0  0
  -13.6860   -0.2060   19.9670 C   0  0  0  0  0
  -15.7970   -0.9650   19.3230 C   0  0  0  0  0
  -14.5340   -0.4780   18.8900 C   0  0  0  0  0
  -14.2200   -0.2980   17.5590 O   0  0  0  0  0
  -11.7760   -0.8110   17.2570 C   0  0  0  0  0
  -12.0860   -2.1610   16.6010 C   0  0  0  0  0
  -13.4740   -0.8750   14.8910 N   0  0  0  0  0
  -14.8210   -2.3240   13.3940 C   0  0  0  0  0
  -15.6390   -3.4240   13.7400 C   0  0  0  0  0
  -16.4510   -3.3910   15.0350 C   0  0  0  0  0
  -15.6810   -3.1530   16.0780 F   0  0  0  0  0
  -17.3830   -2.4360   15.0880 F   0  0  0  0  0
  -17.0870   -4.5230   15.3490 F   0  0  0  0  0
  -14.9190   -4.5200   11.7230 C   0  0  0  0  0
  -14.1140   -3.4730   11.3540 N   0  0  0  0  0
  -14.0690   -2.3960   12.1780 C   0  0  0  0  0
  -15.5940   -0.2400   14.2240 O   0  0  0  0  0
  -13.2020    0.4370   15.5290 C   0  0  0  0  0
  -12.0470    1.2090   14.7650 C   0  0  0  0  0
  -13.6490    2.5460   13.2380 C   0  0  0  0  0
  -11.4930    1.7880   18.2000 O   0  0  0  0  0
  -13.6290    2.5810   17.9440 N   0  0  0  0  0
  -15.0370    2.6330   17.3910 C   0  0  0  0  0
  -16.0370    2.8670   18.5520 C   0  0  0  0  0
  -15.6520    3.9740   19.4630 N   0  0  0  0  0
  -16.5580    4.2190   20.5620 C   0  0  0  0  0
  -15.8350    6.4690   20.3640 O   0  0  0  0  0
  -14.7050    8.5700   19.8510 C   0  0  0  0  0
  -13.3180    7.8730   19.7420 C   0  0  0  0  0
  -12.7010    7.1620   21.9920 O   0  0  0  0  0
  -11.5530    8.8260   21.2170 O   0  0  0  0  0
  -17.3607    6.8659   22.6363 H   0  0  0  0  0
  -18.7824    5.1164   23.6641 H   0  0  0  0  0
  -18.8475    2.8083   22.7320 H   0  0  0  0  0
  -17.3964    2.2167   20.7826 H   0  0  0  0  0
  -15.3797    7.8762   21.7845 H   0  0  0  0  0
  -16.6974    8.3076   20.6487 H   0  0  0  0  0
  -13.9461    4.7804   20.5082 H   0  0  0  0  0
  -14.0680    2.9968   20.5535 H   0  0  0  0  0
  -12.2134    3.7139   19.0632 H   0  0  0  0  0
  -13.3346    4.6847   18.1110 H   0  0  0  0  0
  -12.9029   -2.9120   14.7604 H   0  0  0  0  0
  -11.5539   -1.7125   14.5675 H   0  0  0  0  0
  -16.3185   -5.4132   13.1415 H   0  0  0  0  0
  -12.5187    0.7987   12.7064 H   0  0  0  0  0
  -11.5306    2.2993   12.9836 H   0  0  0  0  0
  -12.6737    0.1817   19.8530 H   0  0  0  0  0
  -16.6244   -1.2397   18.6688 H   0  0  0  0  0
  -11.6317   -0.9800   18.3241 H   0  0  0  0  0
  -10.8881   -0.3992   16.7774 H   0  0  0  0  0
  -11.2000   -2.7928   16.6646 H   0  0  0  0  0
  -12.9284   -2.6175   17.1207 H   0  0  0  0  0
  -14.9593   -5.3866   11.0631 H   0  0  0  0  0
  -13.4355   -1.5526   11.9033 H   0  0  0  0  0
  -14.0702    1.0911   15.4485 H   0  0  0  0  0
  -11.8546    2.1121   15.3442 H   0  0  0  0  0
  -11.2221    0.5024   14.6738 H   0  0  0  0  0
  -14.4998    1.9626   13.5898 H   0  0  0  0  0
  -13.5319    3.4324   13.8614 H   0  0  0  0  0
  -13.8160    2.8471   12.2038 H   0  0  0  0  0
  -15.2686    1.6903   16.8952 H   0  0  0  0  0
  -15.1161    3.4486   16.6722 H   0  0  0  0  0
  -16.0644    1.9532   19.1455 H   0  0  0  0  0
  -16.9955    3.1325   18.1059 H   0  0  0  0  0
  -14.5364    9.5500   20.2975 H   0  0  0  0  0
  -15.1280    8.5996   18.8469 H   0  0  0  0  0
  -13.4882    6.8269   19.4874 H   0  0  0  0  0
  -12.7367    8.4007   18.9859 H   0  0  0  0  0
  -11.4869    9.3766   20.4334 H   0  0  0  0  0
  1  2  4  0  0  0
  1 47  4  0  0  0
 48  1  1  0  0  0
  2  3  4  0  0  0
  3  4  4  0  0  0
  5  4  4  0  0  0
 47  5  4  0  0  0
  6 48  1  0  0  0
 49  6  1  0  0  0
 50  7  1  0  0  0
  7 51  2  0  0  0
  7 52  1  0  0  0
  8  9  1  0  0  0
 46  8  1  0  0  0
  9 43  1  0  0  0
 10 11  1  0  0  0
 10 42  2  0  0  0
 43 10  1  0  0  0
 11 25  1  0  0  0
 11 26  1  0  0  0
 11 39  1  0  0  0
 27 12  1  0  0  0
 28 12  1  0  0  0
 28 13  1  0  0  0
 13 29  1  0  0  0
 13 38  2  0  0  0
 30 14  4  0  0  0
 14 35  4  0  0  0
 40 15  1  0  0  0
 15 41  1  0  0  0
 17 16  1  0  0  0
 17 18  1  0  0  0
 17 19  1  0  0  0
 20 17  1  0  0  0
 20 21  4  0  0  0
 23 20  4  0  0  0
 22 21  4  0  0  0
 24 22  4  0  0  0
 24 23  4  0  0  0
 25 24  1  0  0  0
 26 27  1  0  0  0
 39 28  1  0  0  0
 29 30  4  0  0  0
 29 37  4  0  0  0
 30 31  1  0  0  0
 31 32  1  0  0  0
 31 33  1  0  0  0
 31 34  1  0  0  0
 36 35  4  0  0  0
 37 36  4  0  0  0
 39 40  1  0  0  0
 44 43  1  0  0  0
 45 44  1  0  0  0
 46 45  1  0  0  0
 47 46  1  0  0  0
 49 50  1  0  0  0
  2 53  1  0  0  0
  3 54  1  0  0  0
  4 55  1  0  0  0
  5 56  1  0  0  0
  6 57  1  0  0  0
  6 58  1  0  0  0
  8 59  1  0  0  0
  8 60  1  0  0  0
  9 61  1  0  0  0
  9 62  1  0  0  0
 12 63  1  0  0  0
 12 64  1  0  0  0
 14 65  1  0  0  0
 15 66  1  0  0  0
 15 67  1  0  0  0
 22 68  1  0  0  0
 23 69  1  0  0  0
 26 70  1  0  0  0
 26 71  1  0  0  0
 27 72  1  0  0  0
 27 73  1  0  0  0
 35 74  1  0  0  0
 37 75  1  0  0  0
 39 76  1  0  0  0
 40 77  1  0  0  0
 40 78  1  0  0  0
 41 79  1  0  0  0
 41 80  1  0  0  0
 41 81  1  0  0  0
 44 82  1  0  0  0
 44 83  1  0  0  0
 45 84  1  0  0  0
 45 85  1  0  0  0
 49 86  1  0  0  0
 49 87  1  0  0  0
 50 88  1  0  0  0
 50 89  1  0  0  0
 52 90  1  0  0  0
M  END
$$$$
