4mzo_ligand
  -I-interpret- 

 52 54  0  0  0  0  0  0  0  0999 V2000
  -18.5130  -19.3590  -30.0530 S   0  0  0  0  0
  -18.8780  -17.7700  -29.9160 N   0  0  0  0  0
  -18.0320  -15.6120  -30.6950 C   0  0  0  0  0
  -18.9880  -16.1990  -31.7600 C   0  0  0  0  0
  -16.7260  -15.1340  -31.2210 C   0  0  0  0  0
  -17.7270  -16.8240  -29.8150 C   0  0  0  0  0
  -19.8330  -17.1500  -30.8700 C   0  0  0  0  0
  -15.9290  -14.2650  -30.5660 N   0  0  0  0  0
  -19.8310  -15.1570  -32.4290 C   0  0  0  0  0
  -22.7040  -14.0120  -35.6410 N   0  0  0  0  0
  -19.7650  -20.0140  -30.0050 O   0  0  0  0  0
  -17.5970  -19.3170  -31.1540 O   0  0  0  0  0
  -17.6850  -19.7410  -28.5460 C   0  0  0  0  0
  -22.0240  -14.6020  -34.7070 C   0  0  0  0  0
  -16.4260  -15.5310  -32.3250 O   0  0  0  0  0
  -20.2680  -14.1530  -31.8180 O   0  0  0  0  0
  -19.9470  -15.3190  -33.7800 N   0  0  0  0  0
  -14.8530  -11.7980  -29.9170 O   0  0  0  0  0
  -14.6140  -13.8700  -31.2580 C   0  0  0  0  0
  -16.2340  -13.7360  -29.1880 C   0  0  0  0  0
  -20.5700  -14.4420  -34.7010 C   0  0  0  0  0
  -16.0410  -12.2140  -29.2080 C   0  0  0  0  0
  -14.6200  -12.3150  -31.2350 C   0  0  0  0  0
  -18.4860  -19.7950  -27.4040 C   0  0  0  0  0
  -16.3020  -19.9280  -28.5330 C   0  0  0  0  0
  -15.6810  -20.1780  -27.3260 C   0  0  0  0  0
  -17.8700  -20.0710  -26.1900 C   0  0  0  0  0
  -16.4830  -20.2520  -26.1900 C   0  0  0  0  0
  -18.4988  -14.7483  -30.2215 H   0  0  0  0  0
  -18.4838  -16.6759  -32.6005 H   0  0  0  0  0
  -16.8101  -17.3100  -30.1485 H   0  0  0  0  0
  -17.5862  -16.5118  -28.7802 H   0  0  0  0  0
  -20.6194  -16.6068  -30.3459 H   0  0  0  0  0
  -20.3406  -17.9059  -31.4693 H   0  0  0  0  0
  -22.2234  -13.4539  -36.3467 H   0  0  0  0  0
  -22.5234  -15.2017  -33.9460 H   0  0  0  0  0
  -19.5384  -16.1683  -34.1701 H   0  0  0  0  0
  -14.5488  -14.2652  -32.2717 H   0  0  0  0  0
  -13.7427  -14.2846  -30.7510 H   0  0  0  0  0
  -15.5666  -14.1897  -28.4553 H   0  0  0  0  0
  -17.2591  -13.9810  -28.9100 H   0  0  0  0  0
  -20.3397  -13.4178  -34.4076 H   0  0  0  0  0
  -20.1964  -14.6720  -35.6988 H   0  0  0  0  0
  -16.8995  -11.7797  -29.7204 H   0  0  0  0  0
  -15.9417  -11.8809  -28.1749 H   0  0  0  0  0
  -13.6437  -11.9653  -31.5707 H   0  0  0  0  0
  -15.4235  -11.9676  -31.8844 H   0  0  0  0  0
  -19.5612  -19.6259  -27.4631 H   0  0  0  0  0
  -15.7247  -19.8777  -29.4562 H   0  0  0  0  0
  -14.6011  -20.3127  -27.2642 H   0  0  0  0  0
  -18.4478  -20.1441  -25.2687 H   0  0  0  0  0
  -15.9977  -20.4651  -25.2376 H   0  0  0  0  0
  2  1  1  0  0  0
  1 11  2  0  0  0
  1 12  2  0  0  0
  1 13  1  0  0  0
  6  2  1  0  0  0
  2  7  1  0  0  0
  3  4  1  0  0  0
  5  3  1  0  0  0
  3  6  1  0  0  0
  4  7  1  0  0  0
  4  9  1  0  0  0
  8  5  1  0  0  0
  5 15  2  0  0  0
 19  8  1  0  0  0
  8 20  1  0  0  0
  9 16  2  0  0  0
  9 17  1  0  0  0
 14 10  2  0  0  0
 13 24  4  0  0  0
 13 25  4  0  0  0
 21 14  1  0  0  0
 17 21  1  0  0  0
 18 22  1  0  0  0
 23 18  1  0  0  0
 19 23  1  0  0  0
 20 22  1  0  0  0
 24 27  4  0  0  0
 25 26  4  0  0  0
 26 28  4  0  0  0
 27 28  4  0  0  0
  3 29  1  0  0  0
  4 30  1  0  0  0
  6 31  1  0  0  0
  6 32  1  0  0  0
  7 33  1  0  0  0
  7 34  1  0  0  0
 10 35  1  0  0  0
 14 36  1  0  0  0
 17 37  1  0  0  0
 19 38  1  0  0  0
 19 39  1  0  0  0
 20 40  1  0  0  0
 20 41  1  0  0  0
 21 42  1  0  0  0
 21 43  1  0  0  0
 22 44  1  0  0  0
 22 45  1  0  0  0
 23 46  1  0  0  0
 23 47  1  0  0  0
 24 48  1  0  0  0
 25 49  1  0  0  0
 26 50  1  0  0  0
 27 51  1  0  0  0
 28 52  1  0  0  0
M  END
$$$$
