### 
### Created by X-TOOL on Mon Sep 10 21:13:20 2018
### 

@<TRIPOS>MOLECULE
4mzo_ligand
   52    54     1     0     0
SMALL
GAST_HUCK


@<TRIPOS>ATOM
      1 S1        -18.5130  -19.3590  -30.0530 S.o2      1 2EW         0.0709
      2 N2        -18.8780  -17.7700  -29.9160 N.am      1 2EW        -0.2288
      3 C3        -18.0320  -15.6120  -30.6950 C.3       1 2EW         0.0868
      4 C4        -18.9880  -16.1990  -31.7600 C.3       1 2EW         0.0868
      5 C5        -16.7260  -15.1340  -31.2210 C.2       1 2EW         0.1858
      6 C6        -17.7270  -16.8240  -29.8150 C.3       1 2EW         0.0518
      7 C7        -19.8330  -17.1500  -30.8700 C.3       1 2EW         0.0518
      8 N8        -15.9290  -14.2650  -30.5660 N.am      1 2EW        -0.2684
      9 C9        -19.8310  -15.1570  -32.4290 C.2       1 2EW         0.1861
     10 N10       -22.7040  -14.0120  -35.6410 N.2       1 2EW        -0.3621
     11 O11       -19.7650  -20.0140  -30.0050 O.2       1 2EW        -0.1501
     12 O12       -17.5970  -19.3170  -31.1540 O.2       1 2EW        -0.1501
     13 C13       -17.6850  -19.7410  -28.5460 C.ar      1 2EW         0.1084
     14 C14       -22.0240  -14.6020  -34.7070 C.2       1 2EW         0.0176
     15 O15       -16.4260  -15.5310  -32.3250 O.2       1 2EW        -0.3963
     16 O16       -20.2680  -14.1530  -31.8180 O.2       1 2EW        -0.3963
     17 N17       -19.9470  -15.3190  -33.7800 N.am      1 2EW        -0.2666
     18 O18       -14.8530  -11.7980  -29.9170 O.3       1 2EW        -0.3758
     19 C19       -14.6140  -13.8700  -31.2580 C.3       1 2EW         0.0573
     20 C20       -16.2340  -13.7360  -29.1880 C.3       1 2EW         0.0573
     21 C21       -20.5700  -14.4420  -34.7010 C.3       1 2EW         0.0897
     22 C22       -16.0410  -12.2140  -29.2080 C.3       1 2EW         0.0681
     23 C23       -14.6200  -12.3150  -31.2350 C.3       1 2EW         0.0681
     24 C24       -18.4860  -19.7950  -27.4040 C.ar      1 2EW        -0.0351
     25 C25       -16.3020  -19.9280  -28.5330 C.ar      1 2EW        -0.0351
     26 C26       -15.6810  -20.1780  -27.3260 C.ar      1 2EW        -0.0599
     27 C27       -17.8700  -20.0710  -26.1900 C.ar      1 2EW        -0.0599
     28 C28       -16.4830  -20.2520  -26.1900 C.ar      1 2EW        -0.0616
     29 H1        -18.5267  -14.8041  -30.1360 H         1 2EW         0.0582
     30 H2        -18.4332  -16.7559  -32.5295 H         1 2EW         0.0582
     31 H3        -16.8074  -17.3165  -30.1640 H         1 2EW         0.0507
     32 H4        -17.5977  -16.5037  -28.7706 H         1 2EW         0.0507
     33 H5        -20.6026  -16.5822  -30.3265 H         1 2EW         0.0507
     34 H6        -20.3147  -17.9234  -31.4863 H         1 2EW         0.0507
     35 H7        -23.7073  -14.1051  -35.6694 H         1 2EW         0.1054
     36 H8        -22.5229  -15.2012  -33.9467 H         1 2EW         0.1222
     37 H9        -19.5464  -16.1516  -34.1625 H         1 2EW         0.1893
     38 H10       -14.5900  -14.2443  -32.2921 H         1 2EW         0.0545
     39 H11       -13.7488  -14.2645  -30.7050 H         1 2EW         0.0545
     40 H12       -15.5502  -14.1889  -28.4550 H         1 2EW         0.0545
     41 H13       -17.2728  -13.9765  -28.9178 H         1 2EW         0.0545
     42 H14       -20.3272  -13.4052  -34.4250 H         1 2EW         0.0803
     43 H15       -20.1846  -14.6528  -35.7095 H         1 2EW         0.0803
     44 H16       -16.9157  -11.7575  -29.6943 H         1 2EW         0.0580
     45 H17       -15.9709  -11.8573  -28.1698 H         1 2EW         0.0580
     46 H18       -13.6455  -11.9508  -31.5923 H         1 2EW         0.0580
     47 H19       -15.4145  -11.9530  -31.9041 H         1 2EW         0.0580
     48 H20       -19.5553  -19.6268  -27.4628 H         1 2EW         0.0637
     49 H21       -15.7279  -19.8780  -29.4511 H         1 2EW         0.0637
     50 H22       -14.6071  -20.3120  -27.2645 H         1 2EW         0.0618
     51 H23       -18.4446  -20.1437  -25.2737 H         1 2EW         0.0618
     52 H24       -16.0004  -20.4640  -25.2428 H         1 2EW         0.0618
@<TRIPOS>BOND
     1    2    1 am 
     2    1   11 2  
     3    1   12 2  
     4    1   13 1  
     5    6    2 1  
     6    2    7 1  
     7    3    4 1  
     8    5    3 1  
     9    3    6 1  
    10    4    7 1  
    11    4    9 1  
    12    8    5 am 
    13    5   15 2  
    14   19    8 1  
    15    8   20 1  
    16    9   16 2  
    17    9   17 am 
    18   14   10 2  
    19   13   24 ar 
    20   13   25 ar 
    21   21   14 1  
    22   17   21 1  
    23   18   22 1  
    24   23   18 1  
    25   19   23 1  
    26   20   22 1  
    27   24   27 ar 
    28   25   26 ar 
    29   26   28 ar 
    30   27   28 ar 
    31    3   29 1  
    32    4   30 1  
    33    6   31 1  
    34    6   32 1  
    35    7   33 1  
    36    7   34 1  
    37   10   35 1  
    38   14   36 1  
    39   17   37 1  
    40   19   38 1  
    41   19   39 1  
    42   20   40 1  
    43   20   41 1  
    44   21   42 1  
    45   21   43 1  
    46   22   44 1  
    47   22   45 1  
    48   23   46 1  
    49   23   47 1  
    50   24   48 1  
    51   25   49 1  
    52   26   50 1  
    53   27   51 1  
    54   28   52 1  
@<TRIPOS>SUBSTRUCTURE
     1 2EW         1

