6fnx_ligand
  -I-interpret- 

 34 36  0  0  0  0  0  0  0  0999 V2000
  -12.3620   -6.1900    0.5990 C   0  0  0  0  0
  -13.2770   -5.4220    0.0670 C   0  0  0  0  0
  -14.5420   -5.2370    0.5260 C   0  0  0  0  0
  -11.4060   -5.4480   -1.0720 C   0  0  0  0  0
  -14.8050   -5.9610    1.7490 N   0  0  0  0  0
  -12.6520   -6.9480    1.8150 N   0  0  0  0  0
  -13.0270   -2.5450   -1.3360 C   0  0  0  0  0
  -13.1030   -3.9030   -1.9690 C   0  0  0  0  0
  -12.6100   -4.9290   -1.0720 N   0  0  0  0  0
  -11.1920   -6.2280   -0.0170 N   0  0  0  0  0
  -15.4870   -4.5280    0.1690 O   0  0  0  0  0
  -13.8580   -6.7950    2.3540 C   0  0  0  0  0
  -14.1550   -7.3790    3.3910 O   0  0  0  0  0
  -11.5280   -7.6970    2.4820 C   0  0  0  0  0
  -10.7030   -6.7730    3.2730 C   0  0  0  0  0
  -11.1210   -6.2660    4.5240 C   0  0  0  0  0
  -10.3340   -5.4040    5.2900 C   0  0  0  0  0
   -9.1540   -4.9370    4.8970 C   0  0  0  0  0
   -8.6910   -5.4680    3.7230 C   0  0  0  0  0
   -9.3940   -6.3560    2.8570 C   0  0  0  0  0
  -10.6646   -5.2611   -1.8489 H   0  0  0  0  0
  -15.7193   -5.8598    2.1897 H   0  0  0  0  0
  -13.6315   -2.5339   -0.4291 H   0  0  0  0  0
  -11.9903   -2.3196   -1.0859 H   0  0  0  0  0
  -13.4042   -1.7982   -2.0347 H   0  0  0  0  0
  -12.4868   -3.9022   -2.8681 H   0  0  0  0  0
  -14.1452   -4.1188   -2.2044 H   0  0  0  0  0
  -10.9075   -8.1649    1.7177 H   0  0  0  0  0
  -11.9470   -8.4563    3.1423 H   0  0  0  0  0
  -12.0983   -6.5601    4.9068 H   0  0  0  0  0
  -10.7091   -5.0966    6.2662 H   0  0  0  0  0
   -8.5984   -4.1902    5.4643 H   0  0  0  0  0
   -7.6835   -5.1832    3.4199 H   0  0  0  0  0
   -8.9569   -6.7028    1.9207 H   0  0  0  0  0
  2  1  4  0  0  0
  1  6  1  0  0  0
 10  1  4  0  0  0
  2  3  1  0  0  0
  9  2  4  0  0  0
  3  5  1  0  0  0
  3 11  2  0  0  0
  9  4  4  0  0  0
  4 10  4  0  0  0
  5 12  1  0  0  0
  6 12  1  0  0  0
  6 14  1  0  0  0
  8  7  1  0  0  0
  8  9  1  0  0  0
 12 13  2  0  0  0
 14 15  1  0  0  0
 15 16  4  0  0  0
 15 20  4  0  0  0
 16 17  4  0  0  0
 17 18  4  0  0  0
 18 19  4  0  0  0
 19 20  4  0  0  0
  4 21  1  0  0  0
  5 22  1  0  0  0
  7 23  1  0  0  0
  7 24  1  0  0  0
  7 25  1  0  0  0
  8 26  1  0  0  0
  8 27  1  0  0  0
 14 28  1  0  0  0
 14 29  1  0  0  0
 16 30  1  0  0  0
 17 31  1  0  0  0
 18 32  1  0  0  0
 19 33  1  0  0  0
 20 34  1  0  0  0
M  END
$$$$
