5fbe_ligand
  -I-interpret- 

 55 57  0  0  0  0  0  0  0  0999 V2000
    7.9290    8.5520    1.8750 C   0  0  0  0  0
    9.0350   10.7400    3.6470 C   0  0  0  0  0
    9.1840   11.3500    6.0170 C   0  0  0  0  0
    4.6710    7.5170    1.5140 C   0  0  0  0  0
    9.2880   10.6340    7.2000 C   0  0  0  0  0
    6.0980    7.0780    1.1720 C   0  0  0  0  0
    8.8150   11.1960    8.3840 C   0  0  0  0  0
    8.9700   10.1000    0.2430 C   0  0  0  0  0
   10.6520   10.9510    1.7230 C   0  0  0  0  0
   10.4770   10.3990    0.2880 C   0  0  0  0  0
    8.2120   13.2480    7.1980 C   0  0  0  0  0
    2.3770    7.0420    2.0800 C   0  0  0  0  0
    8.6730   12.6650    6.0160 C   0  0  0  0  0
    8.2850   12.5050    8.3780 C   0  0  0  0  0
    4.4020    8.9010    1.6530 C   0  0  0  0  0
    8.8630    9.4900    1.5650 N   0  0  0  0  0
    9.7840    9.9960    2.5740 C   0  0  0  0  0
    7.8400    9.6680   10.0500 C   0  0  0  0  0
    9.6590   10.7470    4.8350 N   0  0  0  0  0
    3.8130    5.0300    1.6070 C   0  0  0  0  0
    7.0600    8.1390    0.9170 N   0  0  0  0  0
    3.6560    6.5520    1.7360 C   0  0  0  0  0
    8.9260   10.4310    9.5410 O   0  0  0  0  0
    7.9500   11.2720    3.4140 O   0  0  0  0  0
    7.8910    8.0750    3.0190 O   0  0  0  0  0
    2.8180    4.3280    1.4960 O   0  0  0  0  0
    6.7540   10.4860   10.2290 F   0  0  0  0  0
    7.5200    8.7330    9.1240 F   0  0  0  0  0
    8.2560    9.0350   11.1910 F   0  0  0  0  0
    5.0420    4.4510    1.6020 O   0  0  0  0  0
    5.0860    3.0050    1.6140 C   0  0  0  0  0
    2.0970    8.4130    2.1890 C   0  0  0  0  0
    3.1180    9.3540    1.9910 C   0  0  0  0  0
    9.7358    9.6403    7.2036 H   0  0  0  0  0
    6.0246    6.5081    0.2458 H   0  0  0  0  0
    6.4661    6.5405    2.0459 H   0  0  0  0  0
    8.6310    9.4877   -0.5926 H   0  0  0  0  0
    8.3202   10.9557    0.0596 H   0  0  0  0  0
   10.3454   11.9930    1.8141 H   0  0  0  0  0
   11.6939   10.9712    2.0427 H   0  0  0  0  0
   10.8026   11.0949   -0.4852 H   0  0  0  0  0
   11.0969    9.5263    0.0823 H   0  0  0  0  0
    7.8048   14.2591    7.1996 H   0  0  0  0  0
    1.5758    6.3274    2.2683 H   0  0  0  0  0
    8.6378   13.2305    5.0848 H   0  0  0  0  0
    7.9270   12.9426    9.3099 H   0  0  0  0  0
    5.2030    9.6232    1.4953 H   0  0  0  0  0
   10.3521    9.2315    3.1041 H   0  0  0  0  0
   10.5602   10.2721    4.8874 H   0  0  0  0  0
    7.0822    8.5823   -0.0014 H   0  0  0  0  0
    4.5904    2.6351    2.5116 H   0  0  0  0  0
    4.5760    2.6199    0.7310 H   0  0  0  0  0
    6.1246    2.6743    1.6084 H   0  0  0  0  0
    1.0869    8.7461    2.4273 H   0  0  0  0  0
    2.9171   10.4200    2.0980 H   0  0  0  0  0
 16  1  1  0  0  0
  1 21  1  0  0  0
  1 25  2  0  0  0
 17  2  1  0  0  0
  2 19  1  0  0  0
  2 24  2  0  0  0
  3  5  4  0  0  0
  3 13  4  0  0  0
 19  3  1  0  0  0
  6  4  1  0  0  0
  4 15  4  0  0  0
  4 22  4  0  0  0
  5  7  4  0  0  0
 21  6  1  0  0  0
  7 14  4  0  0  0
  7 23  1  0  0  0
 10  8  1  0  0  0
  8 16  1  0  0  0
  9 10  1  0  0  0
  9 17  1  0  0  0
 13 11  4  0  0  0
 11 14  4  0  0  0
 22 12  4  0  0  0
 12 32  4  0  0  0
 15 33  4  0  0  0
 16 17  1  0  0  0
 23 18  1  0  0  0
 18 27  1  0  0  0
 18 28  1  0  0  0
 18 29  1  0  0  0
 22 20  1  0  0  0
 20 26  2  0  0  0
 20 30  1  0  0  0
 30 31  1  0  0  0
 32 33  4  0  0  0
  5 34  1  0  0  0
  6 35  1  0  0  0
  6 36  1  0  0  0
  8 37  1  0  0  0
  8 38  1  0  0  0
  9 39  1  0  0  0
  9 40  1  0  0  0
 10 41  1  0  0  0
 10 42  1  0  0  0
 11 43  1  0  0  0
 12 44  1  0  0  0
 13 45  1  0  0  0
 14 46  1  0  0  0
 15 47  1  0  0  0
 17 48  1  0  0  0
 19 49  1  0  0  0
 21 50  1  0  0  0
 31 51  1  0  0  0
 31 52  1  0  0  0
 31 53  1  0  0  0
 32 54  1  0  0  0
 33 55  1  0  0  0
M  END
$$$$
