2gg9_ligand
  -I-interpret- 

 66 66  0  0  0  0  0  0  0  0999 V2000
   -0.0060    0.0110    6.9890 O   0  0  0  0  0
   -0.4730   -0.5270    7.9850 C   0  0  0  0  0
   -0.1860    0.0890    9.3230 C   0  0  0  0  0
   -1.0730    1.3530    9.4450 C   0  0  0  0  0
   -2.5090    0.9430    9.5660 C   0  0  0  0  0
   -2.9930    0.4230   10.7620 C   0  0  0  0  0
   -4.3170    0.0270   10.8610 C   0  0  0  0  0
   -5.1570    0.1200    9.7620 C   0  0  0  0  0
   -6.5700   -0.2780    9.8410 C   0  0  0  0  0
   -7.4110    0.9820    9.8930 C   0  0  0  0  0
   -6.8710   -1.0930   11.0650 C   0  0  0  0  0
   -4.7070    0.6200    8.5550 C   0  0  0  0  0
   -3.3750    1.0120    8.4560 C   0  0  0  0  0
   -0.5350    2.2320   10.5000 N   0  3  0  0  0
    1.2180    0.4400    9.3290 O   0  0  0  0  0
   -1.2480   -1.6000    7.9580 N   0  0  0  0  0
   -1.6310   -2.2510    6.7100 C   0  0  0  0  0
   -0.5400   -3.2000    6.2370 C   0  0  0  0  0
   -2.8930   -3.0310    6.8870 C   0  0  0  0  0
   -3.1450   -3.6000    7.9260 O   0  0  0  0  0
   -3.7050   -3.0980    5.8420 N   0  0  0  0  0
   -4.9110   -3.8740    5.8500 C   0  0  0  0  0
   -6.0690   -3.4850    6.7520 C   0  0  0  0  0
   -6.9650   -2.3860    6.1820 C   0  0  0  0  0
   -8.4440   -2.7550    6.2780 C   0  0  0  0  0
   -6.6260   -1.9710    4.7520 C   0  0  0  0  0
   -4.6380   -5.2650    5.3830 C   0  0  0  0  0
   -3.5320   -5.5510    4.9300 O   0  0  0  0  0
   -5.6630   -6.2860    5.4620 O   0  0  0  0  0
   -5.6450   -7.3930    4.5610 C   0  0  0  0  0
   -0.3988   -0.5795   10.1572 H   0  0  0  0  0
   -1.0467    1.9708    8.5473 H   0  0  0  0  0
   -2.3301    0.3270   11.6219 H   0  0  0  0  0
   -4.6994   -0.3589   11.8060 H   0  0  0  0  0
   -6.7956   -0.8909    8.9683 H   0  0  0  0  0
   -7.1347    1.5658   10.7710 H   0  0  0  0  0
   -7.2357    1.5717    8.9932 H   0  0  0  0  0
   -8.4652    0.7115    9.9520 H   0  0  0  0  0
   -6.2667   -2.0001   11.0536 H   0  0  0  0  0
   -6.6361   -0.5096   11.9552 H   0  0  0  0  0
   -7.9280   -1.3591   11.0719 H   0  0  0  0  0
   -5.3789    0.7054    7.7010 H   0  0  0  0  0
   -2.9947    1.3790    7.5027 H   0  0  0  0  0
    0.4448    2.4366   10.3035 H   0  0  0  0  0
   -1.0677    3.1016   10.5207 H   0  0  0  0  0
   -0.6113    1.7635   11.4028 H   0  0  0  0  0
    1.7465   -0.3578    9.2525 H   0  0  0  0  0
   -1.5887   -1.9843    8.8393 H   0  0  0  0  0
   -1.7822   -1.4676    5.9674 H   0  0  0  0  0
    0.3808   -2.6402    6.0732 H   0  0  0  0  0
   -0.3717   -3.9649    6.9951 H   0  0  0  0  0
   -0.8502   -3.6725    5.3050 H   0  0  0  0  0
   -3.4628   -2.5773    4.9990 H   0  0  0  0  0
   -5.6178   -3.5095    5.1046 H   0  0  0  0  0
   -5.6407   -3.1026    7.6785 H   0  0  0  0  0
   -6.6895   -4.3720    6.8795 H   0  0  0  0  0
   -6.7637   -1.5194    6.8117 H   0  0  0  0  0
   -8.6256   -3.6716    5.7167 H   0  0  0  0  0
   -8.7117   -2.9085    7.3234 H   0  0  0  0  0
   -9.0464   -1.9474    5.8621 H   0  0  0  0  0
   -5.6028   -1.5970    4.7165 H   0  0  0  0  0
   -6.7221   -2.8334    4.0923 H   0  0  0  0  0
   -7.3120   -1.1874    4.4301 H   0  0  0  0  0
   -5.7177   -7.0274    3.5367 H   0  0  0  0  0
   -4.7140   -7.9461    4.6855 H   0  0  0  0  0
   -6.4896   -8.0479    4.7752 H   0  0  0  0  0
  1  2  2  0  0  0
  2  3  1  0  0  0
  2 16  1  0  0  0
  3  4  1  0  0  0
  3 15  1  0  0  0
  4  5  1  0  0  0
  4 14  1  0  0  0
  5  6  4  0  0  0
  5 13  4  0  0  0
  6  7  4  0  0  0
  7  8  4  0  0  0
  8  9  1  0  0  0
  8 12  4  0  0  0
  9 10  1  0  0  0
  9 11  1  0  0  0
 12 13  4  0  0  0
 16 17  1  0  0  0
 17 18  1  0  0  0
 17 19  1  0  0  0
 19 20  2  0  0  0
 19 21  1  0  0  0
 21 22  1  0  0  0
 22 23  1  0  0  0
 22 27  1  0  0  0
 23 24  1  0  0  0
 24 25  1  0  0  0
 24 26  1  0  0  0
 27 28  2  0  0  0
 27 29  1  0  0  0
 29 30  1  0  0  0
  3 31  1  0  0  0
  4 32  1  0  0  0
  6 33  1  0  0  0
  7 34  1  0  0  0
  9 35  1  0  0  0
 10 36  1  0  0  0
 10 37  1  0  0  0
 10 38  1  0  0  0
 11 39  1  0  0  0
 11 40  1  0  0  0
 11 41  1  0  0  0
 12 42  1  0  0  0
 13 43  1  0  0  0
 14 44  1  0  0  0
 14 45  1  0  0  0
 14 46  1  0  0  0
 15 47  1  0  0  0
 16 48  1  0  0  0
 17 49  1  0  0  0
 18 50  1  0  0  0
 18 51  1  0  0  0
 18 52  1  0  0  0
 21 53  1  0  0  0
 22 54  1  0  0  0
 23 55  1  0  0  0
 23 56  1  0  0  0
 24 57  1  0  0  0
 25 58  1  0  0  0
 25 59  1  0  0  0
 25 60  1  0  0  0
 26 61  1  0  0  0
 26 62  1  0  0  0
 26 63  1  0  0  0
 30 64  1  0  0  0
 30 65  1  0  0  0
 30 66  1  0  0  0
M  END
$$$$
