4ie3_ligand

Created by X-TOOL on Fri Nov 18 17:21:37 2016
 54 54  0  0  0  0  0  0  0  0999 V2000
   35.0640   88.9480   72.0690  O 0  0  0  1  0  1
   34.0030   88.6990   71.4440  C 0  5  0  1  0  3
   33.1580   89.5830   71.1310  O 0  0  0  1  0  1
   33.7260   87.2660   71.0510  C 0  0  0  1  0  4
   32.2870   87.1380   70.7650  N 0  3  0  4  0  4
   34.4860   86.8730   69.7850  C 0  0  0  3  0  4
   35.9660   86.5570   69.9690  C 0  0  0  3  0  4
   36.5890   86.0880   68.6420  C 0  0  0  3  0  4
   36.9210   87.2520   67.7050  C 0  0  0  4  0  5
   37.2650   86.7360   66.2380  B 0  0  0  1  0  4
   37.9230   87.6890   65.2630  O 0  0  0  3  0  3
   36.2690   85.8020   65.5980  O 0  0  0  3  0  3
   38.4400   85.7840   66.5260  O 0  0  0  2  0  2
   34.0990   86.3800   72.2360  C 0  0  0  3  0  4
   33.1420   86.6740   73.3840  C 0  0  0  3  0  4
   33.3170   85.7530   74.5140  N 0  3  0  2  0  4
   32.1910   85.9190   75.4550  C 0  0  0  3  0  4
   32.2960   84.8890   76.5810  C 0  0  0  3  0  4
   33.5980   85.1090   77.3370  C 0  0  0  2  0  4
   33.7580   84.0830   78.3230  O 0  0  0  2  0  2
   34.7790   85.0830   76.3630  C 0  0  0  3  0  4
   34.5880   86.0590   75.2020  C 0  0  0  3  0  4
   32.0803   86.1876   70.5003  H 0  0  0  1  0  1
   32.0378   87.7586   70.0108  H 0  0  0  1  0  1
   31.7580   87.3801   71.5881  H 0  0  0  1  0  1
   34.4053   87.7059   69.0710  H 0  0  0  1  0  1
   34.0005   85.9804   69.3636  H 0  0  0  1  0  1
   36.0750   85.7613   70.7206  H 0  0  0  1  0  1
   36.4886   87.4614   70.3139  H 0  0  0  1  0  1
   35.8774   85.4196   68.1353  H 0  0  0  1  0  1
   37.5156   85.5378   68.8626  H 0  0  0  1  0  1
   38.0110   87.3160   67.5718  H 0  0  0  1  0  1
   36.5491   88.1910   68.1408  H 0  0  0  1  0  1
   36.4414   87.0854   66.7292  H 0  0  0  1  0  1
   37.2577   88.2260   64.8490  H 0  0  0  1  0  1
   37.2577   88.2260   64.8490  H 0  0  0  1  0  1
   35.5780   86.3096   65.1892  H 0  0  0  1  0  1
   35.5779   86.3096   65.1891  H 0  0  0  1  0  1
   39.0678   85.1772   66.0385  H 0  0  0  1  0  1
   35.1310   86.5959   72.5496  H 0  0  0  1  0  1
   34.0172   85.3217   71.9475  H 0  0  0  1  0  1
   32.1099   86.5856   73.0139  H 0  0  0  1  0  1
   33.3187   87.7011   73.7359  H 0  0  0  1  0  1
   33.3370   84.8035   74.1764  H 0  0  0  1  0  1
   31.2422   85.7756   74.9172  H 0  0  0  1  0  1
   32.2202   86.9317   75.8835  H 0  0  0  1  0  1
   32.2843   83.8749   76.1549  H 0  0  0  1  0  1
   31.4460   85.0075   77.2691  H 0  0  0  1  0  1
   33.5647   86.0885   77.8364  H 0  0  0  1  0  1
   34.5713   84.2220   78.7939  H 0  0  0  1  0  1
   34.8823   84.0656   75.9578  H 0  0  0  1  0  1
   35.6947   85.3553   76.9083  H 0  0  0  1  0  1
   34.5588   87.0886   75.5880  H 0  0  0  1  0  1
   35.4236   85.9564   74.4940  H 0  0  0  1  0  1
  1  2  2  0  0  2
  2  3  2  0  0  2
  2  4  1  0  0  2
  4  5  1  0  0  2
  4  6  1  0  0  2
  4 14  1  0  0  2
  6  7  1  0  0  2
  7  8  1  0  0  2
  8  9  1  0  0  2
  9 10  1  0  0  2
 10 11  1  0  0  2
 10 12  1  0  0  2
 14 15  1  0  0  2
 15 16  1  0  0  2
 16 17  1  0  0  1
 16 22  1  0  0  1
 17 18  1  0  0  1
 18 19  1  0  0  1
 19 20  1  0  0  2
 19 21  1  0  0  1
 21 22  1  0  0  1
 13 10  2  0  0  2
  5 23  1  0  0  2
  5 24  1  0  0  2
  5 25  1  0  0  2
  6 26  1  0  0  2
  6 27  1  0  0  2
  7 28  1  0  0  2
  7 29  1  0  0  2
  8 30  1  0  0  2
  8 31  1  0  0  2
  9 32  1  0  0  2
  9 33  1  0  0  2
  9 34  1  0  0  2
 11 35  1  0  0  2
 11 36  1  0  0  2
 12 37  1  0  0  2
 12 38  1  0  0  2
 13 39  1  0  0  2
 14 40  1  0  0  2
 14 41  1  0  0  2
 15 42  1  0  0  2
 15 43  1  0  0  2
 16 44  1  0  0  2
 17 45  1  0  0  2
 17 46  1  0  0  2
 18 47  1  0  0  2
 18 48  1  0  0  2
 19 49  1  0  0  2
 20 50  1  0  0  2
 21 51  1  0  0  2
 21 52  1  0  0  2
 22 53  1  0  0  2
 22 54  1  0  0  2
M  END
> <MOLECULAR_FORMULA>
C13H32N2O6B

> <MOLECULAR_WEIGHT>
323.0

> <NUM_HB_ATOMS>
7  

> <NUM_ROTOR>
8  

> <XLOGP2>
-3.36

$$$$
