#	Name:			4ie3_ligand
#	Creating user name:	wangrx
#	Creation time:		Wed Aug  4 17:18:06 2021

#	Modifying user name:	wangrx
#	Modification time:	Wed Aug  4 17:18:31 2021

@<TRIPOS>MOLECULE
4ie3_ligand
   53    53     1     0     0
SMALL
GAST_HUCK


@<TRIPOS>ATOM
      1 O3         35.0640   88.9480   72.0690 O.co2     1 1EE        -0.5422 
      2 C1         34.0030   88.6990   71.4440 C.2       1 1EE         0.0962 
      3 O2         33.1580   89.5830   71.1310 O.co2     1 1EE        -0.5422 
      4 C4         33.7260   87.2660   71.0510 C.3       1 1EE         0.0372 
      5 N5         32.2870   87.1380   70.7650 N.4       1 1EE         0.2231 
      6 C6         34.4860   86.8730   69.7850 C.3       1 1EE        -0.0038 
      7 C7         35.9660   86.5570   69.9690 C.3       1 1EE        -0.0754 
      8 C8         36.5890   86.0880   68.6420 C.3       1 1EE        -0.1826 
      9 C9         36.9210   87.2520   67.7050 C.3       1 1EE        -0.3457 
     10 B10        37.2650   86.7360   66.2380 B         1 1EE         3.0000 
     11 O22        37.9230   87.6890   65.2630 O.3       1 1EE        -0.4105 
     12 O12        36.2690   85.8020   65.5980 O.3       1 1EE        -0.4105 
     13 O11        38.4400   85.7840   66.5260 O.3       1 1EE        -0.8710 
     14 C13        34.0990   86.3800   72.2360 C.3       1 1EE         0.0384 
     15 C14        33.1420   86.6740   73.3840 C.3       1 1EE        -0.0269 
     16 N15        33.3170   85.7530   74.5140 N.4       1 1EE         0.2355 
     17 C20        32.1910   85.9190   75.4550 C.3       1 1EE        -0.0295 
     18 C19        32.2960   84.8890   76.5810 C.3       1 1EE         0.0137 
     19 C18        33.5980   85.1090   77.3370 C.3       1 1EE         0.0649 
     20 O21        33.7580   84.0830   78.3230 O.3       1 1EE        -0.3914 
     21 C17        34.7790   85.0830   76.3630 C.3       1 1EE         0.0137 
     22 C16        34.5880   86.0590   75.2020 C.3       1 1EE        -0.0295 
     23 H1         32.0803   86.1876   70.5003 H         1 1EE         0.1999 
     24 H2         32.0378   87.7586   70.0108 H         1 1EE         0.1999 
     25 H3         31.7580   87.3801   71.5881 H         1 1EE         0.1999 
     26 H4         34.4053   87.7059   69.0710 H         1 1EE         0.0315 
     27 H5         34.0005   85.9804   69.3636 H         1 1EE         0.0315 
     28 H6         36.0750   85.7613   70.7206 H         1 1EE         0.0242 
     29 H7         36.4886   87.4614   70.3139 H         1 1EE         0.0242 
     30 H8         35.8774   85.4196   68.1353 H         1 1EE        -0.0084 
     31 H9         37.5156   85.5378   68.8626 H         1 1EE        -0.0084 
     32 H10        38.0110   87.3160   67.5718 H         1 1EE        -0.2101 
     33 H11        36.5491   88.1910   68.1408 H         1 1EE        -0.2101 
     34 H13        37.2577   88.2260   64.8490 H         1 1EE         0.2052 
     35 H14        37.2577   88.2260   64.8490 H         1 1EE         0.2052 
     36 H15        35.5780   86.3096   65.1892 H         1 1EE         0.2052 
     37 H16        35.5779   86.3096   65.1891 H         1 1EE         0.2052 
     38 H17        39.0678   85.1772   66.0385 H         1 1EE        -0.1290 
     39 H18        35.1310   86.5959   72.5496 H         1 1EE         0.0368 
     40 H19        34.0172   85.3217   71.9475 H         1 1EE         0.0368 
     41 H20        32.1099   86.5856   73.0139 H         1 1EE         0.0815 
     42 H21        33.3187   87.7011   73.7359 H         1 1EE         0.0815 
     43 H22        33.3370   84.8035   74.1764 H         1 1EE         0.2033 
     44 H23        31.2422   85.7756   74.9172 H         1 1EE         0.0815 
     45 H24        32.2202   86.9317   75.8835 H         1 1EE         0.0815 
     46 H25        32.2843   83.8749   76.1549 H         1 1EE         0.0342 
     47 H26        31.4460   85.0075   77.2691 H         1 1EE         0.0342 
     48 H27        33.5647   86.0885   77.8364 H         1 1EE         0.0597 
     49 H28        34.5713   84.2220   78.7939 H         1 1EE         0.2098 
     50 H29        34.8823   84.0656   75.9578 H         1 1EE         0.0342 
     51 H30        35.6947   85.3553   76.9083 H         1 1EE         0.0342 
     52 H31        34.5588   87.0886   75.5880 H         1 1EE         0.0815 
     53 H32        35.4236   85.9564   74.4940 H         1 1EE         0.0815 
@<TRIPOS>BOND
     1    1    2 ar   
     2    2    3 ar   
     3    2    4 1    
     4    4    5 1    
     5    4    6 1    
     6    4   14 1    
     7    6    7 1    
     8    7    8 1    
     9    8    9 1    
    10    9   10 1    
    11   10   11 1    
    12   10   12 1    
    13   14   15 1    
    14   15   16 1    
    15   16   17 1    
    16   16   22 1    
    17   17   18 1    
    18   18   19 1    
    19   19   20 1    
    20   19   21 1    
    21   21   22 1    
    22   10   13 1    
    23    5   23 1    
    24    5   24 1    
    25    5   25 1    
    26    6   26 1    
    27    6   27 1    
    28    7   28 1    
    29    7   29 1    
    30    8   30 1    
    31    8   31 1    
    32    9   32 1    
    33    9   33 1    
    34   11   34 1    
    35   11   35 1    
    36   12   36 1    
    37   12   37 1    
    38   13   38 1    
    39   14   39 1    
    40   14   40 1    
    41   15   41 1    
    42   15   42 1    
    43   16   43 1    
    44   17   44 1    
    45   17   45 1    
    46   18   46 1    
    47   18   47 1    
    48   19   48 1    
    49   20   49 1    
    50   21   50 1    
    51   21   51 1    
    52   22   52 1    
    53   22   53 1    
@<TRIPOS>SUBSTRUCTURE
     1 1EE         1 PERM              0 ****  ****    0 ROOT 
