5c4l_ligand
  -I-interpret- 

 73 75  0  0  0  0  0  0  0  0999 V2000
    0.8600   -9.3870  108.6760 C   0  0  0  0  0
    0.9570   -5.7320  112.6710 C   0  0  0  0  0
   -2.4470   -4.9610  112.0500 C   0  0  0  0  0
    1.2380  -10.8580  108.3140 C   0  0  0  0  0
    2.2040   -5.8360  111.8250 C   0  0  0  0  0
   -3.1100   -4.2060  113.2130 C   0  0  0  0  0
    1.3860  -11.0960  106.8250 C   0  0  0  0  0
    2.3510   -7.3020  111.3140 C   0  0  0  0  0
   -3.8700   -5.1510  114.1850 C   0  0  0  0  0
    1.0560   -9.9830  106.0240 C   0  0  0  0  0
    1.1530   -7.6850  110.3980 C   0  0  0  0  0
   -4.7640   -6.2070  113.3890 C   0  0  0  0  0
    1.1540   -8.6970  106.5570 C   0  0  0  0  0
   -0.2090   -7.4160  111.1400 C   0  0  0  0  0
   -3.9460   -6.8460  112.2400 C   0  0  0  0  0
    0.9670   -7.5650  105.8070 C   0  0  0  0  0
   -0.2650   -5.9720  111.7700 C   0  0  0  0  0
   -5.1950   -7.3570  114.3260 C   0  0  0  0  0
   -4.4620   -4.8490  116.5340 C   0  0  0  0  0
    0.8730   -4.4600  113.4220 N   0  3  0  0  0
    2.4670  -11.3260  109.0300 N   0  3  0  0  0
    3.6410   -7.5110  110.6130 N   0  3  0  0  0
   -4.6700   -4.3700  115.1660 N   0  3  0  0  0
    2.3550   -7.0610  105.5700 N   0  3  0  0  0
    1.2480   -9.0770  110.0180 O   0  0  0  0  0
   -2.0830   -3.5330  113.9500 O   0  0  0  0  0
   -5.9760   -5.5890  112.7940 O   0  0  0  0  0
    1.5500   -8.4950  107.8590 O   0  0  0  0  0
   -1.3810   -8.1680  110.4600 O   0  0  0  0  0
   -3.3560   -5.8460  111.3970 O   0  0  0  0  0
   -1.4310   -5.8300  112.5630 O   0  0  0  0  0
   -0.2187   -9.2961  108.5484 H   0  0  0  0  0
    0.9887   -6.5000  113.4438 H   0  0  0  0  0
   -2.0744   -4.1971  111.3676 H   0  0  0  0  0
    0.3896  -11.4507  108.6561 H   0  0  0  0  0
    3.0757   -5.5656  112.4209 H   0  0  0  0  0
    2.1294   -5.1568  110.9758 H   0  0  0  0  0
   -3.8369   -3.5123  112.7905 H   0  0  0  0  0
    1.7192  -12.0465  106.4083 H   0  0  0  0  0
    2.3443   -7.9580  112.1845 H   0  0  0  0  0
   -3.1321   -5.7225  114.7480 H   0  0  0  0  0
    0.7264  -10.1264  104.9950 H   0  0  0  0  0
    1.1864   -7.0697  109.4989 H   0  0  0  0  0
    0.2463   -9.2688  106.3639 H   0  0  0  0  0
   -0.3476   -7.9064  112.1035 H   0  0  0  0  0
   -4.6172   -7.4558  111.6353 H   0  0  0  0  0
   -3.1471   -7.4457  112.6763 H   0  0  0  0  0
    0.3396   -6.8310  106.3127 H   0  0  0  0  0
    0.4341   -7.7662  104.8777 H   0  0  0  0  0
   -0.2735   -5.2500  110.9534 H   0  0  0  0  0
   -4.3089   -7.8598  114.7134 H   0  0  0  0  0
   -5.7753   -6.9508  115.1545 H   0  0  0  0  0
   -5.8039   -8.0690  113.7689 H   0  0  0  0  0
   -4.7607   -5.8952  116.6006 H   0  0  0  0  0
   -3.4080   -4.7534  116.7948 H   0  0  0  0  0
   -5.0631   -4.2537  117.2214 H   0  0  0  0  0
    1.7060   -4.3526  114.0007 H   0  0  0  0  0
    0.8113   -3.6821  112.7651 H   0  0  0  0  0
    0.0440   -4.4714  114.0161 H   0  0  0  0  0
    2.3590  -11.1622  110.0310 H   0  0  0  0  0
    2.5994  -12.3229  108.8597 H   0  0  0  0  0
    3.2769  -10.8105  108.6853 H   0  0  0  0  0
    4.4090   -7.2535  111.2328 H   0  0  0  0  0
    3.7288   -8.4928  110.3506 H   0  0  0  0  0
    3.6693   -6.9300  109.7751 H   0  0  0  0  0
   -5.6576   -4.4763  114.9339 H   0  0  0  0  0
   -4.3760   -3.3945  115.1179 H   0  0  0  0  0
    2.3151   -6.2083  105.0117 H   0  0  0  0  0
    2.8007   -6.8619  106.4656 H   0  0  0  0  0
    2.8925   -7.7703  105.0716 H   0  0  0  0  0
   -1.6030   -2.9441  113.3631 H   0  0  0  0  0
   -6.4798   -6.2600  112.3275 H   0  0  0  0  0
   -2.1954   -7.9845  110.9340 H   0  0  0  0  0
  1  4  1  0  0  0
 25  1  1  0  0  0
  1 28  1  0  0  0
  2  5  1  0  0  0
 17  2  1  0  0  0
  2 20  1  0  0  0
  3  6  1  0  0  0
  3 30  1  0  0  0
 31  3  1  0  0  0
  4  7  1  0  0  0
  4 21  1  0  0  0
  5  8  1  0  0  0
  6  9  1  0  0  0
  6 26  1  0  0  0
  7 10  2  0  0  0
 11  8  1  0  0  0
  8 22  1  0  0  0
  9 12  1  0  0  0
  9 23  1  0  0  0
 13 10  1  0  0  0
 14 11  1  0  0  0
 11 25  1  0  0  0
 15 12  1  0  0  0
 12 18  1  0  0  0
 12 27  1  0  0  0
 13 16  1  0  0  0
 28 13  1  0  0  0
 17 14  1  0  0  0
 14 29  1  0  0  0
 30 15  1  0  0  0
 16 24  1  0  0  0
 17 31  1  0  0  0
 23 19  1  0  0  0
  1 32  1  0  0  0
  2 33  1  0  0  0
  3 34  1  0  0  0
  4 35  1  0  0  0
  5 36  1  0  0  0
  5 37  1  0  0  0
  6 38  1  0  0  0
  7 39  1  0  0  0
  8 40  1  0  0  0
  9 41  1  0  0  0
 10 42  1  0  0  0
 11 43  1  0  0  0
 13 44  1  0  0  0
 14 45  1  0  0  0
 15 46  1  0  0  0
 15 47  1  0  0  0
 16 48  1  0  0  0
 16 49  1  0  0  0
 17 50  1  0  0  0
 18 51  1  0  0  0
 18 52  1  0  0  0
 18 53  1  0  0  0
 19 54  1  0  0  0
 19 55  1  0  0  0
 19 56  1  0  0  0
 20 57  1  0  0  0
 20 58  1  0  0  0
 20 59  1  0  0  0
 21 60  1  0  0  0
 21 61  1  0  0  0
 21 62  1  0  0  0
 22 63  1  0  0  0
 22 64  1  0  0  0
 22 65  1  0  0  0
 23 66  1  0  0  0
 23 67  1  0  0  0
 24 68  1  0  0  0
 24 69  1  0  0  0
 24 70  1  0  0  0
 26 71  1  0  0  0
 27 72  1  0  0  0
 29 73  1  0  0  0
M  END
$$$$
