3mf5_ligand
  -I-interpret- 

 51 54  0  0  0  0  0  0  0  0999 V2000
   77.4740   31.8080   -8.2860 S   0  0  0  0  0
   75.9660   32.0190   -9.0730 C   0  0  0  0  0
   76.1540   32.6770  -10.2470 C   0  0  0  0  0
   77.4250   32.9780  -10.4910 C   0  0  0  0  0
   78.3290   32.6010   -9.5580 C   0  0  0  0  0
   74.8030   31.5710   -8.3730 C   0  0  0  0  0
   79.7530   32.7670   -9.4860 C   0  0  0  0  0
   77.7580   33.6670  -11.7390 C   0  0  0  0  0
   80.3440   32.2960   -8.4880 O   0  0  0  0  0
   80.5080   33.3050  -10.2320 O   0  0  0  0  0
   77.7570   35.0380  -11.9170 C   0  0  0  0  0
   78.4340   34.7500  -14.3400 C   0  0  0  0  0
   78.4260   33.3160  -14.1450 C   0  0  0  0  0
   78.0830   35.6180  -13.2300 C   0  0  0  0  0
   78.0900   32.7610  -12.8580 C   0  0  0  0  0
   73.6180   32.3910   -8.5960 C   0  0  0  0  0
   72.4180   30.8830   -6.9710 C   0  0  0  0  0
   73.5770   30.0840   -6.7220 C   0  0  0  0  0
   72.4360   32.0250   -7.8850 C   0  0  0  0  0
   74.7710   30.4180   -7.4260 C   0  0  0  0  0
   77.3840   35.9280  -10.7470 C   0  0  0  0  0
   78.3000   37.1080  -10.4950 C   0  0  0  0  0
   77.6860   37.9500   -9.3230 C   0  0  0  0  0
   76.2550   38.4040   -9.6340 C   0  0  0  0  0
   75.2460   37.2660  -10.0810 C   0  0  0  0  0
   75.8870   36.3030  -11.1350 C   0  0  0  0  0
   75.6650   39.3010   -8.5220 C   0  0  0  0  0
   75.3394   32.9336  -10.9243 H   0  0  0  0  0
   79.7056   31.8711   -7.9105 H   0  0  0  0  0
   78.7003   35.1734  -15.3084 H   0  0  0  0  0
   78.6749   32.6536  -14.9741 H   0  0  0  0  0
   78.0609   36.6989  -13.3691 H   0  0  0  0  0
   78.0809   31.6810  -12.7113 H   0  0  0  0  0
   73.6343   33.2440   -9.2744 H   0  0  0  0  0
   71.4876   30.6323   -6.4616 H   0  0  0  0  0
   73.5489   29.2505   -6.0201 H   0  0  0  0  0
   71.5267   32.6092   -8.0261 H   0  0  0  0  0
   75.6716   29.8239   -7.2706 H   0  0  0  0  0
   77.4869   35.4397   -9.7779 H   0  0  0  0  0
   78.3871   37.7181  -11.3940 H   0  0  0  0  0
   79.2988   36.7617  -10.2292 H   0  0  0  0  0
   78.3027   38.8373   -9.1800 H   0  0  0  0  0
   77.6600   37.3251   -8.4303 H   0  0  0  0  0
   76.3739   39.0116  -10.5311 H   0  0  0  0  0
   74.3747   37.7389  -10.5340 H   0  0  0  0  0
   74.9771   36.6813   -9.2013 H   0  0  0  0  0
   75.2986   35.3860  -11.1680 H   0  0  0  0  0
   75.8964   36.8061  -12.1019 H   0  0  0  0  0
   75.6462   38.7482   -7.5828 H   0  0  0  0  0
   76.2835   40.1913   -8.4087 H   0  0  0  0  0
   74.6507   39.5938   -8.7931 H   0  0  0  0  0
  2  1  4  0  0  0
  1  5  4  0  0  0
  2  3  4  0  0  0
  6  2  1  0  0  0
  3  4  4  0  0  0
  4  5  4  0  0  0
  4  8  1  0  0  0
  5  7  1  0  0  0
 16  6  4  0  0  0
  6 20  4  0  0  0
  7  9  1  0  0  0
  7 10  2  0  0  0
  8 11  4  0  0  0
  8 15  4  0  0  0
 11 14  4  0  0  0
 11 21  1  0  0  0
 13 12  4  0  0  0
 14 12  4  0  0  0
 15 13  4  0  0  0
 19 16  4  0  0  0
 17 18  4  0  0  0
 17 19  4  0  0  0
 18 20  4  0  0  0
 21 22  1  0  0  0
 21 26  1  0  0  0
 22 23  1  0  0  0
 23 24  1  0  0  0
 24 25  1  0  0  0
 24 27  1  0  0  0
 25 26  1  0  0  0
  3 28  1  0  0  0
  9 29  1  0  0  0
 12 30  1  0  0  0
 13 31  1  0  0  0
 14 32  1  0  0  0
 15 33  1  0  0  0
 16 34  1  0  0  0
 17 35  1  0  0  0
 18 36  1  0  0  0
 19 37  1  0  0  0
 20 38  1  0  0  0
 21 39  1  0  0  0
 22 40  1  0  0  0
 22 41  1  0  0  0
 23 42  1  0  0  0
 23 43  1  0  0  0
 24 44  1  0  0  0
 25 45  1  0  0  0
 25 46  1  0  0  0
 26 47  1  0  0  0
 26 48  1  0  0  0
 27 49  1  0  0  0
 27 50  1  0  0  0
 27 51  1  0  0  0
M  END
$$$$
