5hna_ligand
  -I-interpret- 

 66 67  0  0  0  0  0  0  0  0999 V2000
  -33.1110   -5.6030   19.7940 O   0  0  0  0  0
  -33.9260   -6.4620   20.2160 C   0  0  0  0  0
  -35.1390   -6.4080   19.8690 O   0  0  0  0  0
  -33.5960   -7.0810   21.3920 C   0  0  0  0  0
  -32.8660   -6.1190   22.0150 C   0  0  0  0  0
  -32.3900   -6.1550   23.2550 C   0  0  0  0  0
  -31.4310   -4.6740   23.4030 S   0  0  0  0  0
  -32.3200   -3.5110   22.9690 O   0  0  0  0  0
  -30.8060   -4.4120   24.7890 O   0  0  0  0  0
  -30.2740   -4.7420   22.3640 N   0  0  0  0  0
  -32.7080   -7.2760   24.0090 C   0  0  0  0  0
  -32.1230   -7.4100   25.5610 Cl  0  0  0  0  0
  -33.5290   -8.2750   23.4270 C   0  0  0  0  0
  -34.0880   -8.1520   22.1290 C   0  0  0  0  0
  -34.8190   -9.1740   21.4880 O   0  0  0  0  0
  -35.0920   -9.1770   20.0160 C   0  0  0  0  0
  -35.4920  -10.3790   19.4230 C   0  0  0  0  0
  -35.0740  -10.7840   18.1350 C   0  0  0  0  0
  -36.3660  -11.1650   20.1640 C   0  0  0  0  0
  -36.8180  -12.3810   19.6800 C   0  0  0  0  0
  -37.6730  -13.1480   20.4250 O   0  0  0  0  0
  -36.3740  -12.7920   18.4280 C   0  0  0  0  0
  -35.4570  -12.0540   17.6840 C   0  0  0  0  0
  -35.2190  -12.5930   16.4630 O   0  0  0  0  0
  -34.5510  -11.9210   15.4150 C   0  0  0  0  0
  -35.1500  -12.6340   14.2000 C   0  0  0  0  0
  -34.6890  -12.1240   12.8540 C   0  0  0  0  0
  -35.3790  -13.0260   11.8320 C   0  0  0  0  0
  -35.0600  -12.6240   10.3990 C   0  0  0  0  0
  -33.5620  -12.6840   10.2870 C   0  0  0  0  0
  -33.1390  -12.3430    8.8870 C   0  0  0  0  0
  -31.6080  -12.3720    8.9110 C   0  0  0  0  0
  -31.1030  -11.2830    9.8510 C   0  0  0  0  0
  -29.5690  -11.2870    9.8510 C   0  0  0  0  0
  -35.6199   -7.1319   20.2768 H   0  0  0  0  0
  -32.6476   -5.2220   21.4356 H   0  0  0  0  0
  -30.2413   -4.0753   21.5928 H   0  0  0  0  0
  -29.5485   -5.4533   22.4544 H   0  0  0  0  0
  -33.7397   -9.1767   24.0020 H   0  0  0  0  0
  -34.1413   -8.9257   19.5458 H   0  0  0  0  0
  -35.9298   -8.4938   19.8766 H   0  0  0  0  0
  -34.4702  -10.1263   17.5097 H   0  0  0  0  0
  -36.7011  -10.8189   21.1418 H   0  0  0  0  0
  -37.8833  -13.9511   19.9428 H   0  0  0  0  0
  -36.7573  -13.7248   18.0144 H   0  0  0  0  0
  -33.4639  -11.9751   15.4724 H   0  0  0  0  0
  -34.6963  -10.8407   15.4142 H   0  0  0  0  0
  -36.2265  -12.4687   14.2426 H   0  0  0  0  0
  -34.8324  -13.6748   14.2630 H   0  0  0  0  0
  -33.6039  -12.1611   12.7580 H   0  0  0  0  0
  -34.9494  -11.0756   12.7084 H   0  0  0  0  0
  -36.4559  -12.9386   11.9762 H   0  0  0  0  0
  -35.0228  -14.0448   11.9849 H   0  0  0  0  0
  -35.4372  -11.6271   10.1712 H   0  0  0  0  0
  -35.5404  -13.2896    9.6818 H   0  0  0  0  0
  -33.2239  -13.6916   10.5290 H   0  0  0  0  0
  -33.1211  -11.9674   10.9800 H   0  0  0  0  0
  -33.5177  -11.3684    8.5789 H   0  0  0  0  0
  -33.5430  -13.0494    8.1618 H   0  0  0  0  0
  -31.2222  -12.1973    7.9066 H   0  0  0  0  0
  -31.2652  -13.3459    9.2604 H   0  0  0  0  0
  -31.4690  -11.4726   10.8601 H   0  0  0  0  0
  -31.4660  -10.3120    9.5140 H   0  0  0  0  0
  -29.2095  -12.2587   10.1897 H   0  0  0  0  0
  -29.2064  -11.0959    8.8410 H   0  0  0  0  0
  -29.2049  -10.5093   10.5223 H   0  0  0  0  0
  1  2  2  0  0  0
  2  3  1  0  0  0
  2  4  1  0  0  0
  4  5  4  0  0  0
  4 14  4  0  0  0
  5  6  4  0  0  0
  6  7  1  0  0  0
  6 11  4  0  0  0
  7  8  2  0  0  0
  7  9  2  0  0  0
  7 10  1  0  0  0
 11 12  1  0  0  0
 11 13  4  0  0  0
 13 14  4  0  0  0
 14 15  1  0  0  0
 15 16  1  0  0  0
 16 17  1  0  0  0
 17 18  4  0  0  0
 17 19  4  0  0  0
 18 23  4  0  0  0
 19 20  4  0  0  0
 20 21  1  0  0  0
 20 22  4  0  0  0
 22 23  4  0  0  0
 23 24  1  0  0  0
 24 25  1  0  0  0
 25 26  1  0  0  0
 26 27  1  0  0  0
 27 28  1  0  0  0
 28 29  1  0  0  0
 29 30  1  0  0  0
 30 31  1  0  0  0
 31 32  1  0  0  0
 32 33  1  0  0  0
 33 34  1  0  0  0
  3 35  1  0  0  0
  5 36  1  0  0  0
 10 37  1  0  0  0
 10 38  1  0  0  0
 13 39  1  0  0  0
 16 40  1  0  0  0
 16 41  1  0  0  0
 18 42  1  0  0  0
 19 43  1  0  0  0
 21 44  1  0  0  0
 22 45  1  0  0  0
 25 46  1  0  0  0
 25 47  1  0  0  0
 26 48  1  0  0  0
 26 49  1  0  0  0
 27 50  1  0  0  0
 27 51  1  0  0  0
 28 52  1  0  0  0
 28 53  1  0  0  0
 29 54  1  0  0  0
 29 55  1  0  0  0
 30 56  1  0  0  0
 30 57  1  0  0  0
 31 58  1  0  0  0
 31 59  1  0  0  0
 32 60  1  0  0  0
 32 61  1  0  0  0
 33 62  1  0  0  0
 33 63  1  0  0  0
 34 64  1  0  0  0
 34 65  1  0  0  0
 34 66  1  0  0  0
M  END
$$$$
