1qvu_ligand
  -I-interpret- 

 27 29  0  0  0  0  0  0  0  0999 V2000
  -61.7950  -45.2160    2.7980 C   0  0  0  0  0
  -62.0530  -45.3950    1.4440 C   0  0  0  0  0
  -63.2530  -45.9480    1.0220 C   0  0  0  0  0
  -64.2050  -46.3280    1.9290 C   0  0  0  0  0
  -65.7480  -46.8040    6.3910 C   0  0  0  0  0
  -65.5820  -46.6520    7.7500 C   0  0  0  0  0
  -64.3960  -46.0980    8.2380 C   0  0  0  0  0
  -63.3880  -45.6880    7.3680 C   0  0  0  0  0
  -62.5540  -45.4360    5.0930 C   0  0  0  0  0
  -64.9400  -46.5550    4.1690 N   0  0  0  0  0
  -63.9650  -46.1570    3.2750 C   0  0  0  0  0
  -63.5410  -45.8410    6.0110 C   0  0  0  0  0
  -62.7500  -45.5970    3.7310 C   0  0  0  0  0
  -64.7510  -46.3910    5.5290 C   0  0  0  0  0
  -63.5380  -46.1360   -0.2750 N   0  0  0  0  0
  -66.5780  -47.0580    8.5710 N   0  0  0  0  0
  -60.8508  -44.7802    3.1246 H   0  0  0  0  0
  -61.3061  -45.0983    0.7077 H   0  0  0  0  0
  -65.1453  -46.7623    1.5893 H   0  0  0  0  0
  -66.6623  -47.2483    5.9976 H   0  0  0  0  0
  -64.2575  -45.9851    9.3132 H   0  0  0  0  0
  -62.4750  -45.2444    7.7651 H   0  0  0  0  0
  -61.6274  -44.9919    5.4568 H   0  0  0  0  0
  -62.8611  -45.8692   -0.9898 H   0  0  0  0  0
  -64.4317  -46.5458   -0.5466 H   0  0  0  0  0
  -67.4272  -47.4657    8.1797 H   0  0  0  0  0
  -66.4796  -46.9564    9.5811 H   0  0  0  0  0
  1  2  4  0  0  0
 13  1  4  0  0  0
  2  3  4  0  0  0
  4  3  4  0  0  0
  3 15  1  0  0  0
 11  4  4  0  0  0
  5  6  4  0  0  0
  6  7  4  0  0  0
  7  8  4  0  0  0
 13 11  4  0  0  0
  6 16  1  0  0  0
 12 14  4  0  0  0
 14 10  4  0  0  0
 14  5  4  0  0  0
  9 13  4  0  0  0
  9 12  4  0  0  0
 12  8  4  0  0  0
 11 10  4  0  0  0
  1 17  1  0  0  0
  2 18  1  0  0  0
  4 19  1  0  0  0
  5 20  1  0  0  0
  7 21  1  0  0  0
  8 22  1  0  0  0
  9 23  1  0  0  0
 15 24  1  0  0  0
 15 25  1  0  0  0
 16 26  1  0  0  0
 16 27  1  0  0  0
M  END
$$$$
