5j41_ligand
  -I-interpret- 

 69 69  0  0  0  0  0  0  0  0999 V2000
    1.0100    4.0800   91.7630 C   0  0  0  0  0
    1.6730    3.0270   91.5850 O   0  0  0  0  0
   -0.2260    4.0500   92.6550 C   0  0  0  0  0
   -5.3170    5.6950   94.3140 O   0  0  0  0  0
   -0.4180    4.8700   93.6790 C   0  0  0  0  0
   -5.3440    3.8250   96.3420 O   0  0  0  0  0
   -1.7600    4.6250   94.3830 C   0  0  0  0  0
   -3.0940    2.4890   97.0700 O   0  0  0  0  0
   -2.9170    5.3060   93.9950 C   0  0  0  0  0
    1.3070    5.1640   91.2040 O   0  0  0  0  0
   -4.1200    5.0400   94.6480 C   0  0  0  0  0
   -5.3550    6.3300   93.0680 C   0  0  0  0  0
   -4.1480    4.1010   95.6670 C   0  0  0  0  0
   -5.4910    4.5250   97.5430 C   0  0  0  0  0
   -3.0030    3.4230   96.0390 C   0  0  0  0  0
   -1.9340    1.7590   97.3520 C   0  0  0  0  0
   -1.8060    3.6750   95.3900 C   0  0  0  0  0
    4.6860   11.5960   91.4540 N   0  3  0  0  0
    4.5880   10.7740   92.6540 C   0  0  0  0  0
    5.7180    9.7490   92.7080 C   0  0  0  0  0
    6.2480    9.3740   91.6330 O   0  0  0  0  0
    6.0900    9.3010   93.8160 O   0  0  0  0  0
    3.2220   10.1050   92.6960 C   0  0  0  0  0
    2.9730    9.3920   94.0120 C   0  0  0  0  0
    1.5640    8.8620   94.1310 C   0  0  0  0  0
    0.7500    8.8910   93.2530 O   0  0  0  0  0
    1.2780    8.3270   95.4130 N   0  0  0  0  0
    0.0620    7.6890   95.7720 C   0  0  0  0  0
   -0.5470    8.2430   97.0210 C   0  0  0  0  0
    0.1250    8.5650   97.9570 O   0  0  0  0  0
    0.3290    6.2010   96.0500 C   0  0  0  0  0
    1.0130    5.3180   94.6220 S   0  0  0  0  0
   -1.9740    8.3060   97.0510 N   0  0  0  0  0
   -2.6050    8.7430   98.2690 C   0  0  0  0  0
   -3.1380   10.1540   98.2340 C   0  0  0  0  0
   -2.8780   10.9260   97.2760 O   0  0  0  0  0
   -3.8390   10.4950   99.2160 O   0  0  0  0  0
    1.2846    2.3150   92.0986 H   0  0  0  0  0
   -0.1522    3.0751   93.1370 H   0  0  0  0  0
   -1.0256    4.3293   91.9689 H   0  0  0  0  0
   -0.5670    5.8669   93.2640 H   0  0  0  0  0
   -2.8794    6.0387   93.1889 H   0  0  0  0  0
   -4.5764    7.0917   93.0259 H   0  0  0  0  0
   -5.1881    5.5941   92.2814 H   0  0  0  0  0
   -6.3300    6.7972   92.9293 H   0  0  0  0  0
   -4.6731    4.2661   98.2154 H   0  0  0  0  0
   -5.4728    5.5962   97.3423 H   0  0  0  0  0
   -6.4413    4.2566   98.0045 H   0  0  0  0  0
   -1.6342    1.1991   96.4661 H   0  0  0  0  0
   -1.1357    2.4439   97.6378 H   0  0  0  0  0
   -2.1316    1.0673   98.1709 H   0  0  0  0  0
   -0.9052    3.1289   95.6700 H   0  0  0  0  0
    3.9213   12.2709   91.4423 H   0  0  0  0  0
    5.5779   12.0909   91.4543 H   0  0  0  0  0
    4.6271   10.9993   90.6288 H   0  0  0  0  0
    4.6926   11.4079   93.5345 H   0  0  0  0  0
    5.8303    9.8267   90.8966 H   0  0  0  0  0
    3.1821    9.3651   91.8966 H   0  0  0  0  0
    2.4622   10.8779   92.5801 H   0  0  0  0  0
    3.1290   10.1107   94.8165 H   0  0  0  0  0
    3.6552    8.5436   94.0670 H   0  0  0  0  0
    1.9993    8.4066   96.1298 H   0  0  0  0  0
   -0.6200    7.8512   94.9373 H   0  0  0  0  0
   -0.6245    5.7357   96.2999 H   0  0  0  0  0
    1.0606    6.1420   96.8558 H   0  0  0  0  0
   -2.5287    8.0492   96.2345 H   0  0  0  0  0
   -1.8441    8.7113   99.0488 H   0  0  0  0  0
   -3.4586    8.0862   98.4367 H   0  0  0  0  0
   -2.3299   10.4663   96.6358 H   0  0  0  0  0
  1  2  1  0  0  0
  3  1  1  0  0  0
  1 10  2  0  0  0
  5  3  1  0  0  0
 11  4  1  0  0  0
  4 12  1  0  0  0
  5  7  1  0  0  0
 32  5  1  0  0  0
 13  6  1  0  0  0
  6 14  1  0  0  0
  7  9  4  0  0  0
  7 17  4  0  0  0
 15  8  1  0  0  0
  8 16  1  0  0  0
  9 11  4  0  0  0
 11 13  4  0  0  0
 15 13  4  0  0  0
 17 15  4  0  0  0
 19 18  1  0  0  0
 19 20  1  0  0  0
 23 19  1  0  0  0
 20 21  1  0  0  0
 20 22  2  0  0  0
 24 23  1  0  0  0
 25 24  1  0  0  0
 25 26  2  0  0  0
 27 25  1  0  0  0
 28 27  1  0  0  0
 28 29  1  0  0  0
 31 28  1  0  0  0
 29 30  2  0  0  0
 29 33  1  0  0  0
 31 32  1  0  0  0
 33 34  1  0  0  0
 34 35  1  0  0  0
 35 36  1  0  0  0
 35 37  2  0  0  0
  2 38  1  0  0  0
  3 39  1  0  0  0
  3 40  1  0  0  0
  5 41  1  0  0  0
  9 42  1  0  0  0
 12 43  1  0  0  0
 12 44  1  0  0  0
 12 45  1  0  0  0
 14 46  1  0  0  0
 14 47  1  0  0  0
 14 48  1  0  0  0
 16 49  1  0  0  0
 16 50  1  0  0  0
 16 51  1  0  0  0
 17 52  1  0  0  0
 18 53  1  0  0  0
 18 54  1  0  0  0
 18 55  1  0  0  0
 19 56  1  0  0  0
 21 57  1  0  0  0
 23 58  1  0  0  0
 23 59  1  0  0  0
 24 60  1  0  0  0
 24 61  1  0  0  0
 27 62  1  0  0  0
 28 63  1  0  0  0
 31 64  1  0  0  0
 31 65  1  0  0  0
 33 66  1  0  0  0
 34 67  1  0  0  0
 34 68  1  0  0  0
 36 69  1  0  0  0
M  END
$$$$
