6da4_ligand
  -I-interpret- 

 43 46  0  0  0  0  0  0  0  0999 V2000
   -1.8080   12.1630    3.8290 N   0  0  0  0  0
   -0.5560   11.9930    4.3520 C   0  0  0  0  0
   -3.2060   14.0420    3.2310 N   0  0  0  0  0
    0.0270   16.5500    4.4080 C   0  0  0  0  0
   -0.9440   14.1930    4.1980 C   0  0  0  0  0
    0.8460   18.5910    5.4130 C   0  0  0  0  0
   -0.5900   20.2680    6.6970 C   0  0  0  0  0
    0.0200   13.2010    4.6110 C   0  0  0  0  0
    1.4440   14.2890    6.4800 C   0  0  0  0  0
    2.9690   15.7110    7.6450 C   0  0  0  0  0
    1.3700   13.4300    5.2340 C   0  0  0  0  0
    2.3590   17.1620    4.1990 C   0  0  0  0  0
    2.1350   18.2980    4.9600 C   0  0  0  0  0
    4.0920   21.0480    5.4950 F   0  0  0  0  0
    3.0710   20.3270    5.9700 C   0  0  0  0  0
    3.2380   19.0630    5.2640 O   0  0  0  0  0
   -3.1760   15.3770    3.2370 C   0  0  0  0  0
    1.3030   16.3200    3.9050 C   0  0  0  0  0
    2.7620   14.8220    6.5540 O   0  0  0  0  0
   -1.4120   21.2140    6.3080 N   0  0  0  0  0
    1.6360   20.8870    5.6770 C   0  0  0  0  0
    0.5790   19.8880    5.8870 N   0  0  0  0  0
   -0.1860   17.6900    5.1760 C   0  0  0  0  0
    3.2120   19.9760    7.2520 F   0  0  0  0  0
   -2.2060   16.1860    3.6690 N   0  0  0  0  0
   -2.0790   13.4960    3.7180 C   0  0  0  0  0
   -1.0840   15.6040    4.1240 C   0  0  0  0  0
   -0.0849   11.0274    4.5359 H   0  0  0  0  0
   -0.7766   19.7529    7.6393 H   0  0  0  0  0
    1.2226   13.6948    7.3666 H   0  0  0  0  0
    0.7095   15.0930    6.4331 H   0  0  0  0  0
    2.2853   16.5555    7.5586 H   0  0  0  0  0
    2.7822   15.1849    8.5812 H   0  0  0  0  0
    3.9976   16.0714    7.6283 H   0  0  0  0  0
    1.9486   13.9643    4.4805 H   0  0  0  0  0
    1.7164   12.4436    5.5426 H   0  0  0  0  0
    3.3607   16.9340    3.8348 H   0  0  0  0  0
   -4.0607   15.8716    2.8361 H   0  0  0  0  0
    1.4744   15.4554    3.2638 H   0  0  0  0  0
   -1.2472   21.7027    5.4280 H   0  0  0  0  0
    1.6042   21.1907    4.6306 H   0  0  0  0  0
    1.4543   21.7136    6.3639 H   0  0  0  0  0
   -1.1735   17.8792    5.5969 H   0  0  0  0  0
  1  2  4  0  0  0
 26  1  4  0  0  0
  8  2  4  0  0  0
  3 17  4  0  0  0
 26  3  4  0  0  0
 18  4  4  0  0  0
 23  4  4  0  0  0
  4 27  1  0  0  0
  5  8  4  0  0  0
  5 26  4  0  0  0
 27  5  4  0  0  0
 13  6  4  0  0  0
  6 22  1  0  0  0
  6 23  4  0  0  0
  7 20  2  0  0  0
 22  7  1  0  0  0
  8 11  1  0  0  0
 11  9  1  0  0  0
  9 19  1  0  0  0
 19 10  1  0  0  0
 13 12  4  0  0  0
 12 18  4  0  0  0
 16 13  1  0  0  0
 15 14  1  0  0  0
 15 16  1  0  0  0
 15 21  1  0  0  0
 15 24  1  0  0  0
 17 25  4  0  0  0
 21 22  1  0  0  0
 25 27  4  0  0  0
  2 28  1  0  0  0
  7 29  1  0  0  0
  9 30  1  0  0  0
  9 31  1  0  0  0
 10 32  1  0  0  0
 10 33  1  0  0  0
 10 34  1  0  0  0
 11 35  1  0  0  0
 11 36  1  0  0  0
 12 37  1  0  0  0
 17 38  1  0  0  0
 18 39  1  0  0  0
 20 40  1  0  0  0
 21 41  1  0  0  0
 21 42  1  0  0  0
 23 43  1  0  0  0
M  END
$$$$
