### 
### Created by X-TOOL on Wed Jan  1 15:39:38 2020
### 

@<TRIPOS>MOLECULE
6da4_ligand
   27    30     1     0     0
SMALL
GAST_HUCK


@<TRIPOS>ATOM
      1 N3         -1.8080   12.1630    3.8290 N.pl3     1 G4V        -0.4424
      2 C4         -0.5560   11.9930    4.3520 C.2       1 G4V        -0.2285
      3 N2         -3.2060   14.0420    3.2310 N.ar      1 G4V        -0.7773
      4 C7          0.0270   16.5500    4.4080 C.ar      1 G4V        -0.5944
      5 C6         -0.9440   14.1930    4.1980 C.ar      1 G4V        -0.4215
      6 C9          0.8460   18.5910    5.4130 C.ar      1 G4V        -0.4018
      7 C13        -0.5900   20.2680    6.6970 C.cat     1 G4V        -0.0562
      8 C8          0.0200   13.2010    4.6110 C.2       1 G4V        -0.5783
      9 C18         1.4440   14.2890    6.4800 C.3       1 G4V        -1.4352
     10 C16         2.9690   15.7110    7.6450 C.3       1 G4V        -2.4048
     11 C17         1.3700   13.4300    5.2340 C.3       1 G4V        -1.4335
     12 C2          2.3590   17.1620    4.1990 C.ar      1 G4V        -0.6116
     13 C10         2.1350   18.2980    4.9600 C.ar      1 G4V        -0.3348
     14 F2          4.0920   21.0480    5.4950 F         1 G4V        -0.2356
     15 C15         3.0710   20.3270    5.9700 C.3       1 G4V         0.0929
     16 O1          3.2380   19.0630    5.2640 O.3       1 G4V        -0.4809
     17 C5         -3.1760   15.3770    3.2370 C.ar      1 G4V        -0.5493
     18 C1          1.3030   16.3200    3.9050 C.ar      1 G4V        -0.6390
     19 O2          2.7620   14.8220    6.5540 O.3       1 G4V        -1.1544
     20 N          -1.4120   21.2140    6.3080 N.pl3     1 G4V        -0.1807
     21 C14         1.6360   20.8870    5.6770 C.3       1 G4V        -0.9023
     22 N4          0.5790   19.8880    5.8870 N.pl3     1 G4V        -0.7922
     23 C3         -0.1860   17.6900    5.1760 C.ar      1 G4V        -0.5853
     24 F1          3.2120   19.9760    7.2520 F         1 G4V        -0.2356
     25 N1         -2.2060   16.1860    3.6690 N.ar      1 G4V        -0.8265
     26 C12        -2.0790   13.4960    3.7180 C.ar      1 G4V        -0.2846
     27 C11        -1.0840   15.6040    4.1240 C.ar      1 G4V        -0.5065
@<TRIPOS>BOND
     1    1    2 1  
     2   26    1 1  
     3    8    2 2  
     4    3   17 ar 
     5   26    3 ar 
     6   18    4 ar 
     7   23    4 ar 
     8    4   27 1  
     9    5    8 1  
    10    5   26 ar 
    11   27    5 ar 
    12   13    6 ar 
    13    6   22 1  
    14    6   23 ar 
    15    7   20 ar 
    16   22    7 ar 
    17    8   11 1  
    18   11    9 1  
    19    9   19 1  
    20   19   10 1  
    21   13   12 ar 
    22   12   18 ar 
    23   16   13 1  
    24   15   14 1  
    25   15   16 1  
    26   15   21 1  
    27   15   24 1  
    28   17   25 ar 
    29   21   22 1  
    30   25   27 ar 
@<TRIPOS>SUBSTRUCTURE
     1 G4V         1

