1qbt_ligand
  -I-interpret- 

104112  0  0  0  0  0  0  0  0999 V2000
   -8.8910   15.3150   27.9260 C   0  0  0  0  0
   -9.5340   14.7500   30.1640 C   0  0  0  0  0
  -10.8640   16.4660   28.9380 C   0  0  0  0  0
  -10.5680   17.9230   28.6760 C   0  0  0  0  0
  -10.2000   18.1730   27.2290 C   0  0  0  0  0
   -8.8220   17.6340   26.9400 C   0  0  0  0  0
   -8.1010   15.6010   25.6770 C   0  0  0  0  0
   -9.4360   15.5020   31.4490 C   0  0  0  0  0
  -10.0550   14.9640   32.5890 C   0  0  0  0  0
   -9.9910   15.6700   33.8100 C   0  0  0  0  0
   -9.3050   16.9050   33.8870 C   0  0  0  0  0
   -8.6810   17.4330   32.7440 C   0  0  0  0  0
   -8.7490   16.7310   31.5250 C   0  0  0  0  0
  -10.6400   15.1250   35.0420 C   0  0  0  0  0
  -11.4080   13.1020   36.1550 C   0  0  0  0  0
  -12.7390   12.6320   39.4370 C   0  0  0  0  0
  -12.9550   11.3790   40.0430 C   0  0  0  0  0
  -12.6530   10.1780   39.3660 C   0  0  0  0  0
  -12.1250   10.1800   38.0620 C   0  0  0  0  0
  -11.8940   11.4130   37.4260 C   0  0  0  0  0
  -12.2120   12.6800   38.1360 C   0  0  0  0  0
  -11.9800   15.8390   28.0650 C   0  0  0  0  0
  -12.5320   14.5500   28.6140 C   0  0  0  0  0
  -12.1320   13.3170   28.0540 C   0  0  0  0  0
  -12.5800   12.1150   28.6330 C   0  0  0  0  0
  -13.4310   12.1430   29.7610 C   0  0  0  0  0
  -13.8410   13.3790   30.3120 C   0  0  0  0  0
  -13.3930   14.5870   29.7340 C   0  0  0  0  0
   -7.7000   18.2600   27.7930 C   0  0  0  0  0
   -6.3490   18.1720   27.1500 C   0  0  0  0  0
   -6.0520   19.0350   26.0750 C   0  0  0  0  0
   -4.7980   18.9320   25.4510 C   0  0  0  0  0
   -3.8510   17.9820   25.8970 C   0  0  0  0  0
   -4.1550   17.1360   26.9750 C   0  0  0  0  0
   -5.4100   17.2270   27.6040 C   0  0  0  0  0
   -8.8260   15.9050   24.4000 C   0  0  0  0  0
   -8.0450   16.2010   23.2840 C   0  0  0  0  0
   -8.6690   16.4720   22.0580 C   0  0  0  0  0
  -10.0710   16.4380   21.9380 C   0  0  0  0  0
  -10.8650   16.1340   23.0580 C   0  0  0  0  0
  -10.2340   15.8720   24.2930 C   0  0  0  0  0
   -7.8390   16.8320   20.8730 C   0  0  0  0  0
   -5.6020   16.5760   19.8570 C   0  0  0  0  0
   -4.7300   16.8560   16.4100 C   0  0  0  0  0
   -3.4800   16.5070   15.8610 C   0  0  0  0  0
   -2.4370   16.0290   16.6830 C   0  0  0  0  0
   -2.6010   15.8790   18.0760 C   0  0  0  0  0
   -3.8330   16.2100   18.6640 C   0  0  0  0  0
   -4.9280   16.7160   17.7940 C   0  0  0  0  0
   -9.6990   15.5730   28.9690 N   0  0  0  0  0
   -8.6770   16.1620   26.8970 N   0  0  0  0  0
  -10.8970   13.8210   34.9940 N   0  0  0  0  0
  -11.8810   13.6840   37.2790 N   0  0  0  0  0
  -11.4020   11.7710   36.2050 N   0  0  0  0  0
   -6.5410   16.5010   20.9820 N   0  0  0  0  0
   -5.9800   16.9260   18.6130 N   0  0  0  0  0
   -4.3320   16.1560   19.9350 N   0  0  0  0  0
   -8.3190   14.2420   27.9110 O   0  0  0  0  0
  -11.7400   18.6040   29.0060 O   0  0  0  0  0
  -10.1230   19.5470   26.9490 O   0  0  0  0  0
  -10.8930   15.7950   36.0290 O   0  0  0  0  0
   -8.3020   17.3780   19.8870 O   0  0  0  0  0
   -8.5932   14.2126   30.0449 H   0  0  0  0  0
  -10.4232   14.1238   30.2364 H   0  0  0  0  0
  -11.2470   16.5340   29.9562 H   0  0  0  0  0
   -9.7138   18.2589   29.2638 H   0  0  0  0  0
  -10.9708   17.6890   26.6292 H   0  0  0  0  0
   -8.6946   17.9669   25.9099 H   0  0  0  0  0
   -8.1349   14.5180   25.7952 H   0  0  0  0  0
   -7.1104   16.0446   25.5769 H   0  0  0  0  0
  -10.5799   14.0104   32.5317 H   0  0  0  0  0
   -9.2606   17.4464   34.8320 H   0  0  0  0  0
   -8.1468   18.3815   32.8006 H   0  0  0  0  0
   -8.2683   17.1396   30.6361 H   0  0  0  0  0
  -12.9776   13.5520   39.9705 H   0  0  0  0  0
  -13.3627   11.3361   41.0530 H   0  0  0  0  0
  -12.8332    9.2261   39.8655 H   0  0  0  0  0
  -11.8990    9.2427   37.5536 H   0  0  0  0  0
  -11.5434   15.6162   27.0914 H   0  0  0  0  0
  -12.8021   16.5537   28.0271 H   0  0  0  0  0
  -11.4812   13.2963   27.1799 H   0  0  0  0  0
  -12.2697   11.1595   28.2101 H   0  0  0  0  0
  -13.7723   11.2091   30.2075 H   0  0  0  0  0
  -14.5004   13.3993   31.1797 H   0  0  0  0  0
  -13.7098   15.5435   30.1498 H   0  0  0  0  0
   -7.6544   17.7101   28.7330 H   0  0  0  0  0
   -7.9351   19.3163   27.9235 H   0  0  0  0  0
   -6.7825   19.7688   25.7345 H   0  0  0  0  0
   -4.5532   19.5894   24.6167 H   0  0  0  0  0
   -2.8825   17.9063   25.4027 H   0  0  0  0  0
   -3.4204   16.4103   27.3239 H   0  0  0  0  0
   -5.6538   16.5693   28.4383 H   0  0  0  0  0
   -6.9581   16.2216   23.3638 H   0  0  0  0  0
  -10.5411   16.6473   20.9771 H   0  0  0  0  0
  -11.9512   16.1012   22.9737 H   0  0  0  0  0
  -10.8379   15.6424   25.1709 H   0  0  0  0  0
   -5.5306   17.2287   15.7711 H   0  0  0  0  0
   -3.3165   16.6075   14.7880 H   0  0  0  0  0
   -1.4803   15.7691   16.2299 H   0  0  0  0  0
   -1.7797   15.5098   18.6902 H   0  0  0  0  0
  -10.7329   13.3123   34.1253 H   0  0  0  0  0
   -6.1932   16.1836   21.8868 H   0  0  0  0  0
  -11.9589   18.4351   29.9253 H   0  0  0  0  0
  -10.9764   19.9544   27.1142 H   0  0  0  0  0
  1 58  2  0  0  0
  1 51  1  0  0  0
  1 50  1  0  0  0
 50  3  1  0  0  0
 50  2  1  0  0  0
  2  8  1  0  0  0
  8 13  4  0  0  0
  8  9  4  0  0  0
  9 10  4  0  0  0
 10 14  1  0  0  0
 10 11  4  0  0  0
 11 12  4  0  0  0
 12 13  4  0  0  0
 14 61  2  0  0  0
 14 52  1  0  0  0
 52 15  1  0  0  0
 15 53  4  0  0  0
 15 54  4  0  0  0
 54 20  4  0  0  0
 20 21  4  0  0  0
 20 19  4  0  0  0
 19 18  4  0  0  0
 18 17  4  0  0  0
 17 16  4  0  0  0
 16 21  4  0  0  0
 21 53  4  0  0  0
  3 22  1  0  0  0
  3  4  1  0  0  0
  4 59  1  0  0  0
  4  5  1  0  0  0
  5 60  1  0  0  0
  5  6  1  0  0  0
  6 51  1  0  0  0
  6 29  1  0  0  0
 29 30  1  0  0  0
 30 35  4  0  0  0
 30 31  4  0  0  0
 31 32  4  0  0  0
 32 33  4  0  0  0
 33 34  4  0  0  0
 34 35  4  0  0  0
 51  7  1  0  0  0
  7 36  1  0  0  0
 36 41  4  0  0  0
 36 37  4  0  0  0
 37 38  4  0  0  0
 38 42  1  0  0  0
 38 39  4  0  0  0
 39 40  4  0  0  0
 40 41  4  0  0  0
 42 55  1  0  0  0
 42 62  2  0  0  0
 55 43  1  0  0  0
 43 56  4  0  0  0
 43 57  4  0  0  0
 57 48  4  0  0  0
 48 49  4  0  0  0
 48 47  4  0  0  0
 47 46  4  0  0  0
 46 45  4  0  0  0
 45 44  4  0  0  0
 44 49  4  0  0  0
 49 56  4  0  0  0
 22 23  1  0  0  0
 23 28  4  0  0  0
 23 24  4  0  0  0
 24 25  4  0  0  0
 25 26  4  0  0  0
 26 27  4  0  0  0
 27 28  4  0  0  0
  2 63  1  0  0  0
  2 64  1  0  0  0
  3 65  1  0  0  0
  4 66  1  0  0  0
  5 67  1  0  0  0
  6 68  1  0  0  0
  7 69  1  0  0  0
  7 70  1  0  0  0
  9 71  1  0  0  0
 11 72  1  0  0  0
 12 73  1  0  0  0
 13 74  1  0  0  0
 16 75  1  0  0  0
 17 76  1  0  0  0
 18 77  1  0  0  0
 19 78  1  0  0  0
 22 79  1  0  0  0
 22 80  1  0  0  0
 24 81  1  0  0  0
 25 82  1  0  0  0
 26 83  1  0  0  0
 27 84  1  0  0  0
 28 85  1  0  0  0
 29 86  1  0  0  0
 29 87  1  0  0  0
 31 88  1  0  0  0
 32 89  1  0  0  0
 33 90  1  0  0  0
 34 91  1  0  0  0
 35 92  1  0  0  0
 37 93  1  0  0  0
 39 94  1  0  0  0
 40 95  1  0  0  0
 41 96  1  0  0  0
 44 97  1  0  0  0
 45 98  1  0  0  0
 46 99  1  0  0  0
 47100  1  0  0  0
 52101  1  0  0  0
 55102  1  0  0  0
 59103  1  0  0  0
 60104  1  0  0  0
M  END
$$$$
