3ara_ligand
  -I-interpret- 

 62 65  0  0  0  0  0  0  0  0999 V2000
    3.5850   10.0530  -11.9210 O   0  0  0  0  0
    4.5700    9.6280  -12.4070 C   0  0  0  0  0
    5.6140   10.4920  -12.3970 N   0  0  0  0  0
    6.7760   10.1440  -12.9840 C   0  0  0  0  0
    6.9200    8.8780  -13.5430 N   0  0  0  0  0
    5.8950    7.9620  -13.5430 C   0  0  0  0  0
    4.6430    8.3310  -12.8710 C   0  0  0  0  0
    7.7100   10.9680  -13.0730 O   0  0  0  0  0
    8.2410    8.4370  -14.1440 C   0  0  0  0  0
    8.1860    8.2480  -15.6470 C   0  0  0  0  0
    8.0030    9.6690  -16.2840 C   0  0  0  0  0
    8.0830    9.5260  -17.9830 S   0  0  0  0  0
    8.2100   10.8940  -18.6920 N   0  0  0  0  0
    9.4930   11.6190  -18.7470 C   0  0  0  0  0
    9.5440   11.8740  -20.2780 C   0  0  0  0  0
    8.0940   12.0190  -20.7640 C   0  0  0  0  0
    7.2070   11.5030  -19.6070 C   0  0  0  0  0
    9.2430    8.7140  -18.4110 O   0  0  0  0  0
    6.8740    8.7950  -18.3500 O   0  0  0  0  0
    6.3100   12.6010  -19.0140 C   0  0  0  0  0
    7.0580   13.7250  -18.5030 O   0  0  0  0  0
    5.3270   13.1030  -20.0480 C   0  0  0  0  0
    4.9140   14.4300  -19.9590 C   0  0  0  0  0
    3.9560   14.9200  -20.8830 C   0  0  0  0  0
    3.4530   14.0880  -21.8970 C   0  0  0  0  0
    3.9060   12.7740  -21.9820 C   0  0  0  0  0
    4.8190   12.2460  -21.0520 C   0  0  0  0  0
    5.5180   12.0880  -17.8300 C   0  0  0  0  0
    5.8230   12.6250  -16.5940 C   0  0  0  0  0
    5.1240   12.2340  -15.4850 C   0  0  0  0  0
    4.1250   11.2760  -15.5600 C   0  0  0  0  0
    3.7780   10.7140  -16.8200 C   0  0  0  0  0
    4.4680   11.1680  -17.9390 C   0  0  0  0  0
    5.5206   11.4025  -11.9468 H   0  0  0  0  0
    6.2758    7.1010  -12.9936 H   0  0  0  0  0
    5.6310    7.8227  -14.5913 H   0  0  0  0  0
    3.8523    8.2250  -13.6137 H   0  0  0  0  0
    4.5618    7.6861  -11.9960 H   0  0  0  0  0
    8.4982    7.4748  -13.7013 H   0  0  0  0  0
    8.9726    9.2182  -13.9379 H   0  0  0  0  0
    7.3591    7.5935  -15.9225 H   0  0  0  0  0
    9.1006    7.7788  -16.0095 H   0  0  0  0  0
    8.7907   10.3352  -15.9323 H   0  0  0  0  0
    7.0370   10.0819  -15.9936 H   0  0  0  0  0
   10.3484   11.0831  -18.3357 H   0  0  0  0  0
    9.5501   12.5118  -18.1243 H   0  0  0  0  0
   10.0386   11.0474  -20.7881 H   0  0  0  0  0
   10.1141   12.7767  -20.4976 H   0  0  0  0  0
    7.9237   11.4498  -21.6778 H   0  0  0  0  0
    7.8606   13.0548  -21.0105 H   0  0  0  0  0
    6.4495   10.7742  -19.8952 H   0  0  0  0  0
    6.4502   14.3770  -18.1465 H   0  0  0  0  0
    5.3221   15.0842  -19.1885 H   0  0  0  0  0
    3.6074   15.9499  -20.8057 H   0  0  0  0  0
    2.7180   14.4659  -22.6077 H   0  0  0  0  0
    3.5436   12.1385  -22.7901 H   0  0  0  0  0
    5.1277   11.2019  -21.1036 H   0  0  0  0  0
    6.6216   13.3612  -16.5025 H   0  0  0  0  0
    5.3578   12.6858  -14.5210 H   0  0  0  0  0
    3.6070   10.9543  -14.6565 H   0  0  0  0  0
    2.9999    9.9554  -16.9053 H   0  0  0  0  0
    4.1846   10.7987  -18.9246 H   0  0  0  0  0
  1  2  2  0  0  0
  2  3  1  0  0  0
  2  7  1  0  0  0
  3  4  1  0  0  0
  4  5  1  0  0  0
  4  8  2  0  0  0
  5  6  1  0  0  0
  5  9  1  0  0  0
  6  7  1  0  0  0
  9 10  1  0  0  0
 10 11  1  0  0  0
 11 12  1  0  0  0
 12 13  1  0  0  0
 12 18  2  0  0  0
 12 19  2  0  0  0
 13 14  1  0  0  0
 13 17  1  0  0  0
 14 15  1  0  0  0
 15 16  1  0  0  0
 16 17  1  0  0  0
 17 20  1  0  0  0
 20 21  1  0  0  0
 20 22  1  0  0  0
 20 28  1  0  0  0
 22 23  4  0  0  0
 22 27  4  0  0  0
 23 24  4  0  0  0
 24 25  4  0  0  0
 25 26  4  0  0  0
 26 27  4  0  0  0
 28 29  4  0  0  0
 28 33  4  0  0  0
 29 30  4  0  0  0
 30 31  4  0  0  0
 31 32  4  0  0  0
 32 33  4  0  0  0
  3 34  1  0  0  0
  6 35  1  0  0  0
  6 36  1  0  0  0
  7 37  1  0  0  0
  7 38  1  0  0  0
  9 39  1  0  0  0
  9 40  1  0  0  0
 10 41  1  0  0  0
 10 42  1  0  0  0
 11 43  1  0  0  0
 11 44  1  0  0  0
 14 45  1  0  0  0
 14 46  1  0  0  0
 15 47  1  0  0  0
 15 48  1  0  0  0
 16 49  1  0  0  0
 16 50  1  0  0  0
 17 51  1  0  0  0
 21 52  1  0  0  0
 23 53  1  0  0  0
 24 54  1  0  0  0
 25 55  1  0  0  0
 26 56  1  0  0  0
 27 57  1  0  0  0
 29 58  1  0  0  0
 30 59  1  0  0  0
 31 60  1  0  0  0
 32 61  1  0  0  0
 33 62  1  0  0  0
M  END
$$$$
