### 
### Created by X-TOOL on Mon Aug  2 16:15:46 2021
### 

@<TRIPOS>MOLECULE
6om8_ligand
   54    56     1     0     0
SMALL
GAST_HUCK


@<TRIPOS>ATOM
      1 C1'       154.9390   66.4190   88.8210 C.3       1 UDX         0.2223
      2 C2'       155.6230   65.2740   89.5590 C.3       1 UDX         0.1391
      3 O2'       155.2130   65.2990   90.9340 O.3       1 UDX        -0.3837
      4 C3'       157.1420   65.3830   89.4510 C.3       1 UDX         0.1141
      5 O3'       157.7370   64.2030   89.9970 O.3       1 UDX        -0.3864
      6 C4'       157.5600   65.5330   87.9940 C.3       1 UDX         0.1070
      7 O4'       158.9700   65.7560   87.8940 O.3       1 UDX        -0.3869
      8 C5'       156.8310   66.7120   87.3720 C.3       1 UDX         0.0795
      9 O5'       155.4210   66.4930   87.4750 O.3       1 UDX        -0.3421
     10 PB        154.4760   69.0210   89.1970 P.3       1 UDX         0.2997
     11 O1B       154.3500   69.7700   90.4960 O.co2     1 UDX        -0.6127
     12 O2B       153.2290   68.7670   88.3870 O.co2     1 UDX        -0.6127
     13 O3B       155.2060   67.6260   89.5370 O.3       1 UDX        -0.2154
     14 O3A       155.5920   69.7410   88.2860 O.3       1 UDX        -0.1318
     15 PA        155.6570   71.3360   88.1040 P.3       1 UDX         0.2972
     16 O1A       154.2680   71.8360   87.8000 O.co2     1 UDX        -0.6127
     17 O2A       156.8060   71.6950   87.1870 O.co2     1 UDX        -0.6127
     18 O5D       156.0940   71.8070   89.5790 O.3       1 UDX        -0.2476
     19 C5D       157.4710   71.8960   89.9290 C.3       1 UDX         0.1128
     20 C4D       157.6900   73.2010   90.6780 C.3       1 UDX         0.1189
     21 O4D       158.8550   73.1250   91.5050 O.3       1 UDX        -0.3363
     22 C3D       157.9300   74.3320   89.6930 C.3       1 UDX         0.1149
     23 O3D       156.9990   75.3880   89.9510 O.3       1 UDX        -0.3864
     24 C2D       159.3510   74.7910   89.9560 C.3       1 UDX         0.1387
     25 O2D       159.4500   76.2080   89.8190 O.3       1 UDX        -0.3836
     26 C1D       159.5920   74.3430   91.3850 C.3       1 UDX         0.2059
     27 N1        161.0040   74.1200   91.7190 N.am      1 UDX        -0.1592
     28 C6        161.7550   73.2390   91.0500 C.2       1 UDX         0.0591
     29 C2        161.5590   74.8430   92.7970 C.2       1 UDX         0.3328
     30 O2        160.8420   75.6610   93.4160 O.2       1 UDX        -0.3815
     31 N3        162.8390   74.6700   93.1520 N.am      1 UDX        -0.1865
     32 C4        163.6120   73.7990   92.4900 C.2       1 UDX         0.1822
     33 O4        164.8080   73.6440   92.8280 O.2       1 UDX        -0.4124
     34 C5        163.0830   73.0660   91.4270 C.2       1 UDX         0.0062
     35 H1        153.8532   66.2442   88.7992 H         1 UDX         0.0999
     36 H2        155.3076   64.3212   89.1087 H         1 UDX         0.0675
     37 H3        155.4638   66.1286   91.3230 H         1 UDX         0.2101
     38 H4        157.4840   66.2615   90.0178 H         1 UDX         0.0648
     39 H5        158.6826   64.2671   89.9316 H         1 UDX         0.2100
     40 H6        157.2995   64.6136   87.4492 H         1 UDX         0.0643
     41 H7        159.4338   65.0187   88.2731 H         1 UDX         0.2100
     42 H8        157.1138   66.8037   86.3129 H         1 UDX         0.0587
     43 H9        157.1009   67.6356   87.9049 H         1 UDX         0.0587
     44 H10       158.0879   71.8818   89.0184 H         1 UDX         0.0648
     45 H11       157.7469   71.0473   90.5721 H         1 UDX         0.0648
     46 H12       156.8056   73.4181   91.2950 H         1 UDX         0.0651
     47 H13       157.8204   73.9818   88.6560 H         1 UDX         0.0648
     48 H14       157.1206   75.7062   90.8378 H         1 UDX         0.2100
     49 H15       160.0595   74.3066   89.2681 H         1 UDX         0.0676
     50 H16       158.8687   76.6267   90.4429 H         1 UDX         0.2101
     51 H17       159.1908   75.0987   92.0763 H         1 UDX         0.0997
     52 H18       161.3345   72.6668   90.2244 H         1 UDX         0.1178
     53 H19       163.2192   75.1934   93.9146 H         1 UDX         0.2259
     54 H20       163.7115   72.3564   90.8909 H         1 UDX         0.0258
@<TRIPOS>BOND
     1    1    2 1  
     2    1    9 1  
     3   13    1 1  
     4    2    3 1  
     5    2    4 1  
     6    4    5 1  
     7    4    6 1  
     8    6    7 1  
     9    8    6 1  
    10    9    8 1  
    11   10   11 ar 
    12   10   12 ar 
    13   10   13 1  
    14   10   14 1  
    15   14   15 1  
    16   15   16 ar 
    17   15   17 ar 
    18   15   18 1  
    19   18   19 1  
    20   19   20 1  
    21   20   21 1  
    22   20   22 1  
    23   21   26 1  
    24   22   23 1  
    25   22   24 1  
    26   24   25 1  
    27   24   26 1  
    28   26   27 1  
    29   27   28 1  
    30   27   29 am 
    31   28   34 2  
    32   29   30 2  
    33   29   31 am 
    34   31   32 am 
    35   32   33 2  
    36   32   34 1  
    37    1   35 1  
    38    2   36 1  
    39    3   37 1  
    40    4   38 1  
    41    5   39 1  
    42    6   40 1  
    43    7   41 1  
    44    8   42 1  
    45    8   43 1  
    46   19   44 1  
    47   19   45 1  
    48   20   46 1  
    49   22   47 1  
    50   23   48 1  
    51   24   49 1  
    52   25   50 1  
    53   26   51 1  
    54   28   52 1  
    55   31   53 1  
    56   34   54 1  
@<TRIPOS>SUBSTRUCTURE
     1 UDX         1

