6om8_ligand
  -I-interpret- 

 56 58  0  0  0  0  0  0  0  0999 V2000
  154.9390   66.4190   88.8210 C   0  0  0  0  0
  155.6230   65.2740   89.5590 C   0  0  0  0  0
  155.2130   65.2990   90.9340 O   0  0  0  0  0
  157.1420   65.3830   89.4510 C   0  0  0  0  0
  157.7370   64.2030   89.9970 O   0  0  0  0  0
  157.5600   65.5330   87.9940 C   0  0  0  0  0
  158.9700   65.7560   87.8940 O   0  0  0  0  0
  156.8310   66.7120   87.3720 C   0  0  0  0  0
  155.4210   66.4930   87.4750 O   0  0  0  0  0
  154.4760   69.0210   89.1970 P   0  0  0  0  0
  154.3500   69.7700   90.4960 O   0  0  0  0  0
  153.2290   68.7670   88.3870 O   0  0  0  0  0
  155.2060   67.6260   89.5370 O   0  0  0  0  0
  155.5920   69.7410   88.2860 O   0  0  0  0  0
  155.6570   71.3360   88.1040 P   0  0  0  0  0
  154.2680   71.8360   87.8000 O   0  0  0  0  0
  156.8060   71.6950   87.1870 O   0  0  0  0  0
  156.0940   71.8070   89.5790 O   0  0  0  0  0
  157.4710   71.8960   89.9290 C   0  0  0  0  0
  157.6900   73.2010   90.6780 C   0  0  0  0  0
  158.8550   73.1250   91.5050 O   0  0  0  0  0
  157.9300   74.3320   89.6930 C   0  0  0  0  0
  156.9990   75.3880   89.9510 O   0  0  0  0  0
  159.3510   74.7910   89.9560 C   0  0  0  0  0
  159.4500   76.2080   89.8190 O   0  0  0  0  0
  159.5920   74.3430   91.3850 C   0  0  0  0  0
  161.0040   74.1200   91.7190 N   0  0  0  0  0
  161.7550   73.2390   91.0500 C   0  0  0  0  0
  161.5590   74.8430   92.7970 C   0  0  0  0  0
  160.8420   75.6610   93.4160 O   0  0  0  0  0
  162.8390   74.6700   93.1520 N   0  0  0  0  0
  163.6120   73.7990   92.4900 C   0  0  0  0  0
  164.8080   73.6440   92.8280 O   0  0  0  0  0
  163.0830   73.0660   91.4270 C   0  0  0  0  0
  153.8621   66.2579   88.7710 H   0  0  0  0  0
  155.3295   64.3277   89.1047 H   0  0  0  0  0
  154.2568   65.2296   90.9829 H   0  0  0  0  0
  157.4765   66.2602   90.0049 H   0  0  0  0  0
  157.4735   64.1086   90.9153 H   0  0  0  0  0
  157.3050   64.6134   87.4673 H   0  0  0  0  0
  159.4386   65.0150   88.2851 H   0  0  0  0  0
  157.1130   66.8075   86.3235 H   0  0  0  0  0
  157.1003   67.6292   87.8958 H   0  0  0  0  0
  153.4592   68.2831   87.5905 H   0  0  0  0  0
  157.6152   71.3004   87.5203 H   0  0  0  0  0
  158.0874   71.8728   89.0303 H   0  0  0  0  0
  157.7520   71.0519   90.5587 H   0  0  0  0  0
  156.8008   73.3800   91.2825 H   0  0  0  0  0
  157.7968   74.0257   88.6554 H   0  0  0  0  0
  157.1488   76.1041   89.3295 H   0  0  0  0  0
  160.0841   74.3826   89.2604 H   0  0  0  0  0
  160.3542   76.4823   89.9883 H   0  0  0  0  0
  159.2763   75.1226   92.0783 H   0  0  0  0  0
  161.3341   72.6663   90.2236 H   0  0  0  0  0
  163.2268   75.2038   93.9298 H   0  0  0  0  0
  163.7121   72.3558   90.8904 H   0  0  0  0  0
  1  2  1  0  0  0
  1  9  1  0  0  0
 13  1  1  0  0  0
  2  3  1  0  0  0
  2  4  1  0  0  0
  4  5  1  0  0  0
  4  6  1  0  0  0
  6  7  1  0  0  0
  8  6  1  0  0  0
  9  8  1  0  0  0
 10 11  2  0  0  0
 10 12  1  0  0  0
 10 13  1  0  0  0
 10 14  1  0  0  0
 14 15  1  0  0  0
 15 16  2  0  0  0
 15 17  1  0  0  0
 15 18  1  0  0  0
 18 19  1  0  0  0
 19 20  1  0  0  0
 20 21  1  0  0  0
 20 22  1  0  0  0
 21 26  1  0  0  0
 22 23  1  0  0  0
 22 24  1  0  0  0
 24 25  1  0  0  0
 24 26  1  0  0  0
 26 27  1  0  0  0
 27 28  1  0  0  0
 27 29  1  0  0  0
 28 34  2  0  0  0
 29 30  2  0  0  0
 29 31  1  0  0  0
 31 32  1  0  0  0
 32 33  2  0  0  0
 32 34  1  0  0  0
  1 35  1  0  0  0
  2 36  1  0  0  0
  3 37  1  0  0  0
  4 38  1  0  0  0
  5 39  1  0  0  0
  6 40  1  0  0  0
  7 41  1  0  0  0
  8 42  1  0  0  0
  8 43  1  0  0  0
 12 44  1  0  0  0
 17 45  1  0  0  0
 19 46  1  0  0  0
 19 47  1  0  0  0
 20 48  1  0  0  0
 22 49  1  0  0  0
 23 50  1  0  0  0
 24 51  1  0  0  0
 25 52  1  0  0  0
 26 53  1  0  0  0
 28 54  1  0  0  0
 31 55  1  0  0  0
 34 56  1  0  0  0
M  END
$$$$
