6qgg_ligand
  -I-interpret- 

109114  0  0  0  0  0  0  0  0999 V2000
  -18.4780    6.5020   -7.7750 C   0  0  0  0  0
  -19.5250    7.1770   -7.1770 C   0  0  0  0  0
  -20.7880    7.2100   -7.7570 C   0  0  0  0  0
  -22.1260    8.0760   -6.9860 Cl  0  0  0  0  0
  -21.0130    6.5530   -8.9630 C   0  0  0  0  0
  -19.9760    5.8820   -9.5580 C   0  0  0  0  0
  -18.6980    5.8400   -8.9880 C   0  0  0  0  0
  -17.6310    5.0960   -9.6840 C   0  0  0  0  0
  -17.1240    4.0040   -8.9080 C   0  0  0  0  0
  -16.1280    3.1870   -9.3760 C   0  0  0  0  0
  -15.6060    3.4320  -10.6320 C   0  0  0  0  0
  -16.0760    4.4800  -11.4070 C   0  0  0  0  0
  -17.1140    5.3350  -10.9250 C   0  0  0  0  0
  -17.5980    6.4420  -11.7630 C   0  0  0  0  0
  -16.4420    7.4270  -11.9810 N   0  3  0  0  0
  -15.9120    7.9410  -10.6580 C   0  0  0  0  0
  -14.7650    8.9480  -10.8660 C   0  0  0  0  0
  -16.9710    8.5760  -12.7320 C   0  0  0  0  0
  -15.8880    9.6240  -12.9950 C   0  0  0  0  0
  -15.1580    9.9900  -11.7650 N   0  0  0  0  0
  -14.3650   11.1780  -11.7830 C   0  0  0  0  0
  -14.6370   12.1960  -12.6850 C   0  0  0  0  0
  -13.8700   13.3460  -12.7030 C   0  0  0  0  0
  -13.3250   11.3370  -10.9130 C   0  0  0  0  0
  -12.5560   12.4680  -10.9160 C   0  0  0  0  0
  -12.8240   13.4800  -11.8110 C   0  0  0  0  0
  -11.9720   14.7460  -11.8220 C   0  0  0  0  0
  -12.3340   15.7440  -12.5670 O   0  0  0  0  0
  -11.0010   14.8480  -10.8880 N   0  0  0  0  0
  -10.2390   16.1880  -10.5510 S   0  0  0  0  0
   -9.3270   15.8590   -9.4530 O   0  0  0  0  0
   -9.5900   16.7930  -11.7410 O   0  0  0  0  0
  -11.4290   17.3240   -9.9530 C   0  0  0  0  0
  -11.7960   17.2460   -8.6230 C   0  0  0  0  0
  -12.7270   18.1110   -8.1000 C   0  0  0  0  0
  -13.0290   17.9280   -6.6830 N   0  0  0  0  0
  -12.4290   17.0730   -6.0750 O   0  0  0  0  0
  -13.9070   18.6570   -6.1010 O   0  0  0  0  0
  -12.0120   18.3050  -10.8000 C   0  0  0  0  0
  -12.9620   19.1870  -10.2600 C   0  0  0  0  0
  -13.3150   19.0800   -8.8950 C   0  0  0  0  0
  -14.2740   19.9530   -8.3010 N   0  0  0  0  0
  -14.9720   20.9060   -9.0260 C   0  0  0  0  0
  -15.6760   21.8360   -7.9570 C   0  0  0  0  0
  -16.3440   23.0240   -8.6400 C   0  0  0  0  0
  -16.8840   24.0370   -7.6490 N   0  3  0  0  0
  -17.6280   23.3390   -6.5730 C   0  0  0  0  0
  -17.7940   24.9680   -8.3560 C   0  0  0  0  0
  -15.7860   24.7810   -7.0770 C   0  0  0  0  0
  -14.8400   25.1460   -8.2140 C   0  0  0  0  0
  -13.7360   24.6030   -8.2990 O   0  0  0  0  0
  -15.1790   25.9870   -9.0540 O   0  0  0  0  0
  -16.0320   20.2660   -9.9650 C   0  0  0  0  0
  -17.2570   19.1700   -9.1280 S   0  0  0  0  0
  -16.3990   17.5880   -9.2350 C   0  0  0  0  0
  -16.0280   17.0640  -10.4410 C   0  0  0  0  0
  -15.3790   15.8630  -10.4760 C   0  0  0  0  0
  -15.1010   15.1830   -9.2910 C   0  0  0  0  0
  -15.4820   15.7310   -8.1200 C   0  0  0  0  0
  -16.1140   16.9000   -8.0840 C   0  0  0  0  0
  -17.4933    6.4854   -7.3078 H   0  0  0  0  0
  -19.3573    7.6937   -6.2320 H   0  0  0  0  0
  -21.9989    6.5716   -9.4276 H   0  0  0  0  0
  -20.1516    5.3663  -10.5021 H   0  0  0  0  0
  -17.5416    3.8177   -7.9185 H   0  0  0  0  0
  -15.7553    2.3611   -8.7701 H   0  0  0  0  0
  -14.8132    2.7916  -11.0185 H   0  0  0  0  0
  -15.6493    4.6539  -12.3948 H   0  0  0  0  0
  -18.4294    6.9463  -11.2704 H   0  0  0  0  0
  -17.9467    6.0586  -12.7219 H   0  0  0  0  0
  -15.6880    6.9545  -12.4797 H   0  0  0  0  0
  -15.5310    7.0954  -10.0854 H   0  0  0  0  0
  -16.7233    8.4439  -10.1316 H   0  0  0  0  0
  -13.9095    8.4226  -11.2905 H   0  0  0  0  0
  -14.5096    9.3924   -9.9040 H   0  0  0  0  0
  -17.7617    9.0387  -12.1415 H   0  0  0  0  0
  -17.3439    8.2179  -13.6916 H   0  0  0  0  0
  -16.3704   10.5210  -13.3834 H   0  0  0  0  0
  -15.1729    9.2035  -13.7021 H   0  0  0  0  0
  -15.4640   12.0881  -13.3868 H   0  0  0  0  0
  -14.0891   14.1410  -13.4158 H   0  0  0  0  0
  -13.1023   10.5439  -10.1992 H   0  0  0  0  0
  -11.7313   12.5684  -10.2104 H   0  0  0  0  0
  -10.7450   14.0079  -10.3693 H   0  0  0  0  0
  -11.3422   16.4903   -7.9819 H   0  0  0  0  0
  -11.7269   18.3716  -11.8499 H   0  0  0  0  0
  -13.4238   19.9485  -10.8885 H   0  0  0  0  0
  -14.4537   19.8725   -7.3002 H   0  0  0  0  0
  -14.2937   21.4626   -9.6727 H   0  0  0  0  0
  -14.9244   22.2054   -7.2593 H   0  0  0  0  0
  -16.4350   21.2579   -7.4299 H   0  0  0  0  0
  -17.1826   22.6469   -9.2254 H   0  0  0  0  0
  -15.5949   23.5224   -9.2552 H   0  0  0  0  0
  -18.4577   22.7824   -7.0088 H   0  0  0  0  0
  -16.9582   22.6509   -6.0573 H   0  0  0  0  0
  -18.0132   24.0724   -5.8646 H   0  0  0  0  0
  -17.2447   25.4821   -9.1447 H   0  0  0  0  0
  -18.6190   24.4057   -8.7933 H   0  0  0  0  0
  -18.1855   25.6988   -7.6484 H   0  0  0  0  0
  -15.2686   24.1820   -6.3276 H   0  0  0  0  0
  -16.1516   25.6803   -6.5813 H   0  0  0  0  0
  -16.0587   26.3097   -8.8451 H   0  0  0  0  0
  -15.4876   19.6438  -10.6754 H   0  0  0  0  0
  -16.5960   21.0869  -10.4078 H   0  0  0  0  0
  -16.2476   17.5987  -11.3651 H   0  0  0  0  0
  -15.0777   15.4352  -11.4322 H   0  0  0  0  0
  -14.5839   14.2237   -9.3112 H   0  0  0  0  0
  -15.2686   15.2075   -7.1880 H   0  0  0  0  0
  -16.4108   17.3188   -7.1224 H   0  0  0  0  0
  1  2  4  0  0  0
  1  7  4  0  0  0
  2  3  4  0  0  0
  3  4  1  0  0  0
  3  5  4  0  0  0
  5  6  4  0  0  0
  6  7  4  0  0  0
  7  8  1  0  0  0
  8  9  4  0  0  0
  8 13  4  0  0  0
  9 10  4  0  0  0
 10 11  4  0  0  0
 11 12  4  0  0  0
 12 13  4  0  0  0
 13 14  1  0  0  0
 14 15  1  0  0  0
 15 16  1  0  0  0
 15 18  1  0  0  0
 16 17  1  0  0  0
 17 20  1  0  0  0
 18 19  1  0  0  0
 19 20  1  0  0  0
 20 21  1  0  0  0
 21 22  4  0  0  0
 21 24  4  0  0  0
 22 23  4  0  0  0
 23 26  4  0  0  0
 24 25  4  0  0  0
 25 26  4  0  0  0
 26 27  1  0  0  0
 27 28  2  0  0  0
 27 29  1  0  0  0
 29 30  1  0  0  0
 30 31  2  0  0  0
 30 32  2  0  0  0
 30 33  1  0  0  0
 33 34  4  0  0  0
 33 39  4  0  0  0
 34 35  4  0  0  0
 35 36  1  0  0  0
 35 41  4  0  0  0
 36 37  2  0  0  0
 36 38  2  0  0  0
 39 40  4  0  0  0
 40 41  4  0  0  0
 41 42  1  0  0  0
 42 43  1  0  0  0
 43 44  1  0  0  0
 43 53  1  0  0  0
 44 45  1  0  0  0
 45 46  1  0  0  0
 46 47  1  0  0  0
 46 48  1  0  0  0
 46 49  1  0  0  0
 49 50  1  0  0  0
 50 51  2  0  0  0
 50 52  1  0  0  0
 53 54  1  0  0  0
 54 55  1  0  0  0
 55 56  4  0  0  0
 55 60  4  0  0  0
 56 57  4  0  0  0
 57 58  4  0  0  0
 58 59  4  0  0  0
 59 60  4  0  0  0
  1 61  1  0  0  0
  2 62  1  0  0  0
  5 63  1  0  0  0
  6 64  1  0  0  0
  9 65  1  0  0  0
 10 66  1  0  0  0
 11 67  1  0  0  0
 12 68  1  0  0  0
 14 69  1  0  0  0
 14 70  1  0  0  0
 15 71  1  0  0  0
 16 72  1  0  0  0
 16 73  1  0  0  0
 17 74  1  0  0  0
 17 75  1  0  0  0
 18 76  1  0  0  0
 18 77  1  0  0  0
 19 78  1  0  0  0
 19 79  1  0  0  0
 22 80  1  0  0  0
 23 81  1  0  0  0
 24 82  1  0  0  0
 25 83  1  0  0  0
 29 84  1  0  0  0
 34 85  1  0  0  0
 39 86  1  0  0  0
 40 87  1  0  0  0
 42 88  1  0  0  0
 43 89  1  0  0  0
 44 90  1  0  0  0
 44 91  1  0  0  0
 45 92  1  0  0  0
 45 93  1  0  0  0
 47 94  1  0  0  0
 47 95  1  0  0  0
 47 96  1  0  0  0
 48 97  1  0  0  0
 48 98  1  0  0  0
 48 99  1  0  0  0
 49100  1  0  0  0
 49101  1  0  0  0
 52102  1  0  0  0
 53103  1  0  0  0
 53104  1  0  0  0
 56105  1  0  0  0
 57106  1  0  0  0
 58107  1  0  0  0
 59108  1  0  0  0
 60109  1  0  0  0
M  END
$$$$
