### 
### Created by X-TOOL on Mon Sep 10 21:12:44 2018
### 

@<TRIPOS>MOLECULE
1p04_ligand
   58    58     1     0     0
SMALL
GAST_HUCK


@<TRIPOS>ATOM
      1 N          13.2380   41.9020   18.6770 N.4       1 ALA         0.2377
      2 CA         13.9920   40.6470   18.5490 C.3       1 ALA         0.0621
      3 C          13.1620   39.3840   18.7420 C.2       1 ALA         0.2264
      4 O          12.3410   39.3140   19.6590 O.2       1 ALA        -0.3907
      5 CB         15.1100   40.5100   19.5720 C.3       1 ALA        -0.0040
      6 N          13.4290   38.4260   17.8940 N.am      1 ALA        -0.2613
      7 CA         12.7110   37.1310   17.9700 C.3       1 ALA         0.1285
      8 C          13.7120   36.0360   17.6000 C.2       1 ALA         0.2061
      9 O          14.6120   36.2890   16.8000 O.2       1 ALA        -0.3942
     10 CB         11.4560   37.0520   17.1130 C.3       1 ALA        -0.0244
     11 N          13.4610   34.8800   18.1820 N.am      1 PRO        -0.2498
     12 CA         14.2770   33.6860   17.8800 C.3       1 PRO         0.1336
     13 C          13.9370   33.1980   16.4560 C.2       1 PRO         0.2010
     14 O          12.7600   33.2410   16.0710 O.2       1 PRO        -0.3946
     15 CB         13.9570   32.7670   19.0630 C.3       1 PRO        -0.0104
     16 CG         12.8900   33.3930   19.8890 C.3       1 PRO        -0.0281
     17 CD         12.3360   34.5560   19.0920 C.3       1 PRO         0.0369
     18 N          14.9270   32.7400   15.7040 N.am      1 B2I        -0.2915
     19 CA         14.6640   32.2470   14.3290 C.3       1 B2I         0.0558
     20 CB         15.4980   33.0330   13.2840 C.3       1 B2I        -0.0299
     21 CG1        15.0520   34.5140   13.2660 C.3       1 B2I        -0.0524
     22 CG2        17.0120   33.0280   13.4650 C.3       1 B2I        -0.0615
     23 CD1        13.7200   34.6550   12.5380 C.3       1 B2I        -0.0650
     24 B          14.7420   30.7050   14.1510 B         1 B2I         0.7166
     25 O1         14.8830   30.1810   12.7180 O.3       1 B2I        -0.4967
     26 O2         13.8240   30.0190   15.0800 O.3       1 B2I        -0.4967
     27 H1         13.8593   42.6831   18.5358 H         1 ALA         0.2015
     28 H2         12.8322   41.9578   19.5980 H         1 ALA         0.2015
     29 H3         12.5055   41.9260   17.9850 H         1 ALA         0.2015
     30 H4         14.4261   40.6346   17.5384 H         1 ALA         0.1095
     31 H5         15.6307   39.5530   19.4201 H         1 ALA         0.0310
     32 H6         14.6848   40.5391   20.5860 H         1 ALA         0.0310
     33 H7         15.8228   41.3387   19.4494 H         1 ALA         0.0310
     34 H8         14.1231   38.5676   17.1882 H         1 ALA         0.1884
     35 H9         12.3984   36.9794   19.0137 H         1 ALA         0.0797
     36 H10        10.9925   36.0616   17.2320 H         1 ALA         0.0277
     37 H11        11.7226   37.2075   16.0572 H         1 ALA         0.0277
     38 H12        10.7457   37.8297   17.4303 H         1 ALA         0.0277
     39 H13        15.3495   33.9296   17.9003 H         1 PRO         0.0802
     40 H14        14.8604   32.6247   19.6742 H         1 PRO         0.0313
     41 H15        13.6098   31.7924   18.6893 H         1 PRO         0.0313
     42 H16        13.3107   33.7531   20.8394 H         1 PRO         0.0287
     43 H17        12.0936   32.6624   20.0939 H         1 PRO         0.0287
     44 H18        11.4393   34.2607   18.5274 H         1 PRO         0.0524
     45 H19        12.0942   35.4073   19.7453 H         1 PRO         0.0524
     46 H20        15.8591   32.7264   16.0658 H         1 B2I         0.1840
     47 H21        13.6138   32.5022   14.1243 H         1 B2I         0.0434
     48 H22        15.2829   32.5853   12.3025 H         1 B2I         0.0308
     49 H23        15.8137   35.1164   12.7494 H         1 B2I         0.0265
     50 H24        14.9404   34.8723   14.3000 H         1 B2I         0.0265
     51 H25        17.3756   31.9900   13.4837 H         1 B2I         0.0233
     52 H26        17.2697   33.5239   14.4125 H         1 B2I         0.0233
     53 H27        17.4830   33.5664   12.6294 H         1 B2I         0.0233
     54 H28        13.4151   35.7119   12.5327 H         1 B2I         0.0230
     55 H29        12.9552   34.0554   13.0533 H         1 B2I         0.0230
     56 H30        13.8285   34.2996   11.5027 H         1 B2I         0.0230
     57 H31        15.5045   30.7212   12.2442 H         1 B2I         0.1667
     58 H32        13.8443   30.4556   15.9235 H         1 B2I         0.1667
@<TRIPOS>BOND
     1    1    2 1  
     2    2    3 1  
     3    2    5 1  
     4    3    4 2  
     5    3    6 am 
     6    6    7 1  
     7    7    8 1  
     8    7   10 1  
     9    8    9 2  
    10    8   11 am 
    11   11   12 1  
    12   11   17 1  
    13   12   13 1  
    14   12   15 1  
    15   13   14 2  
    16   13   18 am 
    17   15   16 1  
    18   16   17 1  
    19   18   19 1  
    20   19   20 1  
    21   19   24 1  
    22   20   21 1  
    23   20   22 1  
    24   21   23 1  
    25   24   25 1  
    26   24   26 1  
    27    1   27 1  
    28    1   28 1  
    29    1   29 1  
    30    2   30 1  
    31    5   31 1  
    32    5   32 1  
    33    5   33 1  
    34    6   34 1  
    35    7   35 1  
    36   10   36 1  
    37   10   37 1  
    38   10   38 1  
    39   12   39 1  
    40   15   40 1  
    41   15   41 1  
    42   16   42 1  
    43   16   43 1  
    44   17   44 1  
    45   17   45 1  
    46   18   46 1  
    47   19   47 1  
    48   20   48 1  
    49   21   49 1  
    50   21   50 1  
    51   22   51 1  
    52   22   52 1  
    53   22   53 1  
    54   23   54 1  
    55   23   55 1  
    56   23   56 1  
    57   25   57 1  
    58   26   58 1  
@<TRIPOS>SUBSTRUCTURE
     1 ALA         1

