1p04_ligand
  -I-interpret- 

 58 58  0  0  0  0  0  0  0  0999 V2000
   13.2380   41.9020   18.6770 N   0  3  0  0  0
   13.9920   40.6470   18.5490 C   0  0  0  0  0
   13.1620   39.3840   18.7420 C   0  0  0  0  0
   12.3410   39.3140   19.6590 O   0  0  0  0  0
   15.1100   40.5100   19.5720 C   0  0  0  0  0
   13.4290   38.4260   17.8940 N   0  0  0  0  0
   12.7110   37.1310   17.9700 C   0  0  0  0  0
   13.7120   36.0360   17.6000 C   0  0  0  0  0
   14.6120   36.2890   16.8000 O   0  0  0  0  0
   11.4560   37.0520   17.1130 C   0  0  0  0  0
   13.4610   34.8800   18.1820 N   0  0  0  0  0
   14.2770   33.6860   17.8800 C   0  0  0  0  0
   13.9370   33.1980   16.4560 C   0  0  0  0  0
   12.7600   33.2410   16.0710 O   0  0  0  0  0
   13.9570   32.7670   19.0630 C   0  0  0  0  0
   12.8900   33.3930   19.8890 C   0  0  0  0  0
   12.3360   34.5560   19.0920 C   0  0  0  0  0
   14.9270   32.7400   15.7040 N   0  0  0  0  0
   14.6640   32.2470   14.3290 C   0  0  0  0  0
   15.4980   33.0330   13.2840 C   0  0  0  0  0
   15.0520   34.5140   13.2660 C   0  0  0  0  0
   17.0120   33.0280   13.4650 C   0  0  0  0  0
   13.7200   34.6550   12.5380 C   0  0  0  0  0
   14.7420   30.7050   14.1510 B   0  0  0  0  0
   14.8830   30.1810   12.7180 O   0  0  0  0  0
   13.8240   30.0190   15.0800 O   0  0  0  0  0
   12.5070   41.9321   17.9663 H   0  0  0  0  0
   12.8149   41.9500   19.6039 H   0  0  0  0  0
   13.8706   42.6919   18.5494 H   0  0  0  0  0
   14.3645   40.7220   17.5274 H   0  0  0  0  0
   14.6803   40.4483   20.5718 H   0  0  0  0  0
   15.6819   39.6056   19.3644 H   0  0  0  0  0
   15.7659   41.3784   19.5100 H   0  0  0  0  0
   14.1370   38.5704   17.1741 H   0  0  0  0  0
   12.3380   37.0059   18.9865 H   0  0  0  0  0
   11.7261   37.1708   16.0637 H   0  0  0  0  0
   10.9782   36.0832   17.2591 H   0  0  0  0  0
   10.7680   37.8455   17.4045 H   0  0  0  0  0
   15.3588   33.8050   17.8205 H   0  0  0  0  0
   14.8521   32.6219   19.6679 H   0  0  0  0  0
   13.6161   31.7994   18.6946 H   0  0  0  0  0
   13.2922   33.7361   20.8422 H   0  0  0  0  0
   12.1045   32.6717   20.1146 H   0  0  0  0  0
   11.4137   34.3135   18.5642 H   0  0  0  0  0
   12.0327   35.3972   19.7153 H   0  0  0  0  0
   15.8778   32.7261   16.0731 H   0  0  0  0  0
   13.6116   32.4577   14.1390 H   0  0  0  0  0
   15.2993   32.5002   12.3541 H   0  0  0  0  0
   15.8058   35.1069   12.7480 H   0  0  0  0  0
   14.9363   34.8639   14.2918 H   0  0  0  0  0
   17.2625   33.4655   14.4314 H   0  0  0  0  0
   17.3783   32.0022   13.4232 H   0  0  0  0  0
   17.4737   33.6127   12.6694 H   0  0  0  0  0
   13.8289   34.3024   11.5124 H   0  0  0  0  0
   12.9631   34.0604   13.0495 H   0  0  0  0  0
   13.4190   35.7026   12.5334 H   0  0  0  0  0
   14.9212   29.2219   12.7315 H   0  0  0  0  0
   13.8903   29.0700   14.9511 H   0  0  0  0  0
  1  2  1  0  0  0
  2  3  1  0  0  0
  2  5  1  0  0  0
  3  4  2  0  0  0
  3  6  1  0  0  0
  6  7  1  0  0  0
  7  8  1  0  0  0
  7 10  1  0  0  0
  8  9  2  0  0  0
  8 11  1  0  0  0
 11 12  1  0  0  0
 11 17  1  0  0  0
 12 13  1  0  0  0
 12 15  1  0  0  0
 13 14  2  0  0  0
 13 18  1  0  0  0
 15 16  1  0  0  0
 16 17  1  0  0  0
 18 19  1  0  0  0
 19 20  1  0  0  0
 19 24  1  0  0  0
 20 21  1  0  0  0
 20 22  1  0  0  0
 21 23  1  0  0  0
 24 25  1  0  0  0
 24 26  1  0  0  0
  1 27  1  0  0  0
  1 28  1  0  0  0
  1 29  1  0  0  0
  2 30  1  0  0  0
  5 31  1  0  0  0
  5 32  1  0  0  0
  5 33  1  0  0  0
  6 34  1  0  0  0
  7 35  1  0  0  0
 10 36  1  0  0  0
 10 37  1  0  0  0
 10 38  1  0  0  0
 12 39  1  0  0  0
 15 40  1  0  0  0
 15 41  1  0  0  0
 16 42  1  0  0  0
 16 43  1  0  0  0
 17 44  1  0  0  0
 17 45  1  0  0  0
 18 46  1  0  0  0
 19 47  1  0  0  0
 20 48  1  0  0  0
 21 49  1  0  0  0
 21 50  1  0  0  0
 22 51  1  0  0  0
 22 52  1  0  0  0
 22 53  1  0  0  0
 23 54  1  0  0  0
 23 55  1  0  0  0
 23 56  1  0  0  0
 25 57  1  0  0  0
 26 58  1  0  0  0
M  END
$$$$
