5ggk_ligand
  -I-interpret- 

 36 37  0  0  0  0  0  0  0  0999 V2000
  -26.7670  -18.3060  -11.0490 C   0  0  0  0  0
  -27.9710  -18.5930  -10.1610 C   0  0  0  0  0
  -27.8040  -17.8650   -8.8370 C   0  0  0  0  0
  -26.4470  -18.2250   -8.2160 C   0  0  0  0  0
  -25.3030  -17.9590   -9.2030 C   0  0  0  0  0
  -23.9450  -18.4050   -8.6770 C   0  0  0  0  0
  -26.1970  -18.8500  -13.3330 C   0  0  0  0  0
  -25.1790  -17.8970  -13.3360 C   0  0  0  0  0
  -24.5000  -17.6270  -14.5100 C   0  0  0  0  0
  -24.8420  -18.3240  -15.6560 C   0  0  0  0  0
  -25.8440  -19.2780  -15.6450 C   0  0  0  0  0
  -26.5320  -19.5410  -14.4820 C   0  0  0  0  0
  -24.1850  -18.0950  -16.8590 N   0  0  0  0  0
  -26.8960  -19.1360  -12.1970 O   0  0  0  0  0
  -28.0730  -20.0030   -9.9300 O   0  0  0  0  0
  -28.8930  -18.2080   -7.9700 O   0  0  0  0  0
  -26.2510  -17.4410   -7.0290 O   0  0  0  0  0
  -25.5460  -18.6820  -10.4080 O   0  0  0  0  0
  -23.9120  -19.8260   -8.4200 O   0  0  0  0  0
  -24.5640  -18.8150  -17.9730 O   0  0  0  0  0
  -23.1500  -17.1900  -16.9070 O   0  0  0  0  0
  -26.7394  -17.2411  -11.2798 H   0  0  0  0  0
  -28.8793  -18.2456  -10.6533 H   0  0  0  0  0
  -27.8204  -16.7864   -8.9936 H   0  0  0  0  0
  -26.4450  -19.2868   -7.9697 H   0  0  0  0  0
  -25.2759  -16.8810   -9.3622 H   0  0  0  0  0
  -23.7508  -17.8821   -7.7406 H   0  0  0  0  0
  -23.1922  -18.1748   -9.4309 H   0  0  0  0  0
  -24.9201  -17.3682  -12.4187 H   0  0  0  0  0
  -23.7086  -16.8778  -14.5326 H   0  0  0  0  0
  -26.0887  -19.8216  -16.5576 H   0  0  0  0  0
  -27.3297  -20.2837  -14.4676 H   0  0  0  0  0
  -28.1782  -20.4569  -10.7694 H   0  0  0  0  0
  -29.7225  -17.9692   -8.3901 H   0  0  0  0  0
  -26.9682  -17.6095   -6.4135 H   0  0  0  0  0
  -23.0440  -20.0704   -8.0908 H   0  0  0  0  0
  1  2  1  0  0  0
 14  1  1  0  0  0
  1 18  1  0  0  0
  2  3  1  0  0  0
  2 15  1  0  0  0
  3  4  1  0  0  0
  3 16  1  0  0  0
  5  4  1  0  0  0
  4 17  1  0  0  0
  5  6  1  0  0  0
 18  5  1  0  0  0
  6 19  1  0  0  0
  7  8  4  0  0  0
  7 12  4  0  0  0
  7 14  1  0  0  0
  8  9  4  0  0  0
  9 10  4  0  0  0
 10 11  4  0  0  0
 10 13  1  0  0  0
 11 12  4  0  0  0
 13 20  2  0  0  0
 13 21  2  0  0  0
  1 22  1  0  0  0
  2 23  1  0  0  0
  3 24  1  0  0  0
  4 25  1  0  0  0
  5 26  1  0  0  0
  6 27  1  0  0  0
  6 28  1  0  0  0
  8 29  1  0  0  0
  9 30  1  0  0  0
 11 31  1  0  0  0
 12 32  1  0  0  0
 15 33  1  0  0  0
 16 34  1  0  0  0
 17 35  1  0  0  0
 19 36  1  0  0  0
M  END
$$$$
