4q7p_ligand
  -I-interpret- 

 16 16  0  0  0  0  0  0  0  0999 V2000
   14.9530    0.1600   16.9840 S   0  0  0  0  0
   15.4520    1.3640   15.8250 C   0  0  0  0  0
   15.0340    2.7110   15.9760 C   0  0  0  0  0
   14.2420    3.1260   17.1990 C   0  0  0  0  0
   15.3750    3.6280   15.0510 C   0  0  0  0  0
   16.1540    3.2590   13.9590 C   0  0  0  0  0
   16.5240    1.9430   13.7910 C   0  0  0  0  0
   16.2010    1.0040   14.7560 N   0  0  0  0  0
   16.5560   -0.2740   14.5890 O   0  0  0  0  0
   14.8067    3.8701   17.7607 H   0  0  0  0  0
   13.2888    3.5519   16.8857 H   0  0  0  0  0
   14.0626    2.2536   17.8274 H   0  0  0  0  0
   15.0406    4.6599   15.1578 H   0  0  0  0  0
   16.4714    4.0111   13.2367 H   0  0  0  0  0
   17.0712    1.6406   12.8981 H   0  0  0  0  0
   16.2583   -0.7887   15.3427 H   0  0  0  0  0
  1  2  2  0  0  0
  2  3  1  0  0  0
  2  8  1  0  0  0
  3  4  1  0  0  0
  3  5  2  0  0  0
  5  6  1  0  0  0
  6  7  2  0  0  0
  7  8  1  0  0  0
  8  9  1  0  0  0
  4 10  1  0  0  0
  4 11  1  0  0  0
  4 12  1  0  0  0
  5 13  1  0  0  0
  6 14  1  0  0  0
  7 15  1  0  0  0
  9 16  1  0  0  0
M  END
$$$$
