2etk_ligand
  -I-interpret- 

 39 41  0  0  0  0  0  0  0  0999 V2000
   50.1370   98.4500   24.9940 O   0  0  0  0  0
   50.2380   99.5810   25.5210 C   0  0  0  0  0
   49.9040  100.6800   24.8260 N   0  0  0  0  0
   49.9940  101.9200   25.3480 C   0  0  0  0  0
   50.4390  102.1680   26.6510 C   0  0  0  0  0
   50.8150  101.1100   27.4760 C   0  0  0  0  0
   51.3050  101.2740   28.8820 C   0  0  0  0  0
   51.6420  100.1120   29.5840 C   0  0  0  0  0
   51.5380   98.8390   29.0160 C   0  0  0  0  0
   51.0890   98.6440   27.7090 C   0  0  0  0  0
   50.7230   99.7330   26.9210 C   0  0  0  0  0
   51.4400  102.7120   29.5830 S   0  0  0  0  0
   52.1500  103.6120   28.7190 O   0  0  0  0  0
   50.1220  103.2420   29.7990 O   0  0  0  0  0
   52.1950  102.6000   30.9140 N   0  0  0  0  0
   53.6590  102.7090   30.9350 C   0  0  0  0  0
   54.0230  104.0180   31.6420 C   0  0  0  0  0
   53.8410  103.9030   33.1570 C   0  0  0  0  0
   52.4730  104.1420   33.6000 N   0  3  0  0  0
   51.2960  103.7010   32.8630 C   0  0  0  0  0
   51.4670  102.3510   32.1620 C   0  0  0  0  0
   49.5700  100.5731   23.8682 H   0  0  0  0  0
   49.7069  102.7680   24.7263 H   0  0  0  0  0
   50.4917  103.1916   27.0218 H   0  0  0  0  0
   51.9983  100.2024   30.6102 H   0  0  0  0  0
   51.8165   97.9707   29.6131 H   0  0  0  0  0
   51.0244   97.6346   27.3027 H   0  0  0  0  0
   54.0525  102.7067   29.9185 H   0  0  0  0  0
   54.0933  101.8607   31.4639 H   0  0  0  0  0
   53.3657  104.8053   31.2730 H   0  0  0  0  0
   55.0690  104.2442   31.4350 H   0  0  0  0  0
   54.4719  104.6614   33.6205 H   0  0  0  0  0
   54.1034  102.8840   33.4414 H   0  0  0  0  0
   52.3966  105.1585   33.5628 H   0  0  0  0  0
   52.4161  103.6015   34.4632 H   0  0  0  0  0
   51.1030  104.4440   32.0892 H   0  0  0  0  0
   50.4868  103.5894   33.5846 H   0  0  0  0  0
   52.0181  101.6563   32.7959 H   0  0  0  0  0
   50.4965  101.8993   31.9568 H   0  0  0  0  0
  1  2  2  0  0  0
  2  3  1  0  0  0
  2 11  1  0  0  0
  3  4  1  0  0  0
  4  5  2  0  0  0
  5  6  1  0  0  0
  6  7  4  0  0  0
  6 11  4  0  0  0
  7  8  4  0  0  0
  7 12  1  0  0  0
  8  9  4  0  0  0
  9 10  4  0  0  0
 10 11  4  0  0  0
 12 13  2  0  0  0
 12 14  2  0  0  0
 12 15  1  0  0  0
 15 16  1  0  0  0
 15 21  1  0  0  0
 16 17  1  0  0  0
 17 18  1  0  0  0
 18 19  1  0  0  0
 19 20  1  0  0  0
 20 21  1  0  0  0
  3 22  1  0  0  0
  4 23  1  0  0  0
  5 24  1  0  0  0
  8 25  1  0  0  0
  9 26  1  0  0  0
 10 27  1  0  0  0
 16 28  1  0  0  0
 16 29  1  0  0  0
 17 30  1  0  0  0
 17 31  1  0  0  0
 18 32  1  0  0  0
 18 33  1  0  0  0
 19 34  1  0  0  0
 19 35  1  0  0  0
 20 36  1  0  0  0
 20 37  1  0  0  0
 21 38  1  0  0  0
 21 39  1  0  0  0
M  END
$$$$
