4nga_ligand
  -I-interpret- 

 80 83  0  0  0  0  0  0  0  0999 V2000
    5.8160   36.8360   25.9100 C   0  0  0  0  0
    3.7450   35.8240   25.2270 C   0  0  0  0  0
    5.1090   36.0750   25.0040 C   0  0  0  0  0
    3.0910   36.3570   26.3990 C   0  0  0  0  0
    3.8520   37.1380   27.3300 C   0  0  0  0  0
    5.1990   37.3620   27.0800 C   0  0  0  0  0
    0.9680   36.3570   27.7110 C   0  0  0  0  0
    7.2710   37.1470   25.6230 C   0  0  0  0  0
    4.8910   39.4530   20.0730 C   0  0  0  0  0
    3.7290   34.3110   23.3400 C   0  0  0  0  0
    3.7840   38.7770   20.6020 C   0  0  0  0  0
    9.0050   34.6030   31.4180 C   0  0  0  0  0
    9.6060   33.3790   31.2530 N   0  0  0  0  0
    9.7730   32.8930   29.9560 C   0  0  0  0  0
    9.3400   33.6240   28.7910 C   0  0  0  0  0
    8.7080   34.9020   29.0340 C   0  0  0  0  0
    8.5470   35.3820   30.3670 C   0  0  0  0  0
    9.5580   33.1740   27.4440 C   0  0  0  0  0
    9.1750   33.9680   26.3940 C   0  0  0  0  0
    8.5050   35.2450   26.6440 C   0  0  0  0  0
    8.2790   35.6910   27.9500 C   0  0  0  0  0
    8.1060   35.9540   25.5190 N   0  0  0  0  0
    7.4110   37.9610   24.3600 C   0  0  0  0  0
    7.8460   37.4940   23.2880 O   0  0  0  0  0
    6.9850   39.2880   24.5120 N   0  0  0  0  0
    3.0000   35.0520   24.3320 O   0  0  0  0  0
    1.7370   36.0310   26.5250 O   0  0  0  0  0
   -0.4540   36.3050   27.2790 C   0  0  0  0  0
    1.2540   35.4160   28.8580 C   0  0  0  0  0
    2.7880   33.4230   22.6840 C   0  0  0  0  0
    6.8980   40.1700   23.3470 C   0  0  0  0  0
    5.8400   39.7060   22.3180 C   0  0  0  0  0
    4.7130   39.0290   22.8380 C   0  0  0  0  0
    3.6950   38.5670   22.0040 C   0  0  0  0  0
    5.9580   39.9450   20.8850 C   0  0  0  0  0
    7.1950   40.7830   20.0890 S   0  0  0  0  0
    6.6440   41.3900   18.9310 O   0  0  0  0  0
    7.8910   41.6500   20.9650 O   0  0  0  0  0
    8.3260   39.5390   19.4700 C   0  0  0  0  0
    8.7250   38.4200   20.4080 C   0  0  0  0  0
    9.6150   40.1860   19.0320 C   0  0  0  0  0
   10.4060   31.6660   29.8300 N   0  0  0  0  0
    5.6045   35.6710   24.1212 H   0  0  0  0  0
    3.3795   37.5501   28.2216 H   0  0  0  0  0
    5.7895   37.9459   27.7860 H   0  0  0  0  0
    1.2319   37.3405   28.0999 H   0  0  0  0  0
    7.6230   37.7224   26.4792 H   0  0  0  0  0
    4.9402   39.6103   18.9955 H   0  0  0  0  0
    4.5334   33.7402   23.8040 H   0  0  0  0  0
    4.1847   34.9869   22.6164 H   0  0  0  0  0
    2.9959   38.4145   19.9420 H   0  0  0  0  0
    8.8813   34.9830   32.4321 H   0  0  0  0  0
    8.0721   36.3447   30.5562 H   0  0  0  0  0
   10.0252   32.2069   27.2580 H   0  0  0  0  0
    9.3699   33.6475   25.3706 H   0  0  0  0  0
    7.7751   36.6412   28.1270 H   0  0  0  0  0
    8.4035   35.6336   24.5975 H   0  0  0  0  0
    6.7352   39.6396   25.4363 H   0  0  0  0  0
   -0.6172   37.0311   26.4826 H   0  0  0  0  0
   -0.6849   35.3045   26.9132 H   0  0  0  0  0
   -1.0985   36.5415   28.1257 H   0  0  0  0  0
    1.0027   34.3975   28.5620 H   0  0  0  0  0
    2.3117   35.4704   29.1158 H   0  0  0  0  0
    0.6532   35.7037   29.7208 H   0  0  0  0  0
    2.3522   32.7488   23.4213 H   0  0  0  0  0
    1.9987   34.0125   22.2175 H   0  0  0  0  0
    3.3085   32.8428   21.9221 H   0  0  0  0  0
    7.8690   40.1640   22.8518 H   0  0  0  0  0
    6.6076   41.1596   23.6997 H   0  0  0  0  0
    4.6381   38.8647   23.9129 H   0  0  0  0  0
    2.8350   38.0471   22.4262 H   0  0  0  0  0
    7.7464   39.0820   18.6679 H   0  0  0  0  0
    9.2149   38.8409   21.2860 H   0  0  0  0  0
    7.8352   37.8705   20.7153 H   0  0  0  0  0
    9.4112   37.7456   19.8958 H   0  0  0  0  0
    9.4076   40.9078   18.2420 H   0  0  0  0  0
   10.0711   40.6955   19.8808 H   0  0  0  0  0
   10.2951   39.4210   18.6576 H   0  0  0  0  0
   10.7224   31.1676   30.6618 H   0  0  0  0  0
   10.5553   31.2617   28.9055 H   0  0  0  0  0
  1  3  4  0  0  0
  1  6  4  0  0  0
  8  1  1  0  0  0
  3  2  4  0  0  0
  2  4  4  0  0  0
  2 26  1  0  0  0
  5  4  4  0  0  0
  4 27  1  0  0  0
  6  5  4  0  0  0
 27  7  1  0  0  0
  7 28  1  0  0  0
  7 29  1  0  0  0
  8 22  1  0  0  0
 23  8  1  0  0  0
  9 11  4  0  0  0
 35  9  4  0  0  0
 26 10  1  0  0  0
 10 30  1  0  0  0
 11 34  4  0  0  0
 12 13  4  0  0  0
 17 12  4  0  0  0
 14 13  4  0  0  0
 15 14  4  0  0  0
 14 42  1  0  0  0
 16 15  4  0  0  0
 18 15  4  0  0  0
 16 17  4  0  0  0
 21 16  4  0  0  0
 19 18  4  0  0  0
 20 19  4  0  0  0
 20 21  4  0  0  0
 22 20  1  0  0  0
 23 24  2  0  0  0
 25 23  1  0  0  0
 31 25  1  0  0  0
 32 31  1  0  0  0
 32 33  4  0  0  0
 32 35  4  0  0  0
 33 34  4  0  0  0
 35 36  1  0  0  0
 36 37  2  0  0  0
 36 38  2  0  0  0
 36 39  1  0  0  0
 39 40  1  0  0  0
 39 41  1  0  0  0
  3 43  1  0  0  0
  5 44  1  0  0  0
  6 45  1  0  0  0
  7 46  1  0  0  0
  8 47  1  0  0  0
  9 48  1  0  0  0
 10 49  1  0  0  0
 10 50  1  0  0  0
 11 51  1  0  0  0
 12 52  1  0  0  0
 17 53  1  0  0  0
 18 54  1  0  0  0
 19 55  1  0  0  0
 21 56  1  0  0  0
 22 57  1  0  0  0
 25 58  1  0  0  0
 28 59  1  0  0  0
 28 60  1  0  0  0
 28 61  1  0  0  0
 29 62  1  0  0  0
 29 63  1  0  0  0
 29 64  1  0  0  0
 30 65  1  0  0  0
 30 66  1  0  0  0
 30 67  1  0  0  0
 31 68  1  0  0  0
 31 69  1  0  0  0
 33 70  1  0  0  0
 34 71  1  0  0  0
 39 72  1  0  0  0
 40 73  1  0  0  0
 40 74  1  0  0  0
 40 75  1  0  0  0
 41 76  1  0  0  0
 41 77  1  0  0  0
 41 78  1  0  0  0
 42 79  1  0  0  0
 42 80  1  0  0  0
M  END
$$$$
