1qbr_ligand
  -I-interpret- 

 92 98  0  0  0  0  0  0  0  0999 V2000
   -8.9560   15.3120   27.8810 C   0  0  0  0  0
   -9.6230   14.8260   30.1330 C   0  0  0  0  0
  -10.9230   16.5360   28.7990 C   0  0  0  0  0
  -10.6460   18.0070   28.5720 C   0  0  0  0  0
  -10.1090   18.3210   27.2080 C   0  0  0  0  0
   -8.7520   17.6730   27.0350 C   0  0  0  0  0
   -7.9880   15.6710   25.7060 C   0  0  0  0  0
   -9.4680   15.5820   31.4380 C   0  0  0  0  0
  -10.1490   15.0870   32.5620 C   0  0  0  0  0
  -10.0330   15.7350   33.8150 C   0  0  0  0  0
   -9.2250   16.8920   33.9420 C   0  0  0  0  0
   -8.5300   17.3960   32.8200 C   0  0  0  0  0
   -8.6570   16.7390   31.5700 C   0  0  0  0  0
  -10.7590   15.1670   35.0100 C   0  0  0  0  0
  -11.6710   13.0580   35.9090 C   0  0  0  0  0
  -12.3190   11.2370   37.0760 C   0  0  0  0  0
  -12.8090   12.2010   37.9730 C   0  0  0  0  0
  -12.0010   15.9090   27.8960 C   0  0  0  0  0
  -12.5630   14.6470   28.4930 C   0  0  0  0  0
  -12.1580   13.3910   27.9990 C   0  0  0  0  0
  -12.6060   12.2220   28.6510 C   0  0  0  0  0
  -13.4550   12.3040   29.7740 C   0  0  0  0  0
  -13.8720   13.5680   30.2560 C   0  0  0  0  0
  -13.4240   14.7360   29.6120 C   0  0  0  0  0
   -7.6640   18.1960   27.9900 C   0  0  0  0  0
   -6.3260   18.0760   27.3190 C   0  0  0  0  0
   -6.0210   18.9560   26.2550 C   0  0  0  0  0
   -4.7990   18.8260   25.5740 C   0  0  0  0  0
   -3.8910   17.8180   25.9710 C   0  0  0  0  0
   -4.2000   16.9470   27.0360 C   0  0  0  0  0
   -5.4260   17.0650   27.7200 C   0  0  0  0  0
   -8.6870   15.9400   24.4030 C   0  0  0  0  0
   -7.9080   16.2330   23.2690 C   0  0  0  0  0
   -8.5350   16.5210   22.0330 C   0  0  0  0  0
   -9.9420   16.4990   21.9300 C   0  0  0  0  0
  -10.7180   16.1950   23.0650 C   0  0  0  0  0
  -10.0960   15.9180   24.3060 C   0  0  0  0  0
   -7.7220   16.8850   20.8330 C   0  0  0  0  0
   -5.5340   16.7010   19.7570 C   0  0  0  0  0
   -3.8060   16.3680   18.3150 C   0  0  0  0  0
   -4.4360   17.4240   17.6230 C   0  0  0  0  0
   -9.7780   15.6110   28.8990 N   0  0  0  0  0
   -8.6510   16.1960   26.9140 N   0  0  0  0  0
  -11.0360   13.8670   34.8750 N   0  0  0  0  0
  -11.6980   11.7240   35.9440 N   0  0  0  0  0
   -6.4460   16.4610   20.8690 N   0  0  0  0  0
   -4.4230   15.9820   19.4880 N   0  0  0  0  0
   -8.4460   14.2020   27.8400 O   0  0  0  0  0
  -11.8430   18.6910   28.7380 O   0  0  0  0  0
   -9.9190   19.7200   27.0510 O   0  0  0  0  0
  -11.0610   15.8000   36.0140 O   0  0  0  0  0
   -8.1760   17.4900   19.8740 O   0  0  0  0  0
  -12.4170   13.6750   37.2720 S   0  0  0  0  0
   -5.7880   17.8570   18.5520 S   0  0  0  0  0
   -8.6947   14.2686   30.0081 H   0  0  0  0  0
  -10.5479   14.2581   30.2342 H   0  0  0  0  0
  -11.3151   16.6308   29.8116 H   0  0  0  0  0
   -9.8797   18.3078   29.2865 H   0  0  0  0  0
  -10.8268   17.9501   26.4763 H   0  0  0  0  0
   -8.5631   18.0247   26.0207 H   0  0  0  0  0
   -7.9573   14.5874   25.8195 H   0  0  0  0  0
   -7.0216   16.1715   25.6446 H   0  0  0  0  0
  -10.7715   14.1971   32.4688 H   0  0  0  0  0
   -9.1396   17.3935   34.9060 H   0  0  0  0  0
   -7.9019   18.2818   32.9144 H   0  0  0  0  0
   -8.1258   17.1269   30.7008 H   0  0  0  0  0
  -12.4232   10.1682   37.2631 H   0  0  0  0  0
  -13.3288   12.0296   38.9156 H   0  0  0  0  0
  -11.5445   15.6616   26.9376 H   0  0  0  0  0
  -12.8136   16.6266   27.7827 H   0  0  0  0  0
  -11.5084   13.3232   27.1263 H   0  0  0  0  0
  -12.2923   11.2453   28.2825 H   0  0  0  0  0
  -13.7903   11.3937   30.2711 H   0  0  0  0  0
  -14.5346   13.6359   31.1188 H   0  0  0  0  0
  -13.7415   15.7129   29.9766 H   0  0  0  0  0
   -7.6684   17.6096   28.9088 H   0  0  0  0  0
   -7.8603   19.2399   28.2346 H   0  0  0  0  0
   -6.7302   19.7311   25.9647 H   0  0  0  0  0
   -4.5539   19.4948   24.7489 H   0  0  0  0  0
   -2.9407   17.7128   25.4477 H   0  0  0  0  0
   -3.4863   16.1781   27.3317 H   0  0  0  0  0
   -5.6740   16.3911   28.5401 H   0  0  0  0  0
   -6.8205   16.2383   23.3421 H   0  0  0  0  0
  -10.4254   16.7160   20.9775 H   0  0  0  0  0
  -11.8050   16.1728   22.9874 H   0  0  0  0  0
  -10.7016   15.6888   25.1828 H   0  0  0  0  0
   -2.8967   15.8909   17.9493 H   0  0  0  0  0
   -4.1181   17.8714   16.6813 H   0  0  0  0  0
  -10.7884   13.4130   33.9958 H   0  0  0  0  0
   -6.1092   15.9609   21.6917 H   0  0  0  0  0
  -12.2011   18.5006   29.6081 H   0  0  0  0  0
  -10.7609   20.1697   27.1541 H   0  0  0  0  0
  1 48  2  0  0  0
  1 43  1  0  0  0
  1 42  1  0  0  0
 42  3  1  0  0  0
 42  2  1  0  0  0
  2  8  1  0  0  0
  8 13  4  0  0  0
  8  9  4  0  0  0
  9 10  4  0  0  0
 10 14  1  0  0  0
 10 11  4  0  0  0
 11 12  4  0  0  0
 12 13  4  0  0  0
 14 51  2  0  0  0
 14 44  1  0  0  0
 44 15  1  0  0  0
 15 45  4  0  0  0
 15 53  4  0  0  0
 53 17  4  0  0  0
 17 16  4  0  0  0
 16 45  4  0  0  0
  3 18  1  0  0  0
  3  4  1  0  0  0
  4 49  1  0  0  0
  4  5  1  0  0  0
  5 50  1  0  0  0
  5  6  1  0  0  0
  6 43  1  0  0  0
  6 25  1  0  0  0
 25 26  1  0  0  0
 26 31  4  0  0  0
 26 27  4  0  0  0
 27 28  4  0  0  0
 28 29  4  0  0  0
 29 30  4  0  0  0
 30 31  4  0  0  0
 43  7  1  0  0  0
  7 32  1  0  0  0
 32 37  4  0  0  0
 32 33  4  0  0  0
 33 34  4  0  0  0
 34 38  1  0  0  0
 34 35  4  0  0  0
 35 36  4  0  0  0
 36 37  4  0  0  0
 38 46  1  0  0  0
 38 52  2  0  0  0
 46 39  1  0  0  0
 39 47  4  0  0  0
 39 54  4  0  0  0
 54 41  4  0  0  0
 41 40  4  0  0  0
 40 47  4  0  0  0
 18 19  1  0  0  0
 19 24  4  0  0  0
 19 20  4  0  0  0
 20 21  4  0  0  0
 21 22  4  0  0  0
 22 23  4  0  0  0
 23 24  4  0  0  0
  2 55  1  0  0  0
  2 56  1  0  0  0
  3 57  1  0  0  0
  4 58  1  0  0  0
  5 59  1  0  0  0
  6 60  1  0  0  0
  7 61  1  0  0  0
  7 62  1  0  0  0
  9 63  1  0  0  0
 11 64  1  0  0  0
 12 65  1  0  0  0
 13 66  1  0  0  0
 16 67  1  0  0  0
 17 68  1  0  0  0
 18 69  1  0  0  0
 18 70  1  0  0  0
 20 71  1  0  0  0
 21 72  1  0  0  0
 22 73  1  0  0  0
 23 74  1  0  0  0
 24 75  1  0  0  0
 25 76  1  0  0  0
 25 77  1  0  0  0
 27 78  1  0  0  0
 28 79  1  0  0  0
 29 80  1  0  0  0
 30 81  1  0  0  0
 31 82  1  0  0  0
 33 83  1  0  0  0
 35 84  1  0  0  0
 36 85  1  0  0  0
 37 86  1  0  0  0
 40 87  1  0  0  0
 41 88  1  0  0  0
 44 89  1  0  0  0
 46 90  1  0  0  0
 49 91  1  0  0  0
 50 92  1  0  0  0
M  END
$$$$
