6oqb_ligand
  -I-interpret- 

 80 85  0  0  0  0  0  0  0  0999 V2000
   -0.6660    1.8310  103.9650 C   0  0  0  0  0
    0.2060    3.0620  103.9160 C   0  0  0  0  0
    1.2920    2.9350  102.8050 C   0  0  0  0  0
    2.4680    3.8350  103.2610 C   0  0  0  0  0
    3.4360    3.1110  104.1710 C   0  0  0  0  0
    4.3520    2.2160  103.4080 C   0  0  0  0  0
    5.6040    2.0300  103.7950 C   0  0  0  0  0
    6.4620    0.9780  103.1670 C   0  0  0  0  0
    6.8670    0.1500  104.2760 O   0  0  0  0  0
    7.6860    1.5200  102.4400 C   0  0  0  0  0
    8.4270    2.7350  103.0270 C   0  0  0  0  0
    8.6260    3.2680  101.5820 C   0  0  0  0  0
    7.4500    2.3610  101.1570 C   0  0  0  0  0
    7.5950    1.5060   99.9010 C   0  0  0  0  0
    7.3210    2.2450   98.6190 N   0  0  0  0  0
    8.3830    3.1370   98.1670 C   0  0  0  0  0
    8.7960    2.7640   96.7260 C   0  0  0  0  0
    9.4260    1.3460   96.6910 C   0  0  0  0  0
   10.8630    1.3850   97.2100 C   0  0  0  0  0
   11.6860    2.1820   96.2030 C   0  0  0  0  0
   11.1040    3.5350   95.9510 C   0  0  0  0  0
   11.9530    4.5010   95.4460 C   0  0  0  0  0
   11.4630    5.7770   95.1930 C   0  0  0  0  0
   12.5610    6.9940   94.5730 Cl  0  0  0  0  0
   10.1530    6.1130   95.4050 C   0  0  0  0  0
    9.3010    5.1350   95.9290 C   0  0  0  0  0
    9.7610    3.8250   96.1900 C   0  0  0  0  0
    7.5300    2.7040   95.8610 C   0  0  0  0  0
    6.6140    3.7610   96.2420 O   0  0  0  0  0
    5.6740    3.3800   97.1730 C   0  0  0  0  0
    4.3510    3.7860   96.8920 C   0  0  0  0  0
    3.3280    3.4610   97.7640 C   0  0  0  0  0
    3.6320    2.7050   98.8870 C   0  0  0  0  0
    4.9070    2.2900   99.1830 C   0  0  0  0  0
    5.9870    2.6250   98.3270 C   0  0  0  0  0
    2.6050    2.3150   99.8550 C   0  0  0  0  0
    2.4530    1.2060  100.3370 O   0  0  0  0  0
    1.8050    3.3900  100.2380 N   0  0  0  0  0
    0.5630    3.3020  101.2980 S   0  0  0  0  0
   -0.2830    2.2670  100.8690 O   0  0  0  0  0
    0.0750    4.6520  101.3590 O   0  0  0  0  0
   -1.1628    1.7007  103.0036 H   0  0  0  0  0
   -0.0486    0.9582  104.1776 H   0  0  0  0  0
   -1.4141    1.9482  104.7491 H   0  0  0  0  0
    0.7034    3.1762  104.8791 H   0  0  0  0  0
   -0.4211    3.9256  103.6943 H   0  0  0  0  0
    1.7055    1.9370  102.6596 H   0  0  0  0  0
    2.0514    4.6758  103.8155 H   0  0  0  0  0
    3.0145    4.1488  102.3717 H   0  0  0  0  0
    2.8601    2.4992  104.8654 H   0  0  0  0  0
    4.0395    3.8556  104.6901 H   0  0  0  0  0
    3.9848    1.7066  102.5171 H   0  0  0  0  0
    6.0176    2.6552  104.5863 H   0  0  0  0  0
    5.9060    0.4501  102.3923 H   0  0  0  0  0
    7.4284   -0.5598  103.9557 H   0  0  0  0  0
    8.1624    0.5402  102.4079 H   0  0  0  0  0
    9.2791    2.5994  103.6931 H   0  0  0  0  0
    7.9599    3.3568  103.7908 H   0  0  0  0  0
    9.5943    3.2139  101.0844 H   0  0  0  0  0
    8.6272    4.3362  101.3652 H   0  0  0  0  0
    6.5074    2.8423  100.8963 H   0  0  0  0  0
    6.8627    0.7018   99.9723 H   0  0  0  0  0
    8.6293    1.1644   99.8613 H   0  0  0  0  0
    9.2444    3.0378   98.8275 H   0  0  0  0  0
    8.0237    4.1659   98.1856 H   0  0  0  0  0
    9.4310    0.9863   95.6621 H   0  0  0  0  0
    8.8386    0.6820   97.3252 H   0  0  0  0  0
   11.2599    0.3754   97.3161 H   0  0  0  0  0
   10.9028    1.8529   98.1937 H   0  0  0  0  0
   11.6957    1.6341   95.2608 H   0  0  0  0  0
   12.6889    2.3125   96.6094 H   0  0  0  0  0
   12.9984    4.2645   95.2476 H   0  0  0  0  0
    9.7849    7.1123   95.1726 H   0  0  0  0  0
    8.2621    5.3886   96.1400 H   0  0  0  0  0
    7.0432    1.7397   96.0068 H   0  0  0  0  0
    7.8063    2.8309   94.8143 H   0  0  0  0  0
    4.1361    4.3555   95.9878 H   0  0  0  0  0
    2.3068    3.7910   97.5735 H   0  0  0  0  0
    5.0901    1.6998  100.0809 H   0  0  0  0  0
    2.0097    4.3004   99.8260 H   0  0  0  0  0
  1  2  1  0  0  0
  2  3  1  0  0  0
  3  4  1  0  0  0
  3 39  1  0  0  0
  4  5  1  0  0  0
  5  6  1  0  0  0
  6  7  2  0  0  0
  7  8  1  0  0  0
  8  9  1  0  0  0
  8 10  1  0  0  0
 10 11  1  0  0  0
 10 13  1  0  0  0
 11 12  1  0  0  0
 12 13  1  0  0  0
 13 14  1  0  0  0
 14 15  1  0  0  0
 15 16  1  0  0  0
 15 35  1  0  0  0
 16 17  1  0  0  0
 17 18  1  0  0  0
 17 27  1  0  0  0
 17 28  1  0  0  0
 18 19  1  0  0  0
 19 20  1  0  0  0
 20 21  1  0  0  0
 21 22  4  0  0  0
 21 27  4  0  0  0
 22 23  4  0  0  0
 23 24  1  0  0  0
 23 25  4  0  0  0
 25 26  4  0  0  0
 26 27  4  0  0  0
 28 29  1  0  0  0
 29 30  1  0  0  0
 30 31  4  0  0  0
 30 35  4  0  0  0
 31 32  4  0  0  0
 32 33  4  0  0  0
 33 34  4  0  0  0
 33 36  1  0  0  0
 34 35  4  0  0  0
 36 37  2  0  0  0
 36 38  1  0  0  0
 38 39  1  0  0  0
 39 40  2  0  0  0
 39 41  2  0  0  0
  1 42  1  0  0  0
  1 43  1  0  0  0
  1 44  1  0  0  0
  2 45  1  0  0  0
  2 46  1  0  0  0
  3 47  1  0  0  0
  4 48  1  0  0  0
  4 49  1  0  0  0
  5 50  1  0  0  0
  5 51  1  0  0  0
  6 52  1  0  0  0
  7 53  1  0  0  0
  8 54  1  0  0  0
  9 55  1  0  0  0
 10 56  1  0  0  0
 11 57  1  0  0  0
 11 58  1  0  0  0
 12 59  1  0  0  0
 12 60  1  0  0  0
 13 61  1  0  0  0
 14 62  1  0  0  0
 14 63  1  0  0  0
 16 64  1  0  0  0
 16 65  1  0  0  0
 18 66  1  0  0  0
 18 67  1  0  0  0
 19 68  1  0  0  0
 19 69  1  0  0  0
 20 70  1  0  0  0
 20 71  1  0  0  0
 22 72  1  0  0  0
 25 73  1  0  0  0
 26 74  1  0  0  0
 28 75  1  0  0  0
 28 76  1  0  0  0
 31 77  1  0  0  0
 32 78  1  0  0  0
 34 79  1  0  0  0
 38 80  1  0  0  0
M  END
$$$$
