4ezx_ligand
  -I-interpret- 

117116  0  0  0  0  0  0  0  0999 V2000
  -10.6240  -26.1680    3.1920 N   0  3  0  0  0
  -10.4580  -27.0750    2.0120 C   0  0  0  0  0
   -9.0260  -27.6350    2.0080 C   0  0  0  0  0
   -8.0900  -26.9550    2.4620 O   0  0  0  0  0
  -10.6410  -26.2790    0.7180 C   0  0  0  0  0
  -12.0780  -25.8730    0.4490 C   0  0  0  0  0
  -13.0080  -26.1550    1.2180 O   0  0  0  0  0
  -12.2650  -25.2070   -0.6710 N   0  0  0  0  0
   -8.8430  -28.8330    1.4660 N   0  0  0  0  0
   -7.4780  -29.3420    1.3220 C   0  0  0  0  0
   -6.7040  -28.3250    0.4010 C   0  0  0  0  0
   -7.2560  -27.6770   -0.5150 O   0  0  0  0  0
   -7.4690  -30.7560    0.6780 C   0  0  0  0  0
   -8.1960  -31.9320    1.4070 C   0  0  0  0  0
   -8.1400  -31.6520    2.9020 C   0  0  0  0  0
   -8.0760  -32.8370    3.7520 N   0  0  0  0  0
   -8.9650  -33.8280    3.7930 C   0  0  0  0  0
  -10.0120  -33.8460    2.9780 N   0  0  0  0  0
   -8.7720  -34.8410    4.6430 N   0  0  0  0  0
   -5.4050  -28.3250    0.5710 N   0  0  0  0  0
   -4.5010  -27.7090   -0.3820 C   0  0  0  0  0
   -4.4200  -28.6030   -1.6190 C   0  0  0  0  0
   -4.7750  -29.8080   -1.6030 O   0  0  0  0  0
   -3.1430  -27.6250    0.3040 C   0  0  0  0  0
   -3.2060  -26.5210    1.4060 C   0  0  0  0  0
   -1.8270  -26.6290    2.0070 C   0  0  0  0  0
   -3.4090  -25.1360    0.7680 C   0  0  0  0  0
   -4.0600  -27.9620   -2.7300 N   0  0  0  0  0
   -4.1520  -28.5420   -4.0290 C   0  0  0  0  0
   -2.8230  -28.7440   -4.6640 C   0  0  0  0  0
   -1.8490  -28.0200   -4.4440 O   0  0  0  0  0
   -5.0860  -27.6530   -4.9880 C   0  0  0  0  0
   -6.5330  -27.8480   -4.4810 C   0  0  0  0  0
   -7.4690  -26.4870   -5.2980 S   0  0  0  0  0
   -9.1160  -27.1630   -5.2020 C   0  0  0  0  0
   -2.7670  -29.7190   -5.5630 N   0  0  0  0  0
   -1.5610  -30.0760   -6.3220 C   0  0  0  0  0
   -1.7590  -29.9980   -7.8190 C   0  0  0  0  0
   -2.8010  -30.5570   -8.3540 O   0  0  0  0  0
   -1.2210  -31.5840   -6.0800 C   0  0  0  0  0
   -0.8820  -31.8390   -4.6080 C   0  0  0  0  0
   -0.7880  -33.3850   -4.2460 C   0  0  0  0  0
    0.4220  -31.1150   -4.1340 C   0  0  0  0  0
   -0.7880  -29.4210   -8.5080 N   0  0  0  0  0
   -0.8940  -29.4610   -9.9830 C   0  0  0  0  0
   -0.2360  -30.6800  -10.5790 C   0  0  0  0  0
    0.3800  -31.4550   -9.8640 O   0  0  0  0  0
   -0.1970  -28.2570  -10.5720 C   0  0  0  0  0
    1.1570  -28.1870  -10.0780 O   0  0  0  0  0
   -0.9580  -27.0010  -10.0120 C   0  0  0  0  0
   -0.4100  -30.8810  -11.8810 N   0  0  0  0  0
    0.3000  -32.0350  -12.4760 C   0  0  0  0  0
   -0.5300  -32.5280  -13.6070 C   0  0  0  0  0
   -1.6590  -32.0500  -13.7910 O   0  0  0  0  0
   -0.0910  -33.4400  -14.3170 O   0  0  0  0  0
  -10.5010  -26.7038    4.0512 H   0  0  0  0  0
   -9.9255  -25.4259    3.1498 H   0  0  0  0  0
  -11.5581  -25.7587    3.1759 H   0  0  0  0  0
  -11.1948  -27.8757    2.0754 H   0  0  0  0  0
  -10.3237  -26.9187   -0.1055 H   0  0  0  0  0
  -10.0564  -25.3640    0.8130 H   0  0  0  0  0
  -13.2027  -24.9031   -0.9331 H   0  0  0  0  0
  -11.4722  -24.9949   -1.2767 H   0  0  0  0  0
   -9.6396  -29.3891    1.1553 H   0  0  0  0  0
   -7.0053  -29.4324    2.3000 H   0  0  0  0  0
   -6.4187  -31.0468    0.6589 H   0  0  0  0  0
   -8.0060  -30.6370   -0.2630 H   0  0  0  0  0
   -7.7083  -32.8798    1.1793 H   0  0  0  0  0
   -9.2308  -32.0048    1.0724 H   0  0  0  0  0
   -9.0626  -31.1313    3.1585 H   0  0  0  0  0
   -7.2251  -31.0873    3.0814 H   0  0  0  0  0
   -7.2722  -32.9136    4.3752 H   0  0  0  0  0
  -10.1471  -33.0919    2.3046 H   0  0  0  0  0
   -9.4276  -35.6221    4.6627 H   0  0  0  0  0
   -7.9691  -34.8330    5.2720 H   0  0  0  0  0
   -5.0163  -28.7729    1.4009 H   0  0  0  0  0
   -4.8343  -26.7183   -0.6910 H   0  0  0  0  0
   -2.3739  -27.3750   -0.4269 H   0  0  0  0  0
   -2.8966  -28.5857    0.7562 H   0  0  0  0  0
   -4.0202  -26.6413    2.1206 H   0  0  0  0  0
   -1.6836  -27.6331    2.4061 H   0  0  0  0  0
   -1.0803  -26.4324    1.2376 H   0  0  0  0  0
   -1.7239  -25.8993    2.8101 H   0  0  0  0  0
   -2.5774  -24.9211    0.0970 H   0  0  0  0  0
   -4.3425  -25.1299    0.2053 H   0  0  0  0  0
   -3.4505  -24.3791    1.5513 H   0  0  0  0  0
   -3.7014  -27.0107   -2.6472 H   0  0  0  0  0
   -4.6022  -29.5255   -3.8945 H   0  0  0  0  0
   -4.9889  -27.9627   -6.0285 H   0  0  0  0  0
   -4.7962  -26.6027   -4.9555 H   0  0  0  0  0
   -6.6020  -27.8060   -3.3940 H   0  0  0  0  0
   -6.9308  -28.8325   -4.7272 H   0  0  0  0  0
   -9.1494  -28.1123   -5.7366 H   0  0  0  0  0
   -9.3812  -27.3235   -4.1570 H   0  0  0  0  0
   -9.8208  -26.4650   -5.6540 H   0  0  0  0  0
   -3.6168  -30.2553   -5.7382 H   0  0  0  0  0
   -0.7937  -29.3771   -5.9891 H   0  0  0  0  0
   -0.3577  -31.8507   -6.6896 H   0  0  0  0  0
   -2.0887  -32.1864   -6.3491 H   0  0  0  0  0
   -1.7248  -31.4083   -4.0674 H   0  0  0  0  0
   -1.7452  -33.8639   -4.4520 H   0  0  0  0  0
   -0.0095  -33.8515   -4.8496 H   0  0  0  0  0
   -0.5451  -33.4953   -3.1891 H   0  0  0  0  0
    1.2662  -31.4631   -4.7293 H   0  0  0  0  0
    0.3052  -30.0388   -4.2612 H   0  0  0  0  0
    0.5996  -31.3407   -3.0825 H   0  0  0  0  0
   -0.0011  -28.9686   -8.0427 H   0  0  0  0  0
   -1.9587  -29.4782  -10.2158 H   0  0  0  0  0
   -0.1898  -28.3077  -11.6608 H   0  0  0  0  0
    1.5949  -27.4205  -10.4553 H   0  0  0  0  0
   -2.0024  -27.0430  -10.3210 H   0  0  0  0  0
   -0.8996  -26.9978   -8.9236 H   0  0  0  0  0
   -0.4979  -26.0942  -10.4045 H   0  0  0  0  0
   -1.0035  -30.2702  -12.4424 H   0  0  0  0  0
    0.4431  -32.8209  -11.7344 H   0  0  0  0  0
    1.2883  -31.7377  -12.8268 H   0  0  0  0  0
   -1.8211  -31.3576  -13.1461 H   0  0  0  0  0
  1  2  1  0  0  0
  2  3  1  0  0  0
  2  5  1  0  0  0
  3  4  2  0  0  0
  3  9  1  0  0  0
  5  6  1  0  0  0
  6  7  2  0  0  0
  6  8  1  0  0  0
  9 10  1  0  0  0
 10 11  1  0  0  0
 10 13  1  0  0  0
 11 12  2  0  0  0
 11 20  1  0  0  0
 13 14  1  0  0  0
 14 15  1  0  0  0
 15 16  1  0  0  0
 16 17  1  0  0  0
 17 18  2  0  0  0
 17 19  1  0  0  0
 20 21  1  0  0  0
 21 22  1  0  0  0
 21 24  1  0  0  0
 22 23  2  0  0  0
 22 28  1  0  0  0
 24 25  1  0  0  0
 25 26  1  0  0  0
 25 27  1  0  0  0
 28 29  1  0  0  0
 29 30  1  0  0  0
 29 32  1  0  0  0
 30 31  2  0  0  0
 30 36  1  0  0  0
 32 33  1  0  0  0
 33 34  1  0  0  0
 34 35  1  0  0  0
 36 37  1  0  0  0
 37 38  1  0  0  0
 37 40  1  0  0  0
 38 39  2  0  0  0
 38 44  1  0  0  0
 40 41  1  0  0  0
 41 42  1  0  0  0
 41 43  1  0  0  0
 44 45  1  0  0  0
 45 46  1  0  0  0
 45 48  1  0  0  0
 46 47  2  0  0  0
 46 51  1  0  0  0
 48 49  1  0  0  0
 48 50  1  0  0  0
 51 52  1  0  0  0
 52 53  1  0  0  0
 53 54  1  0  0  0
 53 55  2  0  0  0
  1 56  1  0  0  0
  1 57  1  0  0  0
  1 58  1  0  0  0
  2 59  1  0  0  0
  5 60  1  0  0  0
  5 61  1  0  0  0
  8 62  1  0  0  0
  8 63  1  0  0  0
  9 64  1  0  0  0
 10 65  1  0  0  0
 13 66  1  0  0  0
 13 67  1  0  0  0
 14 68  1  0  0  0
 14 69  1  0  0  0
 15 70  1  0  0  0
 15 71  1  0  0  0
 16 72  1  0  0  0
 18 73  1  0  0  0
 19 74  1  0  0  0
 19 75  1  0  0  0
 20 76  1  0  0  0
 21 77  1  0  0  0
 24 78  1  0  0  0
 24 79  1  0  0  0
 25 80  1  0  0  0
 26 81  1  0  0  0
 26 82  1  0  0  0
 26 83  1  0  0  0
 27 84  1  0  0  0
 27 85  1  0  0  0
 27 86  1  0  0  0
 28 87  1  0  0  0
 29 88  1  0  0  0
 32 89  1  0  0  0
 32 90  1  0  0  0
 33 91  1  0  0  0
 33 92  1  0  0  0
 35 93  1  0  0  0
 35 94  1  0  0  0
 35 95  1  0  0  0
 36 96  1  0  0  0
 37 97  1  0  0  0
 40 98  1  0  0  0
 40 99  1  0  0  0
 41100  1  0  0  0
 42101  1  0  0  0
 42102  1  0  0  0
 42103  1  0  0  0
 43104  1  0  0  0
 43105  1  0  0  0
 43106  1  0  0  0
 44107  1  0  0  0
 45108  1  0  0  0
 48109  1  0  0  0
 49110  1  0  0  0
 50111  1  0  0  0
 50112  1  0  0  0
 50113  1  0  0  0
 51114  1  0  0  0
 52115  1  0  0  0
 52116  1  0  0  0
 54117  1  0  0  0
M  END
$$$$
