4yo6_ligand
  -I-interpret- 

 38 41  0  0  0  0  0  0  0  0999 V2000
   30.1570    6.6200   -7.1810 N   0  0  0  0  0
   30.8010    5.6690   -7.8870 C   0  0  0  0  0
   30.7530    4.4300   -7.7000 O   0  0  0  0  0
   31.6980    6.1510   -8.9800 C   0  0  0  0  0
   32.6730    5.3670   -9.6810 C   0  0  0  0  0
   33.3240    6.0860  -10.5850 N   0  0  0  0  0
   32.7740    7.3670  -10.4940 N   0  0  0  0  0
   31.7730    7.4200   -9.4770 C   0  0  0  0  0
   31.1260    8.5850   -9.1760 N   0  0  0  0  0
   31.5040    9.6740   -9.9100 C   0  0  0  0  0
   32.4880    9.6590  -10.9590 C   0  0  0  0  0
   33.1260    8.4590  -11.2330 C   0  0  0  0  0
   29.3770    6.4690   -6.0810 C   0  0  0  0  0
   29.0750    5.2880   -5.3620 C   0  0  0  0  0
   28.2840    5.7430   -4.2680 C   0  0  0  0  0
   28.1080    7.1060   -4.3280 N   0  0  0  0  0
   28.7920    7.5430   -5.4390 N   0  0  0  0  0
   27.7200    4.9190   -3.1520 C   0  0  0  0  0
   28.8480    8.9120   -5.7450 C   0  0  0  0  0
   29.3460    9.8340   -4.7480 C   0  0  0  0  0
   29.4170   11.2310   -5.0530 C   0  0  0  0  0
   29.0120   11.7160   -6.3470 C   0  0  0  0  0
   28.5210   10.8000   -7.3380 C   0  0  0  0  0
   28.4290    9.4000   -7.0410 C   0  0  0  0  0
   30.2708    7.5763   -7.5171 H   0  0  0  0  0
   32.8565    4.3090   -9.4935 H   0  0  0  0  0
   31.0236   10.6258   -9.6834 H   0  0  0  0  0
   32.7246   10.5626  -11.5208 H   0  0  0  0  0
   33.8840    8.3900  -12.0132 H   0  0  0  0  0
   29.3776    4.2664   -5.5921 H   0  0  0  0  0
   27.0558    4.1588   -3.5631 H   0  0  0  0  0
   28.5341    4.4375   -2.6102 H   0  0  0  0  0
   27.1610    5.5630   -2.4732 H   0  0  0  0  0
   29.6648    9.4680   -3.7720 H   0  0  0  0  0
   29.7798   11.9318   -4.3011 H   0  0  0  0  0
   29.0782   12.7799   -6.5746 H   0  0  0  0  0
   28.2177   11.1694   -8.3176 H   0  0  0  0  0
   28.0449    8.7062   -7.7888 H   0  0  0  0  0
  1  2  1  0  0  0
  1 13  1  0  0  0
  2  3  2  0  0  0
  2  4  1  0  0  0
  4  5  4  0  0  0
  4  8  4  0  0  0
  5  6  4  0  0  0
  6  7  4  0  0  0
  7  8  4  0  0  0
  7 12  4  0  0  0
  8  9  4  0  0  0
  9 10  4  0  0  0
 10 11  4  0  0  0
 11 12  4  0  0  0
 13 14  4  0  0  0
 13 17  4  0  0  0
 14 15  4  0  0  0
 15 16  4  0  0  0
 15 18  1  0  0  0
 16 17  4  0  0  0
 17 19  1  0  0  0
 19 20  4  0  0  0
 19 24  4  0  0  0
 20 21  4  0  0  0
 21 22  4  0  0  0
 22 23  4  0  0  0
 23 24  4  0  0  0
  1 25  1  0  0  0
  5 26  1  0  0  0
 10 27  1  0  0  0
 11 28  1  0  0  0
 12 29  1  0  0  0
 14 30  1  0  0  0
 18 31  1  0  0  0
 18 32  1  0  0  0
 18 33  1  0  0  0
 20 34  1  0  0  0
 21 35  1  0  0  0
 22 36  1  0  0  0
 23 37  1  0  0  0
 24 38  1  0  0  0
M  END
$$$$
