2qnp_ligand
  -I-interpret- 

 71 75  0  0  0  0  0  0  0  0999 V2000
   15.2980   19.1990   -1.7390 C   0  0  0  0  0
   16.3380   19.6680   -2.5470 C   0  0  0  0  0
   16.1210   19.9560   -3.8860 C   0  0  0  0  0
   14.8980   19.7400   -4.5270 C   0  0  0  0  0
   13.8700   19.2120   -3.7140 C   0  0  0  0  0
   14.0730   18.9590   -2.3690 C   0  0  0  0  0
   17.4690   20.6260   -4.8430 S   0  0  0  0  0
   17.1950   22.3030   -4.5200 N   0  0  0  0  0
   17.6520   22.9060   -3.2900 C   0  0  0  0  0
   19.0420   23.4980   -3.1970 C   0  0  0  0  0
   19.2430   24.4300   -2.1670 C   0  0  0  0  0
   20.4790   25.0270   -1.9590 C   0  0  0  0  0
   21.5030   24.7170   -2.8430 C   0  0  0  0  0
   23.3480   25.5540   -2.5420 I   0  0  0  0  0
   21.3250   23.8270   -3.8880 C   0  0  0  0  0
   20.0870   23.2010   -4.0600 C   0  0  0  0  0
   16.4020   23.0880   -5.4550 C   0  0  0  0  0
   16.9870   24.4730   -5.8650 C   0  0  0  0  0
   16.9530   24.6100   -7.3240 N   0  0  0  0  0
   18.3990   24.4210   -8.1760 S   0  0  0  0  0
   19.1390   23.3670   -7.4750 O   0  0  0  0  0
   19.4050   25.8510   -8.2430 C   0  0  0  0  0
   20.7360   25.7180   -7.7900 C   0  0  0  0  0
   21.5910   26.8250   -7.8290 C   0  0  0  0  0
   21.1310   28.0640   -8.2980 C   0  0  0  0  0
   19.8130   28.2030   -8.7580 C   0  0  0  0  0
   18.9830   27.0750   -8.7480 C   0  0  0  0  0
   18.0870   24.1310   -9.5870 O   0  0  0  0  0
   15.6970   24.8170   -8.0700 C   0  0  0  0  0
   14.9150   23.5050   -8.3500 C   0  0  0  0  0
   13.5870   23.3820   -7.9110 C   0  0  0  0  0
   12.8270   22.2260   -8.1390 C   0  0  0  0  0
   13.4230   21.1660   -8.8270 C   0  0  0  0  0
   12.4060   19.4040   -9.2050 I   0  0  0  0  0
   14.7510   21.2650   -9.2470 C   0  0  0  0  0
   15.4930   22.4190   -9.0300 C   0  0  0  0  0
   16.1870   25.4370   -4.9770 C   0  0  0  0  0
   14.8400   24.8350   -4.8270 N   0  3  0  0  0
   15.0200   23.3860   -4.7830 C   0  0  0  0  0
   18.6690   20.2080   -4.1580 O   0  0  0  0  0
   17.2300   20.3500   -6.2270 O   0  0  0  0  0
   15.4352   19.0289   -0.6711 H   0  0  0  0  0
   17.3308   19.8089   -2.1196 H   0  0  0  0  0
   14.7473   19.9638   -5.5831 H   0  0  0  0  0
   12.8965   18.9995   -4.1558 H   0  0  0  0  0
   13.2485   18.5582   -1.7794 H   0  0  0  0  0
   17.6613   22.0838   -2.5744 H   0  0  0  0  0
   16.9867   23.7570   -3.1441 H   0  0  0  0  0
   18.4093   24.6911   -1.5152 H   0  0  0  0  0
   20.6397   25.7158   -1.1296 H   0  0  0  0  0
   22.1458   23.6154   -4.5732 H   0  0  0  0  0
   19.9434   22.4834   -4.8678 H   0  0  0  0  0
   16.3603   22.4831   -6.3608 H   0  0  0  0  0
   18.0451   24.6657   -5.6879 H   0  0  0  0  0
   21.0946   24.7603   -7.4128 H   0  0  0  0  0
   22.6227   26.7235   -7.4922 H   0  0  0  0  0
   21.8011   28.9236   -8.3052 H   0  0  0  0  0
   19.4442   29.1648   -9.1143 H   0  0  0  0  0
   17.9732   27.1599   -9.1494 H   0  0  0  0  0
   15.9583   25.2532   -9.0341 H   0  0  0  0  0
   15.0568   25.4547   -7.4604 H   0  0  0  0  0
   13.1311   24.2140   -7.3744 H   0  0  0  0  0
   11.7973   22.1560   -7.7884 H   0  0  0  0  0
   15.2147   20.4197   -9.7554 H   0  0  0  0  0
   16.5212   22.4823   -9.3862 H   0  0  0  0  0
   16.1278   26.4287   -5.4255 H   0  0  0  0  0
   16.6684   25.5721   -4.0084 H   0  0  0  0  0
   14.2383   25.0997   -5.6070 H   0  0  0  0  0
   14.3895   25.1680   -3.9746 H   0  0  0  0  0
   14.9993   23.0216   -3.7559 H   0  0  0  0  0
   14.2127   22.8767   -5.3093 H   0  0  0  0  0
  1  2  4  0  0  0
  1  6  4  0  0  0
  2  3  4  0  0  0
  3  4  4  0  0  0
  3  7  1  0  0  0
  4  5  4  0  0  0
  5  6  4  0  0  0
  7  8  1  0  0  0
  7 40  2  0  0  0
  7 41  2  0  0  0
  8  9  1  0  0  0
  8 17  1  0  0  0
  9 10  1  0  0  0
 10 11  4  0  0  0
 10 16  4  0  0  0
 11 12  4  0  0  0
 12 13  4  0  0  0
 13 14  1  0  0  0
 13 15  4  0  0  0
 15 16  4  0  0  0
 17 18  1  0  0  0
 17 39  1  0  0  0
 18 19  1  0  0  0
 18 37  1  0  0  0
 19 20  1  0  0  0
 19 29  1  0  0  0
 20 21  2  0  0  0
 20 22  1  0  0  0
 20 28  2  0  0  0
 22 23  4  0  0  0
 22 27  4  0  0  0
 23 24  4  0  0  0
 24 25  4  0  0  0
 25 26  4  0  0  0
 26 27  4  0  0  0
 29 30  1  0  0  0
 30 31  4  0  0  0
 30 36  4  0  0  0
 31 32  4  0  0  0
 32 33  4  0  0  0
 33 34  1  0  0  0
 33 35  4  0  0  0
 35 36  4  0  0  0
 37 38  1  0  0  0
 38 39  1  0  0  0
  1 42  1  0  0  0
  2 43  1  0  0  0
  4 44  1  0  0  0
  5 45  1  0  0  0
  6 46  1  0  0  0
  9 47  1  0  0  0
  9 48  1  0  0  0
 11 49  1  0  0  0
 12 50  1  0  0  0
 15 51  1  0  0  0
 16 52  1  0  0  0
 17 53  1  0  0  0
 18 54  1  0  0  0
 23 55  1  0  0  0
 24 56  1  0  0  0
 25 57  1  0  0  0
 26 58  1  0  0  0
 27 59  1  0  0  0
 29 60  1  0  0  0
 29 61  1  0  0  0
 31 62  1  0  0  0
 32 63  1  0  0  0
 35 64  1  0  0  0
 36 65  1  0  0  0
 37 66  1  0  0  0
 37 67  1  0  0  0
 38 68  1  0  0  0
 38 69  1  0  0  0
 39 70  1  0  0  0
 39 71  1  0  0  0
M  END
$$$$
