4c9w_ligand
  -I-interpret- 

 40 42  0  0  0  0  0  0  0  0999 V2000
  -17.6440  -12.3060   12.8260 Cl  0  0  0  0  0
  -16.4780  -12.3450   11.5900 C   0  0  0  0  0
  -16.7260  -11.5950   10.4390 C   0  0  0  0  0
  -15.7950  -11.5880    9.4090 C   0  0  0  0  0
  -14.6240  -12.3370    9.5450 C   0  0  0  0  0
  -13.6770  -12.3850    8.5780 F   0  0  0  0  0
  -15.3100  -13.1140   11.7150 C   0  0  0  0  0
  -14.3910  -13.0910   10.6760 C   0  0  0  0  0
  -12.9470  -13.9520   10.7290 Cl  0  0  0  0  0
  -14.9820  -13.8760   12.8370 C   0  0  0  0  0
  -16.0710  -13.9440   13.8860 C   0  0  0  0  0
  -14.5790  -15.2770   12.5440 O   0  0  0  0  0
  -15.4400  -16.2030   11.9900 C   0  0  0  0  0
  -16.7530  -15.9300   11.5520 C   0  0  0  0  0
  -14.9260  -17.4980   11.8370 C   0  0  0  0  0
  -13.6710  -17.7560   12.2550 N   0  0  0  0  0
  -15.6920  -18.4640   11.3070 N   0  0  0  0  0
  -17.0000  -18.2100   10.8620 C   0  0  0  0  0
  -17.5540  -16.9310   10.9910 C   0  0  0  0  0
  -18.8170  -16.6820   10.5680 C   0  0  0  0  0
  -19.8190  -17.5490   10.5530 C   0  0  0  0  0
  -19.2990  -15.5370   10.0750 C   0  0  0  0  0
  -20.5910  -15.7440    9.7750 N   0  0  0  0  0
  -20.8870  -16.9090   10.0610 N   0  0  0  0  0
  -21.5690  -14.7780    9.1890 C   0  0  0  0  0
  -17.6462  -11.0176   10.3493 H   0  0  0  0  0
  -15.9757  -11.0054    8.5057 H   0  0  0  0  0
  -14.1255  -13.3233   13.2230 H   0  0  0  0  0
  -16.9133  -14.5161   13.4969 H   0  0  0  0  0
  -15.6821  -14.4304   14.7806 H   0  0  0  0  0
  -16.3991  -12.9344   14.1333 H   0  0  0  0  0
  -17.1511  -14.9203   11.6525 H   0  0  0  0  0
  -13.1108  -17.0143   12.6751 H   0  0  0  0  0
  -13.2814  -18.6929   12.1512 H   0  0  0  0  0
  -17.5862  -19.0125   10.4142 H   0  0  0  0  0
  -19.7808  -18.5881   10.8799 H   0  0  0  0  0
  -18.7456  -14.6075    9.9413 H   0  0  0  0  0
  -21.6732  -13.9203    9.8535 H   0  0  0  0  0
  -21.2090  -14.4438    8.2159 H   0  0  0  0  0
  -22.5357  -15.2678    9.0716 H   0  0  0  0  0
  1  2  1  0  0  0
  2  3  4  0  0  0
  2  7  4  0  0  0
  3  4  4  0  0  0
  4  5  4  0  0  0
  5  6  1  0  0  0
  5  8  4  0  0  0
  7  8  4  0  0  0
  7 10  1  0  0  0
  8  9  1  0  0  0
 10 11  1  0  0  0
 10 12  1  0  0  0
 12 13  1  0  0  0
 13 14  4  0  0  0
 13 15  4  0  0  0
 14 19  4  0  0  0
 15 16  1  0  0  0
 15 17  4  0  0  0
 17 18  4  0  0  0
 18 19  4  0  0  0
 19 20  1  0  0  0
 20 21  4  0  0  0
 20 22  4  0  0  0
 21 24  4  0  0  0
 22 23  4  0  0  0
 23 24  4  0  0  0
 23 25  1  0  0  0
  3 26  1  0  0  0
  4 27  1  0  0  0
 10 28  1  0  0  0
 11 29  1  0  0  0
 11 30  1  0  0  0
 11 31  1  0  0  0
 14 32  1  0  0  0
 16 33  1  0  0  0
 16 34  1  0  0  0
 18 35  1  0  0  0
 21 36  1  0  0  0
 22 37  1  0  0  0
 25 38  1  0  0  0
 25 39  1  0  0  0
 25 40  1  0  0  0
M  END
$$$$
