6qas_ligand
  -I-interpret- 

 59 63  0  0  0  0  0  0  0  0999 V2000
    0.5280   24.8300   41.0700 C   0  0  0  0  0
    0.0310   25.3840   39.7660 C   0  0  0  0  0
   -0.2010   24.6610   38.7960 O   0  0  0  0  0
   -0.1280   26.7090   39.7150 N   0  0  0  0  0
   -0.8180   27.3440   38.6150 C   0  0  0  0  0
   -0.9840   28.8320   38.8290 C   0  0  0  0  0
   -0.6400   29.3630   39.8760 O   0  0  0  0  0
   -1.6640   29.5080   37.8790 N   0  0  0  0  0
   -2.1820   30.8420   38.0510 C   0  0  0  0  0
   -2.1840   31.3180   36.5860 C   0  0  0  0  0
   -2.4430   29.9840   35.7910 C   0  0  0  0  0
   -2.5950   28.9570   36.9220 C   0  0  0  0  0
   -3.9100   29.3810   37.5390 C   0  0  0  0  0
   -3.6500   30.5440   38.2630 C   0  0  0  0  0
   -4.6250   31.1080   39.0710 C   0  0  0  0  0
   -5.8690   30.4820   39.1530 C   0  0  0  0  0
   -6.1360   29.3240   38.3970 C   0  0  0  0  0
   -5.1520   28.7660   37.5810 C   0  0  0  0  0
   -7.3490   28.6070   38.4750 N   0  0  0  0  0
   -8.3740   28.6950   39.3560 C   0  0  0  0  0
   -9.4040   27.8720   39.1420 N   0  0  0  0  0
  -10.3680   27.9150   40.0620 C   0  0  0  0  0
  -10.3650   28.7820   41.1350 C   0  0  0  0  0
   -9.2290   29.6320   41.2440 C   0  0  0  0  0
   -8.2400   29.5540   40.3690 N   0  0  0  0  0
   -9.1320   30.5600   42.2230 N   0  0  0  0  0
   -7.9090   31.3510   42.3330 C   0  0  0  0  0
   -7.9010   32.7590   41.7080 C   0  0  0  0  0
   -6.9640   33.1720   42.8970 C   0  0  0  0  0
   -7.5600   31.9890   43.6920 C   0  0  0  0  0
  -11.4930   28.7610   42.1040 C   0  0  0  0  0
  -11.0790   28.6230   43.3430 F   0  0  0  0  0
  -12.2950   27.7570   41.8820 F   0  0  0  0  0
  -12.2060   29.8740   42.0370 F   0  0  0  0  0
   -0.2001   24.1204   41.4629 H   0  0  0  0  0
    1.4800   24.3242   40.9091 H   0  0  0  0  0
    0.6636   25.6447   41.7813 H   0  0  0  0  0
    0.2457   27.2856   40.4689 H   0  0  0  0  0
   -1.8101   26.8997   38.5346 H   0  0  0  0  0
   -0.2266   27.1947   37.7116 H   0  0  0  0  0
   -1.6981   31.4849   38.7862 H   0  0  0  0  0
   -1.2563   31.8124   36.2976 H   0  0  0  0  0
   -2.9338   32.0840   36.3882 H   0  0  0  0  0
   -1.6439   29.7382   35.0916 H   0  0  0  0  0
   -3.3135   30.0353   35.1370 H   0  0  0  0  0
   -2.4957   27.9041   36.6580 H   0  0  0  0  0
   -4.4239   32.0215   39.6306 H   0  0  0  0  0
   -6.6393   30.8917   39.8063 H   0  0  0  0  0
   -5.3539   27.8710   36.9925 H   0  0  0  0  0
   -7.4749   27.9050   37.7458 H   0  0  0  0  0
  -11.2063   27.2258   39.9605 H   0  0  0  0  0
   -9.9023   30.7055   42.8756 H   0  0  0  0  0
   -7.2922   30.5502   41.9250 H   0  0  0  0  0
   -8.8209   33.2977   41.4808 H   0  0  0  0  0
   -7.6263   32.9297   40.6671 H   0  0  0  0  0
   -6.9687   34.1855   43.2981 H   0  0  0  0  0
   -5.8879   33.2800   42.7609 H   0  0  0  0  0
   -6.9786   31.4537   44.4427 H   0  0  0  0  0
   -8.3151   32.1408   44.4633 H   0  0  0  0  0
  1  2  1  0  0  0
  2  3  2  0  0  0
  2  4  1  0  0  0
  4  5  1  0  0  0
  5  6  1  0  0  0
  6  7  2  0  0  0
  6  8  1  0  0  0
  8  9  1  0  0  0
  8 12  1  0  0  0
  9 10  1  0  0  0
  9 14  1  0  0  0
 10 11  1  0  0  0
 11 12  1  0  0  0
 12 13  1  0  0  0
 13 14  4  0  0  0
 13 18  4  0  0  0
 14 15  4  0  0  0
 15 16  4  0  0  0
 16 17  4  0  0  0
 17 18  4  0  0  0
 17 19  1  0  0  0
 19 20  1  0  0  0
 20 21  4  0  0  0
 20 25  4  0  0  0
 21 22  4  0  0  0
 22 23  4  0  0  0
 23 24  4  0  0  0
 23 31  1  0  0  0
 24 25  4  0  0  0
 24 26  1  0  0  0
 26 27  1  0  0  0
 27 28  1  0  0  0
 27 30  1  0  0  0
 28 29  1  0  0  0
 29 30  1  0  0  0
 31 32  1  0  0  0
 31 33  1  0  0  0
 31 34  1  0  0  0
  1 35  1  0  0  0
  1 36  1  0  0  0
  1 37  1  0  0  0
  4 38  1  0  0  0
  5 39  1  0  0  0
  5 40  1  0  0  0
  9 41  1  0  0  0
 10 42  1  0  0  0
 10 43  1  0  0  0
 11 44  1  0  0  0
 11 45  1  0  0  0
 12 46  1  0  0  0
 15 47  1  0  0  0
 16 48  1  0  0  0
 18 49  1  0  0  0
 19 50  1  0  0  0
 22 51  1  0  0  0
 26 52  1  0  0  0
 27 53  1  0  0  0
 28 54  1  0  0  0
 28 55  1  0  0  0
 29 56  1  0  0  0
 29 57  1  0  0  0
 30 58  1  0  0  0
 30 59  1  0  0  0
M  END
$$$$
