6e3p_ligand
  -I-interpret- 

 30 32  0  0  0  0  0  0  0  0999 V2000
  -17.9740   16.0300  137.4280 O   0  0  0  0  0
  -18.1250   16.2410  136.1990 C   0  0  0  0  0
  -17.4020   15.6150  135.3890 O   0  0  0  0  0
  -19.1560   17.0690  135.7270 C   0  0  0  0  0
  -19.8800   17.8220  136.6720 N   0  0  0  0  0
  -19.5190   17.1500  134.3540 C   0  0  0  0  0
  -18.8390   16.4180  133.3930 O   0  0  0  0  0
  -20.5920   17.9570  133.9470 C   0  0  0  0  0
  -20.9620   18.0610  132.7710 O   0  0  0  0  0
  -21.2760   18.6880  134.9100 C   0  0  0  0  0
  -20.9470   18.6480  136.2740 C   0  0  0  0  0
  -21.6830   19.4190  137.2010 C   0  0  0  0  0
  -22.8530   20.0750  136.7800 C   0  0  0  0  0
  -21.3100   19.5800  138.5450 C   0  0  0  0  0
  -22.0990   20.3670  139.3980 C   0  0  0  0  0
  -23.2620   21.0070  138.9510 C   0  0  0  0  0
  -23.6580   20.8690  137.6150 C   0  0  0  0  0
  -24.7810   21.4480  137.0880 C   0  0  0  0  0
  -25.1930   21.3580  135.8070 N   0  0  0  0  0
  -26.2620   22.0020  135.6620 N   0  0  0  0  0
  -26.5890   22.5160  136.7730 N   0  0  0  0  0
  -25.6910   22.1910  137.7130 N   0  0  0  0  0
  -18.5902   16.5747  137.9231 H   0  0  0  0  0
  -18.7772   17.5286  135.0572 H   0  0  0  0  0
  -18.1358   15.9168  133.8124 H   0  0  0  0  0
  -22.1049   19.3206  134.5924 H   0  0  0  0  0
  -23.1553   19.9605  135.7390 H   0  0  0  0  0
  -20.4105   19.0953  138.9246 H   0  0  0  0  0
  -21.7979   20.4837  140.4391 H   0  0  0  0  0
  -23.8554   21.6090  139.6392 H   0  0  0  0  0
  1  2  1  0  0  0
  2  3  2  0  0  0
  2  4  1  0  0  0
  4  5  2  0  0  0
  4  6  1  0  0  0
  5 11  1  0  0  0
  6  7  1  0  0  0
  6  8  1  0  0  0
  8  9  2  0  0  0
  8 10  1  0  0  0
 10 11  2  0  0  0
 11 12  1  0  0  0
 12 13  4  0  0  0
 12 14  4  0  0  0
 13 17  4  0  0  0
 14 15  4  0  0  0
 15 16  4  0  0  0
 16 17  4  0  0  0
 17 18  1  0  0  0
 18 19  4  0  0  0
 18 22  4  0  0  0
 19 20  4  0  0  0
 20 21  4  0  0  0
 21 22  4  0  0  0
  1 23  1  0  0  0
  6 24  1  0  0  0
  7 25  1  0  0  0
 10 26  1  0  0  0
 13 27  1  0  0  0
 14 28  1  0  0  0
 15 29  1  0  0  0
 16 30  1  0  0  0
M  END
$$$$
