1pwy_ligand
  -I-interpret- 

 27 28  0  0  0  0  0  0  0  0999 V2000
  -19.3880   88.0670    3.3680 C   0  0  0  0  0
  -19.8230   88.8400    2.2120 O   0  0  0  0  0
  -17.8650   88.0310    3.4480 C   0  0  0  0  0
  -17.3560   86.6730    3.1910 O   0  0  0  0  0
  -17.8960   86.1300    1.9670 C   0  0  0  0  0
  -17.6500   87.0430    0.8570 N   0  0  0  0  0
  -18.5630   87.7630    0.1170 C   0  0  0  0  0
  -18.0080   88.5060   -0.8110 N   0  0  0  0  0
  -16.6450   88.2510   -0.6650 C   0  0  0  0  0
  -15.5280   88.7670   -1.3780 C   0  0  0  0  0
  -15.5220   89.5730   -2.3110 O   0  0  0  0  0
  -14.3240   88.2410   -0.9030 N   0  0  0  0  0
  -14.2140   87.3420    0.1270 C   0  0  0  0  0
  -12.9920   86.9540    0.4440 N   0  0  0  0  0
  -15.2400   86.8600    0.7990 N   0  0  0  0  0
  -16.4140   87.3540    0.3550 C   0  0  0  0  0
  -19.7607   87.0473    3.2714 H   0  0  0  0  0
  -19.7781   88.5342    4.2722 H   0  0  0  0  0
  -20.7824   88.8512    2.1786 H   0  0  0  0  0
  -17.5597   88.3357    4.4490 H   0  0  0  0  0
  -17.4588   88.7056    2.6943 H   0  0  0  0  0
  -18.9710   85.9917    2.0827 H   0  0  0  0  0
  -17.4126   85.1759    1.7570 H   0  0  0  0  0
  -19.6389   87.7195    0.2859 H   0  0  0  0  0
  -13.4631   88.5483   -1.3557 H   0  0  0  0  0
  -12.8493   86.2873    1.2027 H   0  0  0  0  0
  -12.1910   87.3210   -0.0699 H   0  0  0  0  0
  1  2  1  0  0  0
  1  3  1  0  0  0
  3  4  1  0  0  0
  4  5  1  0  0  0
  5  6  1  0  0  0
  6  7  4  0  0  0
  6 16  4  0  0  0
  7  8  4  0  0  0
  8  9  4  0  0  0
  9 10  1  0  0  0
  9 16  4  0  0  0
 10 11  2  0  0  0
 10 12  1  0  0  0
 12 13  1  0  0  0
 13 14  1  0  0  0
 13 15  2  0  0  0
 15 16  1  0  0  0
  1 17  1  0  0  0
  1 18  1  0  0  0
  2 19  1  0  0  0
  3 20  1  0  0  0
  3 21  1  0  0  0
  5 22  1  0  0  0
  5 23  1  0  0  0
  7 24  1  0  0  0
 12 25  1  0  0  0
 14 26  1  0  0  0
 14 27  1  0  0  0
M  END
$$$$
