1cze_ligand
  -I-interpret- 

 14 13  0  0  0  0  0  0  0  0999 V2000
   24.5500   10.2780  -10.9290 C   0  0  0  0  0
   24.1320   10.1920   -9.7980 O   0  0  0  0  0
   25.6880   10.6540  -11.1490 O   0  0  0  0  0
   23.6390    9.9020  -12.1110 C   0  0  0  0  0
   24.2590   10.0180  -13.5320 C   0  0  0  0  0
   24.2680   11.3430  -14.3080 C   0  0  0  0  0
   24.7840   11.3420  -15.3880 O   0  0  0  0  0
   23.7700   12.3310  -13.8240 O   0  0  0  0  0
   25.8443   10.6601  -12.0962 H   0  0  0  0  0
   22.8080   10.6070  -12.0867 H   0  0  0  0  0
   23.3901    8.8494  -11.9762 H   0  0  0  0  0
   23.6301    9.3682  -14.1405 H   0  0  0  0  0
   25.3162    9.8086  -13.3689 H   0  0  0  0  0
   23.4143   12.1174  -12.9583 H   0  0  0  0  0
  1  2  2  0  0  0
  1  3  1  0  0  0
  1  4  1  0  0  0
  4  5  1  0  0  0
  5  6  1  0  0  0
  6  7  2  0  0  0
  6  8  1  0  0  0
  3  9  1  0  0  0
  4 10  1  0  0  0
  4 11  1  0  0  0
  5 12  1  0  0  0
  5 13  1  0  0  0
  8 14  1  0  0  0
M  END
$$$$
