4hpy_ligand
  -I-interpret- 

211213  0  0  0  0  0  0  0  0999 V2000
   55.9160   53.1690   60.7200 N   0  3  0  0  0
   54.5290   53.1880   61.1680 C   0  0  0  0  0
   54.3850   52.4420   62.4930 C   0  0  0  0  0
   55.1900   52.6110   63.4090 O   0  0  0  0  0
   53.6230   52.5490   60.1130 C   0  0  0  0  0
   53.7320   53.1610   58.7230 C   0  0  0  0  0
   52.8910   52.3800   57.7210 C   0  0  0  0  0
   53.0450   52.9200   56.3070 C   0  0  0  0  0
   52.5130   54.3020   56.1710 N   0  3  0  0  0
   53.3400   51.6290   62.5880 N   0  0  0  0  0
   53.1690   50.7080   63.7030 C   0  0  0  0  0
   53.1800   49.2940   63.1540 C   0  0  0  0  0
   52.9840   49.0910   61.9570 O   0  0  0  0  0
   51.8430   50.9570   64.4240 C   0  0  0  0  0
   51.7360   52.3120   65.0950 C   0  0  0  0  0
   50.4770   52.3830   65.9410 C   0  0  0  0  0
   50.3080   53.7510   66.5650 C   0  0  0  0  0
   49.1390   53.7840   67.4880 N   0  3  0  0  0
   53.3990   48.3140   64.0230 N   0  0  0  0  0
   53.3910   46.9190   63.6020 C   0  0  0  0  0
   51.9690   46.3890   63.5130 C   0  0  0  0  0
   51.1440   46.6390   64.3950 O   0  0  0  0  0
   54.2100   46.0490   64.5600 C   0  0  0  0  0
   54.2200   44.5720   64.1760 C   0  0  0  0  0
   55.0080   43.7000   65.1430 C   0  0  0  0  0
   55.6150   42.7060   64.7400 O   0  0  0  0  0
   54.9880   44.0560   66.4240 N   0  0  0  0  0
   51.6860   45.6520   62.4440 N   0  0  0  0  0
   50.4000   44.9870   62.2780 C   0  0  0  0  0
   50.3710   43.7100   63.1160 C   0  0  0  0  0
   51.4120   43.0940   63.3590 O   0  0  0  0  0
   50.1460   44.7000   60.7980 C   0  0  0  0  0
   50.0630   45.9740   59.9670 C   0  0  0  0  0
   49.9140   45.6970   58.4810 C   0  0  0  0  0
   49.8970   47.0000   57.6980 C   0  0  0  0  0
   49.7360   46.7710   56.2380 N   0  3  0  0  0
   49.1800   43.3230   63.5680 N   0  0  0  0  0
   49.0630   42.3210   64.6230 C   0  0  0  0  0
   49.5670   40.9310   64.2140 C   0  0  0  0  0
   50.0680   40.1820   65.0480 O   0  0  0  0  0
   47.6130   42.2580   65.1830 C   0  0  0  0  0
   46.6320   41.7360   64.1410 C   0  0  0  0  0
   47.5560   41.4390   66.4590 C   0  0  0  0  0
   49.4490   40.5990   62.9300 N   0  0  0  0  0
   49.9190   39.3020   62.4370 C   0  0  0  0  0
   51.1540   39.4010   61.5360 C   0  0  0  0  0
   51.4000   38.5230   60.7130 O   0  0  0  0  0
   48.7900   38.5620   61.7090 C   0  0  0  0  0
   47.6830   38.1200   62.6130 C   0  0  0  0  0
   46.4750   37.6540   62.1400 N   0  0  0  0  0
   47.6030   38.0710   63.9650 C   0  0  0  0  0
   45.6970   37.3410   63.1620 C   0  0  0  0  0
   46.3570   37.5820   64.2800 N   0  0  0  0  0
   51.9410   40.4600   61.7180 N   0  0  0  0  0
   53.0960   40.7330   60.8640 C   0  0  0  0  0
   54.0440   39.5440   60.7050 C   0  0  0  0  0
   54.5700   39.3110   59.6160 O   0  0  0  0  0
   53.8600   41.9530   61.3800 C   0  0  0  0  0
   54.2510   38.7900   61.7810 N   0  0  0  0  0
   55.2050   37.6790   61.7610 C   0  0  0  0  0
   54.8530   36.5900   60.7420 C   0  0  0  0  0
   55.7310   35.8700   60.2780 O   0  0  0  0  0
   55.3690   37.0600   63.1540 C   0  0  0  0  0
   54.2720   36.1190   63.6530 C   0  0  0  0  0
   54.7730   35.3100   64.8400 C   0  0  0  0  0
   53.0170   36.8900   64.0320 C   0  0  0  0  0
   53.5780   36.4930   60.3770 N   0  0  0  0  0
   53.1430   35.4660   59.4350 C   0  0  0  0  0
   53.3200   35.8570   57.9690 C   0  0  0  0  0
   53.0080   35.0680   57.0750 O   0  0  0  0  0
   51.6850   35.0870   59.6980 C   0  0  0  0  0
   51.4690   34.4110   61.0210 C   0  0  0  0  0
   51.9120   33.1170   61.2310 C   0  0  0  0  0
   50.8130   35.0650   62.0490 C   0  0  0  0  0
   51.7170   32.4880   62.4530 C   0  0  0  0  0
   50.6130   34.4390   63.2740 C   0  0  0  0  0
   51.0640   33.1500   63.4710 C   0  0  0  0  0
   53.8280   37.0620   57.7260 N   0  0  0  0  0
   53.9580   37.5840   56.3680 C   0  0  0  0  0
   55.3710   38.0640   56.0570 C   0  0  0  0  0
   55.6500   38.5030   54.9440 O   0  0  0  0  0
   52.9440   38.7080   56.1390 C   0  0  0  0  0
   51.5290   38.2450   56.3870 C   0  0  0  0  0
   50.8190   37.5760   55.3970 C   0  0  0  0  0
   50.9200   38.4320   57.6210 C   0  0  0  0  0
   49.5350   37.1290   55.6210 C   0  0  0  0  0
   49.6290   37.9870   57.8550 C   0  0  0  0  0
   48.9490   37.3290   56.8460 C   0  0  0  0  0
   47.6680   36.8840   57.0580 O   0  0  0  0  0
   56.2570   37.9660   57.0430 N   0  0  0  0  0
   57.6600   38.3390   56.8720 C   0  0  0  0  0
   58.3170   37.5910   55.7140 C   0  0  0  0  0
   58.4980   36.3740   55.7700 O   0  0  0  0  0
   58.4400   38.0830   58.1640 C   0  0  0  0  0
   58.0200   38.9580   59.3350 C   0  0  0  0  0
   59.1220   39.9360   59.7160 C   0  0  0  0  0
   58.7330   40.7570   60.9360 C   0  0  0  0  0
   58.5010   39.8970   62.1310 N   0  3  0  0  0
   58.6790   38.1890   54.7000 O   0  0  0  0  0
   56.5078   53.5974   61.4318 H   0  0  0  0  0
   56.2096   52.2041   60.5676 H   0  0  0  0  0
   55.9977   53.6923   59.8483 H   0  0  0  0  0
   54.2295   54.2258   61.3139 H   0  0  0  0  0
   52.5957   52.6988   60.4452 H   0  0  0  0  0
   53.9270   51.5060   60.0244 H   0  0  0  0  0
   54.7745   53.1307   58.4062 H   0  0  0  0  0
   53.3692   54.1881   58.7616 H   0  0  0  0  0
   51.8438   52.4715   58.0093 H   0  0  0  0  0
   53.2262   51.3428   57.7288 H   0  0  0  0  0
   52.4824   52.2728   55.6342 H   0  0  0  0  0
   54.1079   52.9411   56.0665 H   0  0  0  0  0
   52.6378   54.6200   55.2099 H   0  0  0  0  0
   51.5205   54.3076   56.4061 H   0  0  0  0  0
   53.0171   54.9229   56.8040 H   0  0  0  0  0
   52.6318   51.6501   61.8542 H   0  0  0  0  0
   53.9778   50.8573   64.4183 H   0  0  0  0  0
   51.7611   50.2053   65.2091 H   0  0  0  0  0
   51.0570   50.9118   63.6702 H   0  0  0  0  0
   51.6941   53.0862   64.3289 H   0  0  0  0  0
   52.6046   52.4612   65.7363 H   0  0  0  0  0
   50.5544   51.6453   66.7397 H   0  0  0  0  0
   49.6176   52.1862   65.3001 H   0  0  0  0  0
   50.1426   54.4774   65.7693 H   0  0  0  0  0
   51.2069   53.9860   67.1349 H   0  0  0  0  0
   49.0521   54.7168   67.8914 H   0  0  0  0  0
   48.2910   53.5564   66.9689 H   0  0  0  0  0
   49.2764   53.1014   68.2333 H   0  0  0  0  0
   53.5758   48.5416   65.0015 H   0  0  0  0  0
   53.8475   46.8721   62.6133 H   0  0  0  0  0
   53.7558   46.1294   65.5476 H   0  0  0  0  0
   55.2400   46.4043   64.5285 H   0  0  0  0  0
   54.6954   44.4903   63.1986 H   0  0  0  0  0
   53.1874   44.2232   64.1866 H   0  0  0  0  0
   55.4881   43.4982   67.1162 H   0  0  0  0  0
   54.4725   44.8869   66.7144 H   0  0  0  0  0
   52.3924   45.5483   61.7155 H   0  0  0  0  0
   49.5994   45.6382   62.6288 H   0  0  0  0  0
   49.1923   44.1790   60.7137 H   0  0  0  0  0
   50.9780   44.1048   60.4217 H   0  0  0  0  0
   50.9898   46.5290   60.1124 H   0  0  0  0  0
   49.1837   46.5294   60.2934 H   0  0  0  0  0
   48.9761   45.1683   58.3108 H   0  0  0  0  0
   50.7571   45.0927   58.1463 H   0  0  0  0  0
   50.8479   47.5074   57.8604 H   0  0  0  0  0
   49.0519   47.5947   58.0447 H   0  0  0  0  0
   49.7299   47.6683   55.7530 H   0  0  0  0  0
   50.5119   46.2038   55.8964 H   0  0  0  0  0
   48.8562   46.2843   56.0664 H   0  0  0  0  0
   48.3351   43.7336   63.1704 H   0  0  0  0  0
   49.7272   42.6511   65.4217 H   0  0  0  0  0
   47.3101   43.2759   65.4285 H   0  0  0  0  0
   46.6385   42.3971   63.2744 H   0  0  0  0  0
   46.9278   40.7322   63.8361 H   0  0  0  0  0
   45.6302   41.7065   64.5696 H   0  0  0  0  0
   47.8955   40.4239   66.2531 H   0  0  0  0  0
   48.2014   41.8940   67.2104 H   0  0  0  0  0
   46.5303   41.4128   66.8269 H   0  0  0  0  0
   49.0241   41.2589   62.2785 H   0  0  0  0  0
   50.2229   38.7355   63.3172 H   0  0  0  0  0
   49.2219   37.6677   61.2599 H   0  0  0  0  0
   48.3623   39.2525   60.9821 H   0  0  0  0  0
   48.3805   38.3642   64.6704 H   0  0  0  0  0
   44.6819   36.9499   63.0933 H   0  0  0  0  0
   51.7304   41.1038   62.4806 H   0  0  0  0  0
   52.6954   40.9354   59.8707 H   0  0  0  0  0
   53.2008   42.8210   61.3767 H   0  0  0  0  0
   54.2050   41.7611   62.3960 H   0  0  0  0  0
   54.7169   42.1435   60.7338 H   0  0  0  0  0
   53.7347   38.9897   62.6377 H   0  0  0  0  0
   56.1531   38.1148   61.4459 H   0  0  0  0  0
   55.3666   37.9013   63.8471 H   0  0  0  0  0
   56.2701   36.4495   63.0956 H   0  0  0  0  0
   54.0163   35.4375   62.8417 H   0  0  0  0  0
   55.6386   34.7208   64.5371 H   0  0  0  0  0
   55.0567   35.9871   65.6457 H   0  0  0  0  0
   53.9815   34.6446   65.1846 H   0  0  0  0  0
   53.2538   37.6003   64.8242 H   0  0  0  0  0
   52.6450   37.4274   63.1597 H   0  0  0  0  0
   52.2559   36.1930   64.3828 H   0  0  0  0  0
   52.8942   37.1454   60.7606 H   0  0  0  0  0
   53.7934   34.6083   59.6067 H   0  0  0  0  0
   51.3841   34.3857   58.9197 H   0  0  0  0  0
   51.1035   36.0089   59.7032 H   0  0  0  0  0
   52.4204   32.5850   60.4269 H   0  0  0  0  0
   50.4494   36.0812   61.8967 H   0  0  0  0  0
   52.0797   31.4718   62.6076 H   0  0  0  0  0
   50.1002   34.9662   64.0785 H   0  0  0  0  0
   50.9044   32.6561   64.4295 H   0  0  0  0  0
   54.1354   37.6377   58.5099 H   0  0  0  0  0
   53.7493   36.7620   55.6833 H   0  0  0  0  0
   53.0213   39.0332   55.1015 H   0  0  0  0  0
   53.1666   39.5174   56.8343 H   0  0  0  0  0
   51.2856   37.4021   54.4274 H   0  0  0  0  0
   51.4662   38.9367   58.4179 H   0  0  0  0  0
   48.9870   36.6188   54.8288 H   0  0  0  0  0
   49.1549   38.1534   58.8223 H   0  0  0  0  0
   47.4010   37.0965   57.9553 H   0  0  0  0  0
   55.9471   37.6184   57.9505 H   0  0  0  0  0
   57.6833   39.4028   56.6356 H   0  0  0  0  0
   58.1710   36.0413   56.6090 H   0  0  0  0  0
   59.4862   38.3074   57.9560 H   0  0  0  0  0
   58.2502   37.0492   58.4528 H   0  0  0  0  0
   57.8134   38.3164   60.1916 H   0  0  0  0  0
   57.1363   39.5262   59.0447 H   0  0  0  0  0
   59.2889   40.6145   58.8794 H   0  0  0  0  0
   60.0231   39.3697   59.9512 H   0  0  0  0  0
   57.8079   41.2877   60.7110 H   0  0  0  0  0
   59.5491   41.4436   61.1613 H   0  0  0  0  0
   58.2432   40.4829   62.9252 H   0  0  0  0  0
   57.7472   39.2389   61.9336 H   0  0  0  0  0
   59.3544   39.3828   62.3492 H   0  0  0  0  0
  1  2  1  0  0  0
  2  3  1  0  0  0
  2  5  1  0  0  0
  3  4  2  0  0  0
  3 10  1  0  0  0
  5  6  1  0  0  0
  6  7  1  0  0  0
  7  8  1  0  0  0
  8  9  1  0  0  0
 10 11  1  0  0  0
 11 12  1  0  0  0
 11 14  1  0  0  0
 12 13  2  0  0  0
 12 19  1  0  0  0
 14 15  1  0  0  0
 15 16  1  0  0  0
 16 17  1  0  0  0
 17 18  1  0  0  0
 19 20  1  0  0  0
 20 21  1  0  0  0
 20 23  1  0  0  0
 21 22  2  0  0  0
 21 28  1  0  0  0
 23 24  1  0  0  0
 24 25  1  0  0  0
 25 26  2  0  0  0
 25 27  1  0  0  0
 28 29  1  0  0  0
 29 30  1  0  0  0
 29 32  1  0  0  0
 30 31  2  0  0  0
 30 37  1  0  0  0
 32 33  1  0  0  0
 33 34  1  0  0  0
 34 35  1  0  0  0
 35 36  1  0  0  0
 37 38  1  0  0  0
 38 39  1  0  0  0
 38 41  1  0  0  0
 39 40  2  0  0  0
 39 44  1  0  0  0
 41 42  1  0  0  0
 41 43  1  0  0  0
 44 45  1  0  0  0
 45 46  1  0  0  0
 45 48  1  0  0  0
 46 47  2  0  0  0
 46 54  1  0  0  0
 48 49  1  0  0  0
 49 50  4  0  0  0
 49 51  4  0  0  0
 50 52  4  0  0  0
 51 53  4  0  0  0
 52 53  4  0  0  0
 54 55  1  0  0  0
 55 56  1  0  0  0
 55 58  1  0  0  0
 56 57  2  0  0  0
 56 59  1  0  0  0
 59 60  1  0  0  0
 60 61  1  0  0  0
 60 63  1  0  0  0
 61 62  2  0  0  0
 61 67  1  0  0  0
 63 64  1  0  0  0
 64 65  1  0  0  0
 64 66  1  0  0  0
 67 68  1  0  0  0
 68 69  1  0  0  0
 68 71  1  0  0  0
 69 70  2  0  0  0
 69 78  1  0  0  0
 71 72  1  0  0  0
 72 73  4  0  0  0
 72 74  4  0  0  0
 73 75  4  0  0  0
 74 76  4  0  0  0
 75 77  4  0  0  0
 76 77  4  0  0  0
 78 79  1  0  0  0
 79 80  1  0  0  0
 79 82  1  0  0  0
 80 81  2  0  0  0
 80 90  1  0  0  0
 82 83  1  0  0  0
 83 84  4  0  0  0
 83 85  4  0  0  0
 84 86  4  0  0  0
 85 87  4  0  0  0
 86 88  4  0  0  0
 87 88  4  0  0  0
 88 89  1  0  0  0
 90 91  1  0  0  0
 91 92  1  0  0  0
 91 94  1  0  0  0
 92 93  1  0  0  0
 92 99  2  0  0  0
 94 95  1  0  0  0
 95 96  1  0  0  0
 96 97  1  0  0  0
 97 98  1  0  0  0
  1100  1  0  0  0
  1101  1  0  0  0
  1102  1  0  0  0
  2103  1  0  0  0
  5104  1  0  0  0
  5105  1  0  0  0
  6106  1  0  0  0
  6107  1  0  0  0
  7108  1  0  0  0
  7109  1  0  0  0
  8110  1  0  0  0
  8111  1  0  0  0
  9112  1  0  0  0
  9113  1  0  0  0
  9114  1  0  0  0
 10115  1  0  0  0
 11116  1  0  0  0
 14117  1  0  0  0
 14118  1  0  0  0
 15119  1  0  0  0
 15120  1  0  0  0
 16121  1  0  0  0
 16122  1  0  0  0
 17123  1  0  0  0
 17124  1  0  0  0
 18125  1  0  0  0
 18126  1  0  0  0
 18127  1  0  0  0
 19128  1  0  0  0
 20129  1  0  0  0
 23130  1  0  0  0
 23131  1  0  0  0
 24132  1  0  0  0
 24133  1  0  0  0
 27134  1  0  0  0
 27135  1  0  0  0
 28136  1  0  0  0
 29137  1  0  0  0
 32138  1  0  0  0
 32139  1  0  0  0
 33140  1  0  0  0
 33141  1  0  0  0
 34142  1  0  0  0
 34143  1  0  0  0
 35144  1  0  0  0
 35145  1  0  0  0
 36146  1  0  0  0
 36147  1  0  0  0
 36148  1  0  0  0
 37149  1  0  0  0
 38150  1  0  0  0
 41151  1  0  0  0
 42152  1  0  0  0
 42153  1  0  0  0
 42154  1  0  0  0
 43155  1  0  0  0
 43156  1  0  0  0
 43157  1  0  0  0
 44158  1  0  0  0
 45159  1  0  0  0
 48160  1  0  0  0
 48161  1  0  0  0
 51162  1  0  0  0
 52163  1  0  0  0
 54164  1  0  0  0
 55165  1  0  0  0
 58166  1  0  0  0
 58167  1  0  0  0
 58168  1  0  0  0
 59169  1  0  0  0
 60170  1  0  0  0
 63171  1  0  0  0
 63172  1  0  0  0
 64173  1  0  0  0
 65174  1  0  0  0
 65175  1  0  0  0
 65176  1  0  0  0
 66177  1  0  0  0
 66178  1  0  0  0
 66179  1  0  0  0
 67180  1  0  0  0
 68181  1  0  0  0
 71182  1  0  0  0
 71183  1  0  0  0
 73184  1  0  0  0
 74185  1  0  0  0
 75186  1  0  0  0
 76187  1  0  0  0
 77188  1  0  0  0
 78189  1  0  0  0
 79190  1  0  0  0
 82191  1  0  0  0
 82192  1  0  0  0
 84193  1  0  0  0
 85194  1  0  0  0
 86195  1  0  0  0
 87196  1  0  0  0
 89197  1  0  0  0
 90198  1  0  0  0
 91199  1  0  0  0
 93200  1  0  0  0
 94201  1  0  0  0
 94202  1  0  0  0
 95203  1  0  0  0
 95204  1  0  0  0
 96205  1  0  0  0
 96206  1  0  0  0
 97207  1  0  0  0
 97208  1  0  0  0
 98209  1  0  0  0
 98210  1  0  0  0
 98211  1  0  0  0
M  END
$$$$
