### 
### Created by X-TOOL on Mon Sep 10 21:13:13 2018
### 

@<TRIPOS>MOLECULE
4hpy_ligand
  211   213     1     0     0
SMALL
GAST_HUCK


@<TRIPOS>ATOM
      1 N          55.9160   53.1690   60.7200 N.4       1 LYS         0.2379
      2 CA         54.5290   53.1880   61.1680 C.3       1 LYS         0.0650
      3 C          54.3850   52.4420   62.4930 C.2       1 LYS         0.2267
      4 O          55.1900   52.6110   63.4090 O.2       1 LYS        -0.3907
      5 CB         53.6230   52.5490   60.1130 C.3       1 LYS         0.0080
      6 CG         53.7320   53.1610   58.7230 C.3       1 LYS        -0.0410
      7 CD         52.8910   52.3800   57.7210 C.3       1 LYS        -0.0123
      8 CE         53.0450   52.9200   56.3070 C.3       1 LYS        -0.0354
      9 NZ         52.5130   54.3020   56.1710 N.4       1 LYS         0.2185
     10 N          53.3400   51.6290   62.5880 N.am      1 LYS        -0.2610
     11 CA         53.1690   50.7080   63.7030 C.3       1 LYS         0.1311
     12 C          53.1800   49.2940   63.1540 C.2       1 LYS         0.2039
     13 O          52.9840   49.0910   61.9570 O.2       1 LYS        -0.3944
     14 CB         51.8430   50.9570   64.4240 C.3       1 LYS        -0.0122
     15 CG         51.7360   52.3120   65.0950 C.3       1 LYS        -0.0440
     16 CD         50.4770   52.3830   65.9410 C.3       1 LYS        -0.0124
     17 CE         50.3080   53.7510   66.5650 C.3       1 LYS        -0.0354
     18 NZ         49.1390   53.7840   67.4880 N.4       1 LYS         0.2185
     19 N          53.3990   48.3140   64.0230 N.am      1 GLN        -0.2636
     20 CA         53.3910   46.9190   63.6020 C.3       1 GLN         0.1330
     21 C          51.9690   46.3890   63.5130 C.2       1 GLN         0.2040
     22 O          51.1440   46.6390   64.3950 O.2       1 GLN        -0.3944
     23 CB         54.2100   46.0490   64.5600 C.3       1 GLN         0.0045
     24 CG         54.2200   44.5720   64.1760 C.3       1 GLN         0.0412
     25 CD         55.0080   43.7000   65.1430 C.2       1 GLN         0.1737
     26 OE1        55.6150   42.7060   64.7400 O.2       1 GLN        -0.3973
     27 NE2        54.9880   44.0560   66.4240 N.am      1 GLN        -0.3009
     28 N          51.6860   45.6520   62.4440 N.am      1 LYS        -0.2637
     29 CA         50.4000   44.9870   62.2780 C.3       1 LYS         0.1310
     30 C          50.3710   43.7100   63.1160 C.2       1 LYS         0.2039
     31 O          51.4120   43.0940   63.3590 O.2       1 LYS        -0.3944
     32 CB         50.1460   44.7000   60.7980 C.3       1 LYS        -0.0122
     33 CG         50.0630   45.9740   59.9670 C.3       1 LYS        -0.0440
     34 CD         49.9140   45.6970   58.4810 C.3       1 LYS        -0.0124
     35 CE         49.8970   47.0000   57.6980 C.3       1 LYS        -0.0354
     36 NZ         49.7360   46.7710   56.2380 N.4       1 LYS         0.2185
     37 N          49.1800   43.3230   63.5680 N.am      1 VAL        -0.2635
     38 CA         49.0630   42.3210   64.6230 C.3       1 VAL         0.1333
     39 C          49.5670   40.9310   64.2140 C.2       1 VAL         0.2042
     40 O          50.0680   40.1820   65.0480 O.2       1 VAL        -0.3944
     41 CB         47.6130   42.2580   65.1830 C.3       1 VAL        -0.0063
     42 CG1        46.6320   41.7360   64.1410 C.3       1 VAL        -0.0584
     43 CG2        47.5560   41.4390   66.4590 C.3       1 VAL        -0.0584
     44 N          49.4490   40.5990   62.9300 N.am      1 HIS        -0.2625
     45 CA         49.9190   39.3020   62.4370 C.3       1 HIS         0.1369
     46 C          51.1540   39.4010   61.5360 C.2       1 HIS         0.2054
     47 O          51.4000   38.5230   60.7130 O.2       1 HIS        -0.3942
     48 CB         48.7900   38.5620   61.7090 C.3       1 HIS         0.0145
     49 CG         47.6830   38.1200   62.6130 C.2       1 HIS        -0.0027
     50 ND1        46.4750   37.6540   62.1400 N.2       1 HIS        -0.3252
     51 CD2        47.6030   38.0710   63.9650 C.2       1 HIS         0.0291
     52 CE1        45.6970   37.3410   63.1620 C.2       1 HIS         0.0907
     53 NE2        46.3570   37.5820   64.2800 N.pl3     1 HIS        -0.2752
     54 N          51.9410   40.4600   61.7180 N.am      1 ALA        -0.2639
     55 CA         53.0960   40.7330   60.8640 C.3       1 ALA         0.1282
     56 C          54.0440   39.5440   60.7050 C.2       1 ALA         0.2036
     57 O          54.5700   39.3110   59.6160 O.2       1 ALA        -0.3944
     58 CB         53.8600   41.9530   61.3800 C.3       1 ALA        -0.0244
     59 N          54.2510   38.7900   61.7810 N.am      1 LEU        -0.2637
     60 CA         55.2050   37.6790   61.7610 C.3       1 LEU         0.1312
     61 C          54.8530   36.5900   60.7420 C.2       1 LEU         0.2040
     62 O          55.7310   35.8700   60.2780 O.2       1 LEU        -0.3944
     63 CB         55.3690   37.0600   63.1540 C.3       1 LEU        -0.0101
     64 CG         54.2720   36.1190   63.6530 C.3       1 LEU        -0.0425
     65 CD1        54.7730   35.3100   64.8400 C.3       1 LEU        -0.0625
     66 CD2        53.0170   36.8900   64.0320 C.3       1 LEU        -0.0625
     67 N          53.5780   36.4930   60.3770 N.am      1 PHE        -0.2619
     68 CA         53.1430   35.4660   59.4350 C.3       1 PHE         0.1404
     69 C          53.3200   35.8570   57.9690 C.2       1 PHE         0.2061
     70 O          53.0080   35.0680   57.0750 O.2       1 PHE        -0.3942
     71 CB         51.6850   35.0870   59.6980 C.3       1 PHE         0.0214
     72 CG         51.4690   34.4110   61.0210 C.ar      1 PHE        -0.0386
     73 CD1        51.9120   33.1170   61.2310 C.ar      1 PHE        -0.0601
     74 CD2        50.8130   35.0650   62.0490 C.ar      1 PHE        -0.0601
     75 CE1        51.7170   32.4880   62.4530 C.ar      1 PHE        -0.0686
     76 CE2        50.6130   34.4390   63.2740 C.ar      1 PHE        -0.0686
     77 CZ         51.0640   33.1500   63.4710 C.ar      1 PHE        -0.0687
     78 N          53.8280   37.0620   57.7260 N.am      1 TYR        -0.2620
     79 CA         53.9580   37.5840   56.3680 C.3       1 TYR         0.1390
     80 C          55.3710   38.0640   56.0570 C.2       1 TYR         0.2052
     81 O          55.6500   38.5030   54.9440 O.2       1 TYR        -0.3943
     82 CB         52.9440   38.7080   56.1390 C.3       1 TYR         0.0163
     83 CG         51.5290   38.2450   56.3870 C.ar      1 TYR        -0.0493
     84 CD1        50.8190   37.5760   55.3970 C.ar      1 TYR        -0.0685
     85 CD2        50.9200   38.4320   57.6210 C.ar      1 TYR        -0.0685
     86 CE1        49.5350   37.1290   55.6210 C.ar      1 TYR        -0.0398
     87 CE2        49.6290   37.9870   57.8550 C.ar      1 TYR        -0.0398
     88 CZ         48.9490   37.3290   56.8460 C.ar      1 TYR         0.0805
     89 OH         47.6680   36.8840   57.0580 O.3       1 TYR        -0.3376
     90 N          56.2570   37.9660   57.0430 N.am      1 LYS        -0.2694
     91 CA         57.6600   38.3390   56.8720 C.3       1 LYS         0.0944
     92 C          58.3170   37.5910   55.7140 C.2       1 LYS         0.0601
     93 O          58.4980   36.3740   55.7700 O.co2     1 LYS        -0.5666
     94 CB         58.4400   38.0830   58.1640 C.3       1 LYS        -0.0177
     95 CG         58.0200   38.9580   59.3350 C.3       1 LYS        -0.0446
     96 CD         59.1220   39.9360   59.7160 C.3       1 LYS        -0.0125
     97 CE         58.7330   40.7570   60.9360 C.3       1 LYS        -0.0354
     98 NZ         58.5010   39.8970   62.1310 N.4       1 LYS         0.2185
     99 OXT        58.6790   38.1890   54.7000 O.co2     1 LYS        -0.5666
    100 H1         55.9935   53.6648   59.8458 H         1 LYS         0.2015
    101 H2         56.2150   52.2148   60.5928 H         1 LYS         0.2015
    102 H3         56.4986   53.6143   61.4116 H         1 LYS         0.2015
    103 H4         54.2203   54.2335   61.3148 H         1 LYS         0.1098
    104 H5         52.5809   52.6496   60.4505 H         1 LYS         0.0346
    105 H6         53.8831   51.4828   60.0388 H         1 LYS         0.0346
    106 H7         54.7841   53.1430   58.4024 H         1 LYS         0.0270
    107 H8         53.3771   54.2016   58.7582 H         1 LYS         0.0270
    108 H9         51.8332   52.4490   58.0146 H         1 LYS         0.0317
    109 H10        53.2077   51.3267   57.7357 H         1 LYS         0.0317
    110 H11        52.4998   52.2612   55.6151 H         1 LYS         0.0813
    111 H12        54.1131   52.9244   56.0441 H         1 LYS         0.0813
    112 H13        52.6358   54.6174   55.2215 H         1 LYS         0.1994
    113 H14        53.0105   54.9166   56.7962 H         1 LYS         0.1994
    114 H15        51.5321   54.3088   56.4030 H         1 LYS         0.1994
    115 H16        52.6457   51.6497   61.8686 H         1 LYS         0.1884
    116 H17        53.9977   50.8377   64.4147 H         1 LYS         0.0800
    117 H18        51.7202   50.1817   65.1945 H         1 LYS         0.0312
    118 H19        51.0305   50.8736   63.6872 H         1 LYS         0.0312
    119 H20        51.7004   53.0966   64.3248 H         1 LYS         0.0269
    120 H21        52.6146   52.4690   65.7380 H         1 LYS         0.0269
    121 H22        50.5401   51.6302   66.7406 H         1 LYS         0.0317
    122 H23        49.6055   52.1698   65.3045 H         1 LYS         0.0317
    123 H24        50.1555   54.4926   65.7670 H         1 LYS         0.0813
    124 H25        51.2178   54.0021   67.1300 H         1 LYS         0.0813
    125 H26        49.0521   54.7054   67.8873 H         1 LYS         0.1994
    126 H27        49.2737   53.1098   68.2251 H         1 LYS         0.1994
    127 H28        48.3003   53.5592   66.9761 H         1 LYS         0.1994
    128 H29        53.5723   48.5371   64.9823 H         1 GLN         0.1883
    129 H30        53.8476   46.8594   62.6030 H         1 GLN         0.0801
    130 H31        53.7833   46.1443   65.5694 H         1 GLN         0.0337
    131 H32        55.2471   46.4155   64.5642 H         1 GLN         0.0337
    132 H33        54.6673   44.4750   63.1758 H         1 GLN         0.0504
    133 H34        53.1810   44.2118   64.1496 H         1 GLN         0.0504
    134 H35        55.4894   43.5168   67.1007 H         1 GLN         0.1814
    135 H36        54.4715   44.8629   66.7107 H         1 GLN         0.1814
    136 H37        52.3785   45.5504   61.7298 H         1 LYS         0.1883
    137 H38        49.6068   45.6574   62.6404 H         1 LYS         0.0800
    138 H39        49.1967   44.1527   60.7018 H         1 LYS         0.0312
    139 H40        50.9679   44.0791   60.4121 H         1 LYS         0.0312
    140 H41        50.9817   46.5579   60.1255 H         1 LYS         0.0269
    141 H42        49.1943   46.5583   60.3047 H         1 LYS         0.0269
    142 H43        48.9721   45.1566   58.3057 H         1 LYS         0.0317
    143 H44        50.7592   45.0807   58.1407 H         1 LYS         0.0317
    144 H45        50.8446   47.5310   57.8717 H         1 LYS         0.0813
    145 H46        49.0598   47.6178   58.0549 H         1 LYS         0.0813
    146 H47        49.7298   47.6571   55.7576 H         1 LYS         0.1994
    147 H48        48.8667   46.2901   56.0671 H         1 LYS         0.1994
    148 H49        50.5023   46.2106   55.8993 H         1 LYS         0.1994
    149 H50        48.3517   43.7255   63.1782 H         1 VAL         0.1883
    150 H51        49.7103   42.6574   65.4463 H         1 VAL         0.0802
    151 H52        47.3106   43.2852   65.4349 H         1 VAL         0.0343
    152 H53        45.6206   41.7058   64.5724 H         1 VAL         0.0234
    153 H54        46.9294   40.7229   63.8324 H         1 VAL         0.0234
    154 H55        46.6376   42.4024   63.2658 H         1 VAL         0.0234
    155 H56        48.2752   41.8432   67.1865 H         1 VAL         0.0234
    156 H57        47.8102   40.3926   66.2347 H         1 VAL         0.0234
    157 H58        46.5413   41.4875   66.8809 H         1 VAL         0.0234
    158 H59        49.0325   41.2460   62.2913 H         1 HIS         0.1885
    159 H60        50.2029   38.7037   63.3153 H         1 HIS         0.0817
    160 H61        49.2154   37.6732   61.2201 H         1 HIS         0.0420
    161 H62        48.3689   39.2338   60.9465 H         1 HIS         0.0420
    162 H63        48.3798   38.3640   64.6698 H         1 HIS         0.0729
    163 H64        44.6828   36.9503   63.0934 H         1 HIS         0.1199
    164 H65        45.9971   37.4287   65.2328 H         1 HIS         0.2361
    165 H66        51.7345   41.0911   62.4657 H         1 ALA         0.1883
    166 H67        52.7091   40.9755   59.8632 H         1 ALA         0.0797
    167 H68        54.7251   42.1463   60.7287 H         1 ALA         0.0277
    168 H69        54.2088   41.7605   62.4053 H         1 ALA         0.0277
    169 H70        53.1958   42.8298   61.3771 H         1 ALA         0.0277
    170 H71        53.7448   38.9858   62.6209 H         1 LEU         0.1883
    171 H72        56.1784   38.0978   61.4661 H         1 LEU         0.0800
    172 H73        55.4422   37.8884   63.8739 H         1 LEU         0.0315
    173 H74        56.3111   36.4922   63.1512 H         1 LEU         0.0315
    174 H75        54.0173   35.4235   62.8397 H         1 LEU         0.0298
    175 H76        53.9750   34.6380   65.1887 H         1 LEU         0.0232
    176 H77        55.0596   35.9922   65.6539 H         1 LEU         0.0232
    177 H78        55.6466   34.7148   64.5356 H         1 LEU         0.0232
    178 H79        52.6668   37.4694   63.1650 H         1 LEU         0.0232
    179 H80        53.2439   37.5743   64.8628 H         1 LEU         0.0232
    180 H81        52.2326   36.1840   64.3422 H         1 LEU         0.0232
    181 H82        52.9076   37.1326   60.7531 H         1 PHE         0.1885
    182 H83        53.7638   34.5758   59.6139 H         1 PHE         0.0823
    183 H84        51.3537   34.4052   58.9009 H         1 PHE         0.0474
    184 H85        51.0774   36.0036   59.6726 H         1 PHE         0.0474
    185 H86        52.4176   32.5879   60.4313 H         1 PHE         0.0557
    186 H87        50.4514   36.0756   61.8975 H         1 PHE         0.0557
    187 H88        52.0777   31.4774   62.6067 H         1 PHE         0.0599
    188 H89        50.1030   34.9633   64.0740 H         1 PHE         0.0599
    189 H90        50.9053   32.6588   64.4242 H         1 PHE         0.0559
    190 H91        54.1294   37.6264   58.4945 H         1 TYR         0.1885
    191 H92        53.7241   36.7656   55.6712 H         1 TYR         0.0821
    192 H93        53.0275   39.0566   55.0990 H         1 TYR         0.0453
    193 H94        53.1721   39.5383   56.8235 H         1 TYR         0.0453
    194 H95        51.2830   37.4030   54.4327 H         1 TYR         0.0530
    195 H96        51.4632   38.9340   58.4135 H         1 TYR         0.0530
    196 H97        48.9900   36.6216   54.8332 H         1 TYR         0.0525
    197 H98        49.1576   38.1524   58.8170 H         1 TYR         0.0525
    198 H99        47.6640   36.2657   57.7792 H         1 TYR         0.2458
    199 H100       55.9532   37.6253   57.9327 H         1 LYS         0.1875
    200 H101       57.7001   39.4155   56.6493 H         1 LYS         0.0726
    201 H102       59.5063   38.2646   57.9639 H         1 LYS         0.0305
    202 H103       58.2947   37.0311   58.4510 H         1 LYS         0.0305
    203 H104       57.7955   38.3163   60.1997 H         1 LYS         0.0269
    204 H105       57.1194   39.5241   59.0548 H         1 LYS         0.0269
    205 H106       59.3066   40.6153   58.8707 H         1 LYS         0.0317
    206 H107       60.0396   39.3725   59.9408 H         1 LYS         0.0317
    207 H108       57.8100   41.3119   60.7122 H         1 LYS         0.0813
    208 H109       59.5426   41.4671   61.1602 H         1 LYS         0.0813
    209 H110       58.2461   40.4750   62.9165 H         1 LYS         0.1994
    210 H111       59.3438   39.3883   62.3477 H         1 LYS         0.1994
    211 H112       57.7561   39.2461   61.9371 H         1 LYS         0.1994
@<TRIPOS>BOND
     1    1    2 1  
     2    2    3 1  
     3    2    5 1  
     4    3    4 2  
     5    3   10 am 
     6    5    6 1  
     7    6    7 1  
     8    7    8 1  
     9    8    9 1  
    10   10   11 1  
    11   11   12 1  
    12   11   14 1  
    13   12   13 2  
    14   12   19 am 
    15   14   15 1  
    16   15   16 1  
    17   16   17 1  
    18   17   18 1  
    19   19   20 1  
    20   20   21 1  
    21   20   23 1  
    22   21   22 2  
    23   21   28 am 
    24   23   24 1  
    25   24   25 1  
    26   25   26 2  
    27   25   27 am 
    28   28   29 1  
    29   29   30 1  
    30   29   32 1  
    31   30   31 2  
    32   30   37 am 
    33   32   33 1  
    34   33   34 1  
    35   34   35 1  
    36   35   36 1  
    37   37   38 1  
    38   38   39 1  
    39   38   41 1  
    40   39   40 2  
    41   39   44 am 
    42   41   42 1  
    43   41   43 1  
    44   44   45 1  
    45   45   46 1  
    46   45   48 1  
    47   46   47 2  
    48   46   54 am 
    49   48   49 1  
    50   49   50 1  
    51   49   51 2  
    52   50   52 2  
    53   51   53 1  
    54   52   53 1  
    55   54   55 1  
    56   55   56 1  
    57   55   58 1  
    58   56   57 2  
    59   56   59 am 
    60   59   60 1  
    61   60   61 1  
    62   60   63 1  
    63   61   62 2  
    64   61   67 am 
    65   63   64 1  
    66   64   65 1  
    67   64   66 1  
    68   67   68 1  
    69   68   69 1  
    70   68   71 1  
    71   69   70 2  
    72   69   78 am 
    73   71   72 1  
    74   72   73 ar 
    75   72   74 ar 
    76   73   75 ar 
    77   74   76 ar 
    78   75   77 ar 
    79   76   77 ar 
    80   78   79 1  
    81   79   80 1  
    82   79   82 1  
    83   80   81 2  
    84   80   90 am 
    85   82   83 1  
    86   83   84 ar 
    87   83   85 ar 
    88   84   86 ar 
    89   85   87 ar 
    90   86   88 ar 
    91   87   88 ar 
    92   88   89 1  
    93   90   91 1  
    94   91   92 1  
    95   91   94 1  
    96   92   93 ar 
    97   92   99 ar 
    98   94   95 1  
    99   95   96 1  
   100   96   97 1  
   101   97   98 1  
   102    1  100 1  
   103    1  101 1  
   104    1  102 1  
   105    2  103 1  
   106    5  104 1  
   107    5  105 1  
   108    6  106 1  
   109    6  107 1  
   110    7  108 1  
   111    7  109 1  
   112    8  110 1  
   113    8  111 1  
   114    9  112 1  
   115    9  113 1  
   116    9  114 1  
   117   10  115 1  
   118   11  116 1  
   119   14  117 1  
   120   14  118 1  
   121   15  119 1  
   122   15  120 1  
   123   16  121 1  
   124   16  122 1  
   125   17  123 1  
   126   17  124 1  
   127   18  125 1  
   128   18  126 1  
   129   18  127 1  
   130   19  128 1  
   131   20  129 1  
   132   23  130 1  
   133   23  131 1  
   134   24  132 1  
   135   24  133 1  
   136   27  134 1  
   137   27  135 1  
   138   28  136 1  
   139   29  137 1  
   140   32  138 1  
   141   32  139 1  
   142   33  140 1  
   143   33  141 1  
   144   34  142 1  
   145   34  143 1  
   146   35  144 1  
   147   35  145 1  
   148   36  146 1  
   149   36  147 1  
   150   36  148 1  
   151   37  149 1  
   152   38  150 1  
   153   41  151 1  
   154   42  152 1  
   155   42  153 1  
   156   42  154 1  
   157   43  155 1  
   158   43  156 1  
   159   43  157 1  
   160   44  158 1  
   161   45  159 1  
   162   48  160 1  
   163   48  161 1  
   164   51  162 1  
   165   52  163 1  
   166   53  164 1  
   167   54  165 1  
   168   55  166 1  
   169   58  167 1  
   170   58  168 1  
   171   58  169 1  
   172   59  170 1  
   173   60  171 1  
   174   63  172 1  
   175   63  173 1  
   176   64  174 1  
   177   65  175 1  
   178   65  176 1  
   179   65  177 1  
   180   66  178 1  
   181   66  179 1  
   182   66  180 1  
   183   67  181 1  
   184   68  182 1  
   185   71  183 1  
   186   71  184 1  
   187   73  185 1  
   188   74  186 1  
   189   75  187 1  
   190   76  188 1  
   191   77  189 1  
   192   78  190 1  
   193   79  191 1  
   194   82  192 1  
   195   82  193 1  
   196   84  194 1  
   197   85  195 1  
   198   86  196 1  
   199   87  197 1  
   200   89  198 1  
   201   90  199 1  
   202   91  200 1  
   203   94  201 1  
   204   94  202 1  
   205   95  203 1  
   206   95  204 1  
   207   96  205 1  
   208   96  206 1  
   209   97  207 1  
   210   97  208 1  
   211   98  209 1  
   212   98  210 1  
   213   98  211 1  
@<TRIPOS>SUBSTRUCTURE
     1 LYS         1

