1b9v_ligand
  -I-interpret- 

 51 52  0  0  0  0  0  0  0  0999 V2000
   33.8750   -9.4120   65.0710 C   0  0  0  0  0
   32.6830   -9.1850   64.3260 C   0  0  0  0  0
   31.6360  -10.1660   64.3690 C   0  0  0  0  0
   31.8140  -11.3380   65.1410 C   0  0  0  0  0
   32.9940  -11.5710   65.8730 C   0  0  0  0  0
   34.0310  -10.5980   65.8420 C   0  0  0  0  0
   33.1340  -12.8250   66.6530 C   0  0  0  0  0
   32.5210   -8.0310   63.5490 N   0  0  0  0  0
   30.4840   -9.9330   63.6410 N   0  0  0  0  0
   29.1840  -10.6300   63.7590 C   0  0  0  0  0
   29.2160  -11.9210   62.8880 C   0  0  0  0  0
   27.9490  -12.7780   62.9190 C   0  0  0  0  0
   28.0610   -9.6490   63.3340 C   0  0  0  0  0
   27.7650   -8.5320   64.3440 C   0  0  0  0  0
   33.0660   -7.7960   62.1590 C   0  0  0  0  0
   32.0960   -6.7030   61.6670 C   0  0  0  0  0
   31.7780   -5.8770   62.9210 C   0  0  0  0  0
   31.7970   -6.9540   63.9980 C   0  0  0  0  0
   31.2300   -6.8410   65.0770 O   0  0  0  0  0
   33.0290   -9.0750   61.2490 C   0  0  0  0  0
   31.7020   -9.4880   60.9290 O   0  0  0  0  0
   34.5150   -7.2100   62.1450 C   0  0  0  0  0
   35.1150   -7.1970   63.4350 O   0  0  0  0  0
   32.0780  -13.6760   66.5930 O   0  0  0  0  0
   34.1150  -13.0700   67.2850 O   0  0  0  0  0
   34.6745   -8.6714   65.0506 H   0  0  0  0  0
   31.0164  -12.0804   65.1699 H   0  0  0  0  0
   34.9470  -10.7610   66.4099 H   0  0  0  0  0
   30.5363   -9.1937   62.9402 H   0  0  0  0  0
   28.9875  -10.9391   64.7856 H   0  0  0  0  0
   30.0172  -12.5422   63.2884 H   0  0  0  0  0
   29.3399  -11.5926   61.8560 H   0  0  0  0  0
   27.7577  -13.1046   63.9412 H   0  0  0  0  0
   27.1048  -12.1892   62.5604 H   0  0  0  0  0
   28.0850  -13.6487   62.2775 H   0  0  0  0  0
   27.1482  -10.2366   63.2359 H   0  0  0  0  0
   28.3945   -9.1651   62.4160 H   0  0  0  0  0
   27.4554   -8.9732   65.2914 H   0  0  0  0  0
   28.6637   -7.9343   64.4966 H   0  0  0  0  0
   26.9665   -7.8979   63.9588 H   0  0  0  0  0
   31.1974   -7.1266   61.2186 H   0  0  0  0  0
   32.5348   -6.0934   60.8771 H   0  0  0  0  0
   30.8354   -5.3329   62.8609 H   0  0  0  0  0
   32.4812   -5.0638   63.1010 H   0  0  0  0  0
   33.5086   -9.8872   61.7954 H   0  0  0  0  0
   33.5380   -8.8351   60.3155 H   0  0  0  0  0
   31.7367  -10.2702   60.3736 H   0  0  0  0  0
   34.4559   -6.1800   61.7932 H   0  0  0  0  0
   35.1249   -7.8413   61.4988 H   0  0  0  0  0
   35.9996   -6.8295   63.3715 H   0  0  0  0  0
   31.3940  -13.2967   66.0363 H   0  0  0  0  0
  1  6  4  0  0  0
  1  2  4  0  0  0
  2  8  1  0  0  0
  2  3  4  0  0  0
  3  9  1  0  0  0
  3  4  4  0  0  0
  4  5  4  0  0  0
  5  7  1  0  0  0
  5  6  4  0  0  0
  7 25  2  0  0  0
  7 24  1  0  0  0
  9 10  1  0  0  0
 10 13  1  0  0  0
 10 11  1  0  0  0
 11 12  1  0  0  0
 13 14  1  0  0  0
  8 18  1  0  0  0
  8 15  1  0  0  0
 15 22  1  0  0  0
 15 20  1  0  0  0
 15 16  1  0  0  0
 16 17  1  0  0  0
 17 18  1  0  0  0
 18 19  2  0  0  0
 20 21  1  0  0  0
 22 23  1  0  0  0
  1 26  1  0  0  0
  4 27  1  0  0  0
  6 28  1  0  0  0
  9 29  1  0  0  0
 10 30  1  0  0  0
 11 31  1  0  0  0
 11 32  1  0  0  0
 12 33  1  0  0  0
 12 34  1  0  0  0
 12 35  1  0  0  0
 13 36  1  0  0  0
 13 37  1  0  0  0
 14 38  1  0  0  0
 14 39  1  0  0  0
 14 40  1  0  0  0
 16 41  1  0  0  0
 16 42  1  0  0  0
 17 43  1  0  0  0
 17 44  1  0  0  0
 20 45  1  0  0  0
 20 46  1  0  0  0
 21 47  1  0  0  0
 22 48  1  0  0  0
 22 49  1  0  0  0
 23 50  1  0  0  0
 24 51  1  0  0  0
M  END
$$$$
