1ajv_ligand
  -I-interpret- 

 75 79  0  0  0  0  0  0  0  0999 V2000
   11.2880   23.4910    5.8630 N   0  0  0  0  0
   11.7520   21.9940    6.4090 S   0  0  0  0  0
   13.3390   22.0510    6.1430 N   0  0  0  0  0
   13.7180   21.8820    4.7150 C   0  0  0  0  0
   13.8660   23.2220    4.0190 C   0  0  0  0  0
   12.9640   24.3140    4.5500 C   0  0  0  0  0
   11.4700   24.0310    4.5340 C   0  0  0  0  0
   10.0970   23.9500    6.4360 C   0  0  0  0  0
    9.7590   25.1350    7.2730 C   0  0  0  0  0
    8.5260   25.7840    7.1410 C   0  0  0  0  0
    8.2300   26.8970    7.9290 C   0  0  0  0  0
    9.1850   27.3780    8.8690 C   0  0  0  0  0
   10.4310   26.7390    9.0090 C   0  0  0  0  0
   10.7160   25.6130    8.2060 C   0  0  0  0  0
   11.1950   20.9190    5.6210 O   0  0  0  0  0
   14.7620   20.0210    3.5210 O   0  0  0  0  0
   15.7580   19.1500    3.2110 C   0  0  0  0  0
   16.6850   18.7520    4.1980 C   0  0  0  0  0
   17.7110   17.8480    3.8820 C   0  0  0  0  0
   17.8040   17.3340    2.5690 C   0  0  0  0  0
   16.8800   17.7260    1.5850 C   0  0  0  0  0
   15.8660   18.6320    1.9120 C   0  0  0  0  0
   14.1990   22.6960    7.1600 C   0  0  0  0  0
   15.1850   21.8560    7.9250 C   0  0  0  0  0
   14.7480   20.9690    8.9400 C   0  0  0  0  0
   15.6870   20.1700    9.6510 C   0  0  0  0  0
   17.0610   20.2600    9.3460 C   0  0  0  0  0
   17.4950   21.1470    8.3360 C   0  0  0  0  0
   16.5580   21.9380    7.6310 C   0  0  0  0  0
   15.1850   23.6960    4.1710 O   0  0  0  0  0
   13.2820   25.4920    3.8480 O   0  0  0  0  0
   10.8120   23.1390    3.4660 C   0  0  0  0  0
    9.3880   23.2350    3.7130 O   0  0  0  0  0
    8.6380   24.0960    2.9990 C   0  0  0  0  0
    9.1860   25.2970    2.5060 C   0  0  0  0  0
    8.4120   26.2030    1.7670 C   0  0  0  0  0
    7.0650   25.9140    1.5160 C   0  0  0  0  0
    6.5070   24.7220    2.0070 C   0  0  0  0  0
    7.2990   23.8160    2.7450 C   0  0  0  0  0
   11.5630   21.9660    7.8210 O   0  0  0  0  0
   14.9800   21.0170    4.5480 C   0  0  0  0  0
   12.9016   21.3463    4.2308 H   0  0  0  0  0
   13.5929   23.0244    2.9824 H   0  0  0  0  0
   13.1630   24.4024    5.6180 H   0  0  0  0  0
   10.9559   24.9497    4.2516 H   0  0  0  0  0
    9.9508   23.1667    7.1797 H   0  0  0  0  0
    9.5627   24.2238    5.5263 H   0  0  0  0  0
    7.7944   25.4188    6.4202 H   0  0  0  0  0
    7.2676   27.3981    7.8248 H   0  0  0  0  0
    8.9496   28.2466    9.4840 H   0  0  0  0  0
   11.1646   27.1075    9.7261 H   0  0  0  0  0
   11.6769   25.1077    8.3032 H   0  0  0  0  0
   16.6037   19.1484    5.2101 H   0  0  0  0  0
   18.4301   17.5449    4.6430 H   0  0  0  0  0
   18.5969   16.6295    2.3178 H   0  0  0  0  0
   16.9533   17.3264    0.5735 H   0  0  0  0  0
   15.1513   18.9392    1.1485 H   0  0  0  0  0
   13.5070   23.0712    7.9140 H   0  0  0  0  0
   14.8100   23.4046    6.6008 H   0  0  0  0  0
   13.6866   20.8982    9.1776 H   0  0  0  0  0
   15.3446   19.4893   10.4304 H   0  0  0  0  0
   17.7837   19.6487    9.8865 H   0  0  0  0  0
   18.5562   21.2222    8.0989 H   0  0  0  0  0
   16.9034   22.6179    6.8521 H   0  0  0  0  0
   15.8008   23.0349    3.8464 H   0  0  0  0  0
   14.2305   25.6363    3.8805 H   0  0  0  0  0
   11.1623   22.1089    3.5320 H   0  0  0  0  0
   11.0674   23.4652    2.4578 H   0  0  0  0  0
   10.2332   25.5264    2.7032 H   0  0  0  0  0
    8.8553   27.1250    1.3909 H   0  0  0  0  0
    6.4528   26.6102    0.9427 H   0  0  0  0  0
    5.4578   24.4956    1.8173 H   0  0  0  0  0
    6.8588   22.8913    3.1182 H   0  0  0  0  0
   15.2014   20.5181    5.4915 H   0  0  0  0  0
   15.8166   21.6535    4.2598 H   0  0  0  0  0
  1  8  1  0  0  0
  1  7  1  0  0  0
  1  2  1  0  0  0
  2 40  2  0  0  0
  2 15  2  0  0  0
  2  3  1  0  0  0
  3 23  1  0  0  0
  3  4  1  0  0  0
  4 41  1  0  0  0
  4  5  1  0  0  0
  5 30  1  0  0  0
  5  6  1  0  0  0
  6 31  1  0  0  0
  6  7  1  0  0  0
  7 32  1  0  0  0
 32 33  1  0  0  0
 33 34  1  0  0  0
 34 39  4  0  0  0
 34 35  4  0  0  0
 35 36  4  0  0  0
 36 37  4  0  0  0
 37 38  4  0  0  0
 38 39  4  0  0  0
 41 16  1  0  0  0
 16 17  1  0  0  0
 17 22  4  0  0  0
 17 18  4  0  0  0
 18 19  4  0  0  0
 19 20  4  0  0  0
 20 21  4  0  0  0
 21 22  4  0  0  0
 23 24  1  0  0  0
 24 29  4  0  0  0
 24 25  4  0  0  0
 25 26  4  0  0  0
 26 27  4  0  0  0
 27 28  4  0  0  0
 28 29  4  0  0  0
  8  9  1  0  0  0
  9 14  4  0  0  0
  9 10  4  0  0  0
 10 11  4  0  0  0
 11 12  4  0  0  0
 12 13  4  0  0  0
 13 14  4  0  0  0
  4 42  1  0  0  0
  5 43  1  0  0  0
  6 44  1  0  0  0
  7 45  1  0  0  0
  8 46  1  0  0  0
  8 47  1  0  0  0
 10 48  1  0  0  0
 11 49  1  0  0  0
 12 50  1  0  0  0
 13 51  1  0  0  0
 14 52  1  0  0  0
 18 53  1  0  0  0
 19 54  1  0  0  0
 20 55  1  0  0  0
 21 56  1  0  0  0
 22 57  1  0  0  0
 23 58  1  0  0  0
 23 59  1  0  0  0
 25 60  1  0  0  0
 26 61  1  0  0  0
 27 62  1  0  0  0
 28 63  1  0  0  0
 29 64  1  0  0  0
 30 65  1  0  0  0
 31 66  1  0  0  0
 32 67  1  0  0  0
 32 68  1  0  0  0
 35 69  1  0  0  0
 36 70  1  0  0  0
 37 71  1  0  0  0
 38 72  1  0  0  0
 39 73  1  0  0  0
 41 74  1  0  0  0
 41 75  1  0  0  0
M  END
$$$$
