5ekx_ligand
  -I-interpret- 

 19 19  0  0  0  0  0  0  0  0999 V2000
  -36.6440  -48.6490  -14.7160 N   0  0  0  0  0
  -38.0060  -49.0620  -14.7110 C   0  0  0  0  0
  -38.4860  -49.8380  -15.8030 C   0  0  0  0  0
  -39.8510  -50.2100  -15.8470 C   0  0  0  0  0
  -40.3930  -50.9520  -17.0130 C   0  0  0  0  0
  -40.6900  -49.8230  -14.8060 C   0  0  0  0  0
  -42.3830  -50.2270  -14.8850 Cl  0  0  0  0  0
  -40.2700  -49.0880  -13.7060 C   0  0  0  0  0
  -38.9190  -48.6910  -13.6480 C   0  0  0  0  0
  -38.4800  -47.9380  -12.5360 N   0  0  0  0  0
  -36.0348  -48.9099  -15.4914 H   0  0  0  0  0
  -36.2771  -48.0921  -13.9442 H   0  0  0  0  0
  -37.8076  -50.1436  -16.5996 H   0  0  0  0  0
  -40.2577  -50.3565  -17.9158 H   0  0  0  0  0
  -39.8631  -51.8987  -17.1178 H   0  0  0  0  0
  -41.4548  -51.1437  -16.8584 H   0  0  0  0  0
  -40.9658  -48.8252  -12.9092 H   0  0  0  0  0
  -37.5050  -47.6455  -12.4710 H   0  0  0  0  0
  -39.1381  -47.6869  -11.7982 H   0  0  0  0  0
  1  2  1  0  0  0
  2  3  4  0  0  0
  2  9  4  0  0  0
  3  4  4  0  0  0
  4  5  1  0  0  0
  4  6  4  0  0  0
  6  7  1  0  0  0
  6  8  4  0  0  0
  8  9  4  0  0  0
  9 10  1  0  0  0
  1 11  1  0  0  0
  1 12  1  0  0  0
  3 13  1  0  0  0
  5 14  1  0  0  0
  5 15  1  0  0  0
  5 16  1  0  0  0
  8 17  1  0  0  0
 10 18  1  0  0  0
 10 19  1  0  0  0
M  END
$$$$
