2xkf_ligand
  -I-interpret- 

 52 54  0  0  0  0  0  0  0  0999 V2000
  -26.1830   16.5240  -19.0830 C   0  0  0  0  0
  -27.1310   16.8110  -20.0470 O   0  0  0  0  0
  -27.1060   18.0280  -20.7090 C   0  0  0  0  0
  -26.5220   19.2250  -20.0550 C   0  0  0  0  0
  -26.5010   20.5020  -20.7520 C   0  0  0  0  0
  -25.9090   21.6290  -20.0950 C   0  0  0  0  0
  -25.7730   22.8880  -20.7690 C   0  0  0  0  0
  -25.1790   23.9730  -20.1040 N   0  0  0  0  0
  -24.7200   23.8280  -18.7830 C   0  0  0  0  0
  -24.1040   24.9120  -18.1100 N   0  0  0  0  0
  -24.8480   22.5650  -18.1180 C   0  0  0  0  0
  -24.3480   22.4240  -16.7570 N   0  0  0  0  0
  -25.1390   21.4770  -15.9620 C   0  0  0  0  0
  -24.4390   20.9950  -14.6900 C   0  0  0  0  0
  -23.3340   21.8960  -14.1890 C   0  0  0  0  0
  -22.8700   21.7250  -12.7900 C   0  0  0  0  0
  -22.9460   20.6290  -12.2640 O   0  0  0  0  0
  -22.1310   22.7110  -12.1900 O   0  0  0  0  0
  -22.3340   22.3120  -15.2580 C   0  0  0  0  0
  -22.9020   22.1940  -16.6950 C   0  0  0  0  0
  -25.4320   21.4790  -18.7720 N   0  0  0  0  0
  -27.0600   20.6200  -22.0960 C   0  0  0  0  0
  -27.6410   19.4280  -22.7410 C   0  0  0  0  0
  -28.1730   19.5180  -24.0120 O   0  0  0  0  0
  -28.3930   20.7590  -24.5680 C   0  0  0  0  0
  -27.6590   18.1380  -22.0380 C   0  0  0  0  0
  -28.1950   17.0170  -22.6330 O   0  0  0  0  0
  -27.3450   16.0110  -23.0470 C   0  0  0  0  0
  -25.1897   16.5585  -19.5304 H   0  0  0  0  0
  -26.2476   17.2597  -18.2814 H   0  0  0  0  0
  -26.3668   15.5282  -18.6796 H   0  0  0  0  0
  -26.1076   19.1475  -19.0498 H   0  0  0  0  0
  -26.1292   23.0020  -21.7928 H   0  0  0  0  0
  -23.9901   25.8080  -18.5838 H   0  0  0  0  0
  -23.7745   24.7963  -17.1517 H   0  0  0  0  0
  -25.3159   20.6006  -16.5854 H   0  0  0  0  0
  -26.0482   21.9936  -15.6545 H   0  0  0  0  0
  -23.9795   20.0356  -14.9278 H   0  0  0  0  0
  -25.1968   20.9611  -13.9072 H   0  0  0  0  0
  -23.8469   22.8376  -13.9931 H   0  0  0  0  0
  -22.1700   23.5081  -12.7235 H   0  0  0  0  0
  -21.4732   21.6473  -15.1850 H   0  0  0  0  0
  -22.0790   23.3577  -15.0860 H   0  0  0  0  0
  -22.4173   22.9538  -17.3081 H   0  0  0  0  0
  -22.7107   21.1801  -17.0465 H   0  0  0  0  0
  -27.0479   21.5778  -22.6162 H   0  0  0  0  0
  -29.0908   21.3169  -23.9436 H   0  0  0  0  0
  -27.4487   21.2996  -24.6322 H   0  0  0  0  0
  -28.8130   20.6390  -25.5666 H   0  0  0  0  0
  -26.6473   16.4073  -23.7847 H   0  0  0  0  0
  -26.7910   15.6293  -22.1894 H   0  0  0  0  0
  -27.9280   15.2050  -23.4926 H   0  0  0  0  0
  1  2  1  0  0  0
  2  3  1  0  0  0
  3  4  4  0  0  0
  3 26  4  0  0  0
  4  5  4  0  0  0
  5  6  1  0  0  0
  5 22  4  0  0  0
  6  7  4  0  0  0
  6 21  4  0  0  0
  7  8  4  0  0  0
  8  9  4  0  0  0
  9 10  1  0  0  0
  9 11  4  0  0  0
 11 12  1  0  0  0
 11 21  4  0  0  0
 12 13  1  0  0  0
 12 20  1  0  0  0
 13 14  1  0  0  0
 14 15  1  0  0  0
 15 16  1  0  0  0
 15 19  1  0  0  0
 16 17  2  0  0  0
 16 18  1  0  0  0
 19 20  1  0  0  0
 22 23  4  0  0  0
 23 24  1  0  0  0
 23 26  4  0  0  0
 24 25  1  0  0  0
 26 27  1  0  0  0
 27 28  1  0  0  0
  1 29  1  0  0  0
  1 30  1  0  0  0
  1 31  1  0  0  0
  4 32  1  0  0  0
  7 33  1  0  0  0
 10 34  1  0  0  0
 10 35  1  0  0  0
 13 36  1  0  0  0
 13 37  1  0  0  0
 14 38  1  0  0  0
 14 39  1  0  0  0
 15 40  1  0  0  0
 18 41  1  0  0  0
 19 42  1  0  0  0
 19 43  1  0  0  0
 20 44  1  0  0  0
 20 45  1  0  0  0
 22 46  1  0  0  0
 25 47  1  0  0  0
 25 48  1  0  0  0
 25 49  1  0  0  0
 28 50  1  0  0  0
 28 51  1  0  0  0
 28 52  1  0  0  0
M  END
$$$$
