4zxx_ligand
  -I-interpret- 

 77 81  0  0  0  0  0  0  0  0999 V2000
    8.3450   35.3290   26.5820 C   0  0  0  0  0
    7.2010   38.1390   24.3420 C   0  0  0  0  0
    7.0540   37.2810   25.6090 C   0  0  0  0  0
    9.3570   33.2790   27.3020 C   0  0  0  0  0
    5.7380   39.8710   22.1810 C   0  0  0  0  0
    4.5850   39.2450   22.6700 C   0  0  0  0  0
    3.5770   38.7720   21.8330 C   0  0  0  0  0
    3.7260   38.9120   20.4610 C   0  0  0  0  0
    8.5380   34.8690   28.9590 C   0  0  0  0  0
    8.1050   35.6880   27.8910 C   0  0  0  0  0
    1.8190   38.3100   23.5730 C   0  0  0  0  0
    6.8050   39.4240   24.3810 N   0  0  0  0  0
    6.8350   40.2500   23.1580 C   0  0  0  0  0
    6.6650   41.6640   23.7340 C   0  0  0  0  0
    5.7750   41.4460   24.9280 C   0  0  0  0  0
    6.3230   40.1890   25.5460 C   0  0  0  0  0
    9.6100   33.3690   31.0840 N   0  0  0  0  0
    9.0030   34.5440   31.2910 C   0  0  0  0  0
    8.4490   35.2980   30.3050 C   0  0  0  0  0
    9.6980   32.8890   29.7980 C   0  0  0  0  0
    9.1780   33.6270   28.6670 C   0  0  0  0  0
    8.9610   34.1120   26.3000 C   0  0  0  0  0
    7.9410   36.1310   25.5200 N   0  0  0  0  0
    7.7140   37.6630   23.3510 O   0  0  0  0  0
   10.3230   31.7070   29.6470 N   0  0  0  0  0
    4.8350   39.5620   19.9450 C   0  0  0  0  0
    5.8260   40.0390   20.7950 C   0  0  0  0  0
    7.1670   40.8690   19.9680 S   0  0  0  0  0
    6.6120   41.5360   18.8210 O   0  0  0  0  0
    7.9120   41.6470   20.9200 O   0  0  0  0  0
    8.2480   39.5470   19.3620 C   0  0  0  0  0
    8.9370   38.7710   20.4690 C   0  0  0  0  0
    9.2270   40.1080   18.3480 C   0  0  0  0  0
    2.3380   38.2750   22.3120 N   0  0  0  0  0
    2.1820   39.1110   24.4280 O   0  0  0  0  0
    5.6040   36.8340   25.7230 C   0  0  0  0  0
    4.9080   36.9770   26.9170 C   0  0  0  0  0
    3.5990   36.5370   27.0300 C   0  0  0  0  0
    2.9680   35.9550   25.9520 C   0  0  0  0  0
    3.6480   35.8030   24.7590 C   0  0  0  0  0
    4.9570   36.2380   24.6450 C   0  0  0  0  0
    0.7130   37.3310   23.8310 C   0  0  0  0  0
    7.3247   37.8558   26.4947 H   0  0  0  0  0
    9.8211   32.3252   27.0509 H   0  0  0  0  0
    4.4718   39.1231   23.7472 H   0  0  0  0  0
    2.9690   38.5098   19.7877 H   0  0  0  0  0
    7.5743   36.6156   28.1056 H   0  0  0  0  0
    7.7414   40.1322   22.5642 H   0  0  0  0  0
    6.2381   42.3622   23.0140 H   0  0  0  0  0
    7.6158   42.1270   23.9980 H   0  0  0  0  0
    4.7236   41.3548   24.6555 H   0  0  0  0  0
    5.7848   42.2903   25.6173 H   0  0  0  0  0
    7.1096   40.3865   26.2743 H   0  0  0  0  0
    5.5773   39.6460   26.1267 H   0  0  0  0  0
    8.9497   34.9192   32.3130 H   0  0  0  0  0
    7.9382   36.2293   30.5498 H   0  0  0  0  0
    9.1285   33.8222   25.2627 H   0  0  0  0  0
    8.2988   35.8914   24.5953 H   0  0  0  0  0
   10.6986   31.2210   30.4613 H   0  0  0  0  0
   10.4212   31.2970   28.7182 H   0  0  0  0  0
    4.9310   39.7000   18.8680 H   0  0  0  0  0
    7.6172   38.8095   18.8658 H   0  0  0  0  0
    9.5519   39.4506   21.0590 H   0  0  0  0  0
    8.1854   38.3099   21.1098 H   0  0  0  0  0
    9.5669   37.9969   20.0306 H   0  0  0  0  0
    8.6756   40.5358   17.5107 H   0  0  0  0  0
    9.8327   40.8820   18.8193 H   0  0  0  0  0
    9.8737   39.3078   17.9880 H   0  0  0  0  0
    1.7488   37.8257   21.6110 H   0  0  0  0  0
    5.3970   37.4403   27.7740 H   0  0  0  0  0
    3.0668   36.6516   27.9743 H   0  0  0  0  0
    1.9359   35.6157   26.0402 H   0  0  0  0  0
    3.1526   35.3396   23.9058 H   0  0  0  0  0
    5.4866   36.1123   23.7007 H   0  0  0  0  0
    0.9845   36.6910   24.6705 H   0  0  0  0  0
   -0.2027   37.8731   24.0670 H   0  0  0  0  0
    0.5560   36.7197   22.9423 H   0  0  0  0  0
 10  1  4  0  0  0
  1 22  4  0  0  0
  1 23  1  0  0  0
  3  2  1  0  0  0
  2 12  1  0  0  0
  2 24  2  0  0  0
 23  3  1  0  0  0
  3 36  1  0  0  0
 21  4  4  0  0  0
  4 22  4  0  0  0
  5  6  4  0  0  0
 13  5  1  0  0  0
  5 27  4  0  0  0
  6  7  4  0  0  0
  7  8  4  0  0  0
  7 34  1  0  0  0
  8 26  4  0  0  0
  9 10  4  0  0  0
 19  9  4  0  0  0
  9 21  4  0  0  0
 34 11  1  0  0  0
 11 35  2  0  0  0
 11 42  1  0  0  0
 12 13  1  0  0  0
 12 16  1  0  0  0
 13 14  1  0  0  0
 15 14  1  0  0  0
 16 15  1  0  0  0
 18 17  4  0  0  0
 17 20  4  0  0  0
 18 19  4  0  0  0
 20 21  4  0  0  0
 20 25  1  0  0  0
 26 27  4  0  0  0
 27 28  1  0  0  0
 28 29  2  0  0  0
 28 30  2  0  0  0
 28 31  1  0  0  0
 31 32  1  0  0  0
 31 33  1  0  0  0
 36 37  4  0  0  0
 36 41  4  0  0  0
 37 38  4  0  0  0
 38 39  4  0  0  0
 39 40  4  0  0  0
 40 41  4  0  0  0
  3 43  1  0  0  0
  4 44  1  0  0  0
  6 45  1  0  0  0
  8 46  1  0  0  0
 10 47  1  0  0  0
 13 48  1  0  0  0
 14 49  1  0  0  0
 14 50  1  0  0  0
 15 51  1  0  0  0
 15 52  1  0  0  0
 16 53  1  0  0  0
 16 54  1  0  0  0
 18 55  1  0  0  0
 19 56  1  0  0  0
 22 57  1  0  0  0
 23 58  1  0  0  0
 25 59  1  0  0  0
 25 60  1  0  0  0
 26 61  1  0  0  0
 31 62  1  0  0  0
 32 63  1  0  0  0
 32 64  1  0  0  0
 32 65  1  0  0  0
 33 66  1  0  0  0
 33 67  1  0  0  0
 33 68  1  0  0  0
 34 69  1  0  0  0
 37 70  1  0  0  0
 38 71  1  0  0  0
 39 72  1  0  0  0
 40 73  1  0  0  0
 41 74  1  0  0  0
 42 75  1  0  0  0
 42 76  1  0  0  0
 42 77  1  0  0  0
M  END
$$$$
