4eki_ligand
  -I-interpret- 

 81 84  0  0  0  0  0  0  0  0999 V2000
   43.2670   45.3050   13.1980 C   0  0  0  0  0
   44.6630   47.2180   13.1130 C   0  0  0  0  0
   45.7520   46.4610   13.2450 C   0  0  0  0  0
   45.6210   45.1300   13.3640 C   0  0  0  0  0
   46.0590   53.9200   -1.0250 C   0  0  0  0  0
   46.5340   52.8090   -0.0990 C   0  0  0  0  0
   47.8670   53.2330    0.5290 C   0  0  0  0  0
   46.7260   51.5920   -0.9990 C   0  0  0  0  0
   45.5950   52.5780    0.9430 C   0  0  0  0  0
   45.3850   51.3010    1.4870 C   0  0  0  0  0
   44.4460   51.1370    2.5140 C   0  0  0  0  0
   44.8480   53.6600    1.4630 C   0  0  0  0  0
   43.9130   53.4830    2.4900 C   0  0  0  0  0
   43.7000   52.2120    3.0390 C   0  0  0  0  0
   42.7840   51.9780    4.0180 N   0  0  0  0  0
   42.6410   52.8300    5.0590 C   0  0  0  0  0
   43.3660   53.8380    5.1570 O   0  0  0  0  0
   41.6620   52.5350    5.9820 N   0  0  0  0  0
   41.5090   53.2900    7.2450 C   0  0  0  0  0
   43.0040   53.5020    7.6360 C   0  0  0  0  0
   43.3560   53.2100    9.0830 C   0  0  0  0  0
   44.3800   52.1620    9.3560 N   0  3  0  0  0
   45.6910   52.1550    8.6740 C   0  0  0  0  0
   46.4000   50.8050    8.9390 C   0  0  0  0  0
   46.6450   53.2880    9.1160 C   0  0  0  0  0
   44.6420   52.2650   10.8050 C   0  0  0  0  0
   43.6600   51.4040   11.5950 C   0  0  0  0  0
   44.2090   50.0820   11.5550 O   0  0  0  0  0
   43.6650   51.8500   13.0420 C   0  0  0  0  0
   42.3210   51.9980   13.4600 O   0  0  0  0  0
   44.3310   50.6990   13.7870 C   0  0  0  0  0
   43.6970   50.4530   15.0480 O   0  0  0  0  0
   44.0590   49.5500   12.8750 C   0  0  0  0  0
   45.0660   48.4880   13.0300 N   0  0  0  0  0
   46.4020   48.5390   13.0940 C   0  0  0  0  0
   46.8180   47.2780   13.2270 C   0  0  0  0  0
   43.4260   46.6820   13.0940 N   0  0  0  0  0
   44.4220   44.5290   13.3340 N   0  0  0  0  0
   46.7390   44.4080   13.4920 N   0  0  0  0  0
   42.2782   44.8470   13.1744 H   0  0  0  0  0
   45.9248   54.8370   -0.4512 H   0  0  0  0  0
   46.8024   54.0836   -1.8052 H   0  0  0  0  0
   45.1109   53.6321   -1.4793 H   0  0  0  0  0
   48.2637   52.4115    1.1255 H   0  0  0  0  0
   48.5750   53.4855   -0.2603 H   0  0  0  0  0
   47.7065   54.1023    1.1667 H   0  0  0  0  0
   47.4292   51.8375   -1.7948 H   0  0  0  0  0
   47.1179   50.7635   -0.4089 H   0  0  0  0  0
   45.7676   51.3085   -1.4340 H   0  0  0  0  0
   45.9472   50.4450    1.1139 H   0  0  0  0  0
   44.2860   50.1394    2.9230 H   0  0  0  0  0
   45.0041   54.6581    1.0536 H   0  0  0  0  0
   43.3487   54.3374    2.8637 H   0  0  0  0  0
   42.1956   51.1465    3.9660 H   0  0  0  0  0
   41.0188   51.7676    5.7875 H   0  0  0  0  0
   40.9201   52.7736    8.0031 H   0  0  0  0  0
   40.9404   54.2145    7.1442 H   0  0  0  0  0
   43.2176   54.5586    7.4744 H   0  0  0  0  0
   43.5823   52.8033    7.0315 H   0  0  0  0  0
   42.4359   52.8402    9.5355 H   0  0  0  0  0
   43.7800   54.1365    9.4701 H   0  0  0  0  0
   43.9613   51.3102    8.9824 H   0  0  0  0  0
   45.4745   52.3098    7.6170 H   0  0  0  0  0
   46.5459   50.6771   10.0116 H   0  0  0  0  0
   45.7846   49.9914    8.5552 H   0  0  0  0  0
   47.3671   50.7991    8.4362 H   0  0  0  0  0
   46.1822   54.2527    8.9081 H   0  0  0  0  0
   46.8407   53.2002   10.1847 H   0  0  0  0  0
   47.5825   53.2072    8.5658 H   0  0  0  0  0
   44.5235   53.3045   11.1109 H   0  0  0  0  0
   45.6552   51.9165   11.0049 H   0  0  0  0  0
   42.6490   51.4673   11.1925 H   0  0  0  0  0
   44.1808   52.7948   13.2135 H   0  0  0  0  0
   42.3016   52.2810   14.3771 H   0  0  0  0  0
   45.3829   50.8840   14.0048 H   0  0  0  0  0
   44.1390   49.7246   15.4904 H   0  0  0  0  0
   43.0770   49.1251   13.0830 H   0  0  0  0  0
   47.0254   49.4319   13.0469 H   0  0  0  0  0
   47.8578   46.9613   13.3081 H   0  0  0  0  0
   47.6476   44.8714   13.4966 H   0  0  0  0  0
   46.6833   43.3938   13.5850 H   0  0  0  0  0
 37  1  4  0  0  0
  1 38  4  0  0  0
  2  3  4  0  0  0
 34  2  4  0  0  0
  2 37  4  0  0  0
  3  4  4  0  0  0
  3 36  4  0  0  0
  4 38  4  0  0  0
  4 39  1  0  0  0
  6  5  1  0  0  0
  6  7  1  0  0  0
  6  8  1  0  0  0
  9  6  1  0  0  0
 10  9  4  0  0  0
 12  9  4  0  0  0
 11 10  4  0  0  0
 14 11  4  0  0  0
 13 12  4  0  0  0
 14 13  4  0  0  0
 15 14  1  0  0  0
 16 15  1  0  0  0
 16 17  2  0  0  0
 18 16  1  0  0  0
 19 18  1  0  0  0
 20 19  1  0  0  0
 21 20  1  0  0  0
 22 21  1  0  0  0
 22 23  1  0  0  0
 26 22  1  0  0  0
 23 24  1  0  0  0
 23 25  1  0  0  0
 27 26  1  0  0  0
 28 27  1  0  0  0
 29 27  1  0  0  0
 33 28  1  0  0  0
 29 30  1  0  0  0
 31 29  1  0  0  0
 31 32  1  0  0  0
 33 31  1  0  0  0
 33 34  1  0  0  0
 34 35  4  0  0  0
 35 36  4  0  0  0
  1 40  1  0  0  0
  5 41  1  0  0  0
  5 42  1  0  0  0
  5 43  1  0  0  0
  7 44  1  0  0  0
  7 45  1  0  0  0
  7 46  1  0  0  0
  8 47  1  0  0  0
  8 48  1  0  0  0
  8 49  1  0  0  0
 10 50  1  0  0  0
 11 51  1  0  0  0
 12 52  1  0  0  0
 13 53  1  0  0  0
 15 54  1  0  0  0
 18 55  1  0  0  0
 19 56  1  0  0  0
 19 57  1  0  0  0
 20 58  1  0  0  0
 20 59  1  0  0  0
 21 60  1  0  0  0
 21 61  1  0  0  0
 22 62  1  0  0  0
 23 63  1  0  0  0
 24 64  1  0  0  0
 24 65  1  0  0  0
 24 66  1  0  0  0
 25 67  1  0  0  0
 25 68  1  0  0  0
 25 69  1  0  0  0
 26 70  1  0  0  0
 26 71  1  0  0  0
 27 72  1  0  0  0
 29 73  1  0  0  0
 30 74  1  0  0  0
 31 75  1  0  0  0
 32 76  1  0  0  0
 33 77  1  0  0  0
 35 78  1  0  0  0
 36 79  1  0  0  0
 39 80  1  0  0  0
 39 81  1  0  0  0
M  END
$$$$
