### 
### Created by X-TOOL on Mon Sep 10 21:13:11 2018
### 

@<TRIPOS>MOLECULE
4eki_ligand
   80    83     1     0     0
SMALL
GAST_HUCK


@<TRIPOS>ATOM
      1 C2         43.2670   45.3050   13.1980 C.ar      1 0QK         0.0500
      2 C4         44.6630   47.2180   13.1130 C.ar      1 0QK         0.1399
      3 C5         45.7520   46.4610   13.2450 C.ar      1 0QK         0.0433
      4 C6         45.6210   45.1300   13.3640 C.ar      1 0QK         0.1162
      5 CBI        46.0590   53.9200   -1.0250 C.3       1 0QK        -0.0969
      6 CBH        46.5340   52.8090   -0.0990 C.3       1 0QK        -0.0678
      7 CBJ        47.8670   53.2330    0.5290 C.3       1 0QK        -0.0969
      8 CBK        46.7260   51.5920   -0.9990 C.3       1 0QK        -0.0969
      9 CBE        45.5950   52.5780    0.9430 C.ar      1 0QK        -0.0739
     10 CBF        45.3850   51.3010    1.4870 C.ar      1 0QK        -0.0517
     11 CBG        44.4460   51.1370    2.5140 C.ar      1 0QK        -0.0048
     12 CBD        44.8480   53.6600    1.4630 C.ar      1 0QK        -0.0517
     13 CBC        43.9130   53.4830    2.4900 C.ar      1 0QK        -0.0048
     14 CBB        43.7000   52.2120    3.0390 C.ar      1 0QK         0.1104
     15 NAZ        42.7840   51.9780    4.0180 N.am      1 0QK        -0.1928
     16 CAY        42.6410   52.8300    5.0590 C.2       1 0QK         0.3056
     17 OBA        43.3660   53.8380    5.1570 O.2       1 0QK        -0.3819
     18 NAX        41.6620   52.5350    5.9820 N.am      1 0QK        -0.2644
     19 CAW        41.5090   53.2900    7.2450 C.3       1 0QK         0.0304
     20 CAV        43.0040   53.5020    7.6360 C.3       1 0QK        -0.0515
     21 CAT        43.3560   53.2100    9.0830 C.3       1 0QK        -0.1107
     22 NAS        44.3800   52.1620    9.3560 N.4       1 0QK         0.4064
     23 CAU        45.6910   52.1550    8.6740 C.3       1 0QK        -0.1060
     24 CBM        46.4000   50.8050    8.9390 C.3       1 0QK        -0.0814
     25 CBL        46.6450   53.2880    9.1160 C.3       1 0QK        -0.0814
     26 CAR        44.6420   52.2650   10.8050 C.3       1 0QK        -0.0831
     27 CAN        43.6600   51.4040   11.5950 C.3       1 0QK         0.0724
     28 OAO        44.2090   50.0820   11.5550 O.3       1 0QK        -0.3415
     29 CAM        43.6650   51.8500   13.0420 C.3       1 0QK         0.1105
     30 OAQ        42.3210   51.9980   13.4600 O.3       1 0QK        -0.3865
     31 CAL        44.3310   50.6990   13.7870 C.3       1 0QK         0.1379
     32 OAP        43.6970   50.4530   15.0480 O.3       1 0QK        -0.3836
     33 CAK        44.0590   49.5500   12.8750 C.3       1 0QK         0.1957
     34 NAG        45.0660   48.4880   13.0300 N.pl3     1 0QK        -0.2236
     35 CAH        46.4020   48.5390   13.0940 C.2       1 0QK         0.0302
     36 CAI        46.8180   47.2780   13.2270 C.2       1 0QK        -0.0543
     37 N3         43.4260   46.6820   13.0940 N.ar      1 0QK        -0.2771
     38 N1         44.4220   44.5290   13.3340 N.ar      1 0QK        -0.2733
     39 NAJ        46.7390   44.4080   13.4920 N.pl3     1 0QK        -0.3157
     40 H          42.2782   44.8470   13.1744 H         1 0QK         0.0975
     41 H          45.9248   54.8370   -0.4512 H         1 0QK         0.0096
     42 H          46.8024   54.0836   -1.8052 H         1 0QK         0.0096
     43 H          45.1109   53.6321   -1.4793 H         1 0QK         0.0096
     44 H          48.2637   52.4115    1.1255 H         1 0QK         0.0096
     45 H          48.5750   53.4855   -0.2603 H         1 0QK         0.0096
     46 H          47.7065   54.1023    1.1667 H         1 0QK         0.0096
     47 H          47.4292   51.8375   -1.7948 H         1 0QK         0.0096
     48 H          47.1179   50.7635   -0.4089 H         1 0QK         0.0096
     49 H          45.7676   51.3085   -1.4340 H         1 0QK         0.0096
     50 H          45.9472   50.4450    1.1139 H         1 0QK         0.0800
     51 H          44.2860   50.1394    2.9230 H         1 0QK         0.0628
     52 H          45.0041   54.6581    1.0536 H         1 0QK         0.0800
     53 H          43.3487   54.3374    2.8637 H         1 0QK         0.0628
     54 H          42.1956   51.1465    3.9660 H         1 0QK         0.2487
     55 H          41.0188   51.7676    5.7875 H         1 0QK         0.1858
     56 H          40.9201   52.7736    8.0031 H         1 0QK         0.0517
     57 H          40.9404   54.2145    7.1442 H         1 0QK         0.0517
     58 H          43.2176   54.5586    7.4744 H         1 0QK         0.0265
     59 H          43.5823   52.8033    7.0315 H         1 0QK         0.0265
     60 H          42.4359   52.8402    9.5355 H         1 0QK         0.0018
     61 H          43.7800   54.1365    9.4701 H         1 0QK         0.0018
     62 H          45.4745   52.3098    7.6170 H         1 0QK         0.0047
     63 H          46.5459   50.6771   10.0116 H         1 0QK         0.0212
     64 H          45.7846   49.9914    8.5552 H         1 0QK         0.0212
     65 H          47.3671   50.7991    8.4362 H         1 0QK         0.0212
     66 H          46.1822   54.2527    8.9081 H         1 0QK         0.0212
     67 H          46.8407   53.2002   10.1847 H         1 0QK         0.0212
     68 H          47.5825   53.2072    8.5658 H         1 0QK         0.0212
     69 H          44.5235   53.3045   11.1109 H         1 0QK         0.0043
     70 H          45.6552   51.9165   11.0049 H         1 0QK         0.0043
     71 H          42.6490   51.4673   11.1925 H         1 0QK         0.0603
     72 H          44.1808   52.7948   13.2135 H         1 0QK         0.0646
     73 H          41.8658   51.1572   13.3737 H         1 0QK         0.2100
     74 H          45.3829   50.8840   14.0048 H         1 0QK         0.0676
     75 H          42.7749   50.2286   14.9029 H         1 0QK         0.2101
     76 H          43.0770   49.1251   13.0830 H         1 0QK         0.0991
     77 H          47.0254   49.4319   13.0469 H         1 0QK         0.0924
     78 H          47.8578   46.9613   13.3081 H         1 0QK         0.0311
     79 H          47.6476   44.8714   13.4966 H         1 0QK         0.1826
     80 H          46.6833   43.3938   13.5850 H         1 0QK         0.1826
@<TRIPOS>BOND
     1   37    1 ar 
     2    1   38 ar 
     3    2    3 ar 
     4   34    2 1  
     5    2   37 ar 
     6    3    4 ar 
     7    3   36 1  
     8    4   38 ar 
     9    4   39 1  
    10    6    5 1  
    11    6    7 1  
    12    6    8 1  
    13    9    6 1  
    14   10    9 ar 
    15   12    9 ar 
    16   11   10 ar 
    17   14   11 ar 
    18   13   12 ar 
    19   14   13 ar 
    20   15   14 1  
    21   16   15 am 
    22   16   17 2  
    23   18   16 am 
    24   19   18 1  
    25   20   19 1  
    26   21   20 1  
    27   22   21 1  
    28   22   23 1  
    29   26   22 1  
    30   23   24 1  
    31   23   25 1  
    32   27   26 1  
    33   28   27 1  
    34   29   27 1  
    35   33   28 1  
    36   29   30 1  
    37   31   29 1  
    38   31   32 1  
    39   33   31 1  
    40   33   34 1  
    41   34   35 1  
    42   35   36 2  
    43    1   40 1  
    44    5   41 1  
    45    5   42 1  
    46    5   43 1  
    47    7   44 1  
    48    7   45 1  
    49    7   46 1  
    50    8   47 1  
    51    8   48 1  
    52    8   49 1  
    53   10   50 1  
    54   11   51 1  
    55   12   52 1  
    56   13   53 1  
    57   15   54 1  
    58   18   55 1  
    59   19   56 1  
    60   19   57 1  
    61   20   58 1  
    62   20   59 1  
    63   21   60 1  
    64   21   61 1  
    65   23   62 1  
    66   24   63 1  
    67   24   64 1  
    68   24   65 1  
    69   25   66 1  
    70   25   67 1  
    71   25   68 1  
    72   26   69 1  
    73   26   70 1  
    74   27   71 1  
    75   29   72 1  
    76   30   73 1  
    77   31   74 1  
    78   32   75 1  
    79   33   76 1  
    80   35   77 1  
    81   36   78 1  
    82   39   79 1  
    83   39   80 1  
@<TRIPOS>SUBSTRUCTURE
     1 0QK         1

