6bt6_ligand
  -I-interpret- 

 35 38  0  0  0  0  0  0  0  0999 V2000
    1.3950   -1.5160  -11.6780 N   0  0  0  0  0
    4.6120   -1.4870  -13.2030 C   0  0  0  0  0
    5.5180   -0.7300  -12.4650 C   0  0  0  0  0
    6.8510   -0.6590  -12.8260 C   0  0  0  0  0
    7.2910   -1.3450  -13.9540 C   0  0  0  0  0
    8.7930    0.8390  -12.4830 C   0  0  0  0  0
    9.7740    2.5130   -9.1570 C   0  0  0  0  0
   10.7920    3.3790   -9.6090 C   0  0  0  0  0
    8.2640    1.3290   -8.0770 C   0  0  0  0  0
   12.1680    4.3120  -11.4580 C   0  0  0  0  0
   11.6060    5.4140  -11.9350 F   0  0  0  0  0
   13.0390    4.6790  -10.4820 F   0  0  0  0  0
   12.8990    3.8170  -12.4840 F   0  0  0  0  0
   11.1170    3.3780  -10.9560 C   0  0  0  0  0
    9.2200    2.2700   -7.9270 N   0  0  0  0  0
    8.1810    0.9580   -9.3680 N   0  0  0  0  0
    9.0900    1.6620  -10.0460 C   0  0  0  0  0
   10.4510    2.5380  -11.8520 C   0  0  0  0  0
    9.4620    1.6850  -11.4040 C   0  0  0  0  0
    9.2040    0.8060  -13.6370 O   0  0  0  0  0
    7.7080    0.1510  -12.0510 N   0  0  0  0  0
    6.3970   -2.0880  -14.6990 C   0  0  0  0  0
    5.0640   -2.1610  -14.3320 C   0  0  0  0  0
    3.1870   -1.5560  -12.8170 C   0  0  0  0  0
    2.7390   -1.3870  -11.5800 N   0  0  0  0  0
    2.1890   -1.7760  -13.6660 N   0  0  0  0  0
    1.0760   -1.7500  -12.9300 N   0  0  0  0  0
    5.1707   -0.1841  -11.5878 H   0  0  0  0  0
    8.3392   -1.2959  -14.2488 H   0  0  0  0  0
   11.3126    4.0360   -8.9123 H   0  0  0  0  0
    7.6494    0.9284   -7.2708 H   0  0  0  0  0
   10.7134    2.5561  -12.9098 H   0  0  0  0  0
    7.4870    0.2270  -11.0581 H   0  0  0  0  0
    6.7437   -2.6218  -15.5839 H   0  0  0  0  0
    4.3670   -2.7484  -14.9297 H   0  0  0  0  0
 25  1  4  0  0  0
  1 27  4  0  0  0
  2  3  4  0  0  0
  2 23  4  0  0  0
 24  2  1  0  0  0
  3  4  4  0  0  0
  4  5  4  0  0  0
  4 21  1  0  0  0
 22  5  4  0  0  0
  6 19  1  0  0  0
  6 20  2  0  0  0
 21  6  1  0  0  0
  7  8  4  0  0  0
  7 15  4  0  0  0
 17  7  4  0  0  0
 14  8  4  0  0  0
  9 15  4  0  0  0
 16  9  4  0  0  0
 10 11  1  0  0  0
 10 12  1  0  0  0
 10 13  1  0  0  0
 14 10  1  0  0  0
 18 14  4  0  0  0
 17 16  4  0  0  0
 19 17  4  0  0  0
 19 18  4  0  0  0
 23 22  4  0  0  0
 24 25  4  0  0  0
 24 26  4  0  0  0
 26 27  4  0  0  0
  3 28  1  0  0  0
  5 29  1  0  0  0
  8 30  1  0  0  0
  9 31  1  0  0  0
 18 32  1  0  0  0
 21 33  1  0  0  0
 22 34  1  0  0  0
 23 35  1  0  0  0
M  END
$$$$
