3h8b_ligand
  -I-interpret- 

152157  0  0  0  0  0  0  0  0999 V2000
    3.2190   -4.8430    6.0950 C   0  0  0  0  0
    2.0850   -4.5470    6.7180 C   0  0  0  0  0
    1.6510   -3.4260    6.8170 O   0  0  0  0  0
    3.8220   -6.6690    1.9450 C   0  0  0  0  0
    4.9600   -6.4010    3.0020 C   0  0  0  0  0
    4.6670   -5.8160    4.2790 C   0  0  0  0  0
    3.2370   -5.4440    4.6930 C   0  0  0  0  0
    1.9980   -5.7040    3.6840 C   0  0  0  0  0
    2.3640   -6.3130    2.3340 C   0  0  0  0  0
    5.3810   -8.5000   -2.0260 C   0  0  0  0  0
    3.2140   -7.5400   -0.5650 C   0  0  0  0  0
    4.2050   -7.2650    0.6050 C   0  0  0  0  0
    3.8830   -8.1630   -1.8530 C   0  0  0  0  0
    5.8290   -7.6190    0.4110 C   0  0  0  0  0
    6.3650   -8.2210   -0.8650 C   0  0  0  0  0
    1.4520   -5.7410    7.3240 N   0  0  0  0  0
    0.2690   -5.8730    8.1140 C   0  0  0  0  0
    0.4080   -7.3090    8.4670 C   0  0  0  0  0
    1.0870   -8.1420    7.7260 O   0  0  0  0  0
   -0.9400   -5.6350    7.3670 C   0  0  0  0  0
   -5.3240   -3.4670    2.7760 C   0  0  0  0  0
   -5.1570   -2.9890    1.5860 C   0  0  0  0  0
   -4.3620   -1.7430    1.2910 C   0  0  0  0  0
   -5.7840   -3.6990    0.4520 C   0  0  0  0  0
   -4.1590   -1.2380   -0.0660 C   0  0  0  0  0
   -5.5910   -3.1890   -0.9580 C   0  0  0  0  0
   -4.7680   -1.9300   -1.2490 C   0  0  0  0  0
   -0.2560   -7.6530    9.7560 N   0  0  0  0  0
   -0.1800   -8.9400   10.3270 C   0  0  0  0  0
   -0.5600  -10.2780    9.3930 C   0  0  0  0  0
   -1.8460  -10.4580    8.4630 C   0  0  0  0  0
   -3.1900  -10.4680    9.2210 C   0  0  0  0  0
   -4.4900  -10.6280    8.5320 N   0  0  0  0  0
   -5.7750  -10.4070    9.2310 C   0  0  0  0  0
   -6.1100  -11.0180   10.4230 N   0  0  0  0  0
   -6.7570   -9.5640    8.7560 N   0  0  0  0  0
   -0.9180   -9.1040   11.5780 C   0  0  0  0  0
   -0.5700  -10.0300   12.3160 O   0  0  0  0  0
   -1.9020   -8.2380   11.8580 N   0  0  0  0  0
   -2.6740   -8.3110   13.0950 C   0  0  0  0  0
   -3.6910   -9.4910   12.8320 C   0  0  0  0  0
   -4.4240   -9.4710   11.8860 O   0  0  0  0  0
   -3.5480   -7.0460   13.4250 C   0  0  0  0  0
   -4.3000   -7.2990   14.7930 C   0  0  0  0  0
   -3.5580   -7.0930   16.1120 C   0  0  0  0  0
   -5.8390   -7.7690   14.8120 C   0  0  0  0  0
   -4.2740   -7.3350   17.4240 C   0  0  0  0  0
   -6.5010   -7.9930   16.1200 C   0  0  0  0  0
   -5.7620   -7.7900   17.4090 C   0  0  0  0  0
   -2.9550  -13.5160   13.4070 C   0  0  0  0  0
   -2.9040  -13.9990   14.9580 C   0  0  0  0  0
   -1.6780  -14.8390   15.3720 C   0  0  0  0  0
   -0.6130  -15.1710   14.3620 C   0  0  0  0  0
   -0.7030  -14.7050   12.9310 C   0  0  0  0  0
   -1.8610  -13.8760   12.4340 C   0  0  0  0  0
   -4.0100  -12.7410   12.8920 C   0  0  0  0  0
   -4.6700  -11.6990   13.6610 C   0  0  0  0  0
   -3.6630  -10.5480   13.8560 N   0  0  0  0  0
   -4.5050   -1.4220   -2.5380 C   0  0  0  0  0
   -3.6110   -0.1660   -2.7300 C   0  0  0  0  0
   -5.0850   -2.0480   -3.8130 C   0  0  0  0  0
   -3.3290    0.3750   -4.1140 C   0  0  0  0  0
   -4.7970   -1.4910   -5.1290 C   0  0  0  0  0
   -3.9280   -0.2870   -5.2670 C   0  0  0  0  0
   -4.2830   -3.9460    3.5910 C   0  0  0  0  0
   -1.8170   -4.4650    7.6230 C   0  0  0  0  0
   -2.5330   -3.7690    6.8480 C   0  0  0  0  0
   -2.6960   -3.9720    5.3500 C   0  0  0  0  0
   -3.8750   -3.2960    4.6040 N   0  0  0  0  0
   -3.8720   -4.9570    3.2030 O   0  0  0  0  0
    3.6557   -5.6257    6.7153 H   0  0  0  0  0
    3.7007   -3.8739    5.9649 H   0  0  0  0  0
    3.0918   -6.8062    1.1475 H   0  0  0  0  0
    5.9891   -6.6651    2.7583 H   0  0  0  0  0
    5.4845   -5.6303    4.9757 H   0  0  0  0  0
    2.1638   -5.3812    4.5128 H   0  0  0  0  0
    1.5592   -4.7284    3.4747 H   0  0  0  0  0
    1.3410   -6.4195    4.1785 H   0  0  0  0  0
    1.8652   -7.2820    2.3522 H   0  0  0  0  0
    2.0992   -5.5288    1.6247 H   0  0  0  0  0
    5.7181   -7.8524   -2.8354 H   0  0  0  0  0
    5.4074   -9.5818   -2.1565 H   0  0  0  0  0
    2.7896   -6.5796   -0.8575 H   0  0  0  0  0
    2.4833   -8.2629   -0.2023 H   0  0  0  0  0
    3.1400   -7.3319    0.3827 H   0  0  0  0  0
    3.4249   -9.1515   -1.8882 H   0  0  0  0  0
    3.7460   -7.3668   -2.5847 H   0  0  0  0  0
    6.0157   -8.3903    1.1582 H   0  0  0  0  0
    6.3130   -6.6435    0.4590 H   0  0  0  0  0
    7.0622   -7.4802   -1.2565 H   0  0  0  0  0
    6.7481   -9.2000   -0.5771 H   0  0  0  0  0
    1.9437   -6.6170    7.1475 H   0  0  0  0  0
    0.1870   -5.1687    8.9419 H   0  0  0  0  0
   -1.5701   -6.4851    7.6287 H   0  0  0  0  0
   -0.5805   -5.4640    6.3523 H   0  0  0  0  0
   -5.9136   -4.3649    2.5910 H   0  0  0  0  0
   -5.6821   -2.6007    3.3322 H   0  0  0  0  0
   -3.9201   -1.1958    2.1237 H   0  0  0  0  0
   -6.3854   -4.5901    0.6320 H   0  0  0  0  0
   -3.5551   -0.3438   -0.2204 H   0  0  0  0  0
   -6.0480   -3.7296   -1.7868 H   0  0  0  0  0
   -0.7854   -6.9302   10.2436 H   0  0  0  0  0
    0.9001   -8.9427   10.4735 H   0  0  0  0  0
   -0.7332  -11.0365   10.1564 H   0  0  0  0  0
    0.2436  -10.2671    8.6567 H   0  0  0  0  0
   -1.7505  -11.4263    7.9717 H   0  0  0  0  0
   -1.8698   -9.6055    7.7842 H   0  0  0  0  0
   -3.2496   -9.4644    9.6422 H   0  0  0  0  0
   -3.1224  -11.3608    9.8427 H   0  0  0  0  0
   -4.5003  -10.8980    7.5484 H   0  0  0  0  0
   -7.0109  -10.8238   10.8601 H   0  0  0  0  0
   -5.4565  -11.6635   10.8665 H   0  0  0  0  0
   -6.6150   -9.0566    7.8826 H   0  0  0  0  0
   -2.1187   -7.5034   11.1843 H   0  0  0  0  0
   -1.9794   -8.4223   13.9276 H   0  0  0  0  0
   -4.2721   -6.8757   12.6282 H   0  0  0  0  0
   -2.9114   -6.1651   13.5076 H   0  0  0  0  0
   -4.7603   -7.5567   13.8392 H   0  0  0  0  0
   -3.3125   -6.0311   16.1255 H   0  0  0  0  0
   -2.7585   -7.8337   16.0953 H   0  0  0  0  0
   -6.3848   -7.9199   13.8806 H   0  0  0  0  0
   -4.2858   -6.3631   17.9172 H   0  0  0  0  0
   -3.7353   -8.1624   17.8858 H   0  0  0  0  0
   -7.5433   -8.3109   16.1449 H   0  0  0  0  0
   -6.2925   -6.9673   17.8885 H   0  0  0  0  0
   -5.7367   -8.7838   17.8559 H   0  0  0  0  0
   -3.0836  -13.7903   14.4541 H   0  0  0  0  0
   -3.7742  -14.6386   15.1056 H   0  0  0  0  0
   -2.8658  -13.0898   15.5581 H   0  0  0  0  0
   -2.0946  -15.8058   15.6546 H   0  0  0  0  0
   -1.1666  -14.2252   16.1135 H   0  0  0  0  0
   -0.6617  -16.2571   14.2832 H   0  0  0  0  0
    0.2722  -14.6623   14.7438 H   0  0  0  0  0
   -0.7883  -15.6319   12.3638 H   0  0  0  0  0
    0.1541  -14.0403   12.8228 H   0  0  0  0  0
   -1.4227  -12.9248   12.1321 H   0  0  0  0  0
   -2.3452  -14.4884   11.6734 H   0  0  0  0  0
   -4.8020  -13.4725   12.7315 H   0  0  0  0  0
   -3.5406  -12.1904   12.0768 H   0  0  0  0  0
   -4.9920  -12.0879   14.6270 H   0  0  0  0  0
   -5.5549  -11.3425   13.1338 H   0  0  0  0  0
   -3.0176  -10.5207   14.6454 H   0  0  0  0  0
   -3.1829    0.3301   -1.8590 H   0  0  0  0  0
   -5.7251   -2.9266   -3.7332 H   0  0  0  0  0
   -2.6879    1.2463   -4.2475 H   0  0  0  0  0
   -5.2199   -1.9579   -6.0185 H   0  0  0  0  0
   -3.7341    0.1115   -6.2629 H   0  0  0  0  0
   -1.8493   -4.1497    8.6659 H   0  0  0  0  0
   -3.0867   -2.9442    7.2966 H   0  0  0  0  0
   -2.8769   -5.0409    5.2365 H   0  0  0  0  0
   -1.8031   -3.5239    4.9141 H   0  0  0  0  0
   -4.2858   -2.4103    4.8993 H   0  0  0  0  0
  2  1  1  0  0  0
  1  7  1  0  0  0
  2  3  2  0  0  0
 16  2  1  0  0  0
  5  4  1  0  0  0
  9  4  1  0  0  0
  4 12  1  0  0  0
  6  5  2  0  0  0
  7  6  1  0  0  0
  7  8  1  0  0  0
  8  9  1  0  0  0
 13 10  1  0  0  0
 15 10  1  0  0  0
 12 11  1  0  0  0
 11 13  1  0  0  0
 12 14  1  0  0  0
 14 15  1  0  0  0
 17 16  1  0  0  0
 17 18  1  0  0  0
 20 17  1  0  0  0
 18 19  2  0  0  0
 18 28  1  0  0  0
 66 20  1  0  0  0
 21 22  1  0  0  0
 65 21  1  0  0  0
 22 23  4  0  0  0
 22 24  4  0  0  0
 23 25  4  0  0  0
 24 26  4  0  0  0
 25 27  4  0  0  0
 26 27  4  0  0  0
 27 59  1  0  0  0
 28 29  1  0  0  0
 29 30  1  0  0  0
 29 37  1  0  0  0
 30 31  1  0  0  0
 31 32  1  0  0  0
 32 33  1  0  0  0
 33 34  1  0  0  0
 34 35  1  0  0  0
 34 36  2  0  0  0
 37 38  2  0  0  0
 37 39  1  0  0  0
 39 40  1  0  0  0
 40 41  1  0  0  0
 40 43  1  0  0  0
 41 42  2  0  0  0
 41 58  1  0  0  0
 43 44  1  0  0  0
 44 45  1  0  0  0
 44 46  1  0  0  0
 45 47  1  0  0  0
 46 48  2  0  0  0
 47 49  1  0  0  0
 48 49  1  0  0  0
 50 51  1  0  0  0
 50 55  1  0  0  0
 56 50  1  0  0  0
 51 52  1  0  0  0
 52 53  1  0  0  0
 54 53  1  0  0  0
 55 54  1  0  0  0
 57 56  1  0  0  0
 58 57  1  0  0  0
 59 60  4  0  0  0
 59 61  4  0  0  0
 60 62  4  0  0  0
 61 63  4  0  0  0
 62 64  4  0  0  0
 63 64  4  0  0  0
 69 65  1  0  0  0
 65 70  2  0  0  0
 67 66  2  0  0  0
 68 67  1  0  0  0
 68 69  1  0  0  0
  1 71  1  0  0  0
  1 72  1  0  0  0
  4 73  1  0  0  0
  5 74  1  0  0  0
  6 75  1  0  0  0
  7 76  1  0  0  0
  8 77  1  0  0  0
  8 78  1  0  0  0
  9 79  1  0  0  0
  9 80  1  0  0  0
 10 81  1  0  0  0
 10 82  1  0  0  0
 11 83  1  0  0  0
 11 84  1  0  0  0
 12 85  1  0  0  0
 13 86  1  0  0  0
 13 87  1  0  0  0
 14 88  1  0  0  0
 14 89  1  0  0  0
 15 90  1  0  0  0
 15 91  1  0  0  0
 16 92  1  0  0  0
 17 93  1  0  0  0
 20 94  1  0  0  0
 20 95  1  0  0  0
 21 96  1  0  0  0
 21 97  1  0  0  0
 23 98  1  0  0  0
 24 99  1  0  0  0
 25100  1  0  0  0
 26101  1  0  0  0
 28102  1  0  0  0
 29103  1  0  0  0
 30104  1  0  0  0
 30105  1  0  0  0
 31106  1  0  0  0
 31107  1  0  0  0
 32108  1  0  0  0
 32109  1  0  0  0
 33110  1  0  0  0
 35111  1  0  0  0
 35112  1  0  0  0
 36113  1  0  0  0
 39114  1  0  0  0
 40115  1  0  0  0
 43116  1  0  0  0
 43117  1  0  0  0
 44118  1  0  0  0
 45119  1  0  0  0
 45120  1  0  0  0
 46121  1  0  0  0
 47122  1  0  0  0
 47123  1  0  0  0
 48124  1  0  0  0
 49125  1  0  0  0
 49126  1  0  0  0
 50127  1  0  0  0
 51128  1  0  0  0
 51129  1  0  0  0
 52130  1  0  0  0
 52131  1  0  0  0
 53132  1  0  0  0
 53133  1  0  0  0
 54134  1  0  0  0
 54135  1  0  0  0
 55136  1  0  0  0
 55137  1  0  0  0
 56138  1  0  0  0
 56139  1  0  0  0
 57140  1  0  0  0
 57141  1  0  0  0
 58142  1  0  0  0
 60143  1  0  0  0
 61144  1  0  0  0
 62145  1  0  0  0
 63146  1  0  0  0
 64147  1  0  0  0
 66148  1  0  0  0
 67149  1  0  0  0
 68150  1  0  0  0
 68151  1  0  0  0
 69152  1  0  0  0
M  END
$$$$
