6fdq_ligand
  -I-interpret- 

 30 31  0  0  0  0  0  0  0  0999 V2000
  -63.9770   -7.1950   16.8970 C   0  0  0  0  0
  -64.1490   -8.3130   17.7590 C   0  0  0  0  0
  -60.9790   -7.7110   13.4990 C   0  0  0  0  0
  -67.3550   -7.5130   19.5010 C   0  0  0  0  0
  -61.3330   -8.9100   12.8530 C   0  0  0  0  0
  -61.6520   -8.8850   11.4830 C   0  0  0  0  0
  -61.6190   -7.6720   10.7710 C   0  0  0  0  0
  -61.2650   -6.4800   11.4270 C   0  0  0  0  0
  -60.9400   -6.4980   12.7940 C   0  0  0  0  0
  -65.2230   -8.4170   18.5790 N   0  0  0  0  0
  -66.1560   -7.4410   18.5840 C   0  0  0  0  0
  -66.0240   -6.3570   17.7730 N   0  0  0  0  0
  -64.9670   -6.2050   16.9500 C   0  0  0  0  0
  -62.7900   -7.0050   15.9550 C   0  0  0  0  0
  -62.7690   -5.9620   15.2970 O   0  0  0  0  0
  -61.7840   -7.9100   15.8450 N   0  0  0  0  0
  -60.6350   -7.7240   14.9630 C   0  0  0  0  0
  -67.3370   -8.3590   20.4950 N   0  0  0  0  0
  -63.3997   -9.1046   17.7602 H   0  0  0  0  0
  -68.2194   -6.8700   19.3354 H   0  0  0  0  0
  -61.3598   -9.8478   13.4079 H   0  0  0  0  0
  -61.9255   -9.8080   10.9717 H   0  0  0  0  0
  -61.8681   -7.6564    9.7100 H   0  0  0  0  0
  -61.2426   -5.5406   10.8745 H   0  0  0  0  0
  -60.6595   -5.5761   13.3034 H   0  0  0  0  0
  -64.8829   -5.3142   16.3275 H   0  0  0  0  0
  -61.8331   -8.7609   16.4054 H   0  0  0  0  0
  -60.2006   -6.7529   15.2004 H   0  0  0  0  0
  -59.9625   -8.5657   15.1283 H   0  0  0  0  0
  -66.5234   -8.9564   20.6416 H   0  0  0  0  0
  1  2  4  0  0  0
  1 13  4  0  0  0
 14  1  1  0  0  0
  2 10  4  0  0  0
  3  5  4  0  0  0
  3  9  4  0  0  0
 17  3  1  0  0  0
 11  4  1  0  0  0
  4 18  2  0  0  0
  5  6  4  0  0  0
  6  7  4  0  0  0
  8  7  4  0  0  0
  9  8  4  0  0  0
 10 11  4  0  0  0
 12 11  4  0  0  0
 13 12  4  0  0  0
 14 15  2  0  0  0
 16 14  1  0  0  0
 16 17  1  0  0  0
  2 19  1  0  0  0
  4 20  1  0  0  0
  5 21  1  0  0  0
  6 22  1  0  0  0
  7 23  1  0  0  0
  8 24  1  0  0  0
  9 25  1  0  0  0
 13 26  1  0  0  0
 16 27  1  0  0  0
 17 28  1  0  0  0
 17 29  1  0  0  0
 18 30  1  0  0  0
M  END
$$$$
