### 
### Created by X-TOOL on Wed Jan  1 15:39:38 2020
### 

@<TRIPOS>MOLECULE
6fdq_ligand
   30    31     1     0     0
SMALL
GAST_HUCK


@<TRIPOS>ATOM
      1 C1        -63.9770   -7.1950   16.8970 C.ar      1 2UQ         0.1075
      2 C2        -64.1490   -8.3130   17.7590 C.ar      1 2UQ         0.0547
      3 C11       -60.9790   -7.7110   13.4990 C.ar      1 2UQ        -0.0210
      4 C12       -67.3550   -7.5130   19.5010 C.2       1 2UQ         0.0644
      5 C14       -61.3330   -8.9100   12.8530 C.ar      1 2UQ        -0.0584
      6 C15       -61.6520   -8.8850   11.4830 C.ar      1 2UQ        -0.0685
      7 C16       -61.6190   -7.6720   10.7710 C.ar      1 2UQ        -0.0687
      8 C17       -61.2650   -6.4800   11.4270 C.ar      1 2UQ        -0.0685
      9 C18       -60.9400   -6.4980   12.7940 C.ar      1 2UQ        -0.0584
     10 N3        -65.2230   -8.4170   18.5790 N.ar      1 2UQ        -0.2412
     11 C4        -66.1560   -7.4410   18.5840 C.ar      1 2UQ         0.1649
     12 N5        -66.0240   -6.3570   17.7730 N.ar      1 2UQ        -0.2412
     13 C6        -64.9670   -6.2050   16.9500 C.ar      1 2UQ         0.0547
     14 C7        -62.7900   -7.0050   15.9550 C.2       1 2UQ         0.2235
     15 O8        -62.7690   -5.9620   15.2970 O.2       1 2UQ        -0.3780
     16 N9        -61.7840   -7.9100   15.8450 N.am      1 2UQ        -0.2725
     17 C10       -60.6350   -7.7240   14.9630 C.3       1 2UQ         0.0642
     18 N13       -67.3370   -8.3590   20.4950 N.2       1 2UQ        -0.3278
     19 H1        -63.4038   -9.1002   17.7602 H         1 2UQ         0.1005
     20 H2        -68.2186   -6.8706   19.3355 H         1 2UQ         0.1171
     21 H3        -61.3596   -9.8426   13.4049 H         1 2UQ         0.0557
     22 H4        -61.9240   -9.8029   10.9746 H         1 2UQ         0.0599
     23 H5        -61.8667   -7.6565    9.7158 H         1 2UQ         0.0559
     24 H6        -61.2427   -5.5458   10.8776 H         1 2UQ         0.0599
     25 H7        -60.6610   -5.5812   13.3006 H         1 2UQ         0.0557
     26 H8        -64.8833   -5.3191   16.3309 H         1 2UQ         0.1005
     27 H9        -61.8321   -8.7442   16.3944 H         1 2UQ         0.1875
     28 H10       -60.1587   -6.7648   15.2143 H         1 2UQ         0.0683
     29 H11       -59.9249   -8.5445   15.1435 H         1 2UQ         0.0683
     30 H12       -68.1272   -8.4219   21.1177 H         1 2UQ         0.1409
@<TRIPOS>BOND
     1    1    2 ar 
     2    1   13 ar 
     3   14    1 1  
     4    2   10 ar 
     5    3    5 ar 
     6    3    9 ar 
     7   17    3 1  
     8   11    4 1  
     9    4   18 2  
    10    5    6 ar 
    11    6    7 ar 
    12    8    7 ar 
    13    9    8 ar 
    14   10   11 ar 
    15   12   11 ar 
    16   13   12 ar 
    17   14   15 2  
    18   16   14 am 
    19   16   17 1  
    20    2   19 1  
    21    4   20 1  
    22    5   21 1  
    23    6   22 1  
    24    7   23 1  
    25    8   24 1  
    26    9   25 1  
    27   13   26 1  
    28   16   27 1  
    29   17   28 1  
    30   17   29 1  
    31   18   30 1  
@<TRIPOS>SUBSTRUCTURE
     1 2UQ         1

