3oys_ligand
  -I-interpret- 

 34 35  0  0  0  0  0  0  0  0999 V2000
   -5.3280   -0.4210   16.1140 N   0  0  0  0  0
   -4.6990    6.6580   12.9200 O   0  0  0  0  0
   -7.2340    1.2280   16.5590 O   0  0  0  0  0
   -5.3090    1.1810   18.0700 O   0  0  0  0  0
   -1.3100   10.6070   14.3680 C   0  0  0  0  0
   -1.9380   10.7840   13.1400 C   0  0  0  0  0
   -1.0770    9.3270   14.9110 C   0  0  0  0  0
   -2.3170    9.6520   12.4220 C   0  0  0  0  0
   -1.4820    8.2050   14.1740 C   0  0  0  0  0
   -3.0610    3.1890   14.7390 C   0  0  0  0  0
   -5.1640    4.3450   14.4710 C   0  0  0  0  0
   -3.6880    2.1960   15.4730 C   0  0  0  0  0
   -5.7890    3.3400   15.2160 C   0  0  0  0  0
   -2.4880    7.1780   12.1710 C   0  0  0  0  0
   -3.0180    5.2010   13.5170 N   0  0  0  0  0
   -3.5140    6.3590   12.8850 C   0  0  0  0  0
   -2.0550    8.3730   12.9390 C   0  0  0  0  0
   -3.7840    4.2610   14.2440 C   0  0  0  0  0
   -5.0580    2.2690   15.7380 C   0  0  0  0  0
   -5.8120    0.9960   16.7060 S   0  0  0  0  0
   -6.0050   -1.0536   15.6875 H   0  0  0  0  0
   -4.3444   -0.6861   16.1655 H   0  0  0  0  0
   -0.9880   11.4850   14.9280 H   0  0  0  0  0
   -2.1289   11.7834   12.7490 H   0  0  0  0  0
   -0.5933    9.2122   15.8811 H   0  0  0  0  0
   -2.8167    9.7590   11.4592 H   0  0  0  0  0
   -1.3421    7.2034   14.5807 H   0  0  0  0  0
   -1.9895    3.1261   14.5494 H   0  0  0  0  0
   -5.7410    5.1800   14.0735 H   0  0  0  0  0
   -3.1087    1.3516   15.8466 H   0  0  0  0  0
   -6.8633    3.3927   15.3924 H   0  0  0  0  0
   -2.9341    7.5276   11.2399 H   0  0  0  0  0
   -1.6114    6.5486   12.0176 H   0  0  0  0  0
   -2.0160    5.0252   13.4432 H   0  0  0  0  0
 20  1  1  0  0  0
 16  2  2  0  0  0
 20  3  2  0  0  0
 20  4  2  0  0  0
  6  5  4  0  0  0
  7  5  4  0  0  0
  8  6  4  0  0  0
  9  7  4  0  0  0
 17  8  4  0  0  0
 17  9  4  0  0  0
 12 10  4  0  0  0
 10 18  4  0  0  0
 13 11  4  0  0  0
 11 18  4  0  0  0
 19 12  4  0  0  0
 19 13  4  0  0  0
 16 14  1  0  0  0
 14 17  1  0  0  0
 15 16  1  0  0  0
 18 15  1  0  0  0
 19 20  1  0  0  0
  1 21  1  0  0  0
  1 22  1  0  0  0
  5 23  1  0  0  0
  6 24  1  0  0  0
  7 25  1  0  0  0
  8 26  1  0  0  0
  9 27  1  0  0  0
 10 28  1  0  0  0
 11 29  1  0  0  0
 12 30  1  0  0  0
 13 31  1  0  0  0
 14 32  1  0  0  0
 14 33  1  0  0  0
 15 34  1  0  0  0
M  END
$$$$
