3ah8_ligand
  -I-interpret- 

137138  0  0  0  0  0  0  0  0999 V2000
    9.3730  -30.8480  -44.9020 C   0  0  0  0  0
    8.4960  -30.5610  -45.7080 O   0  0  0  0  0
   10.3210  -31.9820  -45.1480 C   0  0  0  0  0
    9.2890  -27.7380  -43.7040 C   0  0  0  0  0
    9.5530  -30.1840  -43.7580 N   0  0  0  0  0
   10.3930  -27.6220  -44.2020 O   0  0  0  0  0
    8.6720  -29.0700  -43.4410 C   0  0  0  0  0
    8.3020  -29.1120  -41.9620 C   0  0  0  0  0
    7.0720  -30.0110  -41.7260 C   0  0  0  0  0
    9.4530  -29.4560  -41.1670 O   0  0  0  0  0
    5.8380  -29.1050  -41.4860 C   0  0  0  0  0
    7.2390  -31.0250  -40.5730 C   0  0  0  0  0
   10.1190  -23.2690  -43.0520 C   0  0  0  0  0
    9.5260  -24.7920  -44.8970 N   0  0  0  0  0
   11.0400  -23.6790  -42.3540 O   0  0  0  0  0
    9.1370  -24.2840  -43.5830 C   0  0  0  0  0
    9.2040  -25.5430  -42.7040 C   0  0  0  0  0
    8.6360  -25.5070  -41.2780 C   0  0  0  0  0
    8.4920  -26.5710  -43.3720 O   0  0  0  0  0
    8.1410  -24.1590  -40.7540 C   0  0  0  0  0
    9.6640  -26.1270  -40.3560 C   0  0  0  0  0
   10.0090  -21.9520  -43.2940 N   0  0  0  0  0
    9.5020  -20.2390  -44.9320 C   0  0  0  0  0
    8.9470  -21.3850  -44.1280 C   0  0  0  0  0
    9.7380  -19.1560  -44.4130 O   0  0  0  0  0
    7.9880  -21.2500  -41.7860 O   0  0  0  0  0
    7.7660  -20.9100  -43.2590 C   0  0  0  0  0
    8.0340  -19.7530  -41.0560 C   0  0  0  0  0
    6.4470  -21.6170  -43.7990 C   0  0  0  0  0
   10.9940  -21.0100  -42.7500 C   0  0  0  0  0
   10.8670  -21.5810  -48.5170 N   0  0  0  0  0
   11.2660  -22.0760  -49.6960 C   0  0  0  0  0
   12.4410  -22.2010  -50.0110 O   0  0  0  0  0
   10.1660  -22.4770  -50.6370 C   0  0  0  0  0
   11.8010  -21.1380  -47.4810 C   0  0  0  0  0
   11.1010  -20.0260  -46.7040 C   0  0  0  0  0
    9.7830  -20.4310  -46.3450 O   0  0  0  0  0
   11.0080  -18.7450  -47.5200 C   0  0  0  0  0
   12.1230  -22.2440  -46.5290 C   0  0  0  0  0
   11.2190  -22.9610  -46.1430 O   0  0  0  0  0
   13.4290  -24.8610  -45.6970 C   0  0  0  0  0
   13.2710  -24.9000  -46.9060 O   0  0  0  0  0
   13.7120  -23.4860  -45.1190 C   0  0  0  0  0
   13.5010  -22.4530  -46.0920 O   0  0  0  0  0
   15.1390  -23.3420  -44.6020 C   0  0  0  0  0
   15.0720  -23.4000  -43.0930 C   0  0  0  0  0
   14.9460  -23.5370  -40.3030 C   0  0  0  0  0
   16.1440  -23.9160  -42.3670 C   0  0  0  0  0
   13.9350  -22.9530  -42.4190 C   0  0  0  0  0
   16.0820  -23.9810  -40.9750 C   0  0  0  0  0
   13.8710  -23.0290  -41.0300 C   0  0  0  0  0
   13.3280  -25.9670  -44.9060 N   0  0  0  0  0
   13.5000  -25.9510  -43.4550 C   0  0  0  0  0
   13.0720  -27.1720  -45.4660 C   0  0  0  0  0
   12.9790  -28.2270  -44.6660 C   0  0  0  0  0
   12.8380  -27.3580  -46.8980 C   0  0  0  0  0
   13.7460  -27.3260  -47.7190 O   0  0  0  0  0
   11.5400  -27.5590  -47.1550 N   0  0  0  0  0
   10.8970  -27.7670  -48.4460 C   0  0  0  0  0
    9.4020  -27.9210  -48.2730 C   0  0  0  0  0
    8.8790  -28.9400  -48.7110 O   0  0  0  0  0
   11.4740  -28.9940  -49.1560 C   0  0  0  0  0
    8.6560  -26.9800  -47.6520 N   0  0  0  0  0
    7.2090  -27.1570  -47.5020 C   0  0  0  0  0
    9.2520  -25.7430  -47.1190 C   0  0  0  0  0
    9.1830  -24.6370  -48.1670 C   0  0  0  0  0
    8.6630  -25.2430  -45.8190 C   0  0  0  0  0
    7.4550  -25.2590  -45.6390 O   0  0  0  0  0
    9.7578  -32.9102  -45.2448 H   0  0  0  0  0
   10.8777  -31.7958  -46.0665 H   0  0  0  0  0
   11.0147  -32.0620  -44.3111 H   0  0  0  0  0
   10.2976  -30.4537  -43.1151 H   0  0  0  0  0
    7.8010  -29.1823  -44.0866 H   0  0  0  0  0
    7.9973  -28.1191  -41.6311 H   0  0  0  0  0
    6.9411  -30.6215  -42.6195 H   0  0  0  0  0
    9.2050  -29.4785  -40.2399 H   0  0  0  0  0
    6.0138  -28.4778  -40.6120 H   0  0  0  0  0
    5.6760  -28.4747  -42.3604 H   0  0  0  0  0
    4.9592  -29.7274  -41.3173 H   0  0  0  0  0
    8.0800  -31.6838  -40.7892 H   0  0  0  0  0
    7.4261  -30.4882  -39.6430 H   0  0  0  0  0
    6.3284  -31.6161  -40.4760 H   0  0  0  0  0
   10.5194  -24.8043  -45.1280 H   0  0  0  0  0
    8.1679  -23.7856  -43.6080 H   0  0  0  0  0
   10.2769  -25.6807  -42.5700 H   0  0  0  0  0
    7.7095  -26.0804  -41.3076 H   0  0  0  0  0
    8.9645  -23.4449  -40.7569 H   0  0  0  0  0
    7.3392  -23.7935  -41.3955 H   0  0  0  0  0
    7.7676  -24.2808  -39.7372 H   0  0  0  0  0
    9.8523  -27.1557  -40.6633 H   0  0  0  0  0
   10.5903  -25.5550  -40.4098 H   0  0  0  0  0
    9.2870  -26.1152  -39.3333 H   0  0  0  0  0
    8.5772  -22.1552  -44.8049 H   0  0  0  0  0
    7.6743  -19.8260  -43.3266 H   0  0  0  0  0
    8.8515  -19.1690  -41.4787 H   0  0  0  0  0
    7.0897  -19.2367  -41.2288 H   0  0  0  0  0
    8.1908  -19.8774  -39.9845 H   0  0  0  0  0
    6.2867  -21.3374  -44.8403 H   0  0  0  0  0
    6.5598  -22.6986  -43.7251 H   0  0  0  0  0
    5.5940  -21.2976  -43.2003 H   0  0  0  0  0
   10.9941  -21.0745  -41.6619 H   0  0  0  0  0
   11.9840  -21.2616  -43.1303 H   0  0  0  0  0
   10.7329  -19.9967  -43.0552 H   0  0  0  0  0
    9.8663  -21.5095  -48.3328 H   0  0  0  0  0
   10.2460  -21.8963  -51.5559 H   0  0  0  0  0
   10.2558  -23.5385  -50.8676 H   0  0  0  0  0
    9.2008  -22.2862  -50.1679 H   0  0  0  0  0
   12.7307  -20.8064  -47.9433 H   0  0  0  0  0
   11.6952  -19.8336  -45.8107 H   0  0  0  0  0
   12.0115  -18.4063  -47.7777 H   0  0  0  0  0
   10.4425  -18.9368  -48.4319 H   0  0  0  0  0
   10.5037  -17.9775  -46.9329 H   0  0  0  0  0
   13.0157  -23.3806  -44.2871 H   0  0  0  0  0
   15.5749  -22.3991  -44.9322 H   0  0  0  0  0
   15.7717  -24.1401  -44.9903 H   0  0  0  0  0
   14.8979  -23.5865  -39.2152 H   0  0  0  0  0
   17.0334  -24.2698  -42.8885 H   0  0  0  0  0
   13.0954  -22.5436  -42.9807 H   0  0  0  0  0
   16.9252  -24.3805  -40.4116 H   0  0  0  0  0
   12.9758  -22.6895  -40.5089 H   0  0  0  0  0
   14.5006  -25.5928  -43.2129 H   0  0  0  0  0
   12.7579  -25.2883  -43.0097 H   0  0  0  0  0
   13.3693  -26.9599  -43.0638 H   0  0  0  0  0
   13.1080  -28.1082  -43.5902 H   0  0  0  0  0
   12.7737  -29.2122  -45.0848 H   0  0  0  0  0
   10.9220  -27.5677  -46.3436 H   0  0  0  0  0
   11.0928  -26.8907  -49.0639 H   0  0  0  0  0
   12.5425  -28.8503  -49.3165 H   0  0  0  0  0
   11.3137  -29.8781  -48.5389 H   0  0  0  0  0
   10.9753  -29.1244  -50.1164 H   0  0  0  0  0
    6.7506  -27.2423  -48.4872 H   0  0  0  0  0
    7.0126  -28.0631  -46.9288 H   0  0  0  0  0
    6.7913  -26.2968  -46.9788 H   0  0  0  0  0
   10.2833  -26.0083  -46.8864 H   0  0  0  0  0
    9.7322  -24.9461  -49.0563 H   0  0  0  0  0
    8.1414  -24.4503  -48.4283 H   0  0  0  0  0
    9.6263  -23.7270  -47.7627 H   0  0  0  0  0
  1  2  2  0  0  0
  1  3  1  0  0  0
  5  1  1  0  0  0
  4  6  2  0  0  0
  4  7  1  0  0  0
 19  4  1  0  0  0
  7  5  1  0  0  0
  7  8  1  0  0  0
  8  9  1  0  0  0
  8 10  1  0  0  0
  9 11  1  0  0  0
  9 12  1  0  0  0
 13 15  2  0  0  0
 13 16  1  0  0  0
 22 13  1  0  0  0
 16 14  1  0  0  0
 14 67  1  0  0  0
 16 17  1  0  0  0
 17 18  1  0  0  0
 17 19  1  0  0  0
 18 20  1  0  0  0
 18 21  1  0  0  0
 24 22  1  0  0  0
 22 30  1  0  0  0
 23 24  1  0  0  0
 23 25  2  0  0  0
 37 23  1  0  0  0
 24 27  1  0  0  0
 27 26  1  0  0  0
 26 28  1  0  0  0
 27 29  1  0  0  0
 31 32  1  0  0  0
 35 31  1  0  0  0
 32 33  2  0  0  0
 32 34  1  0  0  0
 35 36  1  0  0  0
 39 35  1  0  0  0
 36 37  1  0  0  0
 36 38  1  0  0  0
 39 40  2  0  0  0
 44 39  1  0  0  0
 41 42  2  0  0  0
 43 41  1  0  0  0
 41 52  1  0  0  0
 43 44  1  0  0  0
 45 43  1  0  0  0
 46 45  1  0  0  0
 48 46  4  0  0  0
 46 49  4  0  0  0
 50 47  4  0  0  0
 47 51  4  0  0  0
 48 50  4  0  0  0
 49 51  4  0  0  0
 52 53  1  0  0  0
 52 54  1  0  0  0
 54 55  2  0  0  0
 54 56  1  0  0  0
 56 57  2  0  0  0
 56 58  1  0  0  0
 58 59  1  0  0  0
 59 60  1  0  0  0
 59 62  1  0  0  0
 60 61  2  0  0  0
 60 63  1  0  0  0
 63 64  1  0  0  0
 63 65  1  0  0  0
 65 66  1  0  0  0
 65 67  1  0  0  0
 67 68  2  0  0  0
  3 69  1  0  0  0
  3 70  1  0  0  0
  3 71  1  0  0  0
  5 72  1  0  0  0
  7 73  1  0  0  0
  8 74  1  0  0  0
  9 75  1  0  0  0
 10 76  1  0  0  0
 11 77  1  0  0  0
 11 78  1  0  0  0
 11 79  1  0  0  0
 12 80  1  0  0  0
 12 81  1  0  0  0
 12 82  1  0  0  0
 14 83  1  0  0  0
 16 84  1  0  0  0
 17 85  1  0  0  0
 18 86  1  0  0  0
 20 87  1  0  0  0
 20 88  1  0  0  0
 20 89  1  0  0  0
 21 90  1  0  0  0
 21 91  1  0  0  0
 21 92  1  0  0  0
 24 93  1  0  0  0
 27 94  1  0  0  0
 28 95  1  0  0  0
 28 96  1  0  0  0
 28 97  1  0  0  0
 29 98  1  0  0  0
 29 99  1  0  0  0
 29100  1  0  0  0
 30101  1  0  0  0
 30102  1  0  0  0
 30103  1  0  0  0
 31104  1  0  0  0
 34105  1  0  0  0
 34106  1  0  0  0
 34107  1  0  0  0
 35108  1  0  0  0
 36109  1  0  0  0
 38110  1  0  0  0
 38111  1  0  0  0
 38112  1  0  0  0
 43113  1  0  0  0
 45114  1  0  0  0
 45115  1  0  0  0
 47116  1  0  0  0
 48117  1  0  0  0
 49118  1  0  0  0
 50119  1  0  0  0
 51120  1  0  0  0
 53121  1  0  0  0
 53122  1  0  0  0
 53123  1  0  0  0
 55124  1  0  0  0
 55125  1  0  0  0
 58126  1  0  0  0
 59127  1  0  0  0
 62128  1  0  0  0
 62129  1  0  0  0
 62130  1  0  0  0
 64131  1  0  0  0
 64132  1  0  0  0
 64133  1  0  0  0
 65134  1  0  0  0
 66135  1  0  0  0
 66136  1  0  0  0
 66137  1  0  0  0
M  END
$$$$
