3uxk_ligand
  -I-interpret- 

 17 17  0  0  0  0  0  0  0  0999 V2000
   51.7760  -52.3830   17.6340 C   0  0  0  0  0
   50.4590  -52.3880   18.1100 C   0  0  0  0  0
   49.7080  -51.2100   18.0950 C   0  0  0  0  0
   50.2470  -50.0300   17.6140 C   0  0  0  0  0
   51.5530  -50.0240   17.1410 C   0  0  0  0  0
   52.3080  -51.1920   17.1520 C   0  0  0  0  0
   52.5800  -53.6610   17.6540 C   0  0  0  0  0
   53.7590  -53.7570   17.3640 O   0  0  0  0  0
   51.7400  -54.6900   18.0570 N   0  0  0  0  0
   51.8740  -56.0120   18.2600 O   0  0  0  0  0
   50.0203  -53.3099   18.4918 H   0  0  0  0  0
   48.6836  -51.2207   18.4673 H   0  0  0  0  0
   49.6537  -49.1157   17.6063 H   0  0  0  0  0
   51.9879  -49.1001   16.7596 H   0  0  0  0  0
   53.3314  -51.1736   16.7774 H   0  0  0  0  0
   50.7918  -54.3642   18.2444 H   0  0  0  0  0
   51.0331  -56.3779   18.5440 H   0  0  0  0  0
  1  2  4  0  0  0
  1  6  4  0  0  0
  1  7  1  0  0  0
  2  3  4  0  0  0
  3  4  4  0  0  0
  4  5  4  0  0  0
  5  6  4  0  0  0
  7  8  2  0  0  0
  7  9  1  0  0  0
  9 10  1  0  0  0
  2 11  1  0  0  0
  3 12  1  0  0  0
  4 13  1  0  0  0
  5 14  1  0  0  0
  6 15  1  0  0  0
  9 16  1  0  0  0
 10 17  1  0  0  0
M  END
$$$$
