3ebh_ligand
  -I-interpret- 

 47 47  0  0  0  0  0  0  0  0999 V2000
   11.3060   12.6890   12.1390 N   0  3  0  0  0
   12.5960   12.0440   12.3500 C   0  0  0  0  0
   13.2840   12.6490   13.5710 C   0  0  0  0  0
   12.9890   11.9410   14.8790 C   0  0  0  0  0
   12.2340   12.6020   15.8500 C   0  0  0  0  0
   13.4890   10.6600   15.1410 C   0  0  0  0  0
   11.9640   11.9770   17.0700 C   0  0  0  0  0
   13.2190   10.0330   16.3650 C   0  0  0  0  0
   12.4510   10.6950   17.3250 C   0  0  0  0  0
   13.5130   12.1940   11.1330 C   0  0  0  0  0
   12.8050   12.5270    9.9360 O   0  0  0  0  0
   14.1970   10.8890   10.8790 C   0  0  0  0  0
   13.5530    9.9260   10.4990 O   0  0  0  0  0
   15.5040   10.8900   11.0810 N   0  0  0  0  0
   16.3580    9.7220   10.9190 C   0  0  0  0  0
   17.1280    9.9220    9.6130 C   0  0  0  0  0
   17.1910    8.6810    8.7150 C   0  0  0  0  0
   15.9300    7.8190    8.7240 C   0  0  0  0  0
   17.5190    9.0630    7.2790 C   0  0  0  0  0
   17.2760    9.7200   12.1000 C   0  0  0  0  0
   17.8430    8.6680   12.4740 O   0  0  0  0  0
   17.4090   10.8100   12.6840 O   0  0  0  0  0
   10.7263   12.5670   12.9694 H   0  0  0  0  0
   11.4490   13.6840   11.9659 H   0  0  0  0  0
   10.8431   12.2658   11.3346 H   0  0  0  0  0
   12.4094   10.9818   12.5084 H   0  0  0  0  0
   12.9134   13.6691   13.6714 H   0  0  0  0  0
   14.3579   12.5698   13.4022 H   0  0  0  0  0
   11.8553   13.6056   15.6562 H   0  0  0  0  0
   14.0907   10.1481   14.3900 H   0  0  0  0  0
   11.3708   12.4929   17.8251 H   0  0  0  0  0
   13.6063    9.0342   16.5664 H   0  0  0  0  0
   12.2316   10.2090   18.2757 H   0  0  0  0  0
   14.2086   13.0005   11.3648 H   0  0  0  0  0
   12.3492   13.3631   10.0573 H   0  0  0  0  0
   15.9418   11.7652   11.3687 H   0  0  0  0  0
   15.8190    8.7758   10.8715 H   0  0  0  0  0
   18.1539   10.1726    9.8829 H   0  0  0  0  0
   16.6062   10.6963    9.0506 H   0  0  0  0  0
   17.9874    8.0741    9.1456 H   0  0  0  0  0
   15.7406    7.4650    9.7374 H   0  0  0  0  0
   15.0829    8.4131    8.3811 H   0  0  0  0  0
   16.0698    6.9660    8.0600 H   0  0  0  0  0
   16.7482    9.7326    6.8974 H   0  0  0  0  0
   18.4857    9.5657    7.2499 H   0  0  0  0  0
   17.5572    8.1634    6.6647 H   0  0  0  0  0
   17.6033    7.9495   11.8841 H   0  0  0  0  0
  1  2  1  0  0  0
  2  3  1  0  0  0
  2 10  1  0  0  0
  3  4  1  0  0  0
  4  5  4  0  0  0
  4  6  4  0  0  0
  5  7  4  0  0  0
  6  8  4  0  0  0
  7  9  4  0  0  0
  8  9  4  0  0  0
 10 11  1  0  0  0
 10 12  1  0  0  0
 12 13  2  0  0  0
 12 14  1  0  0  0
 14 15  1  0  0  0
 15 16  1  0  0  0
 15 20  1  0  0  0
 16 17  1  0  0  0
 17 18  1  0  0  0
 17 19  1  0  0  0
 20 21  1  0  0  0
 20 22  2  0  0  0
  1 23  1  0  0  0
  1 24  1  0  0  0
  1 25  1  0  0  0
  2 26  1  0  0  0
  3 27  1  0  0  0
  3 28  1  0  0  0
  5 29  1  0  0  0
  6 30  1  0  0  0
  7 31  1  0  0  0
  8 32  1  0  0  0
  9 33  1  0  0  0
 10 34  1  0  0  0
 11 35  1  0  0  0
 14 36  1  0  0  0
 15 37  1  0  0  0
 16 38  1  0  0  0
 16 39  1  0  0  0
 17 40  1  0  0  0
 18 41  1  0  0  0
 18 42  1  0  0  0
 18 43  1  0  0  0
 19 44  1  0  0  0
 19 45  1  0  0  0
 19 46  1  0  0  0
 21 47  1  0  0  0
M  END
$$$$
