### 
### Created by X-TOOL on Mon Sep 10 21:12:48 2018
### 

@<TRIPOS>MOLECULE
1j7z_ligand
  241   242     1     0     0
SMALL
GAST_HUCK


@<TRIPOS>ATOM
      1 N         -13.1040    8.4960   19.8810 N.4       1 LYS         0.2379
      2 CA        -13.8020    7.9240   18.6910 C.3       1 LYS         0.0650
      3 C         -13.8690    6.3990   18.7810 C.2       1 LYS         0.2267
      4 O         -13.6830    5.8060   19.8490 O.2       1 LYS        -0.3907
      5 CB        -13.0650    8.3310   17.4000 C.3       1 LYS         0.0080
      6 CG        -13.9660    8.9140   16.3010 C.3       1 LYS        -0.0410
      7 CD        -14.0000    8.0250   15.0600 C.3       1 LYS        -0.0123
      8 CE        -15.2910    8.2170   14.2610 C.3       1 LYS        -0.0354
      9 NZ        -15.8240    6.9350   13.6920 N.4       1 LYS         0.2185
     10 N         -14.1520    5.7850   17.6400 N.am      1 GLU        -0.2609
     11 CA        -14.2390    4.3390   17.5100 C.3       1 GLU         0.1326
     12 C         -12.8420    3.7170   17.4700 C.2       1 GLU         0.2041
     13 O         -12.0320    4.0540   16.6040 O.2       1 GLU        -0.3944
     14 CB        -14.9850    4.0190   16.2200 C.3       1 GLU        -0.0008
     15 CG        -15.1710    2.5590   15.9200 C.3       1 GLU         0.0044
     16 CD        -15.9450    2.3470   14.6320 C.2       1 GLU         0.0350
     17 OE1       -15.4900    2.8460   13.5780 O.co2     1 GLU        -0.5690
     18 OE2       -17.0040    1.6880   14.6730 O.co2     1 GLU        -0.5690
     19 N         -12.5560    2.8180   18.4080 N.am      1 THR        -0.2613
     20 CA        -11.2520    2.1660   18.4410 C.3       1 THR         0.1565
     21 C         -11.0900    1.2330   17.2540 C.2       1 THR         0.2065
     22 O         -12.0470    0.9620   16.5310 O.2       1 THR        -0.3943
     23 CB        -11.0590    1.3500   19.7170 C.3       1 THR         0.0924
     24 OG1       -11.9950    0.2680   19.7370 O.3       1 THR        -0.3874
     25 CG2       -11.2720    2.2200   20.9270 C.3       1 THR        -0.0346
     26 N          -9.8770    0.7260   17.0670 N.am      1 ALA        -0.2639
     27 CA         -9.5920   -0.1650   15.9490 C.3       1 ALA         0.1282
     28 C         -10.2900   -1.5040   16.0990 C.2       1 ALA         0.2036
     29 O         -10.7040   -2.1120   15.1140 O.2       1 ALA        -0.3944
     30 CB         -8.0980   -0.3730   15.8250 C.3       1 ALA        -0.0244
     31 N         -10.4060   -1.9640   17.3370 N.am      1 ALA        -0.2640
     32 CA        -11.0540   -3.2350   17.6110 C.3       1 ALA         0.1282
     33 C         -12.5680   -3.1140   17.4550 C.2       1 ALA         0.2036
     34 O         -13.2280   -4.0640   17.0510 O.2       1 ALA        -0.3944
     35 CB        -10.7010   -3.7100   19.0130 C.3       1 ALA        -0.0244
     36 N         -13.1120   -1.9390   17.7640 N.am      1 ALA        -0.2640
     37 CA        -14.5440   -1.6880   17.6440 C.3       1 ALA         0.1282
     38 C         -14.8980   -1.5560   16.1680 C.2       1 ALA         0.2036
     39 O         -15.9720   -1.9700   15.7390 O.2       1 ALA        -0.3944
     40 CB        -14.9140   -0.4110   18.3750 C.3       1 ALA        -0.0244
     41 N         -13.9860   -0.9720   15.3970 N.am      1 LYS        -0.2637
     42 CA        -14.1820   -0.7880   13.9610 C.3       1 LYS         0.1310
     43 C         -14.1380   -2.1530   13.2700 C.2       1 LYS         0.2040
     44 O         -14.9080   -2.4220   12.3440 O.2       1 LYS        -0.3944
     45 CB        -13.0910    0.1310   13.4000 C.3       1 LYS        -0.0122
     46 CG        -13.2610    0.5440   11.9420 C.3       1 LYS        -0.0440
     47 CD        -11.9240    0.9760   11.3290 C.3       1 LYS        -0.0124
     48 CE        -12.0750    1.2900    9.8510 C.3       1 LYS        -0.0354
     49 NZ        -10.7860    1.2650    9.0930 N.4       1 LYS         0.2185
     50 N         -13.2290   -3.0120   13.7160 N.am      1 PHE        -0.2619
     51 CA        -13.1420   -4.3400   13.1340 C.3       1 PHE         0.1404
     52 C         -14.5010   -5.0240   13.2900 C.2       1 PHE         0.2060
     53 O         -15.0120   -5.6540   12.3590 O.2       1 PHE        -0.3942
     54 CB        -12.0530   -5.1680   13.8390 C.3       1 PHE         0.0214
     55 CG        -12.0170   -6.6190   13.4040 C.ar      1 PHE        -0.0386
     56 CD1       -11.2340   -7.0170   12.3220 C.ar      1 PHE        -0.0601
     57 CD2       -12.7840   -7.5820   14.0640 C.ar      1 PHE        -0.0601
     58 CE1       -11.2190   -8.3520   11.9010 C.ar      1 PHE        -0.0686
     59 CE2       -12.7780   -8.9240   13.6510 C.ar      1 PHE        -0.0686
     60 CZ        -11.9950   -9.3040   12.5690 C.ar      1 PHE        -0.0687
     61 N         -15.0880   -4.8850   14.4750 N.am      1 GLU        -0.2635
     62 CA        -16.3750   -5.5050   14.7680 C.3       1 GLU         0.1325
     63 C         -17.5260   -4.9800   13.9150 C.2       1 GLU         0.2040
     64 O         -18.3090   -5.7630   13.3850 O.2       1 GLU        -0.3944
     65 CB        -16.7090   -5.3280   16.2510 C.3       1 GLU        -0.0008
     66 CG        -16.1260   -6.4140   17.1490 C.3       1 GLU         0.0044
     67 CD        -15.8920   -5.9470   18.5860 C.2       1 GLU         0.0350
     68 OE1       -16.2520   -4.8030   18.9270 O.co2     1 GLU        -0.5690
     69 OE2       -15.3450   -6.7380   19.3850 O.co2     1 GLU        -0.5690
     70 N         -17.6370   -3.6630   13.7890 N.am      1 ARG        -0.2637
     71 CA        -18.7120   -3.0710   13.0080 C.3       1 ARG         0.1311
     72 C         -18.5710   -3.4270   11.5360 C.2       1 ARG         0.2039
     73 O         -19.5570   -3.5800   10.8210 O.2       1 ARG        -0.3944
     74 CB        -18.7100   -1.5450   13.1680 C.3       1 ARG        -0.0092
     75 CG        -19.8810   -0.8530   12.4790 C.3       1 ARG        -0.0156
     76 CD        -19.8300    0.6690   12.5930 C.3       1 ARG         0.0627
     77 NE        -18.4710    1.1780   12.4970 N.pl3     1 ARG        -0.2723
     78 CZ        -17.8080    1.3370   11.3570 C.cat     1 ARG         0.2882
     79 NH1       -16.5680    1.8040   11.3730 N.pl3     1 ARG        -0.2849
     80 NH2       -18.3860    1.0410   10.1980 N.pl3     1 ARG        -0.2849
     81 N         -17.3320   -3.5750   11.0920 N.am      1 GLN        -0.2636
     82 CA        -17.0590   -3.8820    9.6980 C.3       1 GLN         0.1330
     83 C         -17.0410   -5.3490    9.2770 C.2       1 GLN         0.2041
     84 O         -17.3900   -5.6670    8.1370 O.2       1 GLN        -0.3944
     85 CB        -15.7260   -3.2590    9.2850 C.3       1 GLN         0.0045
     86 CG        -15.7830   -1.7660    9.0310 C.3       1 GLN         0.0412
     87 CD        -14.4970   -1.2300    8.4310 C.2       1 GLN         0.1737
     88 OE1       -13.4160   -1.7720    8.6680 O.2       1 GLN        -0.3973
     89 NE2       -14.6080   -0.1530    7.6530 N.am      1 GLN        -0.3009
     90 N         -16.6630   -6.2550   10.1730 N.am      1 HIS        -0.2625
     91 CA        -16.5590   -7.6550    9.7630 C.3       1 HIS         0.1369
     92 C         -17.3530   -8.7000   10.5290 C.2       1 HIS         0.2054
     93 O         -17.4580   -9.8400   10.0840 O.2       1 HIS        -0.3942
     94 CB        -15.0870   -8.0830    9.7590 C.3       1 HIS         0.0145
     95 CG        -14.1700   -7.1180    9.0680 C.2       1 HIS        -0.0027
     96 ND1       -14.1780   -6.9370    7.7030 N.2       1 HIS        -0.3252
     97 CD2       -13.2140   -6.2950    9.5540 C.2       1 HIS         0.0291
     98 CE1       -13.2630   -6.0400    7.3750 C.2       1 HIS         0.0907
     99 NE2       -12.6640   -5.6360    8.4790 N.pl3     1 HIS        -0.2752
    100 N         -17.9150   -8.3380   11.6710 N.am      1 MET        -0.2636
    101 CA        -18.6550   -9.3200   12.4520 C.3       1 MET         0.1317
    102 C         -20.1440   -9.4070   12.1610 C.2       1 MET         0.2040
    103 O         -20.8490   -8.4040   12.1630 O.2       1 MET        -0.3944
    104 CB        -18.4480   -9.0640   13.9510 C.3       1 MET        -0.0034
    105 CG        -17.0560   -9.4250   14.4600 C.3       1 MET        -0.0024
    106 SD        -16.5770  -11.1280   14.0900 S.3       1 MET        -0.1639
    107 CE        -17.9860  -12.0390   14.7010 C.3       1 MET        -0.0181
    108 N         -20.6090  -10.6180   11.8880 N.am      1 ASP        -0.2622
    109 CA        -22.0170  -10.8450   11.6670 C.3       1 ASP         0.1423
    110 C         -22.3330  -12.2410   12.1630 C.2       1 ASP         0.2057
    111 O         -22.5850  -13.1520   11.3790 O.2       1 ASP        -0.3943
    112 CB        -22.4080  -10.7110   10.1960 C.3       1 ASP         0.0406
    113 CG        -23.9130  -10.7480   10.0000 C.2       1 ASP         0.0393
    114 OD1       -24.6370  -10.3010   10.9150 O.co2     1 ASP        -0.5688
    115 OD2       -24.3780  -11.2340    8.9450 O.co2     1 ASP        -0.5688
    116 N         -22.3190  -12.3890   13.4820 N.am      1 SER        -0.2615
    117 CA        -22.5960  -13.6560   14.1320 C.3       1 SER         0.1536
    118 C         -24.0170  -14.1350   13.8480 C.2       1 SER         0.2015
    119 O         -24.2240  -15.2970   13.4860 O.2       1 SER        -0.3947
    120 CB        -22.3870  -13.5110   15.6360 C.3       1 SER         0.0843
    121 OG        -21.2730  -12.6760   15.8950 O.3       1 SER        -0.3903
    122 N         -24.9980  -13.2420   14.0120 N.am      1 NH2        -0.2989
    123 H1        -13.0714    9.5003   19.8008 H         1 LYS         0.2015
    124 H2        -12.1652    8.1320   19.9270 H         1 LYS         0.2015
    125 H3        -13.6043    8.2419   20.7183 H         1 LYS         0.2015
    126 H4        -14.8267    8.3225   18.6581 H         1 LYS         0.1098
    127 H5        -12.5653    7.4386   16.9952 H         1 LYS         0.0346
    128 H6        -12.3101    9.0874   17.6607 H         1 LYS         0.0346
    129 H7        -13.5842    9.9058   16.0173 H         1 LYS         0.0270
    130 H8        -14.9882    9.0135   16.6950 H         1 LYS         0.0270
    131 H9        -13.9278    6.9730   15.3731 H         1 LYS         0.0317
    132 H10       -13.1429    8.2762   14.4180 H         1 LYS         0.0317
    133 H11       -15.0903    8.9117   13.4321 H         1 LYS         0.0813
    134 H12       -16.0536    8.6494   14.9255 H         1 LYS         0.0813
    135 H13       -16.6710    7.1219   13.1785 H         1 LYS         0.1994
    136 H14       -16.0209    6.2908   14.4418 H         1 LYS         0.1994
    137 H15       -15.1382    6.5312   13.0734 H         1 LYS         0.1994
    138 H16       -14.3139    6.3449   16.8274 H         1 GLU         0.1885
    139 H17       -14.7920    3.9274   18.3672 H         1 GLU         0.0801
    140 H18       -14.4250    4.4667   15.3858 H         1 GLU         0.0330
    141 H19       -15.9814    4.4807   16.2824 H         1 GLU         0.0330
    142 H20       -15.7229    2.0918   16.7489 H         1 GLU         0.0433
    143 H21       -14.1827    2.0855   15.8245 H         1 GLU         0.0433
    144 H22       -13.2423    2.5869   19.0976 H         1 THR         0.1884
    145 H23       -10.4750    2.9433   18.3957 H         1 THR         0.0826
    146 H24       -10.0358    0.9468   19.7372 H         1 THR         0.0639
    147 H25       -11.8742   -0.2391   20.5312 H         1 THR         0.2101
    148 H26       -11.1303    1.6211   21.8387 H         1 THR         0.0257
    149 H27       -12.2938    2.6269   20.9108 H         1 THR         0.0257
    150 H28       -10.5475    3.0476   20.9157 H         1 THR         0.0257
    151 H29        -9.1443    0.9601   17.7060 H         1 ALA         0.1883
    152 H30        -9.9577    0.3117   15.0276 H         1 ALA         0.0797
    153 H31        -7.8904   -1.0459   14.9799 H         1 ALA         0.0277
    154 H32        -7.7117   -0.8199   16.7529 H         1 ALA         0.0277
    155 H33        -7.6060    0.5955   15.6519 H         1 ALA         0.0277
    156 H34       -10.0405   -1.4259   18.0965 H         1 ALA         0.1883
    157 H35       -10.6875   -3.9774   16.8868 H         1 ALA         0.0797
    158 H36       -11.1965   -4.6722   19.2097 H         1 ALA         0.0277
    159 H37       -11.0402   -2.9658   19.7486 H         1 ALA         0.0277
    160 H38        -9.6112   -3.8355   19.0941 H         1 ALA         0.0277
    161 H39       -12.5185   -1.2030   18.0896 H         1 ALA         0.1883
    162 H40       -15.1006   -2.5300   18.0812 H         1 ALA         0.0797
    163 H41       -15.9951   -0.2327   18.2774 H         1 ALA         0.0277
    164 H42       -14.3621    0.4345   17.9385 H         1 ALA         0.0277
    165 H43       -14.6532   -0.5089   19.4391 H         1 ALA         0.0277
    166 H44       -13.1370   -0.6476   15.8141 H         1 LYS         0.1883
    167 H45       -15.1647   -0.3260   13.7851 H         1 LYS         0.0800
    168 H46       -12.1276   -0.3917   13.4932 H         1 LYS         0.0312
    169 H47       -13.0725    1.0458   14.0106 H         1 LYS         0.0312
    170 H48       -13.9690    1.3841   11.8872 H         1 LYS         0.0269
    171 H49       -13.6585   -0.3084   11.3716 H         1 LYS         0.0269
    172 H50       -11.1938    0.1624   11.4504 H         1 LYS         0.0317
    173 H51       -11.5628    1.8739   11.8517 H         1 LYS         0.0317
    174 H52       -12.5153    2.2932    9.7529 H         1 LYS         0.0813
    175 H53       -12.7531    0.5468    9.4062 H         1 LYS         0.0813
    176 H54       -10.9617    1.4812    8.1243 H         1 LYS         0.1994
    177 H55       -10.3727    0.3483    9.1630 H         1 LYS         0.1994
    178 H56       -10.1549    1.9486    9.4807 H         1 LYS         0.1994
    179 H57       -12.6056   -2.7452   14.4510 H         1 PHE         0.1885
    180 H58       -12.8939   -4.2552   12.0657 H         1 PHE         0.0823
    181 H59       -12.2378   -5.1345   14.9228 H         1 PHE         0.0474
    182 H60       -11.0750   -4.7149   13.6195 H         1 PHE         0.0474
    183 H61       -10.6294   -6.2841   11.8002 H         1 PHE         0.0557
    184 H62       -13.3947   -7.2881   14.9100 H         1 PHE         0.0557
    185 H63       -10.6059   -8.6476   11.0573 H         1 PHE         0.0599
    186 H64       -13.3805   -9.6584   14.1732 H         1 PHE         0.0599
    187 H65       -11.9854  -10.3377   12.2426 H         1 PHE         0.0559
    188 H66       -14.6358   -4.3420   15.1826 H         1 GLU         0.1883
    189 H67       -16.2766   -6.5811   14.5625 H         1 GLU         0.0801
    190 H68       -17.8032   -5.3363   16.3631 H         1 GLU         0.0330
    191 H69       -16.3139   -4.3561   16.5816 H         1 GLU         0.0330
    192 H70       -15.1638   -6.7381   16.7259 H         1 GLU         0.0433
    193 H71       -16.8236   -7.2643   17.1671 H         1 GLU         0.0433
    194 H72       -16.9706   -3.0681   14.2384 H         1 ARG         0.1883
    195 H73       -19.6705   -3.4652   13.3765 H         1 ARG         0.0800
    196 H74       -17.7753   -1.1526   12.7410 H         1 ARG         0.0313
    197 H75       -18.7504   -1.3087   14.2415 H         1 ARG         0.0313
    198 H76       -20.8159   -1.2071   12.9379 H         1 ARG         0.0301
    199 H77       -19.8699   -1.1245   11.4131 H         1 ARG         0.0301
    200 H78       -20.2528    0.9667   13.5639 H         1 ARG         0.0689
    201 H79       -20.4309    1.1061   11.7819 H         1 ARG         0.0689
    202 H80       -17.9903    1.4323   13.3718 H         1 ARG         0.2642
    203 H81       -16.0529    1.9277   10.4897 H         1 ARG         0.2615
    204 H82       -16.1193    2.0433   12.2687 H         1 ARG         0.2615
    205 H83       -19.3497    0.6778   10.1810 H         1 ARG         0.2615
    206 H84       -17.8704    1.1748    9.3164 H         1 ARG         0.2615
    207 H85       -16.5682   -3.4734   11.7294 H         1 GLN         0.1883
    208 H86       -17.8582   -3.3997    9.1161 H         1 GLN         0.0801
    209 H87       -15.3875   -3.7520    8.3618 H         1 GLN         0.0337
    210 H88       -14.9969   -3.4435   10.0878 H         1 GLN         0.0337
    211 H89       -15.9677   -1.2523    9.9860 H         1 GLN         0.0504
    212 H90       -16.6101   -1.5575    8.3365 H         1 GLN         0.0504
    213 H91       -13.7936    0.2445    7.2302 H         1 GLN         0.1814
    214 H92       -15.5057    0.2574    7.4923 H         1 GLN         0.1814
    215 H93       -16.4531   -5.9838   11.1123 H         1 HIS         0.1885
    216 H94       -16.9254   -7.6922    8.7265 H         1 HIS         0.0817
    217 H95       -15.0115   -9.0555    9.2506 H         1 HIS         0.0420
    218 H96       -14.7550   -8.1880   10.8024 H         1 HIS         0.0420
    219 H97       -12.9324   -6.1761   10.5992 H         1 HIS         0.0729
    220 H98       -13.0419   -5.6941    6.3663 H         1 HIS         0.1199
    221 H99       -11.9067   -4.9395    8.5280 H         1 HIS         0.2361
    222 H100      -17.8322   -7.3959   11.9959 H         1 MET         0.1883
    223 H101      -18.2249  -10.3037   12.2126 H         1 MET         0.0800
    224 H102      -19.1847   -9.6614   14.5081 H         1 MET         0.0320
    225 H103      -18.6201   -7.9951   14.1455 H         1 MET         0.0320
    226 H104      -17.0367   -9.2864   15.5511 H         1 MET         0.0378
    227 H105      -16.3267   -8.7479   13.9914 H         1 MET         0.0378
    228 H106      -17.8263  -13.1149   14.5367 H         1 MET         0.0340
    229 H107      -18.8912  -11.7168   14.1656 H         1 MET         0.0340
    230 H108      -18.1084  -11.8467   15.7771 H         1 MET         0.0340
    231 H109      -19.9730  -11.3878   11.8342 H         1 ASP         0.1884
    232 H110      -22.5931  -10.1101   12.2484 H         1 ASP         0.0819
    233 H111      -21.9563  -11.5403    9.6318 H         1 ASP         0.0478
    234 H112      -22.0237   -9.7543    9.8125 H         1 ASP         0.0478
    235 H113      -22.1088  -11.5942   14.0513 H         1 SER         0.1884
    236 H114      -21.8920  -14.4080   13.7461 H         1 SER         0.0823
    237 H115      -22.2077  -14.5033   16.0756 H         1 SER         0.0606
    238 H116      -23.2867  -13.0672   16.0871 H         1 SER         0.0606
    239 H117      -20.4947  -13.0588   15.5073 H         1 SER         0.2097
    240 H118      -25.9473  -13.5047   13.8391 H         1 NH2         0.1815
    241 H119      -24.7826  -12.3113   14.3075 H         1 NH2         0.1815
@<TRIPOS>BOND
     1    1    2 1  
     2    2    3 1  
     3    2    5 1  
     4    3    4 2  
     5    3   10 am 
     6    5    6 1  
     7    6    7 1  
     8    7    8 1  
     9    8    9 1  
    10   10   11 1  
    11   11   12 1  
    12   11   14 1  
    13   12   13 2  
    14   12   19 am 
    15   14   15 1  
    16   15   16 1  
    17   16   17 ar 
    18   16   18 ar 
    19   19   20 1  
    20   20   21 1  
    21   20   23 1  
    22   21   22 2  
    23   21   26 am 
    24   23   24 1  
    25   23   25 1  
    26   26   27 1  
    27   27   28 1  
    28   27   30 1  
    29   28   29 2  
    30   28   31 am 
    31   31   32 1  
    32   32   33 1  
    33   32   35 1  
    34   33   34 2  
    35   33   36 am 
    36   36   37 1  
    37   37   38 1  
    38   37   40 1  
    39   38   39 2  
    40   38   41 am 
    41   41   42 1  
    42   42   43 1  
    43   42   45 1  
    44   43   44 2  
    45   43   50 am 
    46   45   46 1  
    47   46   47 1  
    48   47   48 1  
    49   48   49 1  
    50   50   51 1  
    51   51   52 1  
    52   51   54 1  
    53   52   53 2  
    54   52   61 am 
    55   54   55 1  
    56   55   56 ar 
    57   55   57 ar 
    58   56   58 ar 
    59   57   59 ar 
    60   58   60 ar 
    61   59   60 ar 
    62   61   62 1  
    63   62   63 1  
    64   62   65 1  
    65   63   64 2  
    66   63   70 am 
    67   65   66 1  
    68   66   67 1  
    69   67   68 ar 
    70   67   69 ar 
    71   70   71 1  
    72   71   72 1  
    73   71   74 1  
    74   72   73 2  
    75   72   81 am 
    76   74   75 1  
    77   75   76 1  
    78   76   77 1  
    79   77   78 ar 
    80   78   79 ar 
    81   78   80 ar 
    82   81   82 1  
    83   82   83 1  
    84   82   85 1  
    85   83   84 2  
    86   83   90 am 
    87   85   86 1  
    88   86   87 1  
    89   87   88 2  
    90   87   89 am 
    91   90   91 1  
    92   91   92 1  
    93   91   94 1  
    94   92   93 2  
    95   92  100 am 
    96   94   95 1  
    97   95   96 1  
    98   95   97 2  
    99   96   98 2  
   100   97   99 1  
   101   98   99 1  
   102  100  101 1  
   103  101  102 1  
   104  101  104 1  
   105  102  103 2  
   106  102  108 am 
   107  104  105 1  
   108  105  106 1  
   109  106  107 1  
   110  108  109 1  
   111  109  110 1  
   112  109  112 1  
   113  110  111 2  
   114  110  116 am 
   115  112  113 1  
   116  113  114 ar 
   117  113  115 ar 
   118  116  117 1  
   119  117  118 1  
   120  117  120 1  
   121  118  119 2  
   122  118  122 am 
   123  120  121 1  
   124    1  123 1  
   125    1  124 1  
   126    1  125 1  
   127    2  126 1  
   128    5  127 1  
   129    5  128 1  
   130    6  129 1  
   131    6  130 1  
   132    7  131 1  
   133    7  132 1  
   134    8  133 1  
   135    8  134 1  
   136    9  135 1  
   137    9  136 1  
   138    9  137 1  
   139   10  138 1  
   140   11  139 1  
   141   14  140 1  
   142   14  141 1  
   143   15  142 1  
   144   15  143 1  
   145   19  144 1  
   146   20  145 1  
   147   23  146 1  
   148   24  147 1  
   149   25  148 1  
   150   25  149 1  
   151   25  150 1  
   152   26  151 1  
   153   27  152 1  
   154   30  153 1  
   155   30  154 1  
   156   30  155 1  
   157   31  156 1  
   158   32  157 1  
   159   35  158 1  
   160   35  159 1  
   161   35  160 1  
   162   36  161 1  
   163   37  162 1  
   164   40  163 1  
   165   40  164 1  
   166   40  165 1  
   167   41  166 1  
   168   42  167 1  
   169   45  168 1  
   170   45  169 1  
   171   46  170 1  
   172   46  171 1  
   173   47  172 1  
   174   47  173 1  
   175   48  174 1  
   176   48  175 1  
   177   49  176 1  
   178   49  177 1  
   179   49  178 1  
   180   50  179 1  
   181   51  180 1  
   182   54  181 1  
   183   54  182 1  
   184   56  183 1  
   185   57  184 1  
   186   58  185 1  
   187   59  186 1  
   188   60  187 1  
   189   61  188 1  
   190   62  189 1  
   191   65  190 1  
   192   65  191 1  
   193   66  192 1  
   194   66  193 1  
   195   70  194 1  
   196   71  195 1  
   197   74  196 1  
   198   74  197 1  
   199   75  198 1  
   200   75  199 1  
   201   76  200 1  
   202   76  201 1  
   203   77  202 1  
   204   79  203 1  
   205   79  204 1  
   206   80  205 1  
   207   80  206 1  
   208   81  207 1  
   209   82  208 1  
   210   85  209 1  
   211   85  210 1  
   212   86  211 1  
   213   86  212 1  
   214   89  213 1  
   215   89  214 1  
   216   90  215 1  
   217   91  216 1  
   218   94  217 1  
   219   94  218 1  
   220   97  219 1  
   221   98  220 1  
   222   99  221 1  
   223  100  222 1  
   224  101  223 1  
   225  104  224 1  
   226  104  225 1  
   227  105  226 1  
   228  105  227 1  
   229  107  228 1  
   230  107  229 1  
   231  107  230 1  
   232  108  231 1  
   233  109  232 1  
   234  112  233 1  
   235  112  234 1  
   236  116  235 1  
   237  117  236 1  
   238  120  237 1  
   239  120  238 1  
   240  121  239 1  
   241  122  240 1  
   242  122  241 1  
@<TRIPOS>SUBSTRUCTURE
     1 LYS         1

