1j7z_ligand
  -I-interpret- 

242243  0  0  0  0  0  0  0  0999 V2000
  -13.1040    8.4960   19.8810 N   0  3  0  0  0
  -13.8020    7.9240   18.6910 C   0  0  0  0  0
  -13.8690    6.3990   18.7810 C   0  0  0  0  0
  -13.6830    5.8060   19.8490 O   0  0  0  0  0
  -13.0650    8.3310   17.4000 C   0  0  0  0  0
  -13.9660    8.9140   16.3010 C   0  0  0  0  0
  -14.0000    8.0250   15.0600 C   0  0  0  0  0
  -15.2910    8.2170   14.2610 C   0  0  0  0  0
  -15.8240    6.9350   13.6920 N   0  3  0  0  0
  -14.1520    5.7850   17.6400 N   0  0  0  0  0
  -14.2390    4.3390   17.5100 C   0  0  0  0  0
  -12.8420    3.7170   17.4700 C   0  0  0  0  0
  -12.0320    4.0540   16.6040 O   0  0  0  0  0
  -14.9850    4.0190   16.2200 C   0  0  0  0  0
  -15.1710    2.5590   15.9200 C   0  0  0  0  0
  -15.9450    2.3470   14.6320 C   0  0  0  0  0
  -15.4900    2.8460   13.5780 O   0  0  0  0  0
  -17.0040    1.6880   14.6730 O   0  0  0  0  0
  -12.5560    2.8180   18.4080 N   0  0  0  0  0
  -11.2520    2.1660   18.4410 C   0  0  0  0  0
  -11.0900    1.2330   17.2540 C   0  0  0  0  0
  -12.0470    0.9620   16.5310 O   0  0  0  0  0
  -11.0590    1.3500   19.7170 C   0  0  0  0  0
  -11.9950    0.2680   19.7370 O   0  0  0  0  0
  -11.2720    2.2200   20.9270 C   0  0  0  0  0
   -9.8770    0.7260   17.0670 N   0  0  0  0  0
   -9.5920   -0.1650   15.9490 C   0  0  0  0  0
  -10.2900   -1.5040   16.0990 C   0  0  0  0  0
  -10.7040   -2.1120   15.1140 O   0  0  0  0  0
   -8.0980   -0.3730   15.8250 C   0  0  0  0  0
  -10.4060   -1.9640   17.3370 N   0  0  0  0  0
  -11.0540   -3.2350   17.6110 C   0  0  0  0  0
  -12.5680   -3.1140   17.4550 C   0  0  0  0  0
  -13.2280   -4.0640   17.0510 O   0  0  0  0  0
  -10.7010   -3.7100   19.0130 C   0  0  0  0  0
  -13.1120   -1.9390   17.7640 N   0  0  0  0  0
  -14.5440   -1.6880   17.6440 C   0  0  0  0  0
  -14.8980   -1.5560   16.1680 C   0  0  0  0  0
  -15.9720   -1.9700   15.7390 O   0  0  0  0  0
  -14.9140   -0.4110   18.3750 C   0  0  0  0  0
  -13.9860   -0.9720   15.3970 N   0  0  0  0  0
  -14.1820   -0.7880   13.9610 C   0  0  0  0  0
  -14.1380   -2.1530   13.2700 C   0  0  0  0  0
  -14.9080   -2.4220   12.3440 O   0  0  0  0  0
  -13.0910    0.1310   13.4000 C   0  0  0  0  0
  -13.2610    0.5440   11.9420 C   0  0  0  0  0
  -11.9240    0.9760   11.3290 C   0  0  0  0  0
  -12.0750    1.2900    9.8510 C   0  0  0  0  0
  -10.7860    1.2650    9.0930 N   0  3  0  0  0
  -13.2290   -3.0120   13.7160 N   0  0  0  0  0
  -13.1420   -4.3400   13.1340 C   0  0  0  0  0
  -14.5010   -5.0240   13.2900 C   0  0  0  0  0
  -15.0120   -5.6540   12.3590 O   0  0  0  0  0
  -12.0530   -5.1680   13.8390 C   0  0  0  0  0
  -12.0170   -6.6190   13.4040 C   0  0  0  0  0
  -11.2340   -7.0170   12.3220 C   0  0  0  0  0
  -12.7840   -7.5820   14.0640 C   0  0  0  0  0
  -11.2190   -8.3520   11.9010 C   0  0  0  0  0
  -12.7780   -8.9240   13.6510 C   0  0  0  0  0
  -11.9950   -9.3040   12.5690 C   0  0  0  0  0
  -15.0880   -4.8850   14.4750 N   0  0  0  0  0
  -16.3750   -5.5050   14.7680 C   0  0  0  0  0
  -17.5260   -4.9800   13.9150 C   0  0  0  0  0
  -18.3090   -5.7630   13.3850 O   0  0  0  0  0
  -16.7090   -5.3280   16.2510 C   0  0  0  0  0
  -16.1260   -6.4140   17.1490 C   0  0  0  0  0
  -15.8920   -5.9470   18.5860 C   0  0  0  0  0
  -16.2520   -4.8030   18.9270 O   0  0  0  0  0
  -15.3450   -6.7380   19.3850 O   0  0  0  0  0
  -17.6370   -3.6630   13.7890 N   0  0  0  0  0
  -18.7120   -3.0710   13.0080 C   0  0  0  0  0
  -18.5710   -3.4270   11.5360 C   0  0  0  0  0
  -19.5570   -3.5800   10.8210 O   0  0  0  0  0
  -18.7100   -1.5450   13.1680 C   0  0  0  0  0
  -19.8810   -0.8530   12.4790 C   0  0  0  0  0
  -19.8300    0.6690   12.5930 C   0  0  0  0  0
  -18.4710    1.1780   12.4970 N   0  0  0  0  0
  -17.8080    1.3370   11.3570 C   0  0  0  0  0
  -16.5680    1.8040   11.3730 N   0  0  0  0  0
  -18.3860    1.0410   10.1980 N   0  0  0  0  0
  -17.3320   -3.5750   11.0920 N   0  0  0  0  0
  -17.0590   -3.8820    9.6980 C   0  0  0  0  0
  -17.0410   -5.3490    9.2770 C   0  0  0  0  0
  -17.3900   -5.6670    8.1370 O   0  0  0  0  0
  -15.7260   -3.2590    9.2850 C   0  0  0  0  0
  -15.7830   -1.7660    9.0310 C   0  0  0  0  0
  -14.4970   -1.2300    8.4310 C   0  0  0  0  0
  -13.4160   -1.7720    8.6680 O   0  0  0  0  0
  -14.6080   -0.1530    7.6530 N   0  0  0  0  0
  -16.6630   -6.2550   10.1730 N   0  0  0  0  0
  -16.5590   -7.6550    9.7630 C   0  0  0  0  0
  -17.3530   -8.7000   10.5290 C   0  0  0  0  0
  -17.4580   -9.8400   10.0840 O   0  0  0  0  0
  -15.0870   -8.0830    9.7590 C   0  0  0  0  0
  -14.1700   -7.1180    9.0680 C   0  0  0  0  0
  -14.1780   -6.9370    7.7030 N   0  0  0  0  0
  -13.2140   -6.2950    9.5540 C   0  0  0  0  0
  -13.2630   -6.0400    7.3750 C   0  0  0  0  0
  -12.6640   -5.6360    8.4790 N   0  0  0  0  0
  -17.9150   -8.3380   11.6710 N   0  0  0  0  0
  -18.6550   -9.3200   12.4520 C   0  0  0  0  0
  -20.1440   -9.4070   12.1610 C   0  0  0  0  0
  -20.8490   -8.4040   12.1630 O   0  0  0  0  0
  -18.4480   -9.0640   13.9510 C   0  0  0  0  0
  -17.0560   -9.4250   14.4600 C   0  0  0  0  0
  -16.5770  -11.1280   14.0900 S   0  0  0  0  0
  -17.9860  -12.0390   14.7010 C   0  0  0  0  0
  -20.6090  -10.6180   11.8880 N   0  0  0  0  0
  -22.0170  -10.8450   11.6670 C   0  0  0  0  0
  -22.3330  -12.2410   12.1630 C   0  0  0  0  0
  -22.5850  -13.1520   11.3790 O   0  0  0  0  0
  -22.4080  -10.7110   10.1960 C   0  0  0  0  0
  -23.9130  -10.7480   10.0000 C   0  0  0  0  0
  -24.6370  -10.3010   10.9150 O   0  0  0  0  0
  -24.3780  -11.2340    8.9450 O   0  0  0  0  0
  -22.3190  -12.3890   13.4820 N   0  0  0  0  0
  -22.5960  -13.6560   14.1320 C   0  0  0  0  0
  -24.0170  -14.1350   13.8480 C   0  0  0  0  0
  -24.2240  -15.2970   13.4860 O   0  0  0  0  0
  -22.3870  -13.5110   15.6360 C   0  0  0  0  0
  -21.2730  -12.6760   15.8950 O   0  0  0  0  0
  -24.9980  -13.2420   14.0120 N   0  0  0  0  0
  -13.5995    8.2209   20.7291 H   0  0  0  0  0
  -12.1476    8.1431   19.9149 H   0  0  0  0  0
  -13.0899    9.5134   19.8089 H   0  0  0  0  0
  -14.8179    8.3186   18.6707 H   0  0  0  0  0
  -12.6151    7.4253   16.9933 H   0  0  0  0  0
  -12.3543    9.1108   17.6736 H   0  0  0  0  0
  -13.5675    9.8869   16.0132 H   0  0  0  0  0
  -14.9796    8.9894   16.6948 H   0  0  0  0  0
  -13.9466    6.9848   15.3813 H   0  0  0  0  0
  -13.1582    8.2938   14.4219 H   0  0  0  0  0
  -15.0698    8.8838   13.4276 H   0  0  0  0  0
  -16.0445    8.6183   14.9387 H   0  0  0  0  0
  -16.6810    7.1253   13.1726 H   0  0  0  0  0
  -15.1292    6.5273   13.0663 H   0  0  0  0  0
  -16.0228    6.2840   14.4516 H   0  0  0  0  0
  -14.3171    6.3561   16.8112 H   0  0  0  0  0
  -14.7688    3.9253   18.3680 H   0  0  0  0  0
  -14.3846    4.4271   15.4069 H   0  0  0  0  0
  -15.9839    4.4415   16.3282 H   0  0  0  0  0
  -15.7336    2.1085   16.7377 H   0  0  0  0  0
  -14.1875    2.1023   15.8097 H   0  0  0  0  0
  -14.6713    3.3085   13.7717 H   0  0  0  0  0
  -13.2561    2.5823   19.1114 H   0  0  0  0  0
  -10.5050    2.9590   18.4056 H   0  0  0  0  0
  -10.0424    0.9574   19.7368 H   0  0  0  0  0
  -11.8729   -0.2444   20.5396 H   0  0  0  0  0
  -10.5536    3.0396   20.9146 H   0  0  0  0  0
  -12.2848    2.6226   20.9097 H   0  0  0  0  0
  -11.1313    1.6255   21.8297 H   0  0  0  0  0
   -9.1296    0.9648   17.7188 H   0  0  0  0  0
   -9.9749    0.3068   15.0440 H   0  0  0  0  0
   -7.6117    0.5873   15.6536 H   0  0  0  0  0
   -7.7165   -0.8158   16.7451 H   0  0  0  0  0
   -7.8936   -1.0399   14.9874 H   0  0  0  0  0
  -10.0332   -1.4151   18.1117 H   0  0  0  0  0
  -10.6953   -3.9694   16.8898 H   0  0  0  0  0
   -9.6210   -3.8339   19.0921 H   0  0  0  0  0
  -11.0376   -2.9717   19.7409 H   0  0  0  0  0
  -11.1925   -4.6634   19.2067 H   0  0  0  0  0
  -12.5066   -1.1882   18.0961 H   0  0  0  0  0
  -15.0974   -2.5160   18.0871 H   0  0  0  0  0
  -14.6551   -0.5093   19.4292 H   0  0  0  0  0
  -14.3665    0.4259   17.9416 H   0  0  0  0  0
  -15.9853   -0.2355   18.2775 H   0  0  0  0  0
  -13.1200   -0.6411   15.8224 H   0  0  0  0  0
  -15.1513   -0.3245   13.7776 H   0  0  0  0  0
  -12.1570   -0.4282   13.4559 H   0  0  0  0  0
  -13.1276    1.0485   13.9874 H   0  0  0  0  0
  -13.9525    1.3854   11.8970 H   0  0  0  0  0
  -13.6417   -0.3093   11.3807 H   0  0  0  0  0
  -11.2098    0.1602   11.4407 H   0  0  0  0  0
  -11.5792    1.8736   11.8424 H   0  0  0  0  0
  -12.4780    2.2997    9.7731 H   0  0  0  0  0
  -12.7198    0.5239    9.4205 H   0  0  0  0  0
  -10.9650    1.4839    8.1130 H   0  0  0  0  0
  -10.1482    1.9571    9.4863 H   0  0  0  0  0
  -10.3688    0.3370    9.1646 H   0  0  0  0  0
  -12.5932   -2.7399   14.4657 H   0  0  0  0  0
  -12.8776   -4.2621   12.0794 H   0  0  0  0  0
  -12.2707   -5.1524   14.9069 H   0  0  0  0  0
  -11.0899   -4.7263   13.5833 H   0  0  0  0  0
  -10.6260   -6.2800   11.7973 H   0  0  0  0  0
  -13.3980   -7.2864   14.9147 H   0  0  0  0  0
  -10.6025   -8.6492   11.0526 H   0  0  0  0  0
  -13.3838   -9.6624   14.1761 H   0  0  0  0  0
  -11.9854  -10.3434   12.2408 H   0  0  0  0  0
  -14.6268   -4.3311   15.1968 H   0  0  0  0  0
  -16.2676   -6.5606   14.5186 H   0  0  0  0  0
  -17.7937   -5.3753   16.3471 H   0  0  0  0  0
  -16.2789   -4.3784   16.5693 H   0  0  0  0  0
  -15.1601   -6.7020   16.7341 H   0  0  0  0  0
  -16.8421   -7.2352   17.1813 H   0  0  0  0  0
  -15.1456   -7.5610   18.9327 H   0  0  0  0  0
  -16.9572   -3.0562   14.2474 H   0  0  0  0  0
  -19.6558   -3.4715   13.3781 H   0  0  0  0  0
  -17.7951   -1.1710   12.7084 H   0  0  0  0  0
  -18.7863   -1.3296   14.2338 H   0  0  0  0  0
  -20.7968   -1.1906   12.9642 H   0  0  0  0  0
  -19.8387   -1.1070   11.4199 H   0  0  0  0  0
  -20.2314    0.9513   13.5663 H   0  0  0  0  0
  -20.4107    1.0916   11.7730 H   0  0  0  0  0
  -17.9950    1.4298   13.3633 H   0  0  0  0  0
  -16.1237    2.0409   12.2600 H   0  0  0  0  0
  -17.8755    1.1735    9.3250 H   0  0  0  0  0
  -19.3403    0.6813   10.1812 H   0  0  0  0  0
  -16.5530   -3.4713   11.7422 H   0  0  0  0  0
  -17.9224   -3.4576    9.1856 H   0  0  0  0  0
  -15.4294   -3.7312    8.3484 H   0  0  0  0  0
  -15.0309   -3.4163   10.1097 H   0  0  0  0  0
  -15.9414   -1.2677    9.9874 H   0  0  0  0  0
  -16.5896   -1.5756    8.3230 H   0  0  0  0  0
  -13.7766    0.2557    7.2261 H   0  0  0  0  0
  -15.5243    0.2623    7.4847 H   0  0  0  0  0
  -16.4489   -5.9783   11.1311 H   0  0  0  0  0
  -17.0218   -7.6429    8.7762 H   0  0  0  0  0
  -15.0275   -9.0276    9.2184 H   0  0  0  0  0
  -14.7663   -8.1440   10.7990 H   0  0  0  0  0
  -12.9322   -6.1760   10.6002 H   0  0  0  0  0
  -13.0417   -5.6938    6.3654 H   0  0  0  0  0
  -17.8305   -7.3771   12.0024 H   0  0  0  0  0
  -18.2417  -10.2812   12.1465 H   0  0  0  0  0
  -19.1595   -9.6929   14.4861 H   0  0  0  0  0
  -18.5841   -7.9953   14.1168 H   0  0  0  0  0
  -17.0631   -9.3135   15.5443 H   0  0  0  0  0
  -16.3431   -8.7674   13.9626 H   0  0  0  0  0
  -18.1062  -11.8476   15.7673 H   0  0  0  0  0
  -18.8823  -11.7188   14.1697 H   0  0  0  0  0
  -17.8266  -13.1048   14.5376 H   0  0  0  0  0
  -19.9603  -11.4032   11.8332 H   0  0  0  0  0
  -22.5881  -10.0890   12.2058 H   0  0  0  0  0
  -21.9733  -11.5488    9.6508 H   0  0  0  0  0
  -22.0411   -9.7511    9.8326 H   0  0  0  0  0
  -23.6561  -11.5168    8.3789 H   0  0  0  0  0
  -22.1046  -11.5783   14.0626 H   0  0  0  0  0
  -21.9091  -14.4015   13.7313 H   0  0  0  0  0
  -22.2043  -14.4949   16.0680 H   0  0  0  0  0
  -23.2779  -13.0662   16.0794 H   0  0  0  0  0
  -21.1511  -12.5920   16.8435 H   0  0  0  0  0
  -25.9663  -13.5101   13.8363 H   0  0  0  0  0
  -24.7783  -12.2925   14.3129 H   0  0  0  0  0
  1  2  1  0  0  0
  2  3  1  0  0  0
  2  5  1  0  0  0
  3  4  2  0  0  0
  3 10  1  0  0  0
  5  6  1  0  0  0
  6  7  1  0  0  0
  7  8  1  0  0  0
  8  9  1  0  0  0
 10 11  1  0  0  0
 11 12  1  0  0  0
 11 14  1  0  0  0
 12 13  2  0  0  0
 12 19  1  0  0  0
 14 15  1  0  0  0
 15 16  1  0  0  0
 16 17  1  0  0  0
 16 18  2  0  0  0
 19 20  1  0  0  0
 20 21  1  0  0  0
 20 23  1  0  0  0
 21 22  2  0  0  0
 21 26  1  0  0  0
 23 24  1  0  0  0
 23 25  1  0  0  0
 26 27  1  0  0  0
 27 28  1  0  0  0
 27 30  1  0  0  0
 28 29  2  0  0  0
 28 31  1  0  0  0
 31 32  1  0  0  0
 32 33  1  0  0  0
 32 35  1  0  0  0
 33 34  2  0  0  0
 33 36  1  0  0  0
 36 37  1  0  0  0
 37 38  1  0  0  0
 37 40  1  0  0  0
 38 39  2  0  0  0
 38 41  1  0  0  0
 41 42  1  0  0  0
 42 43  1  0  0  0
 42 45  1  0  0  0
 43 44  2  0  0  0
 43 50  1  0  0  0
 45 46  1  0  0  0
 46 47  1  0  0  0
 47 48  1  0  0  0
 48 49  1  0  0  0
 50 51  1  0  0  0
 51 52  1  0  0  0
 51 54  1  0  0  0
 52 53  2  0  0  0
 52 61  1  0  0  0
 54 55  1  0  0  0
 55 56  4  0  0  0
 55 57  4  0  0  0
 56 58  4  0  0  0
 57 59  4  0  0  0
 58 60  4  0  0  0
 59 60  4  0  0  0
 61 62  1  0  0  0
 62 63  1  0  0  0
 62 65  1  0  0  0
 63 64  2  0  0  0
 63 70  1  0  0  0
 65 66  1  0  0  0
 66 67  1  0  0  0
 67 68  2  0  0  0
 67 69  1  0  0  0
 70 71  1  0  0  0
 71 72  1  0  0  0
 71 74  1  0  0  0
 72 73  2  0  0  0
 72 81  1  0  0  0
 74 75  1  0  0  0
 75 76  1  0  0  0
 76 77  1  0  0  0
 77 78  1  0  0  0
 78 79  2  0  0  0
 78 80  1  0  0  0
 81 82  1  0  0  0
 82 83  1  0  0  0
 82 85  1  0  0  0
 83 84  2  0  0  0
 83 90  1  0  0  0
 85 86  1  0  0  0
 86 87  1  0  0  0
 87 88  2  0  0  0
 87 89  1  0  0  0
 90 91  1  0  0  0
 91 92  1  0  0  0
 91 94  1  0  0  0
 92 93  2  0  0  0
 92100  1  0  0  0
 94 95  1  0  0  0
 95 96  4  0  0  0
 95 97  4  0  0  0
 96 98  4  0  0  0
 97 99  4  0  0  0
 98 99  4  0  0  0
100101  1  0  0  0
101102  1  0  0  0
101104  1  0  0  0
102103  2  0  0  0
102108  1  0  0  0
104105  1  0  0  0
105106  1  0  0  0
106107  1  0  0  0
108109  1  0  0  0
109110  1  0  0  0
109112  1  0  0  0
110111  2  0  0  0
110116  1  0  0  0
112113  1  0  0  0
113114  2  0  0  0
113115  1  0  0  0
116117  1  0  0  0
117118  1  0  0  0
117120  1  0  0  0
118119  2  0  0  0
118122  1  0  0  0
120121  1  0  0  0
  1123  1  0  0  0
  1124  1  0  0  0
  1125  1  0  0  0
  2126  1  0  0  0
  5127  1  0  0  0
  5128  1  0  0  0
  6129  1  0  0  0
  6130  1  0  0  0
  7131  1  0  0  0
  7132  1  0  0  0
  8133  1  0  0  0
  8134  1  0  0  0
  9135  1  0  0  0
  9136  1  0  0  0
  9137  1  0  0  0
 10138  1  0  0  0
 11139  1  0  0  0
 14140  1  0  0  0
 14141  1  0  0  0
 15142  1  0  0  0
 15143  1  0  0  0
 17144  1  0  0  0
 19145  1  0  0  0
 20146  1  0  0  0
 23147  1  0  0  0
 24148  1  0  0  0
 25149  1  0  0  0
 25150  1  0  0  0
 25151  1  0  0  0
 26152  1  0  0  0
 27153  1  0  0  0
 30154  1  0  0  0
 30155  1  0  0  0
 30156  1  0  0  0
 31157  1  0  0  0
 32158  1  0  0  0
 35159  1  0  0  0
 35160  1  0  0  0
 35161  1  0  0  0
 36162  1  0  0  0
 37163  1  0  0  0
 40164  1  0  0  0
 40165  1  0  0  0
 40166  1  0  0  0
 41167  1  0  0  0
 42168  1  0  0  0
 45169  1  0  0  0
 45170  1  0  0  0
 46171  1  0  0  0
 46172  1  0  0  0
 47173  1  0  0  0
 47174  1  0  0  0
 48175  1  0  0  0
 48176  1  0  0  0
 49177  1  0  0  0
 49178  1  0  0  0
 49179  1  0  0  0
 50180  1  0  0  0
 51181  1  0  0  0
 54182  1  0  0  0
 54183  1  0  0  0
 56184  1  0  0  0
 57185  1  0  0  0
 58186  1  0  0  0
 59187  1  0  0  0
 60188  1  0  0  0
 61189  1  0  0  0
 62190  1  0  0  0
 65191  1  0  0  0
 65192  1  0  0  0
 66193  1  0  0  0
 66194  1  0  0  0
 69195  1  0  0  0
 70196  1  0  0  0
 71197  1  0  0  0
 74198  1  0  0  0
 74199  1  0  0  0
 75200  1  0  0  0
 75201  1  0  0  0
 76202  1  0  0  0
 76203  1  0  0  0
 77204  1  0  0  0
 79205  1  0  0  0
 80206  1  0  0  0
 80207  1  0  0  0
 81208  1  0  0  0
 82209  1  0  0  0
 85210  1  0  0  0
 85211  1  0  0  0
 86212  1  0  0  0
 86213  1  0  0  0
 89214  1  0  0  0
 89215  1  0  0  0
 90216  1  0  0  0
 91217  1  0  0  0
 94218  1  0  0  0
 94219  1  0  0  0
 97220  1  0  0  0
 98221  1  0  0  0
100222  1  0  0  0
101223  1  0  0  0
104224  1  0  0  0
104225  1  0  0  0
105226  1  0  0  0
105227  1  0  0  0
107228  1  0  0  0
107229  1  0  0  0
107230  1  0  0  0
108231  1  0  0  0
109232  1  0  0  0
112233  1  0  0  0
112234  1  0  0  0
115235  1  0  0  0
116236  1  0  0  0
117237  1  0  0  0
120238  1  0  0  0
120239  1  0  0  0
121240  1  0  0  0
122241  1  0  0  0
122242  1  0  0  0
M  END
$$$$
