2bts_ligand
  -I-interpret- 

 34 35  0  0  0  0  0  0  0  0999 V2000
    6.5100   11.9080   30.1620 O   0  0  0  0  0
    7.3070   10.6340   28.1420 O   0  0  0  0  0
    0.3210    4.1030   29.4100 C   0  0  0  0  0
   -0.3050    5.0280   28.6610 C   0  0  0  0  0
   -1.6110    4.6700   27.9470 C   0  0  0  0  0
   -2.6180    5.7970   28.1370 C   0  0  0  0  0
   -1.5320    4.2670   26.4850 C   0  0  0  0  0
    0.3970    6.5600   28.6870 S   0  0  0  0  0
    1.6150    5.8850   29.8150 C   0  0  0  0  0
    1.3730    4.4750   30.0180 N   0  0  0  0  0
    5.2210   12.1840   27.9270 N   0  0  0  0  0
    3.9780    9.5890   28.5170 C   0  0  0  0  0
    5.1310    9.9070   29.2370 C   0  0  0  0  0
    2.8450    6.5290   30.3300 N   0  0  0  0  0
    5.4840    9.0940   30.3140 C   0  0  0  0  0
    4.7120    7.9690   30.6220 C   0  0  0  0  0
    3.5420    7.6390   29.9030 C   0  0  0  0  0
    3.1910    8.4640   28.8330 C   0  0  0  0  0
    6.0360   11.2020   28.8570 S   0  0  0  0  0
   -0.0558    3.0835   29.4916 H   0  0  0  0  0
   -1.9291    3.7468   28.4313 H   0  0  0  0  0
   -2.3103    6.6607   27.5475 H   0  0  0  0  0
   -3.6019    5.4627   27.8079 H   0  0  0  0  0
   -2.6598    6.0713   29.1911 H   0  0  0  0  0
   -2.5118    3.9270   26.1497 H   0  0  0  0  0
   -1.2203    5.1249   25.8893 H   0  0  0  0  0
   -0.8074    3.4608   26.3703 H   0  0  0  0  0
    5.0662   13.1497   28.2165 H   0  0  0  0  0
    4.8494   11.8526   27.0368 H   0  0  0  0  0
    3.6783   10.2290   27.6871 H   0  0  0  0  0
    3.2484    6.0693   31.1463 H   0  0  0  0  0
    6.3607    9.3351   30.9151 H   0  0  0  0  0
    5.0238    7.3254   31.4446 H   0  0  0  0  0
    2.3050    8.2370   28.2400 H   0  0  0  0  0
 19  1  2  0  0  0
 19  2  2  0  0  0
  3  4  4  0  0  0
 10  3  4  0  0  0
  4  5  1  0  0  0
  8  4  4  0  0  0
  5  6  1  0  0  0
  5  7  1  0  0  0
  9  8  4  0  0  0
  9 10  4  0  0  0
 14  9  1  0  0  0
 19 11  1  0  0  0
 13 12  4  0  0  0
 12 18  4  0  0  0
 15 13  4  0  0  0
 13 19  1  0  0  0
 17 14  1  0  0  0
 16 15  4  0  0  0
 16 17  4  0  0  0
 17 18  4  0  0  0
  3 20  1  0  0  0
  5 21  1  0  0  0
  6 22  1  0  0  0
  6 23  1  0  0  0
  6 24  1  0  0  0
  7 25  1  0  0  0
  7 26  1  0  0  0
  7 27  1  0  0  0
 11 28  1  0  0  0
 11 29  1  0  0  0
 12 30  1  0  0  0
 14 31  1  0  0  0
 15 32  1  0  0  0
 16 33  1  0  0  0
 18 34  1  0  0  0
M  END
$$$$
