2waj_ligand
  -I-interpret- 

 31 33  0  0  0  0  0  0  0  0999 V2000
   18.6030    6.6010   33.1110 Cl  0  0  0  0  0
   19.9190    7.6810   32.5780 C   0  0  0  0  0
   21.0810    7.1450   32.0540 C   0  0  0  0  0
   21.1920    5.7840   31.9400 O   0  0  0  0  0
   22.2100    5.2400   31.0890 C   0  0  0  0  0
   19.7610    9.0620   32.6930 C   0  0  0  0  0
   20.7880    9.9010   32.2710 C   0  0  0  0  0
   21.9650    9.3710   31.7450 C   0  0  0  0  0
   22.1160    7.9900   31.6280 C   0  0  0  0  0
   20.6710   11.3810   32.3810 C   0  0  0  0  0
   21.4980   12.0690   31.7140 N   0  0  0  0  0
   22.4980   11.6030   30.7510 C   0  0  0  0  0
   23.0720   10.2950   31.2860 C   0  0  0  0  0
   19.6410   12.0270   33.2790 C   0  0  0  0  0
   19.4250   11.5260   34.5530 C   0  0  0  0  0
   18.4910   12.1230   35.3870 C   0  0  0  0  0
   18.2520   11.4290   37.1280 Br  0  0  0  0  0
   17.7410   13.2130   34.9450 C   0  0  0  0  0
   17.9310   13.7160   33.6700 C   0  0  0  0  0
   18.8990   13.1210   32.8560 C   0  0  0  0  0
   22.0536    5.5894   30.0684 H   0  0  0  0  0
   23.1886    5.5671   31.4404 H   0  0  0  0  0
   22.1589    4.1515   31.1136 H   0  0  0  0  0
   18.8438    9.4793   33.1086 H   0  0  0  0  0
   23.0307    7.5706   31.2090 H   0  0  0  0  0
   22.7802   12.0995   29.8226 H   0  0  0  0  0
   24.1350   10.0581   31.3315 H   0  0  0  0  0
   19.9902   10.6611   34.9004 H   0  0  0  0  0
   17.0037   13.6695   35.6054 H   0  0  0  0  0
   17.3393   14.5571   33.3087 H   0  0  0  0  0
   19.0762   13.5278   31.8604 H   0  0  0  0  0
  1  2  1  0  0  0
  2  3  4  0  0  0
  2  6  4  0  0  0
  3  4  1  0  0  0
  3  9  4  0  0  0
  4  5  1  0  0  0
  6  7  4  0  0  0
  7  8  4  0  0  0
  7 10  4  0  0  0
  8  9  4  0  0  0
  8 13  4  0  0  0
 10 11  4  0  0  0
 10 14  1  0  0  0
 11 12  4  0  0  0
 12 13  4  0  0  0
 14 15  4  0  0  0
 14 20  4  0  0  0
 15 16  4  0  0  0
 16 17  1  0  0  0
 16 18  4  0  0  0
 18 19  4  0  0  0
 19 20  4  0  0  0
  5 21  1  0  0  0
  5 22  1  0  0  0
  5 23  1  0  0  0
  6 24  1  0  0  0
  9 25  1  0  0  0
 12 26  1  0  0  0
 13 27  1  0  0  0
 15 28  1  0  0  0
 18 29  1  0  0  0
 19 30  1  0  0  0
 20 31  1  0  0  0
M  END
$$$$
