### 
### Created by X-TOOL on Wed Jan  1 15:39:36 2020
### 

@<TRIPOS>MOLECULE
6hh3_ligand
   58    61     1     0     0
SMALL
GAST_HUCK


@<TRIPOS>ATOM
      1 N1        -11.5720   -7.9720   -1.3860 N.ar      1 A1R        -0.2698
      2 C2        -10.2350   -8.0540   -1.4160 C.ar      1 A1R         0.0533
      3 N3         -9.4760   -7.2650   -2.1930 N.ar      1 A1R        -0.2714
      4 C4        -10.0200   -6.3210   -2.9880 C.ar      1 A1R         0.1613
      5 C5        -11.4630   -6.1600   -3.0050 C.ar      1 A1R         0.1045
      6 C6        -12.2380   -7.0700   -2.1450 C.ar      1 A1R         0.1298
      7 N6        -13.5770   -6.9970   -2.1060 N.pl3     1 A1R        -0.3152
      8 N7        -11.7250   -5.1590   -3.8460 N.2       1 A1R        -0.2958
      9 C8        -10.5300   -4.7360   -4.3530 C.2       1 A1R         0.1123
     10 N9         -9.5260   -5.4380   -3.8250 N.pl3     1 A1R        -0.1919
     11 C1'        -8.0810   -5.2600   -4.0550 C.3       1 A1R         0.2010
     12 C2'        -7.4980   -6.3740   -4.9020 C.3       1 A1R         0.1385
     13 O2'        -6.1610   -6.5700   -4.4320 O.3       1 A1R        -0.3836
     14 C3'        -7.5570   -5.7860   -6.3020 C.3       1 A1R         0.1149
     15 O3'        -6.6500   -6.4000   -7.2310 O.3       1 A1R        -0.3864
     16 O4'        -7.8570   -4.0570   -4.7570 O.3       1 A1R        -0.3364
     17 C4'        -7.2310   -4.3540   -6.0050 C.3       1 A1R         0.1189
     18 C5'        -7.6820   -3.4100   -7.1020 C.3       1 A1R         0.1128
     19 O5'        -9.0600   -3.5400   -7.3370 O.3       1 A1R        -0.2476
     20 PA         -9.6380   -3.7360   -8.8040 P.3       1 A1R         0.2972
     21 O1A       -11.1320   -3.6460   -8.7740 O.co2     1 A1R        -0.6127
     22 O2A        -8.8630   -4.8320   -9.5040 O.co2     1 A1R        -0.6127
     23 O3A        -8.9060   -2.5050   -9.5630 O.3       1 A1R        -0.1319
     24 PB         -9.2330   -0.9530   -9.5870 P.3       1 A1R         0.2973
     25 O1B        -9.9230   -0.4610   -8.3430 O.co2     1 A1R        -0.6127
     26 O2B        -9.6860   -0.4650  -10.9580 O.co2     1 A1R        -0.6127
     27 O5N        -7.7760   -0.4430   -9.3470 O.3       1 A1R        -0.2446
     28 C5N        -7.5190    0.8920   -9.6480 C.3       1 A1R         0.1289
     29 N4N        -5.2350    0.1790  -10.0480 N.4       1 A1R         0.2349
     30 C1N        -4.4000    0.9770  -10.9280 C.3       1 A1R        -0.0039
     31 O2N        -4.1950    3.3690  -11.0420 O.3       1 A1R        -0.3837
     32 C2N        -5.0770    2.3120  -10.7700 C.3       1 A1R         0.1258
     33 O3N        -4.6260    2.4730   -8.2660 O.3       1 A1R        -0.3833
     34 C3N        -5.6060    2.3430   -9.3290 C.3       1 A1R         0.1307
     35 C4N        -6.0970    0.9590   -9.1730 C.3       1 A1R         0.0357
     36 H1         -9.7456   -8.7883   -0.7864 H         1 A1R         0.0996
     37 H2        -14.0723   -6.3066   -2.6881 H         1 A1R         0.1820
     38 H3        -14.1097   -7.6314   -1.4939 H         1 A1R         0.1820
     39 H4        -10.4130   -3.9382   -5.0850 H         1 A1R         0.1349
     40 H5         -7.5662   -5.2297   -3.0834 H         1 A1R         0.0996
     41 H6         -8.0744   -7.3085   -4.8349 H         1 A1R         0.0676
     42 H7         -5.7485   -7.2631   -4.9340 H         1 A1R         0.2101
     43 H8         -8.5734   -5.8734   -6.7135 H         1 A1R         0.0648
     44 H9         -5.7590   -6.2943   -6.9188 H         1 A1R         0.2100
     45 H10        -6.1413   -4.2496   -5.8968 H         1 A1R         0.0651
     46 H11        -7.1349   -3.6445   -8.0270 H         1 A1R         0.0648
     47 H12        -7.4640   -2.3752   -6.7994 H         1 A1R         0.0648
     48 H13        -8.1748    1.5762   -9.0896 H         1 A1R         0.0679
     49 H14        -7.6060    1.0980  -10.7250 H         1 A1R         0.0679
     50 H15        -4.6342   -0.3909   -9.4733 H         1 A1R         0.2019
     51 H16        -5.8173   -0.4148  -10.6176 H         1 A1R         0.2019
     52 H17        -4.4384    0.6180  -11.9670 H         1 A1R         0.0840
     53 H18        -3.3543    1.0045  -10.5879 H         1 A1R         0.0840
     54 H19        -4.6504    4.1957  -10.9340 H         1 A1R         0.2101
     55 H20        -5.9228    2.3811  -11.4698 H         1 A1R         0.0675
     56 H21        -4.1447    3.2844   -8.3780 H         1 A1R         0.2102
     57 H22        -6.3917    3.1050   -9.2193 H         1 A1R         0.0679
     58 H23        -6.0244    0.6173   -8.1300 H         1 A1R         0.0904
@<TRIPOS>BOND
     1    2    1 ar 
     2    6    1 ar 
     3    3    2 ar 
     4    4    3 ar 
     5    4    5 ar 
     6   10    4 1  
     7    5    6 ar 
     8    8    5 1  
     9    6    7 1  
    10    9    8 2  
    11   10    9 1  
    12   11   10 1  
    13   11   12 1  
    14   16   11 1  
    15   12   13 1  
    16   14   12 1  
    17   14   15 1  
    18   17   14 1  
    19   17   16 1  
    20   18   17 1  
    21   19   18 1  
    22   20   19 1  
    23   20   21 ar 
    24   20   22 ar 
    25   23   20 1  
    26   24   23 1  
    27   24   25 ar 
    28   24   26 ar 
    29   27   24 1  
    30   28   27 1  
    31   35   28 1  
    32   29   30 1  
    33   29   35 1  
    34   30   32 1  
    35   32   31 1  
    36   32   34 1  
    37   34   33 1  
    38   34   35 1  
    39    2   36 1  
    40    7   37 1  
    41    7   38 1  
    42    9   39 1  
    43   11   40 1  
    44   12   41 1  
    45   13   42 1  
    46   14   43 1  
    47   15   44 1  
    48   17   45 1  
    49   18   46 1  
    50   18   47 1  
    51   28   48 1  
    52   28   49 1  
    53   29   50 1  
    54   29   51 1  
    55   30   52 1  
    56   30   53 1  
    57   31   54 1  
    58   32   55 1  
    59   33   56 1  
    60   34   57 1  
    61   35   58 1  
@<TRIPOS>SUBSTRUCTURE
     1 A1R         1

