6hh3_ligand
  -I-interpret- 

 60 63  0  0  0  0  0  0  0  0999 V2000
  -11.5720   -7.9720   -1.3860 N   0  0  0  0  0
  -10.2350   -8.0540   -1.4160 C   0  0  0  0  0
   -9.4760   -7.2650   -2.1930 N   0  0  0  0  0
  -10.0200   -6.3210   -2.9880 C   0  0  0  0  0
  -11.4630   -6.1600   -3.0050 C   0  0  0  0  0
  -12.2380   -7.0700   -2.1450 C   0  0  0  0  0
  -13.5770   -6.9970   -2.1060 N   0  0  0  0  0
  -11.7250   -5.1590   -3.8460 N   0  0  0  0  0
  -10.5300   -4.7360   -4.3530 C   0  0  0  0  0
   -9.5260   -5.4380   -3.8250 N   0  0  0  0  0
   -8.0810   -5.2600   -4.0550 C   0  0  0  0  0
   -7.4980   -6.3740   -4.9020 C   0  0  0  0  0
   -6.1610   -6.5700   -4.4320 O   0  0  0  0  0
   -7.5570   -5.7860   -6.3020 C   0  0  0  0  0
   -6.6500   -6.4000   -7.2310 O   0  0  0  0  0
   -7.8570   -4.0570   -4.7570 O   0  0  0  0  0
   -7.2310   -4.3540   -6.0050 C   0  0  0  0  0
   -7.6820   -3.4100   -7.1020 C   0  0  0  0  0
   -9.0600   -3.5400   -7.3370 O   0  0  0  0  0
   -9.6380   -3.7360   -8.8040 P   0  0  0  0  0
  -11.1320   -3.6460   -8.7740 O   0  0  0  0  0
   -8.8630   -4.8320   -9.5040 O   0  0  0  0  0
   -8.9060   -2.5050   -9.5630 O   0  0  0  0  0
   -9.2330   -0.9530   -9.5870 P   0  0  0  0  0
   -9.9230   -0.4610   -8.3430 O   0  0  0  0  0
   -9.6860   -0.4650  -10.9580 O   0  0  0  0  0
   -7.7760   -0.4430   -9.3470 O   0  0  0  0  0
   -7.5190    0.8920   -9.6480 C   0  0  0  0  0
   -5.2350    0.1790  -10.0480 N   0  3  0  0  0
   -4.4000    0.9770  -10.9280 C   0  0  0  0  0
   -4.1950    3.3690  -11.0420 O   0  0  0  0  0
   -5.0770    2.3120  -10.7700 C   0  0  0  0  0
   -4.6260    2.4730   -8.2660 O   0  0  0  0  0
   -5.6060    2.3430   -9.3290 C   0  0  0  0  0
   -6.0970    0.9590   -9.1730 C   0  0  0  0  0
   -9.7429   -8.7923   -0.7829 H   0  0  0  0  0
  -14.1046   -7.6252   -1.4999 H   0  0  0  0  0
  -14.0675   -6.3133   -2.6825 H   0  0  0  0  0
  -10.4129   -3.9375   -5.0857 H   0  0  0  0  0
   -7.6050   -5.2569   -3.0744 H   0  0  0  0  0
   -7.9999   -7.3410   -4.8685 H   0  0  0  0  0
   -5.7441   -7.2704   -4.9393 H   0  0  0  0  0
   -8.5098   -5.9376   -6.8092 H   0  0  0  0  0
   -6.7411   -5.9810   -8.0899 H   0  0  0  0  0
   -6.1516   -4.2126   -5.9511 H   0  0  0  0  0
   -7.1448   -3.6543   -8.0184 H   0  0  0  0  0
   -7.4736   -2.3860   -6.7919 H   0  0  0  0  0
   -7.9221   -4.6814   -9.3877 H   0  0  0  0  0
   -9.1442   -0.8737  -11.6370 H   0  0  0  0  0
   -8.1965    1.6102   -9.1861 H   0  0  0  0  0
   -7.6732    1.1702  -10.6906 H   0  0  0  0  0
   -4.6105   -0.3623   -9.4502 H   0  0  0  0  0
   -5.8418   -0.3871  -10.6411 H   0  0  0  0  0
   -4.3436    0.6141  -11.9543 H   0  0  0  0  0
   -3.3394    0.9722  -10.6767 H   0  0  0  0  0
   -4.6552    4.2044  -10.9329 H   0  0  0  0  0
   -5.8931    2.4382  -11.4815 H   0  0  0  0  0
   -5.0750    2.4805   -7.4175 H   0  0  0  0  0
   -6.2799    3.1940   -9.2303 H   0  0  0  0  0
   -6.0743    0.6006   -8.1439 H   0  0  0  0  0
  2  1  4  0  0  0
  6  1  4  0  0  0
  3  2  4  0  0  0
  4  3  4  0  0  0
  4  5  4  0  0  0
 10  4  4  0  0  0
  5  6  4  0  0  0
  8  5  4  0  0  0
  6  7  1  0  0  0
  9  8  4  0  0  0
 10  9  4  0  0  0
 11 10  1  0  0  0
 11 12  1  0  0  0
 16 11  1  0  0  0
 12 13  1  0  0  0
 14 12  1  0  0  0
 14 15  1  0  0  0
 17 14  1  0  0  0
 17 16  1  0  0  0
 18 17  1  0  0  0
 19 18  1  0  0  0
 20 19  1  0  0  0
 20 21  2  0  0  0
 20 22  1  0  0  0
 23 20  1  0  0  0
 24 23  1  0  0  0
 24 25  2  0  0  0
 24 26  1  0  0  0
 27 24  1  0  0  0
 28 27  1  0  0  0
 35 28  1  0  0  0
 29 30  1  0  0  0
 29 35  1  0  0  0
 30 32  1  0  0  0
 32 31  1  0  0  0
 32 34  1  0  0  0
 34 33  1  0  0  0
 34 35  1  0  0  0
  2 36  1  0  0  0
  7 37  1  0  0  0
  7 38  1  0  0  0
  9 39  1  0  0  0
 11 40  1  0  0  0
 12 41  1  0  0  0
 13 42  1  0  0  0
 14 43  1  0  0  0
 15 44  1  0  0  0
 17 45  1  0  0  0
 18 46  1  0  0  0
 18 47  1  0  0  0
 22 48  1  0  0  0
 26 49  1  0  0  0
 28 50  1  0  0  0
 28 51  1  0  0  0
 29 52  1  0  0  0
 29 53  1  0  0  0
 30 54  1  0  0  0
 30 55  1  0  0  0
 31 56  1  0  0  0
 32 57  1  0  0  0
 33 58  1  0  0  0
 34 59  1  0  0  0
 35 60  1  0  0  0
M  END
$$$$
