5lp6_ligand
  -I-interpret- 

 54 56  0  0  0  0  0  0  0  0999 V2000
   14.4080   63.9760   42.1930 C   0  0  0  0  0
   15.6980   63.4350   41.7060 O   0  0  0  0  0
   16.5450   64.5050   41.6960 C   0  0  0  0  0
   17.3120   64.9340   42.8500 C   0  0  0  0  0
   17.3050   64.2370   44.1370 C   0  0  0  0  0
   16.6940   62.9660   44.0630 C   0  0  0  0  0
   16.4310   61.9790   45.0060 C   0  0  0  0  0
   16.8010   61.8700   46.3330 C   0  0  0  0  0
   16.2400   60.3930   47.1440 S   0  0  0  0  0
   17.7130   59.7200   47.8810 C   0  0  0  0  0
   17.5140   62.8100   47.0560 C   0  0  0  0  0
   17.7500   62.6080   48.2480 O   0  0  0  0  0
   18.0050   64.0150   46.5920 C   0  0  0  0  0
   17.9450   64.6470   45.3330 C   0  0  0  0  0
   18.7140   65.8200   45.6100 C   0  0  0  0  0
   17.9380   66.9510   46.2320 N   0  0  0  0  0
   16.6060   66.9710   46.5020 C   0  0  0  0  0
   15.7860   66.1200   46.1710 O   0  0  0  0  0
   16.1090   68.1850   47.2660 C   0  0  0  0  0
   19.6190   66.1010   44.4300 C   0  0  0  0  0
   18.9090   66.8730   43.4510 C   0  0  0  0  0
   18.0900   66.1080   42.5880 C   0  0  0  0  0
   18.0630   66.7690   41.3380 C   0  0  0  0  0
   17.3110   66.3000   40.2780 C   0  0  0  0  0
   17.2780   66.8890   39.0510 O   0  0  0  0  0
   18.3840   66.4860   38.2250 C   0  0  0  0  0
   16.5450   65.1780   40.4680 C   0  0  0  0  0
   15.8190   64.6900   39.4090 O   0  0  0  0  0
   14.4890   65.1470   39.1760 C   0  0  0  0  0
   14.5439   64.3930   43.1909 H   0  0  0  0  0
   14.0640   64.7572   41.5151 H   0  0  0  0  0
   13.6702   63.1745   42.2301 H   0  0  0  0  0
   16.3595   62.7049   43.0590 H   0  0  0  0  0
   15.8299   61.1488   44.6351 H   0  0  0  0  0
   18.4440   59.5081   47.1007 H   0  0  0  0  0
   18.1287   60.4422   48.5837 H   0  0  0  0  0
   17.4655   58.7988   48.4086 H   0  0  0  0  0
   18.5437   64.5890   47.3460 H   0  0  0  0  0
   19.3924   65.6468   46.4454 H   0  0  0  0  0
   18.4666   67.7885   46.4758 H   0  0  0  0  0
   15.3764   68.7188   46.6606 H   0  0  0  0  0
   15.6456   67.8615   48.1980 H   0  0  0  0  0
   16.9494   68.8433   47.4860 H   0  0  0  0  0
   19.9376   65.1580   43.9857 H   0  0  0  0  0
   20.4916   66.6598   44.7682 H   0  0  0  0  0
   19.6557   67.3674   42.8296 H   0  0  0  0  0
   18.2541   67.5546   43.9937 H   0  0  0  0  0
   18.6533   67.6759   41.2069 H   0  0  0  0  0
   19.3191   66.7655   38.7104 H   0  0  0  0  0
   18.3554   65.4056   38.0835 H   0  0  0  0  0
   18.3129   66.9825   37.2572 H   0  0  0  0  0
   13.8703   64.9182   40.0437 H   0  0  0  0  0
   14.5002   66.2242   39.0101 H   0  0  0  0  0
   14.0831   64.6468   38.2967 H   0  0  0  0  0
  1  2  1  0  0  0
  2  3  1  0  0  0
  3  4  4  0  0  0
  3 27  4  0  0  0
  4  5  1  0  0  0
  4 22  4  0  0  0
  5  6  2  0  0  0
  5 14  1  0  0  0
  6  7  1  0  0  0
  7  8  2  0  0  0
  8  9  1  0  0  0
  8 11  1  0  0  0
  9 10  1  0  0  0
 11 12  2  0  0  0
 11 13  1  0  0  0
 13 14  2  0  0  0
 14 15  1  0  0  0
 15 16  1  0  0  0
 15 20  1  0  0  0
 16 17  1  0  0  0
 17 18  2  0  0  0
 17 19  1  0  0  0
 20 21  1  0  0  0
 21 22  1  0  0  0
 22 23  4  0  0  0
 23 24  4  0  0  0
 24 25  1  0  0  0
 24 27  4  0  0  0
 25 26  1  0  0  0
 27 28  1  0  0  0
 28 29  1  0  0  0
  1 30  1  0  0  0
  1 31  1  0  0  0
  1 32  1  0  0  0
  6 33  1  0  0  0
  7 34  1  0  0  0
 10 35  1  0  0  0
 10 36  1  0  0  0
 10 37  1  0  0  0
 13 38  1  0  0  0
 15 39  1  0  0  0
 16 40  1  0  0  0
 19 41  1  0  0  0
 19 42  1  0  0  0
 19 43  1  0  0  0
 20 44  1  0  0  0
 20 45  1  0  0  0
 21 46  1  0  0  0
 21 47  1  0  0  0
 23 48  1  0  0  0
 26 49  1  0  0  0
 26 50  1  0  0  0
 26 51  1  0  0  0
 29 52  1  0  0  0
 29 53  1  0  0  0
 29 54  1  0  0  0
M  END
$$$$
