3q77_ligand
  -I-interpret- 

 50 52  0  0  0  0  0  0  0  0999 V2000
   38.2000  -13.2210    2.2430 C   0  0  0  0  0
   39.1390   -7.8320   -1.7260 F   0  0  0  0  0
   39.2950  -12.6890    1.6630 N   0  0  0  0  0
   37.0960  -13.1700    1.6640 O   0  0  0  0  0
   39.4290  -13.9090    4.2780 C   0  0  0  0  0
   37.3250   -8.2510   -0.6500 F   0  0  0  0  0
   38.2380  -13.8330    3.4410 N   0  0  0  0  0
   42.9990  -13.2280    3.9280 O   0  0  0  0  0
   40.6140  -13.3850    3.6000 C   0  0  0  0  0
   39.1040   -7.8500    0.4240 F   0  0  0  0  0
   37.8100   -9.1960    8.8700 N   0  0  0  0  0
   41.7620  -13.9940    5.7280 O   0  0  0  0  0
   40.4970  -12.7320    2.2730 C   0  0  0  0  0
   39.1430  -12.0520    0.4100 C   0  0  0  0  0
   38.9860  -10.6600    0.4420 C   0  0  0  0  0
   38.8210   -9.9210   -0.7260 C   0  0  0  0  0
   38.8040  -10.5890   -1.9490 C   0  0  0  0  0
   38.9460  -11.9830   -1.9810 C   0  0  0  0  0
   39.1150  -12.7170   -0.8070 C   0  0  0  0  0
   38.6270   -8.4240   -0.6640 C   0  0  0  0  0
   39.0900  -12.8800    5.3190 C   0  0  0  0  0
   38.8380  -11.5500    4.9440 C   0  0  0  0  0
   38.5020  -10.5780    5.8870 C   0  0  0  0  0
   38.4140  -10.9210    7.2320 C   0  0  0  0  0
   38.6650  -12.2440    7.6230 C   0  0  0  0  0
   39.0010  -13.2090    6.6700 C   0  0  0  0  0
   38.0970  -10.0230    8.1010 C   0  0  0  0  0
   41.8910  -13.5000    4.3750 C   0  0  0  0  0
   42.8830  -14.5830    6.3670 C   0  0  0  0  0
   43.0210  -13.9290    7.7280 C   0  0  0  0  0
   41.7240  -12.1490    1.6100 C   0  0  0  0  0
   43.9530  -14.6830    8.5100 O   0  0  0  0  0
   39.6452  -14.9280    4.5989 H   0  0  0  0  0
   37.3823  -14.2697    3.7838 H   0  0  0  0  0
   38.9932  -10.1446    1.4024 H   0  0  0  0  0
   38.6808  -10.0298   -2.8765 H   0  0  0  0  0
   38.9240  -12.5021   -2.9392 H   0  0  0  0  0
   39.2238  -13.8009   -0.8455 H   0  0  0  0  0
   38.9065  -11.2709    3.8926 H   0  0  0  0  0
   38.3091   -9.5530    5.5705 H   0  0  0  0  0
   38.5977  -12.5209    8.6751 H   0  0  0  0  0
   39.1962  -14.2332    6.9878 H   0  0  0  0  0
   43.7854  -14.4299    5.7752 H   0  0  0  0  0
   42.7428  -15.6589    6.4715 H   0  0  0  0  0
   42.0523  -13.9075    8.2273 H   0  0  0  0  0
   43.3791  -12.9061    7.6116 H   0  0  0  0  0
   42.1483  -11.3754    2.2500 H   0  0  0  0  0
   42.4603  -12.9374    1.4539 H   0  0  0  0  0
   41.4451  -11.7153    0.6497 H   0  0  0  0  0
   44.0468  -14.2759    9.3743 H   0  0  0  0  0
  1  3  1  0  0  0
  1  4  2  0  0  0
  7  1  1  0  0  0
 20  2  1  0  0  0
 13  3  1  0  0  0
  3 14  1  0  0  0
  5  7  1  0  0  0
  5  9  1  0  0  0
 21  5  1  0  0  0
 20  6  1  0  0  0
 28  8  2  0  0  0
  9 13  2  0  0  0
  9 28  1  0  0  0
 20 10  1  0  0  0
 27 11  3  0  0  0
 28 12  1  0  0  0
 12 29  1  0  0  0
 13 31  1  0  0  0
 14 15  4  0  0  0
 14 19  4  0  0  0
 15 16  4  0  0  0
 16 17  4  0  0  0
 16 20  1  0  0  0
 18 17  4  0  0  0
 19 18  4  0  0  0
 22 21  4  0  0  0
 21 26  4  0  0  0
 23 22  4  0  0  0
 24 23  4  0  0  0
 24 25  4  0  0  0
 24 27  1  0  0  0
 25 26  4  0  0  0
 29 30  1  0  0  0
 30 32  1  0  0  0
  5 33  1  0  0  0
  7 34  1  0  0  0
 15 35  1  0  0  0
 17 36  1  0  0  0
 18 37  1  0  0  0
 19 38  1  0  0  0
 22 39  1  0  0  0
 23 40  1  0  0  0
 25 41  1  0  0  0
 26 42  1  0  0  0
 29 43  1  0  0  0
 29 44  1  0  0  0
 30 45  1  0  0  0
 30 46  1  0  0  0
 31 47  1  0  0  0
 31 48  1  0  0  0
 31 49  1  0  0  0
 32 50  1  0  0  0
M  END
$$$$
