2nwl_ligand
  -I-interpret- 

 17 16  0  0  0  0  0  0  0  0999 V2000
    9.8620    4.0100    8.2870 N   0  3  0  0  0
   10.7410    3.1250    9.0970 C   0  0  0  0  0
   11.3430    3.8760   10.2730 C   0  0  0  0  0
   11.4300    3.3640   11.3900 O   0  0  0  0  0
   11.8550    2.5640    8.2230 C   0  0  0  0  0
   11.3780    1.4570    7.3270 C   0  0  0  0  0
   10.3300    1.6160    6.6620 O   0  0  0  0  0
   12.0620    0.4180    7.2960 O   0  0  0  0  0
   11.7580    5.0200   10.1170 O   0  0  0  0  0
    9.1186    4.3820    8.8781 H   0  0  0  0  0
   10.4134    4.7795    7.9073 H   0  0  0  0  0
    9.4532    3.4732    7.5220 H   0  0  0  0  0
   10.1333    2.3086    9.4873 H   0  0  0  0  0
   11.0687    2.4750   11.3623 H   0  0  0  0  0
   12.6259    2.1587    8.8784 H   0  0  0  0  0
   12.2276    3.3712    7.5924 H   0  0  0  0  0
    9.9691    2.4877    6.8392 H   0  0  0  0  0
  1  2  1  0  0  0
  2  3  1  0  0  0
  2  5  1  0  0  0
  3  4  1  0  0  0
  3  9  2  0  0  0
  5  6  1  0  0  0
  6  7  1  0  0  0
  6  8  2  0  0  0
  1 10  1  0  0  0
  1 11  1  0  0  0
  1 12  1  0  0  0
  2 13  1  0  0  0
  4 14  1  0  0  0
  5 15  1  0  0  0
  5 16  1  0  0  0
  7 17  1  0  0  0
M  END
$$$$
