### 
### Created by X-TOOL on Mon Sep 10 21:12:46 2018
### 

@<TRIPOS>MOLECULE
1skj_ligand
   73    74     1     0     0
SMALL
GAST_HUCK


@<TRIPOS>ATOM
      1 C9         -7.1100   64.5380  -11.0730 C.3       1 UR2         0.0902
      2 N8         -6.4970   64.0650   -9.7980 N.am      1 UR2        -0.2276
      3 C7         -6.9290   64.7190   -8.5520 C.3       1 UR2         0.0879
      4 C4         -8.3980   64.5260   -8.2680 C.ar      1 UR2         0.0174
      5 C3         -8.9010   63.2280   -8.1240 C.ar      1 UR2        -0.0221
      6 C2        -10.2470   63.0190   -7.8090 C.ar      1 UR2         0.0116
      7 C5         -9.2710   65.6200   -8.1230 C.ar      1 UR2        -0.0221
      8 C6        -10.6250   65.4060   -7.8200 C.ar      1 UR2         0.0116
      9 C1        -11.0850   64.1160   -7.6500 C.ar      1 UR2         0.1728
     10 O4P       -12.4090   63.9410   -7.2260 O.3       1 UR2        -0.2040
     11 P         -13.5110   63.4510   -8.2060 P.3       1 UR2         0.1348
     12 O1P       -13.6860   64.4910   -9.3170 O.co2     1 UR2        -0.6653
     13 O2P       -14.7480   63.4230   -7.3040 O.co2     1 UR2        -0.6653
     14 O3P       -13.0840   62.0690   -8.6910 O.co2     1 UR2        -0.6653
     15 C13        -5.5800   63.0390   -9.8930 C.2       1 UR2         0.2669
     16 O14        -5.2140   62.6040  -10.9750 O.2       1 UR2        -0.4002
     17 N15        -5.1430   62.4870   -8.7660 N.am      1 UR2        -0.2513
     18 C16        -4.1710   61.3780   -8.7820 C.3       1 UR2         0.1328
     19 C17        -3.5220   61.2980   -7.3780 C.3       1 UR2        -0.0011
     20 C18        -2.8380   62.5780   -6.8800 C.3       1 UR2         0.0044
     21 C19        -1.8840   63.1860   -7.8940 C.2       1 UR2         0.0350
     22 O20        -1.9000   64.4040   -8.0130 O.co2     1 UR2        -0.5690
     23 O21        -1.1540   62.4470   -8.5550 O.co2     1 UR2        -0.5690
     24 C22        -4.8630   60.0060   -9.0780 C.2       1 UR2         0.2037
     25 O23        -6.0520   59.8920   -8.8180 O.2       1 UR2        -0.3944
     26 N24        -4.1790   58.9330   -9.5880 N.am      1 UR2        -0.2744
     27 C25        -4.9200   57.6600   -9.5760 C.3       1 UR2         0.0226
     28 C26        -2.8610   59.0060  -10.2270 C.3       1 UR2         0.0336
     29 C27        -1.6460   58.7820   -9.3240 C.3       1 UR2        -0.0323
     30 C28        -1.7920   57.5170   -8.4690 C.3       1 UR2        -0.0484
     31 C34        -0.7740   56.2870   -6.5000 C.3       1 UR2        -0.0502
     32 C29        -0.4810   57.0390   -7.8040 C.3       1 UR2        -0.0410
     33 C30         0.3480   56.1350   -8.7470 C.3       1 UR2        -0.0502
     34 C31         1.6150   55.6020   -8.0670 C.3       1 UR2        -0.0528
     35 C32         1.3240   54.9230   -6.7180 C.3       1 UR2        -0.0530
     36 C33         0.5200   55.8680   -5.8150 C.3       1 UR2        -0.0528
     37 C10        -6.4700   65.7650  -11.7780 C.2       1 UR2         0.0573
     38 O11        -7.1700   66.0650  -12.8840 O.co2     1 UR2        -0.5669
     39 O12        -5.5010   66.3810  -11.4640 O.co2     1 UR2        -0.5669
     40 H1         -7.0769   63.6986  -11.7831 H         1 UR2         0.0692
     41 H2         -8.1576   64.7944  -10.8569 H         1 UR2         0.0692
     42 H3         -6.7255   65.7970   -8.6323 H         1 UR2         0.0796
     43 H4         -6.3514   64.2981   -7.7158 H         1 UR2         0.0796
     44 H5         -8.2418   62.3779   -8.2578 H         1 UR2         0.0704
     45 H6        -10.6324   62.0128   -7.6902 H         1 UR2         0.0736
     46 H7         -8.8973   66.6301   -8.2455 H         1 UR2         0.0704
     47 H8        -11.3028   66.2461   -7.7205 H         1 UR2         0.0736
     48 H9         -5.4800   62.8305   -7.8894 H         1 UR2         0.1877
     49 H10        -3.4034   61.5731   -9.5454 H         1 UR2         0.0798
     50 H11        -2.7658   60.4996   -7.4016 H         1 UR2         0.0330
     51 H12        -4.3103   61.0353   -6.6572 H         1 UR2         0.0330
     52 H13        -2.2713   62.3384   -5.9682 H         1 UR2         0.0433
     53 H14        -3.6154   63.3197   -6.6443 H         1 UR2         0.0433
     54 H15        -4.2904   56.8653  -10.0026 H         1 UR2         0.0486
     55 H16        -5.8363   57.7634  -10.1757 H         1 UR2         0.0486
     56 H17        -5.1865   57.4006   -8.5408 H         1 UR2         0.0486
     57 H18        -2.7630   60.0055  -10.6757 H         1 UR2         0.0522
     58 H19        -2.8322   58.2438  -11.0196 H         1 UR2         0.0522
     59 H20        -1.5336   59.6500   -8.6578 H         1 UR2         0.0285
     60 H21        -0.7490   58.6840   -9.9531 H         1 UR2         0.0285
     61 H22        -2.1654   56.7076   -9.1136 H         1 UR2         0.0269
     62 H23        -2.5254   57.7214   -7.6751 H         1 UR2         0.0269
     63 H24        -1.3688   55.3899   -6.7268 H         1 UR2         0.0268
     64 H25        -1.3431   56.9433   -5.8252 H         1 UR2         0.0268
     65 H26         0.1208   57.9281   -7.5643 H         1 UR2         0.0301
     66 H27         0.6394   56.7187   -9.6327 H         1 UR2         0.0268
     67 H28        -0.2733   55.2822   -9.0580 H         1 UR2         0.0268
     68 H29         2.3031   56.4430   -7.8964 H         1 UR2         0.0265
     69 H30         2.0907   54.8686   -8.7347 H         1 UR2         0.0265
     70 H31         2.2744   54.6701   -6.2254 H         1 UR2         0.0265
     71 H32         0.7445   54.0041   -6.8906 H         1 UR2         0.0265
     72 H33         1.1222   56.7631   -5.6002 H         1 UR2         0.0265
     73 H34         0.2806   55.3524   -4.8733 H         1 UR2         0.0265
@<TRIPOS>BOND
     1    1   37 1  
     2    1    2 1  
     3    2   15 am 
     4    2    3 1  
     5    3    4 1  
     6    4    7 ar 
     7    4    5 ar 
     8    5    6 ar 
     9    6    9 ar 
    10    9   10 1  
    11    9    8 ar 
    12    8    7 ar 
    13   10   11 1  
    14   11   14 ar 
    15   11   13 ar 
    16   11   12 ar 
    17   15   17 am 
    18   15   16 2  
    19   17   18 1  
    20   18   24 1  
    21   18   19 1  
    22   19   20 1  
    23   20   21 1  
    24   21   23 ar 
    25   21   22 ar 
    26   24   26 am 
    27   24   25 2  
    28   26   28 1  
    29   26   27 1  
    30   28   29 1  
    31   29   30 1  
    32   30   32 1  
    33   32   31 1  
    34   32   33 1  
    35   33   34 1  
    36   34   35 1  
    37   35   36 1  
    38   36   31 1  
    39   37   39 ar 
    40   37   38 ar 
    41    1   40 1  
    42    1   41 1  
    43    3   42 1  
    44    3   43 1  
    45    5   44 1  
    46    6   45 1  
    47    7   46 1  
    48    8   47 1  
    49   17   48 1  
    50   18   49 1  
    51   19   50 1  
    52   19   51 1  
    53   20   52 1  
    54   20   53 1  
    55   27   54 1  
    56   27   55 1  
    57   27   56 1  
    58   28   57 1  
    59   28   58 1  
    60   29   59 1  
    61   29   60 1  
    62   30   61 1  
    63   30   62 1  
    64   31   63 1  
    65   31   64 1  
    66   32   65 1  
    67   33   66 1  
    68   33   67 1  
    69   34   68 1  
    70   34   69 1  
    71   35   70 1  
    72   35   71 1  
    73   36   72 1  
    74   36   73 1  
@<TRIPOS>SUBSTRUCTURE
     1 UR2         1

