1skj_ligand
  -I-interpret- 

 77 78  0  0  0  0  0  0  0  0999 V2000
   -7.1100   64.5380  -11.0730 C   0  0  0  0  0
   -6.4970   64.0650   -9.7980 N   0  0  0  0  0
   -6.9290   64.7190   -8.5520 C   0  0  0  0  0
   -8.3980   64.5260   -8.2680 C   0  0  0  0  0
   -8.9010   63.2280   -8.1240 C   0  0  0  0  0
  -10.2470   63.0190   -7.8090 C   0  0  0  0  0
   -9.2710   65.6200   -8.1230 C   0  0  0  0  0
  -10.6250   65.4060   -7.8200 C   0  0  0  0  0
  -11.0850   64.1160   -7.6500 C   0  0  0  0  0
  -12.4090   63.9410   -7.2260 O   0  0  0  0  0
  -13.5110   63.4510   -8.2060 P   0  0  0  0  0
  -13.6860   64.4910   -9.3170 O   0  0  0  0  0
  -14.7480   63.4230   -7.3040 O   0  0  0  0  0
  -13.0840   62.0690   -8.6910 O   0  0  0  0  0
   -5.5800   63.0390   -9.8930 C   0  0  0  0  0
   -5.2140   62.6040  -10.9750 O   0  0  0  0  0
   -5.1430   62.4870   -8.7660 N   0  0  0  0  0
   -4.1710   61.3780   -8.7820 C   0  0  0  0  0
   -3.5220   61.2980   -7.3780 C   0  0  0  0  0
   -2.8380   62.5780   -6.8800 C   0  0  0  0  0
   -1.8840   63.1860   -7.8940 C   0  0  0  0  0
   -1.9000   64.4040   -8.0130 O   0  0  0  0  0
   -1.1540   62.4470   -8.5550 O   0  0  0  0  0
   -4.8630   60.0060   -9.0780 C   0  0  0  0  0
   -6.0520   59.8920   -8.8180 O   0  0  0  0  0
   -4.1790   58.9330   -9.5880 N   0  0  0  0  0
   -4.9200   57.6600   -9.5760 C   0  0  0  0  0
   -2.8610   59.0060  -10.2270 C   0  0  0  0  0
   -1.6460   58.7820   -9.3240 C   0  0  0  0  0
   -1.7920   57.5170   -8.4690 C   0  0  0  0  0
   -0.7740   56.2870   -6.5000 C   0  0  0  0  0
   -0.4810   57.0390   -7.8040 C   0  0  0  0  0
    0.3480   56.1350   -8.7470 C   0  0  0  0  0
    1.6150   55.6020   -8.0670 C   0  0  0  0  0
    1.3240   54.9230   -6.7180 C   0  0  0  0  0
    0.5200   55.8680   -5.8150 C   0  0  0  0  0
   -6.4700   65.7650  -11.7780 C   0  0  0  0  0
   -7.1700   66.0650  -12.8840 O   0  0  0  0  0
   -5.5010   66.3810  -11.4640 O   0  0  0  0  0
   -6.9965   63.7103  -11.7731 H   0  0  0  0  0
   -8.1206   64.8502  -10.8098 H   0  0  0  0  0
   -6.7474   65.7887   -8.6566 H   0  0  0  0  0
   -6.3691   64.2731   -7.7300 H   0  0  0  0  0
   -8.2381   62.3732   -8.2585 H   0  0  0  0  0
  -10.6346   62.0073   -7.6895 H   0  0  0  0  0
   -8.8952   66.6357   -8.2462 H   0  0  0  0  0
  -11.3065   66.2508   -7.7200 H   0  0  0  0  0
  -13.9538   65.3281   -8.9309 H   0  0  0  0  0
  -14.9655   64.3180   -7.0331 H   0  0  0  0  0
   -5.4868   62.8374   -7.8719 H   0  0  0  0  0
   -3.4371   61.5678   -9.5653 H   0  0  0  0  0
   -2.7419   60.5396   -7.4439 H   0  0  0  0  0
   -4.3313   61.0908   -6.6778 H   0  0  0  0  0
   -2.2556   62.3168   -5.9964 H   0  0  0  0  0
   -3.6190   63.3122   -6.6823 H   0  0  0  0  0
   -1.3069   61.5348   -8.2980 H   0  0  0  0  0
   -5.1835   57.4041   -8.5498 H   0  0  0  0  0
   -5.8277   57.7638  -10.1705 H   0  0  0  0  0
   -4.2952   56.8734   -9.9989 H   0  0  0  0  0
   -2.7682   60.0229  -10.6084 H   0  0  0  0  0
   -2.8396   58.2029  -10.9637 H   0  0  0  0  0
   -1.5560   59.6376   -8.6547 H   0  0  0  0  0
   -0.7668   58.6658   -9.9577 H   0  0  0  0  0
   -2.1224   56.7188   -9.1336 H   0  0  0  0  0
   -2.4898   57.7533   -7.6657 H   0  0  0  0  0
   -1.3541   55.3938   -6.7320 H   0  0  0  0  0
   -1.3284   56.9456   -5.8314 H   0  0  0  0  0
    0.1055   57.9309   -7.5833 H   0  0  0  0  0
    0.6491   56.7288   -9.6100 H   0  0  0  0  0
   -0.2696   55.2831   -9.0317 H   0  0  0  0  0
    2.2757   56.4485   -7.8799 H   0  0  0  0  0
    2.0611   54.8579   -8.7268 H   0  0  0  0  0
    2.2673   54.6780   -6.2299 H   0  0  0  0  0
    0.7456   54.0156   -6.8915 H   0  0  0  0  0
    1.1171   56.7569   -5.6116 H   0  0  0  0  0
    0.2780   55.3504   -4.8868 H   0  0  0  0  0
   -7.9110   65.4602  -12.9662 H   0  0  0  0  0
  1 37  1  0  0  0
  1  2  1  0  0  0
  2 15  1  0  0  0
  2  3  1  0  0  0
  3  4  1  0  0  0
  4  7  4  0  0  0
  4  5  4  0  0  0
  5  6  4  0  0  0
  6  9  4  0  0  0
  9 10  1  0  0  0
  9  8  4  0  0  0
  8  7  4  0  0  0
 10 11  1  0  0  0
 11 14  2  0  0  0
 11 13  1  0  0  0
 11 12  1  0  0  0
 15 17  1  0  0  0
 15 16  2  0  0  0
 17 18  1  0  0  0
 18 24  1  0  0  0
 18 19  1  0  0  0
 19 20  1  0  0  0
 20 21  1  0  0  0
 21 23  1  0  0  0
 21 22  2  0  0  0
 24 26  1  0  0  0
 24 25  2  0  0  0
 26 28  1  0  0  0
 26 27  1  0  0  0
 28 29  1  0  0  0
 29 30  1  0  0  0
 30 32  1  0  0  0
 32 31  1  0  0  0
 32 33  1  0  0  0
 33 34  1  0  0  0
 34 35  1  0  0  0
 35 36  1  0  0  0
 36 31  1  0  0  0
 37 39  2  0  0  0
 37 38  1  0  0  0
  1 40  1  0  0  0
  1 41  1  0  0  0
  3 42  1  0  0  0
  3 43  1  0  0  0
  5 44  1  0  0  0
  6 45  1  0  0  0
  7 46  1  0  0  0
  8 47  1  0  0  0
 12 48  1  0  0  0
 13 49  1  0  0  0
 17 50  1  0  0  0
 18 51  1  0  0  0
 19 52  1  0  0  0
 19 53  1  0  0  0
 20 54  1  0  0  0
 20 55  1  0  0  0
 23 56  1  0  0  0
 27 57  1  0  0  0
 27 58  1  0  0  0
 27 59  1  0  0  0
 28 60  1  0  0  0
 28 61  1  0  0  0
 29 62  1  0  0  0
 29 63  1  0  0  0
 30 64  1  0  0  0
 30 65  1  0  0  0
 31 66  1  0  0  0
 31 67  1  0  0  0
 32 68  1  0  0  0
 33 69  1  0  0  0
 33 70  1  0  0  0
 34 71  1  0  0  0
 34 72  1  0  0  0
 35 73  1  0  0  0
 35 74  1  0  0  0
 36 75  1  0  0  0
 36 76  1  0  0  0
 38 77  1  0  0  0
M  END
$$$$
