4qvx_ligand
  -I-interpret- 

 80 85  0  0  0  0  0  0  0  0999 V2000
  -16.7080    1.1290    2.6790 N   0  0  0  0  0
  -16.3220    2.4380    2.8090 C   0  0  0  0  0
  -15.1380    3.0030    2.0230 C   0  0  0  0  0
  -14.3370    2.1400    1.5760 O   0  0  0  0  0
  -15.0650    4.2580    1.9570 O   0  0  0  0  0
  -16.7980   12.3970    6.5520 C   0  0  0  0  0
  -16.6370   13.4770    7.0500 C   0  0  0  0  0
  -25.9670    1.1170   11.2760 C   0  0  0  0  0
  -24.9450    2.0060   11.5120 C   0  0  0  0  0
  -21.2140   -4.3080    4.7210 C   0  0  0  0  0
  -17.5900   10.1670    6.8700 C   0  0  0  0  0
  -21.5930   -3.3290    5.6110 C   0  0  0  0  0
  -20.2130   -4.0440    3.8130 C   0  0  0  0  0
  -25.8590    0.1200   10.3340 C   0  0  0  0  0
  -17.8090    8.8940    6.4040 C   0  0  0  0  0
  -23.7590    1.9530   10.8190 C   0  0  0  0  0
  -16.8690    9.4600    4.2780 C   0  0  0  0  0
  -17.0080   11.0870    6.0310 C   0  0  0  0  0
  -20.9630   -2.1060    5.5830 C   0  0  0  0  0
  -19.5900   -2.8160    3.7800 C   0  0  0  0  0
  -19.9610   -1.8250    4.6670 C   0  0  0  0  0
  -24.6780    0.0490    9.6160 C   0  0  0  0  0
  -17.4480    8.5400    5.1240 C   0  0  0  0  0
  -23.6640    0.9560    9.8720 C   0  0  0  0  0
  -23.2110   -0.6880    8.1300 C   0  0  0  0  0
  -21.4210   -1.1260    6.5780 C   0  0  0  0  0
  -18.5360   -2.5800    2.7550 C   0  0  0  0  0
  -19.2760   -0.4990    4.6450 C   0  0  0  0  0
  -17.5690   -1.5240    3.2410 C   0  0  0  0  0
  -17.0330    3.2150    3.6980 C   0  0  0  0  0
  -17.7190    0.8640    3.4730 C   0  0  0  0  0
  -15.2820   15.3620    5.6090 C   0  0  0  0  0
  -17.4940   16.3270    6.0900 C   0  0  0  0  0
  -16.4490   14.7750    7.6950 C   0  0  0  0  0
  -16.8690    4.6370    4.0610 C   0  0  0  0  0
  -17.7330    5.5320    3.1880 C   0  0  0  0  0
  -17.3670    6.9880    3.4130 C   0  0  0  0  0
  -16.6480   10.7410    4.7440 C   0  0  0  0  0
  -24.4050   -0.8790    8.6370 N   0  0  0  0  0
  -22.6370   -1.4580    7.1310 N   0  0  0  0  0
  -18.3410   -0.3430    3.5510 N   0  0  0  0  0
  -16.2300   15.8050    6.6550 N   0  3  0  0  0
  -20.7240   -0.1740    6.8750 O   0  0  0  0  0
  -17.7070    7.2330    4.7600 O   0  0  0  0  0
  -22.3390    0.6170    8.8300 S   0  0  0  0  0
  -18.2340    2.2200    4.4070 S   0  0  0  0  0
  -18.3730    7.9900    7.2120 F   0  0  0  0  0
  -14.6659    1.2622    1.7829 H   0  0  0  0  0
  -26.8886    1.2045   11.8513 H   0  0  0  0  0
  -25.0793    2.7761   12.2716 H   0  0  0  0  0
  -21.7015   -5.2828    4.7347 H   0  0  0  0  0
  -17.8724   10.4426    7.8861 H   0  0  0  0  0
  -22.3867   -3.5211    6.3330 H   0  0  0  0  0
  -19.9089   -4.8189    3.1094 H   0  0  0  0  0
  -26.6712   -0.5858   10.1602 H   0  0  0  0  0
  -22.9459    2.6544   11.0064 H   0  0  0  0  0
  -16.5909    9.1825    3.2613 H   0  0  0  0  0
  -19.0040   -2.2397    1.8313 H   0  0  0  0  0
  -17.9935   -3.5087    2.5781 H   0  0  0  0  0
  -18.7096   -0.4101    5.5720 H   0  0  0  0  0
  -20.0462    0.2630    4.5257 H   0  0  0  0  0
  -16.8253   -1.3047    2.4749 H   0  0  0  0  0
  -17.0331   -1.8732    4.1236 H   0  0  0  0  0
  -15.7394   14.5682    5.0185 H   0  0  0  0  0
  -15.0382   16.2040    4.9612 H   0  0  0  0  0
  -14.3724   14.9886    6.0794 H   0  0  0  0  0
  -17.2782   17.1812    5.4483 H   0  0  0  0  0
  -17.9794   15.5454    5.5056 H   0  0  0  0  0
  -18.1523   16.6376    6.9014 H   0  0  0  0  0
  -15.5847   14.7335    8.3578 H   0  0  0  0  0
  -17.3344   15.0260    8.2791 H   0  0  0  0  0
  -15.8248    4.9142    3.9163 H   0  0  0  0  0
  -17.1725    4.7675    5.0997 H   0  0  0  0  0
  -18.7810    5.3818    3.4475 H   0  0  0  0  0
  -17.5675    5.2787    2.1408 H   0  0  0  0  0
  -17.8964    7.6527    2.7304 H   0  0  0  0  0
  -16.3121    7.1794    3.2164 H   0  0  0  0  0
  -16.1868   11.4829    4.0921 H   0  0  0  0  0
  -23.1262   -2.2889    6.7982 H   0  0  0  0  0
  -15.7870   16.5925    7.1282 H   0  0  0  0  0
  2  1  4  0  0  0
 31  1  4  0  0  0
  2  3  1  0  0  0
 30  2  4  0  0  0
  3  4  1  0  0  0
  3  5  2  0  0  0
  6  7  3  0  0  0
 18  6  1  0  0  0
  7 34  1  0  0  0
  9  8  4  0  0  0
 14  8  4  0  0  0
 16  9  4  0  0  0
 12 10  4  0  0  0
 13 10  4  0  0  0
 15 11  4  0  0  0
 11 18  4  0  0  0
 19 12  4  0  0  0
 20 13  4  0  0  0
 22 14  4  0  0  0
 23 15  4  0  0  0
 15 47  1  0  0  0
 24 16  4  0  0  0
 23 17  4  0  0  0
 17 38  4  0  0  0
 38 18  4  0  0  0
 21 19  4  0  0  0
 19 26  1  0  0  0
 21 20  4  0  0  0
 27 20  1  0  0  0
 28 21  1  0  0  0
 24 22  4  0  0  0
 39 22  4  0  0  0
 44 23  1  0  0  0
 45 24  4  0  0  0
 25 39  4  0  0  0
 40 25  1  0  0  0
 25 45  4  0  0  0
 26 40  1  0  0  0
 26 43  2  0  0  0
 29 27  1  0  0  0
 41 28  1  0  0  0
 41 29  1  0  0  0
 35 30  1  0  0  0
 30 46  4  0  0  0
 31 41  1  0  0  0
 46 31  4  0  0  0
 42 32  1  0  0  0
 42 33  1  0  0  0
 34 42  1  0  0  0
 36 35  1  0  0  0
 37 36  1  0  0  0
 37 44  1  0  0  0
  4 48  1  0  0  0
  8 49  1  0  0  0
  9 50  1  0  0  0
 10 51  1  0  0  0
 11 52  1  0  0  0
 12 53  1  0  0  0
 13 54  1  0  0  0
 14 55  1  0  0  0
 16 56  1  0  0  0
 17 57  1  0  0  0
 27 58  1  0  0  0
 27 59  1  0  0  0
 28 60  1  0  0  0
 28 61  1  0  0  0
 29 62  1  0  0  0
 29 63  1  0  0  0
 32 64  1  0  0  0
 32 65  1  0  0  0
 32 66  1  0  0  0
 33 67  1  0  0  0
 33 68  1  0  0  0
 33 69  1  0  0  0
 34 70  1  0  0  0
 34 71  1  0  0  0
 35 72  1  0  0  0
 35 73  1  0  0  0
 36 74  1  0  0  0
 36 75  1  0  0  0
 37 76  1  0  0  0
 37 77  1  0  0  0
 38 78  1  0  0  0
 40 79  1  0  0  0
 42 80  1  0  0  0
M  END
$$$$
