4hby_ligand
  -I-interpret- 

 37 39  0  0  0  0  0  0  0  0999 V2000
    6.5860    3.9000   22.1210 C   0  0  0  0  0
    8.9090    4.0540   18.7230 C   0  0  0  0  0
    6.7470    2.7910   21.3750 C   0  0  0  0  0
    7.8210    0.5070   23.8310 C   0  0  0  0  0
    8.4260   -0.4220   23.0580 C   0  0  0  0  0
    8.4450    1.0130   24.8300 C   0  0  0  0  0
    9.7370    0.7100   25.0550 C   0  0  0  0  0
   10.3990   -0.1200   24.2780 C   0  0  0  0  0
    9.7380   -0.7360   23.2620 C   0  0  0  0  0
    7.5190    2.8870   20.2310 C   0  0  0  0  0
    8.0900    4.0000   19.9190 C   0  0  0  0  0
    8.6960    6.1090   20.4580 N   0  0  0  0  0
    6.5920    1.1400   23.4170 N   0  0  0  0  0
    7.1810    5.0660   21.7880 C   0  0  0  0  0
   10.1650    7.0990   19.5500 O   0  0  0  0  0
    9.5940    6.2170   19.5250 C   0  0  0  0  0
    7.9770    5.0620   20.6640 C   0  0  0  0  0
    9.7720    5.1600   18.7690 N   0  0  0  0  0
   10.8860    5.1170   17.8670 C   0  0  0  0  0
    6.0360    1.4280   21.8720 S   0  0  0  0  0
    4.7600    1.7300   22.2040 O   0  0  0  0  0
    6.2900    0.1800   21.0370 O   0  0  0  0  0
    5.9617    3.8560   23.0134 H   0  0  0  0  0
    8.2596    4.1470   17.8525 H   0  0  0  0  0
    9.5036    3.1427   18.6590 H   0  0  0  0  0
    7.8640   -0.9220   22.2691 H   0  0  0  0  0
    7.9248    1.6945   25.5030 H   0  0  0  0  0
   10.2484    1.1644   25.9036 H   0  0  0  0  0
   11.4590   -0.3105   24.4459 H   0  0  0  0  0
   10.2437   -1.4627   22.6262 H   0  0  0  0  0
    7.6454    2.0154   19.5888 H   0  0  0  0  0
    8.5507    6.9114   21.0707 H   0  0  0  0  0
    5.9812    1.4534   24.1714 H   0  0  0  0  0
    7.0377    5.9688   22.3817 H   0  0  0  0  0
   10.8121    5.9439   17.1607 H   0  0  0  0  0
   11.8136    5.2026   18.4329 H   0  0  0  0  0
   10.8760    4.1719   17.3241 H   0  0  0  0  0
  3  1  4  0  0  0
  1 14  4  0  0  0
 11  2  1  0  0  0
  2 18  1  0  0  0
  3 10  4  0  0  0
 20  3  1  0  0  0
  4  5  4  0  0  0
  4  6  4  0  0  0
 13  4  1  0  0  0
  5  9  4  0  0  0
  6  7  4  0  0  0
  7  8  4  0  0  0
  9  8  4  0  0  0
 10 11  4  0  0  0
 11 17  4  0  0  0
 12 16  1  0  0  0
 17 12  1  0  0  0
 13 20  1  0  0  0
 14 17  4  0  0  0
 16 15  2  0  0  0
 16 18  1  0  0  0
 18 19  1  0  0  0
 20 21  2  0  0  0
 20 22  2  0  0  0
  1 23  1  0  0  0
  2 24  1  0  0  0
  2 25  1  0  0  0
  5 26  1  0  0  0
  6 27  1  0  0  0
  7 28  1  0  0  0
  8 29  1  0  0  0
  9 30  1  0  0  0
 10 31  1  0  0  0
 12 32  1  0  0  0
 13 33  1  0  0  0
 14 34  1  0  0  0
 19 35  1  0  0  0
 19 36  1  0  0  0
 19 37  1  0  0  0
M  END
$$$$
