### 
### Created by X-TOOL on Mon Sep 10 21:12:56 2018
### 

@<TRIPOS>MOLECULE
2jq9_ligand
  221   220     1     0     0
SMALL
GAST_HUCK


@<TRIPOS>ATOM
      1 N           9.8580   -4.2440    8.5260 N.4       1 GLU         0.2380
      2 CA          8.4580   -3.8350    8.5050 C.3       1 GLU         0.0665
      3 C           8.3240   -2.3410    8.7790 C.2       1 GLU         0.2269
      4 O           7.4100   -1.6860    8.2770 O.2       1 GLU        -0.3907
      5 CB          7.6570   -4.6290    9.5380 C.3       1 GLU         0.0194
      6 CG          6.1650   -4.6660    9.2540 C.3       1 GLU         0.0075
      7 CD          5.3290   -4.6090   10.5170 C.2       1 GLU         0.0351
      8 OE1         5.6050   -5.3950   11.4480 O.co2     1 GLU        -0.5690
      9 OE2         4.3980   -3.7780   10.5770 O.co2     1 GLU        -0.5690
     10 N           9.2400   -1.8070    9.5800 N.am      1 ASP        -0.2595
     11 CA          9.2240   -0.3890    9.9220 C.3       1 ASP         0.1424
     12 C           9.6020    0.4670    8.7170 C.2       1 ASP         0.2056
     13 O           9.1470    1.6030    8.5830 O.2       1 ASP        -0.3943
     14 CB         10.1850   -0.1120   11.0800 C.3       1 ASP         0.0406
     15 CG          9.6690    0.9660   12.0130 C.2       1 ASP         0.0393
     16 OD1         8.6590    0.7190   12.7060 O.co2     1 ASP        -0.5688
     17 OD2        10.2750    2.0570   12.0530 O.co2     1 ASP        -0.5688
     18 N          10.4370   -0.0860    7.8430 N.am      1 GLN        -0.2635
     19 CA         10.8760    0.6280    6.6490 C.3       1 GLN         0.1330
     20 C           9.6860    1.0150    5.7760 C.2       1 GLN         0.2040
     21 O           9.4480    2.1960    5.5230 O.2       1 GLN        -0.3944
     22 CB         11.8530   -0.2320    5.8460 C.3       1 GLN         0.0045
     23 CG         13.0450   -0.7170    6.6560 C.3       1 GLN         0.0412
     24 CD         14.2470    0.1970    6.5270 C.2       1 GLN         0.1737
     25 OE1        14.7930    0.3750    5.4380 O.2       1 GLN        -0.3973
     26 NE2        14.6680    0.7830    7.6430 N.am      1 GLN        -0.3009
     27 N           8.9430    0.0130    5.3190 N.am      1 LEU        -0.2637
     28 CA          7.7780    0.2490    4.4740 C.3       1 LEU         0.1312
     29 C           6.6290    0.8440    5.2830 C.2       1 LEU         0.2040
     30 O           5.8070    1.5920    4.7530 O.2       1 LEU        -0.3944
     31 CB          7.3290   -1.0550    3.8110 C.3       1 LEU        -0.0101
     32 CG          6.7840   -2.1160    4.7680 C.3       1 LEU        -0.0425
     33 CD1         5.6840   -2.9240    4.0980 C.3       1 LEU        -0.0625
     34 CD2         7.9040   -3.0290    5.2440 C.3       1 LEU        -0.0625
     35 N           6.5780    0.5080    6.5680 N.am      1 SER        -0.2616
     36 CA          5.5300    1.0100    7.4480 C.3       1 SER         0.1539
     37 C           5.6330    2.5230    7.6100 C.2       1 SER         0.2062
     38 O           4.6220    3.2160    7.7220 O.2       1 SER        -0.3943
     39 CB          5.6160    0.3320    8.8170 C.3       1 SER         0.0843
     40 OG          4.6640    0.8740    9.7160 O.3       1 SER        -0.3903
     41 N           6.8620    3.0290    7.6210 N.am      1 ARG        -0.2637
     42 CA          7.0970    4.4610    7.7690 C.3       1 ARG         0.1311
     43 C           6.8100    5.1970    6.4640 C.2       1 ARG         0.2039
     44 O           6.0820    6.1900    6.4480 O.2       1 ARG        -0.3944
     45 CB          8.5400    4.7190    8.2070 C.3       1 ARG        -0.0092
     46 CG          8.6850    5.8910    9.1640 C.3       1 ARG        -0.0156
     47 CD          8.5980    5.4390   10.6130 C.3       1 ARG         0.0627
     48 NE          9.5060    6.1910   11.4760 N.pl3     1 ARG        -0.2723
     49 CZ          9.2880    7.4440   11.8690 C.cat     1 ARG         0.2882
     50 NH1         8.1950    8.0890   11.4800 N.pl3     1 ARG        -0.2849
     51 NH2        10.1650    8.0540   12.6550 N.pl3     1 ARG        -0.2849
     52 N           7.3870    4.7050    5.3730 N.am      1 ARG        -0.2637
     53 CA          7.1920    5.3160    4.0640 C.3       1 ARG         0.1311
     54 C           5.7190    5.2980    3.6680 C.2       1 ARG         0.2039
     55 O           5.2420    6.1960    2.9740 O.2       1 ARG        -0.3944
     56 CB          8.0250    4.5860    3.0080 C.3       1 ARG        -0.0092
     57 CG          9.5090    4.5350    3.3320 C.3       1 ARG        -0.0156
     58 CD         10.1560    3.2740    2.7820 C.3       1 ARG         0.0627
     59 NE         10.6860    3.4740    1.4350 N.pl3     1 ARG        -0.2723
     60 CZ         11.4190    2.5720    0.7860 C.cat     1 ARG         0.2882
     61 NH1        11.7110    1.4090    1.3550 N.pl3     1 ARG        -0.2849
     62 NH2        11.8610    2.8340   -0.4370 N.pl3     1 ARG        -0.2849
     63 N           5.0040    4.2710    4.1140 N.am      1 LEU        -0.2637
     64 CA          3.5850    4.1360    3.8060 C.3       1 LEU         0.1312
     65 C           2.7700    5.2080    4.5220 C.2       1 LEU         0.2039
     66 O           1.8920    5.8340    3.9270 O.2       1 LEU        -0.3944
     67 CB          3.0850    2.7470    4.2060 C.3       1 LEU        -0.0101
     68 CG          1.6000    2.4920    3.9400 C.3       1 LEU        -0.0425
     69 CD1         1.3650    1.0350    3.5750 C.3       1 LEU        -0.0625
     70 CD2         0.7680    2.8800    5.1540 C.3       1 LEU        -0.0625
     71 N           3.0650    5.4150    5.8010 N.am      1 ALA        -0.2640
     72 CA          2.3600    6.4110    6.5970 C.3       1 ALA         0.1282
     73 C           2.5230    7.8060    6.0010 C.2       1 ALA         0.2036
     74 O           1.6340    8.6490    6.1180 O.2       1 ALA        -0.3944
     75 CB          2.8580    6.3880    8.0340 C.3       1 ALA        -0.0244
     76 N           3.6640    8.0410    5.3620 N.am      1 ALA        -0.2640
     77 CA          3.9440    9.3330    4.7480 C.3       1 ALA         0.1282
     78 C           3.1420    9.5160    3.4650 C.2       1 ALA         0.2036
     79 O           2.7340   10.6270    3.1290 O.2       1 ALA        -0.3944
     80 CB          5.4320    9.4720    4.4670 C.3       1 ALA        -0.0244
     81 N           2.9200    8.4170    2.7500 N.am      1 LEU        -0.2637
     82 CA          2.1660    8.4560    1.5030 C.3       1 LEU         0.1312
     83 C           0.7450    8.9580    1.7400 C.2       1 LEU         0.2039
     84 O           0.3010    9.9170    1.1090 O.2       1 LEU        -0.3944
     85 CB          2.1280    7.0680    0.8610 C.3       1 LEU        -0.0101
     86 CG          2.1720    7.0590   -0.6680 C.3       1 LEU        -0.0425
     87 CD1         3.6100    7.0270   -1.1610 C.3       1 LEU        -0.0625
     88 CD2         1.3920    5.8730   -1.2150 C.3       1 LEU        -0.0625
     89 N           0.0370    8.3040    2.6550 N.am      1 ARG        -0.2637
     90 CA         -1.3330    8.6840    2.9770 C.3       1 ARG         0.1311
     91 C          -1.3920   10.1120    3.5080 C.2       1 ARG         0.2035
     92 O          -2.2300   10.9080    3.0850 O.2       1 ARG        -0.3944
     93 CB         -1.9230    7.7200    4.0080 C.3       1 ARG        -0.0092
     94 CG         -1.1880    7.7270    5.3380 C.3       1 ARG        -0.0156
     95 CD         -1.6930    6.6280    6.2590 C.3       1 ARG         0.0627
     96 NE         -1.6550    7.0310    7.6630 N.pl3     1 ARG        -0.2723
     97 CZ         -1.8580    6.1950    8.6790 C.cat     1 ARG         0.2882
     98 NH1        -2.1140    4.9130    8.4530 N.pl3     1 ARG        -0.2849
     99 NH2        -1.8050    6.6440    9.9260 N.pl3     1 ARG        -0.2849
    100 N          -0.4960   10.4300    4.4360 N.am      1 ASN        -0.2674
    101 CA         -0.4450   11.7640    5.0250 C.3       1 ASN         0.1110
    102 C           0.3780   12.7110    4.1580 C.2       1 ASN         0.0624
    103 O           1.6180   12.7190    4.3050 O.co2     1 ASN        -0.5665
    104 CB          0.1470   11.7000    6.4340 C.3       1 ASN         0.0718
    105 CG         -0.4720   12.7210    7.3680 C.2       1 ASN         0.1774
    106 OD1        -0.3870   13.9270    7.1320 O.2       1 ASN        -0.3971
    107 ND2        -1.0980   12.2430    8.4370 N.am      1 ASN        -0.3007
    108 OXT        -0.2250   13.4350    3.3380 O.co2     1 ASN        -0.5665
    109 H1          9.9218   -5.2332    8.3428 H         1 GLU         0.2015
    110 H2         10.2530   -4.0438    9.4315 H         1 GLU         0.2015
    111 H3         10.3666   -3.7377    7.8181 H         1 GLU         0.2015
    112 H4          8.0488   -4.0452    7.5058 H         1 GLU         0.1099
    113 H5          7.8116   -4.1698   10.5255 H         1 GLU         0.0363
    114 H6          8.0341   -5.6623    9.5510 H         1 GLU         0.0363
    115 H7          5.9314   -5.5982    8.7188 H         1 GLU         0.0434
    116 H8          5.9055   -3.8048    8.6208 H         1 GLU         0.0434
    117 H9          9.9580   -2.3917    9.9577 H         1 ASP         0.1886
    118 H10         8.2056   -0.1183   10.2374 H         1 ASP         0.0819
    119 H11        11.1520    0.2112   10.6672 H         1 ASP         0.0478
    120 H12        10.3232   -1.0399   11.6543 H         1 ASP         0.0478
    121 H13        10.7722   -1.0136    8.0079 H         1 GLN         0.1883
    122 H14        11.3924    1.5470    6.9632 H         1 GLN         0.0801
    123 H15        12.2267    0.3638    5.0002 H         1 GLN         0.0337
    124 H16        11.3111   -1.1102    5.4649 H         1 GLN         0.0337
    125 H17        13.3259   -1.7204    6.3035 H         1 GLN         0.0504
    126 H18        12.7537   -0.7687    7.7155 H         1 GLN         0.0504
    127 H19        15.4571    1.3968    7.6184 H         1 GLN         0.1814
    128 H20        14.1957    0.6102    8.5073 H         1 GLN         0.1814
    129 H21         9.1885   -0.9259    5.5603 H         1 LEU         0.1883
    130 H22         8.0584    0.9647    3.6872 H         1 LEU         0.0800
    131 H23         8.1935   -1.4841    3.2833 H         1 LEU         0.0315
    132 H24         6.5390   -0.8134    3.0847 H         1 LEU         0.0315
    133 H25         6.3557   -1.6066    5.6438 H         1 LEU         0.0298
    134 H26         5.3051   -3.6808    4.8007 H         1 LEU         0.0232
    135 H27         6.0877   -3.4228    3.2046 H         1 LEU         0.0232
    136 H28         4.8633   -2.2531    3.8041 H         1 LEU         0.0232
    137 H29         8.6887   -2.4266    5.7250 H         1 LEU         0.0232
    138 H30         8.3298   -3.5662    4.3837 H         1 LEU         0.0232
    139 H31         7.5034   -3.7543    5.9675 H         1 LEU         0.0232
    140 H32         7.2757   -0.1042    6.9402 H         1 SER         0.1884
    141 H33         4.5546    0.7723    6.9985 H         1 SER         0.0823
    142 H34         6.6249    0.4815    9.2291 H         1 SER         0.0606
    143 H35         5.4246   -0.7446    8.6973 H         1 SER         0.0606
    144 H36         4.8273    1.8034    9.8260 H         1 SER         0.2097
    145 H37         7.6442    2.4133    7.5255 H         1 ARG         0.1883
    146 H38         6.4194    4.8471    8.5447 H         1 ARG         0.0800
    147 H39         9.1439    4.9250    7.3110 H         1 ARG         0.0313
    148 H40         8.9193    3.8145    8.7049 H         1 ARG         0.0313
    149 H41         7.8814    6.6157    8.9665 H         1 ARG         0.0301
    150 H42         9.6607    6.3707    8.9969 H         1 ARG         0.0301
    151 H43         8.8579    4.3716   10.6684 H         1 ARG         0.0689
    152 H44         7.5675    5.5844   10.9692 H         1 ARG         0.0689
    153 H45        10.3653    5.7242   11.7993 H         1 ARG         0.2642
    154 H46         8.0322    9.0584   11.7876 H         1 ARG         0.2615
    155 H47         7.5097    7.6201   10.8706 H         1 ARG         0.2615
    156 H48        11.0149    7.5586   12.9601 H         1 ARG         0.2615
    157 H49         9.9961    9.0231   12.9603 H         1 ARG         0.2615
    158 H50         7.9692    3.8958    5.4518 H         1 ARG         0.1883
    159 H51         7.5274    6.3624    4.1148 H         1 ARG         0.0800
    160 H52         7.8968    5.1030    2.0456 H         1 ARG         0.0313
    161 H53         7.6521    3.5547    2.9228 H         1 ARG         0.0313
    162 H54         9.6374    4.5554    4.4243 H         1 ARG         0.0301
    163 H55        10.0022    5.4125    2.8884 H         1 ARG         0.0301
    164 H56         9.4032    2.4725    2.7521 H         1 ARG         0.0689
    165 H57        10.9802    2.9783    3.4477 H         1 ARG         0.0689
    166 H58        10.4805    4.3646    0.9601 H         1 ARG         0.2642
    167 H59        12.2786    0.7154    0.8474 H         1 ARG         0.2615
    168 H60        11.3700    1.2000    2.3042 H         1 ARG         0.2615
    169 H61        11.6374    3.7349   -0.8834 H         1 ARG         0.2615
    170 H62        12.4278    2.1365   -0.9402 H         1 ARG         0.2615
    171 H63         5.4498    3.5733    4.6748 H         1 LEU         0.1883
    172 H64         3.4502    4.2598    2.7213 H         1 LEU         0.0800
    173 H65         3.2658    2.6165    5.2832 H         1 LEU         0.0315
    174 H66         3.6652    2.0006    3.6437 H         1 LEU         0.0315
    175 H67         1.2871    3.1170    3.0906 H         1 LEU         0.0298
    176 H68         0.2933    0.8722    3.3879 H         1 LEU         0.0232
    177 H69         1.6943    0.3915    4.4042 H         1 LEU         0.0232
    178 H70         1.9372    0.7871    2.6689 H         1 LEU         0.0232
    179 H71         0.9515    3.9359    5.4020 H         1 LEU         0.0232
    180 H72         1.0502    2.2482    6.0091 H         1 LEU         0.0232
    181 H73        -0.2990    2.7365    4.9283 H         1 LEU         0.0232
    182 H74         3.7892    4.8735    6.2280 H         1 ALA         0.1883
    183 H75         1.2894    6.1585    6.5961 H         1 ALA         0.0797
    184 H76         2.3171    7.1443    8.6216 H         1 ALA         0.0277
    185 H77         3.9350    6.6108    8.0524 H         1 ALA         0.0277
    186 H78         2.6820    5.3923    8.4672 H         1 ALA         0.0277
    187 H79         4.3475    7.3136    5.3008 H         1 ALA         0.1883
    188 H80         3.6485   10.1223    5.4548 H         1 ALA         0.0797
    189 H81         5.6279   10.4506    4.0043 H         1 ALA         0.0277
    190 H82         5.7523    8.6723    3.7829 H         1 ALA         0.0277
    191 H83         5.9922    9.3938    5.4104 H         1 ALA         0.0277
    192 H84         3.2791    7.5424    3.0757 H         1 LEU         0.1883
    193 H85         2.6705    9.1485    0.8132 H         1 LEU         0.0800
    194 H86         1.1993    6.5711    1.1781 H         1 LEU         0.0315
    195 H87         2.9933    6.4980    1.2301 H         1 LEU         0.0315
    196 H88         1.7006    7.9829   -1.0343 H         1 LEU         0.0298
    197 H89         3.6204    7.0210   -2.2609 H         1 LEU         0.0232
    198 H90         4.1066    6.1205   -0.7847 H         1 LEU         0.0232
    199 H91         4.1433    7.9164   -0.7942 H         1 LEU         0.0232
    200 H92         0.3561    5.9145   -0.8474 H         1 LEU         0.0232
    201 H93         1.8632    4.9377   -0.8787 H         1 LEU         0.0232
    202 H94         1.3926    5.9093   -2.3144 H         1 LEU         0.0232
    203 H95         0.4544    7.5321    3.1345 H         1 ARG         0.1883
    204 H96        -1.9349    8.6277    2.0580 H         1 ARG         0.0800
    205 H97        -1.8835    6.7015    3.5943 H         1 ARG         0.0313
    206 H98        -2.9708    8.0022    4.1883 H         1 ARG         0.0313
    207 H99        -1.3412    8.7008    5.8260 H         1 ARG         0.0301
    208 H100       -0.1144    7.5739    5.1540 H         1 ARG         0.0301
    209 H101       -1.0618    5.7367    6.1280 H         1 ARG         0.0689
    210 H102       -2.7309    6.3855    5.9870 H         1 ARG         0.0689
    211 H103       -1.4599    8.0190    7.8791 H         1 ARG         0.2642
    212 H104       -2.2701    4.2718    9.2438 H         1 ARG         0.2615
    213 H105       -2.1567    4.5589    7.4867 H         1 ARG         0.2615
    214 H106       -1.6066    7.6383   10.1074 H         1 ARG         0.2615
    215 H107       -1.9622    5.9983   10.7130 H         1 ARG         0.2615
    216 H108        0.1596    9.7380    4.7383 H         1 ASN         0.1877
    217 H109       -1.4712   12.1544    5.0921 H         1 ASN         0.0752
    218 H110        1.2289   11.8887    6.3715 H         1 ASN         0.0544
    219 H111       -0.0267   10.6945    6.8448 H         1 ASN         0.0544
    220 H112       -1.5253   12.8701    9.0882 H         1 ASN         0.1814
    221 H113       -1.1421   11.2559    8.5909 H         1 ASN         0.1814
@<TRIPOS>BOND
     1    1    2 1  
     2    2    3 1  
     3    2    5 1  
     4    3    4 2  
     5    3   10 am 
     6    5    6 1  
     7    6    7 1  
     8    7    8 ar 
     9    7    9 ar 
    10   10   11 1  
    11   11   12 1  
    12   11   14 1  
    13   12   13 2  
    14   12   18 am 
    15   14   15 1  
    16   15   16 ar 
    17   15   17 ar 
    18   18   19 1  
    19   19   20 1  
    20   19   22 1  
    21   20   21 2  
    22   20   27 am 
    23   22   23 1  
    24   23   24 1  
    25   24   25 2  
    26   24   26 am 
    27   27   28 1  
    28   28   29 1  
    29   28   31 1  
    30   29   30 2  
    31   29   35 am 
    32   31   32 1  
    33   32   33 1  
    34   32   34 1  
    35   35   36 1  
    36   36   37 1  
    37   36   39 1  
    38   37   38 2  
    39   37   41 am 
    40   39   40 1  
    41   41   42 1  
    42   42   43 1  
    43   42   45 1  
    44   43   44 2  
    45   43   52 am 
    46   45   46 1  
    47   46   47 1  
    48   47   48 1  
    49   48   49 ar 
    50   49   50 ar 
    51   49   51 ar 
    52   52   53 1  
    53   53   54 1  
    54   53   56 1  
    55   54   55 2  
    56   54   63 am 
    57   56   57 1  
    58   57   58 1  
    59   58   59 1  
    60   59   60 ar 
    61   60   61 ar 
    62   60   62 ar 
    63   63   64 1  
    64   64   65 1  
    65   64   67 1  
    66   65   66 2  
    67   65   71 am 
    68   67   68 1  
    69   68   69 1  
    70   68   70 1  
    71   71   72 1  
    72   72   73 1  
    73   72   75 1  
    74   73   74 2  
    75   73   76 am 
    76   76   77 1  
    77   77   78 1  
    78   77   80 1  
    79   78   79 2  
    80   78   81 am 
    81   81   82 1  
    82   82   83 1  
    83   82   85 1  
    84   83   84 2  
    85   83   89 am 
    86   85   86 1  
    87   86   87 1  
    88   86   88 1  
    89   89   90 1  
    90   90   91 1  
    91   90   93 1  
    92   91   92 2  
    93   91  100 am 
    94   93   94 1  
    95   94   95 1  
    96   95   96 1  
    97   96   97 ar 
    98   97   98 ar 
    99   97   99 ar 
   100  100  101 1  
   101  101  102 1  
   102  101  104 1  
   103  102  103 ar 
   104  102  108 ar 
   105  104  105 1  
   106  105  106 2  
   107  105  107 am 
   108    1  109 1  
   109    1  110 1  
   110    1  111 1  
   111    2  112 1  
   112    5  113 1  
   113    5  114 1  
   114    6  115 1  
   115    6  116 1  
   116   10  117 1  
   117   11  118 1  
   118   14  119 1  
   119   14  120 1  
   120   18  121 1  
   121   19  122 1  
   122   22  123 1  
   123   22  124 1  
   124   23  125 1  
   125   23  126 1  
   126   26  127 1  
   127   26  128 1  
   128   27  129 1  
   129   28  130 1  
   130   31  131 1  
   131   31  132 1  
   132   32  133 1  
   133   33  134 1  
   134   33  135 1  
   135   33  136 1  
   136   34  137 1  
   137   34  138 1  
   138   34  139 1  
   139   35  140 1  
   140   36  141 1  
   141   39  142 1  
   142   39  143 1  
   143   40  144 1  
   144   41  145 1  
   145   42  146 1  
   146   45  147 1  
   147   45  148 1  
   148   46  149 1  
   149   46  150 1  
   150   47  151 1  
   151   47  152 1  
   152   48  153 1  
   153   50  154 1  
   154   50  155 1  
   155   51  156 1  
   156   51  157 1  
   157   52  158 1  
   158   53  159 1  
   159   56  160 1  
   160   56  161 1  
   161   57  162 1  
   162   57  163 1  
   163   58  164 1  
   164   58  165 1  
   165   59  166 1  
   166   61  167 1  
   167   61  168 1  
   168   62  169 1  
   169   62  170 1  
   170   63  171 1  
   171   64  172 1  
   172   67  173 1  
   173   67  174 1  
   174   68  175 1  
   175   69  176 1  
   176   69  177 1  
   177   69  178 1  
   178   70  179 1  
   179   70  180 1  
   180   70  181 1  
   181   71  182 1  
   182   72  183 1  
   183   75  184 1  
   184   75  185 1  
   185   75  186 1  
   186   76  187 1  
   187   77  188 1  
   188   80  189 1  
   189   80  190 1  
   190   80  191 1  
   191   81  192 1  
   192   82  193 1  
   193   85  194 1  
   194   85  195 1  
   195   86  196 1  
   196   87  197 1  
   197   87  198 1  
   198   87  199 1  
   199   88  200 1  
   200   88  201 1  
   201   88  202 1  
   202   89  203 1  
   203   90  204 1  
   204   93  205 1  
   205   93  206 1  
   206   94  207 1  
   207   94  208 1  
   208   95  209 1  
   209   95  210 1  
   210   96  211 1  
   211   98  212 1  
   212   98  213 1  
   213   99  214 1  
   214   99  215 1  
   215  100  216 1  
   216  101  217 1  
   217  104  218 1  
   218  104  219 1  
   219  107  220 1  
   220  107  221 1  
@<TRIPOS>SUBSTRUCTURE
     1 GLU         1

