2jq9_ligand
  -I-interpret- 

221220  0  0  0  0  0  0  0  0999 V2000
    9.8580   -4.2440    8.5260 N   0  3  0  0  0
    8.4580   -3.8350    8.5050 C   0  0  0  0  0
    8.3240   -2.3410    8.7790 C   0  0  0  0  0
    7.4100   -1.6860    8.2770 O   0  0  0  0  0
    7.6570   -4.6290    9.5380 C   0  0  0  0  0
    6.1650   -4.6660    9.2540 C   0  0  0  0  0
    5.3290   -4.6090   10.5170 C   0  0  0  0  0
    5.6050   -5.3950   11.4480 O   0  0  0  0  0
    4.3980   -3.7780   10.5770 O   0  0  0  0  0
    9.2400   -1.8070    9.5800 N   0  0  0  0  0
    9.2240   -0.3890    9.9220 C   0  0  0  0  0
    9.6020    0.4670    8.7170 C   0  0  0  0  0
    9.1470    1.6030    8.5830 O   0  0  0  0  0
   10.1850   -0.1120   11.0800 C   0  0  0  0  0
    9.6690    0.9660   12.0130 C   0  0  0  0  0
    8.6590    0.7190   12.7060 O   0  0  0  0  0
   10.2750    2.0570   12.0530 O   0  0  0  0  0
   10.4370   -0.0860    7.8430 N   0  0  0  0  0
   10.8760    0.6280    6.6490 C   0  0  0  0  0
    9.6860    1.0150    5.7760 C   0  0  0  0  0
    9.4480    2.1960    5.5230 O   0  0  0  0  0
   11.8530   -0.2320    5.8460 C   0  0  0  0  0
   13.0450   -0.7170    6.6560 C   0  0  0  0  0
   14.2470    0.1970    6.5270 C   0  0  0  0  0
   14.7930    0.3750    5.4380 O   0  0  0  0  0
   14.6680    0.7830    7.6430 N   0  0  0  0  0
    8.9430    0.0130    5.3190 N   0  0  0  0  0
    7.7780    0.2490    4.4740 C   0  0  0  0  0
    6.6290    0.8440    5.2830 C   0  0  0  0  0
    5.8070    1.5920    4.7530 O   0  0  0  0  0
    7.3290   -1.0550    3.8110 C   0  0  0  0  0
    6.7840   -2.1160    4.7680 C   0  0  0  0  0
    5.6840   -2.9240    4.0980 C   0  0  0  0  0
    7.9040   -3.0290    5.2440 C   0  0  0  0  0
    6.5780    0.5080    6.5680 N   0  0  0  0  0
    5.5300    1.0100    7.4480 C   0  0  0  0  0
    5.6330    2.5230    7.6100 C   0  0  0  0  0
    4.6220    3.2160    7.7220 O   0  0  0  0  0
    5.6160    0.3320    8.8170 C   0  0  0  0  0
    4.6640    0.8740    9.7160 O   0  0  0  0  0
    6.8620    3.0290    7.6210 N   0  0  0  0  0
    7.0970    4.4610    7.7690 C   0  0  0  0  0
    6.8100    5.1970    6.4640 C   0  0  0  0  0
    6.0820    6.1900    6.4480 O   0  0  0  0  0
    8.5400    4.7190    8.2070 C   0  0  0  0  0
    8.6850    5.8910    9.1640 C   0  0  0  0  0
    8.5980    5.4390   10.6130 C   0  0  0  0  0
    9.5060    6.1910   11.4760 N   0  0  0  0  0
    9.2880    7.4440   11.8690 C   0  0  0  0  0
    8.1950    8.0890   11.4800 N   0  0  0  0  0
   10.1650    8.0540   12.6550 N   0  0  0  0  0
    7.3870    4.7050    5.3730 N   0  0  0  0  0
    7.1920    5.3160    4.0640 C   0  0  0  0  0
    5.7190    5.2980    3.6680 C   0  0  0  0  0
    5.2420    6.1960    2.9740 O   0  0  0  0  0
    8.0250    4.5860    3.0080 C   0  0  0  0  0
    9.5090    4.5350    3.3320 C   0  0  0  0  0
   10.1560    3.2740    2.7820 C   0  0  0  0  0
   10.6860    3.4740    1.4350 N   0  0  0  0  0
   11.4190    2.5720    0.7860 C   0  0  0  0  0
   11.7110    1.4090    1.3550 N   0  0  0  0  0
   11.8610    2.8340   -0.4370 N   0  0  0  0  0
    5.0040    4.2710    4.1140 N   0  0  0  0  0
    3.5850    4.1360    3.8060 C   0  0  0  0  0
    2.7700    5.2080    4.5220 C   0  0  0  0  0
    1.8920    5.8340    3.9270 O   0  0  0  0  0
    3.0850    2.7470    4.2060 C   0  0  0  0  0
    1.6000    2.4920    3.9400 C   0  0  0  0  0
    1.3650    1.0350    3.5750 C   0  0  0  0  0
    0.7680    2.8800    5.1540 C   0  0  0  0  0
    3.0650    5.4150    5.8010 N   0  0  0  0  0
    2.3600    6.4110    6.5970 C   0  0  0  0  0
    2.5230    7.8060    6.0010 C   0  0  0  0  0
    1.6340    8.6490    6.1180 O   0  0  0  0  0
    2.8580    6.3880    8.0340 C   0  0  0  0  0
    3.6640    8.0410    5.3620 N   0  0  0  0  0
    3.9440    9.3330    4.7480 C   0  0  0  0  0
    3.1420    9.5160    3.4650 C   0  0  0  0  0
    2.7340   10.6270    3.1290 O   0  0  0  0  0
    5.4320    9.4720    4.4670 C   0  0  0  0  0
    2.9200    8.4170    2.7500 N   0  0  0  0  0
    2.1660    8.4560    1.5030 C   0  0  0  0  0
    0.7450    8.9580    1.7400 C   0  0  0  0  0
    0.3010    9.9170    1.1090 O   0  0  0  0  0
    2.1280    7.0680    0.8610 C   0  0  0  0  0
    2.1720    7.0590   -0.6680 C   0  0  0  0  0
    3.6100    7.0270   -1.1610 C   0  0  0  0  0
    1.3920    5.8730   -1.2150 C   0  0  0  0  0
    0.0370    8.3040    2.6550 N   0  0  0  0  0
   -1.3330    8.6840    2.9770 C   0  0  0  0  0
   -1.3920   10.1120    3.5080 C   0  0  0  0  0
   -2.2300   10.9080    3.0850 O   0  0  0  0  0
   -1.9230    7.7200    4.0080 C   0  0  0  0  0
   -1.1880    7.7270    5.3380 C   0  0  0  0  0
   -1.6930    6.6280    6.2590 C   0  0  0  0  0
   -1.6550    7.0310    7.6630 N   0  0  0  0  0
   -1.8580    6.1950    8.6790 C   0  0  0  0  0
   -2.1140    4.9130    8.4530 N   0  0  0  0  0
   -1.8050    6.6440    9.9260 N   0  0  0  0  0
   -0.4960   10.4300    4.4360 N   0  0  0  0  0
   -0.4450   11.7640    5.0250 C   0  0  0  0  0
    0.3780   12.7110    4.1580 C   0  0  0  0  0
    1.6180   12.7190    4.3050 O   0  0  0  0  0
    0.1470   11.7000    6.4340 C   0  0  0  0  0
   -0.4720   12.7210    7.3680 C   0  0  0  0  0
   -0.3870   13.9270    7.1320 O   0  0  0  0  0
   -1.0980   12.2430    8.4370 N   0  0  0  0  0
   -0.2250   13.4350    3.3380 O   0  0  0  0  0
   10.3784   -3.7064    7.8328 H   0  0  0  0  0
   10.2472   -4.0726    9.4531 H   0  0  0  0  0
    9.9239   -5.2380    8.3067 H   0  0  0  0  0
    8.0601   -4.0410    7.5113 H   0  0  0  0  0
    7.7938   -4.1408   10.5029 H   0  0  0  0  0
    8.0198   -5.6565    9.5131 H   0  0  0  0  0
    5.9434   -5.6054    8.7475 H   0  0  0  0  0
    5.9173   -3.7942    8.6485 H   0  0  0  0  0
    4.3626   -3.2791    9.7576 H   0  0  0  0  0
    9.9724   -2.4033    9.9652 H   0  0  0  0  0
    8.2112   -0.1264   10.2275 H   0  0  0  0  0
   11.1307    0.2299   10.6594 H   0  0  0  0  0
   10.2949   -1.0316   11.6548 H   0  0  0  0  0
    8.3547   -0.1723   12.5198 H   0  0  0  0  0
   10.7789   -1.0321    8.0112 H   0  0  0  0  0
   11.3810    1.5399    6.9675 H   0  0  0  0  0
   12.2388    0.3838    5.0336 H   0  0  0  0  0
   11.3091   -1.1131    5.5055 H   0  0  0  0  0
   13.3288   -1.6999    6.2800 H   0  0  0  0  0
   12.7511   -0.7391    7.7054 H   0  0  0  0  0
   15.4734    1.4084    7.6181 H   0  0  0  0  0
   14.1858    0.6073    8.5245 H   0  0  0  0  0
    9.1934   -0.9447    5.5651 H   0  0  0  0  0
    8.0612    0.9628    3.7005 H   0  0  0  0  0
    8.2107   -1.4848    3.3355 H   0  0  0  0  0
    6.5160   -0.7978    3.1321 H   0  0  0  0  0
    6.3589   -1.6119    5.6359 H   0  0  0  0  0
    4.8715   -2.2581    3.8073 H   0  0  0  0  0
    6.0853   -3.4177    3.2129 H   0  0  0  0  0
    5.3094   -3.6735    4.7952 H   0  0  0  0  0
    8.3568   -3.5246    4.3852 H   0  0  0  0  0
    8.6580   -2.4369    5.7627 H   0  0  0  0  0
    7.4968   -3.7773    5.9239 H   0  0  0  0  0
    7.2896   -0.1164    6.9476 H   0  0  0  0  0
    4.5670    0.7762    6.9941 H   0  0  0  0  0
    6.6134    0.4957    9.2250 H   0  0  0  0  0
    5.4121   -0.7315    8.6927 H   0  0  0  0  0
    4.7393    0.4320   10.5649 H   0  0  0  0  0
    7.6598    2.4010    7.5236 H   0  0  0  0  0
    6.4190    4.8384    8.5345 H   0  0  0  0  0
    9.1161    4.9545    7.3121 H   0  0  0  0  0
    8.8880    3.8269    8.7277 H   0  0  0  0  0
    7.8761    6.5961    8.9725 H   0  0  0  0  0
    9.6602    6.3504    9.0030 H   0  0  0  0  0
    8.8772    4.3864   10.6592 H   0  0  0  0  0
    7.5790    5.6065   10.9618 H   0  0  0  0  0
   10.3570    5.7287   11.7962 H   0  0  0  0  0
    8.0332    9.0486   11.7856 H   0  0  0  0  0
    7.5170    7.6250   10.8755 H   0  0  0  0  0
   11.0061    7.5630   12.9581 H   0  0  0  0  0
    7.9809    3.8796    5.4534 H   0  0  0  0  0
    7.5206    6.3536    4.1230 H   0  0  0  0  0
    7.9138    5.1305    2.0703 H   0  0  0  0  0
    7.6652    3.5582    2.9612 H   0  0  0  0  0
    9.6263    4.5389    4.4157 H   0  0  0  0  0
    9.9922    5.3986    2.8750 H   0  0  0  0  0
    9.3970    2.4930    2.7373 H   0  0  0  0  0
   10.9835    3.0018    3.4371 H   0  0  0  0  0
   10.4825    4.3560    0.9647 H   0  0  0  0  0
   12.2727    0.7219    0.8521 H   0  0  0  0  0
   11.3738    1.2023    2.2952 H   0  0  0  0  0
   11.6391    3.7259   -0.8793 H   0  0  0  0  0
    5.4588    3.5593    4.6860 H   0  0  0  0  0
    3.4575    4.2646    2.7311 H   0  0  0  0  0
    3.2313    2.6582    5.2825 H   0  0  0  0  0
    3.6403    2.0276    3.6041 H   0  0  0  0  0
    1.2898    3.1102    3.0976 H   0  0  0  0  0
    1.9325    0.7906    2.6771 H   0  0  0  0  0
    1.6917    0.3985    4.3973 H   0  0  0  0  0
    0.3028    0.8749    3.3898 H   0  0  0  0  0
    1.0820    2.2867    6.0127 H   0  0  0  0  0
    0.9136    3.9385    5.3694 H   0  0  0  0  0
   -0.2853    2.6917    4.9462 H   0  0  0  0  0
    3.8037    4.8626    6.2365 H   0  0  0  0  0
    1.2989    6.1619    6.5880 H   0  0  0  0  0
    2.6831    5.4009    8.4621 H   0  0  0  0  0
    3.9253    6.6088    8.0509 H   0  0  0  0  0
    2.3213    7.1378    8.6152 H   0  0  0  0  0
    4.3611    7.2990    5.2996 H   0  0  0  0  0
    3.6433   10.1129    5.4476 H   0  0  0  0  0
    5.9859    9.3943    5.4025 H   0  0  0  0  0
    5.7481    8.6791    3.7892 H   0  0  0  0  0
    5.6248   10.4419    4.0086 H   0  0  0  0  0
    3.2863    7.5249    3.0822 H   0  0  0  0  0
    2.6682    9.1480    0.8269 H   0  0  0  0  0
    1.1802    6.6142    1.1504 H   0  0  0  0  0
    3.0174    6.5392    1.2037 H   0  0  0  0  0
    1.7062    7.9748   -1.0319 H   0  0  0  0  0
    4.1373    7.9087   -0.7968 H   0  0  0  0  0
    4.1009    6.1284   -0.7874 H   0  0  0  0  0
    3.6190    7.0210   -2.2509 H   0  0  0  0  0
    1.8308    4.9478   -0.8415 H   0  0  0  0  0
    0.3539    5.9414   -0.8899 H   0  0  0  0  0
    1.4344    5.8830   -2.3041 H   0  0  0  0  0
    0.4628    7.5166    3.1441 H   0  0  0  0  0
   -1.9220    8.6317    2.0613 H   0  0  0  0  0
   -1.8447    6.7136    3.5967 H   0  0  0  0  0
   -2.9488    8.0345    4.1999 H   0  0  0  0  0
   -1.3586    8.6887    5.8219 H   0  0  0  0  0
   -0.1281    7.5583    5.1478 H   0  0  0  0  0
   -1.0487    5.7574    6.1365 H   0  0  0  0  0
   -2.7277    6.4100    5.9946 H   0  0  0  0  0
   -1.4618    8.0094    7.8770 H   0  0  0  0  0
   -2.2689    4.2781    9.2361 H   0  0  0  0  0
   -2.1559    4.5623    7.4961 H   0  0  0  0  0
   -1.6089    7.6287   10.1056 H   0  0  0  0  0
    0.1727    9.7242    4.7443 H   0  0  0  0  0
   -1.4639   12.1469    5.0833 H   0  0  0  0  0
    1.2137   11.9124    6.3615 H   0  0  0  0  0
   -0.0527   10.7079    6.8389 H   0  0  0  0  0
   -1.5327   12.8827    9.1020 H   0  0  0  0  0
   -1.1442   11.2361    8.5932 H   0  0  0  0  0
   -1.1680   13.2645    3.3952 H   0  0  0  0  0
  1  2  1  0  0  0
  2  3  1  0  0  0
  2  5  1  0  0  0
  3  4  2  0  0  0
  3 10  1  0  0  0
  5  6  1  0  0  0
  6  7  1  0  0  0
  7  8  2  0  0  0
  7  9  1  0  0  0
 10 11  1  0  0  0
 11 12  1  0  0  0
 11 14  1  0  0  0
 12 13  2  0  0  0
 12 18  1  0  0  0
 14 15  1  0  0  0
 15 16  1  0  0  0
 15 17  2  0  0  0
 18 19  1  0  0  0
 19 20  1  0  0  0
 19 22  1  0  0  0
 20 21  2  0  0  0
 20 27  1  0  0  0
 22 23  1  0  0  0
 23 24  1  0  0  0
 24 25  2  0  0  0
 24 26  1  0  0  0
 27 28  1  0  0  0
 28 29  1  0  0  0
 28 31  1  0  0  0
 29 30  2  0  0  0
 29 35  1  0  0  0
 31 32  1  0  0  0
 32 33  1  0  0  0
 32 34  1  0  0  0
 35 36  1  0  0  0
 36 37  1  0  0  0
 36 39  1  0  0  0
 37 38  2  0  0  0
 37 41  1  0  0  0
 39 40  1  0  0  0
 41 42  1  0  0  0
 42 43  1  0  0  0
 42 45  1  0  0  0
 43 44  2  0  0  0
 43 52  1  0  0  0
 45 46  1  0  0  0
 46 47  1  0  0  0
 47 48  1  0  0  0
 48 49  1  0  0  0
 49 50  1  0  0  0
 49 51  2  0  0  0
 52 53  1  0  0  0
 53 54  1  0  0  0
 53 56  1  0  0  0
 54 55  2  0  0  0
 54 63  1  0  0  0
 56 57  1  0  0  0
 57 58  1  0  0  0
 58 59  1  0  0  0
 59 60  1  0  0  0
 60 61  1  0  0  0
 60 62  2  0  0  0
 63 64  1  0  0  0
 64 65  1  0  0  0
 64 67  1  0  0  0
 65 66  2  0  0  0
 65 71  1  0  0  0
 67 68  1  0  0  0
 68 69  1  0  0  0
 68 70  1  0  0  0
 71 72  1  0  0  0
 72 73  1  0  0  0
 72 75  1  0  0  0
 73 74  2  0  0  0
 73 76  1  0  0  0
 76 77  1  0  0  0
 77 78  1  0  0  0
 77 80  1  0  0  0
 78 79  2  0  0  0
 78 81  1  0  0  0
 81 82  1  0  0  0
 82 83  1  0  0  0
 82 85  1  0  0  0
 83 84  2  0  0  0
 83 89  1  0  0  0
 85 86  1  0  0  0
 86 87  1  0  0  0
 86 88  1  0  0  0
 89 90  1  0  0  0
 90 91  1  0  0  0
 90 93  1  0  0  0
 91 92  2  0  0  0
 91100  1  0  0  0
 93 94  1  0  0  0
 94 95  1  0  0  0
 95 96  1  0  0  0
 96 97  1  0  0  0
 97 98  1  0  0  0
 97 99  2  0  0  0
100101  1  0  0  0
101102  1  0  0  0
101104  1  0  0  0
102103  2  0  0  0
102108  1  0  0  0
104105  1  0  0  0
105106  2  0  0  0
105107  1  0  0  0
  1109  1  0  0  0
  1110  1  0  0  0
  1111  1  0  0  0
  2112  1  0  0  0
  5113  1  0  0  0
  5114  1  0  0  0
  6115  1  0  0  0
  6116  1  0  0  0
  9117  1  0  0  0
 10118  1  0  0  0
 11119  1  0  0  0
 14120  1  0  0  0
 14121  1  0  0  0
 16122  1  0  0  0
 18123  1  0  0  0
 19124  1  0  0  0
 22125  1  0  0  0
 22126  1  0  0  0
 23127  1  0  0  0
 23128  1  0  0  0
 26129  1  0  0  0
 26130  1  0  0  0
 27131  1  0  0  0
 28132  1  0  0  0
 31133  1  0  0  0
 31134  1  0  0  0
 32135  1  0  0  0
 33136  1  0  0  0
 33137  1  0  0  0
 33138  1  0  0  0
 34139  1  0  0  0
 34140  1  0  0  0
 34141  1  0  0  0
 35142  1  0  0  0
 36143  1  0  0  0
 39144  1  0  0  0
 39145  1  0  0  0
 40146  1  0  0  0
 41147  1  0  0  0
 42148  1  0  0  0
 45149  1  0  0  0
 45150  1  0  0  0
 46151  1  0  0  0
 46152  1  0  0  0
 47153  1  0  0  0
 47154  1  0  0  0
 48155  1  0  0  0
 50156  1  0  0  0
 50157  1  0  0  0
 51158  1  0  0  0
 52159  1  0  0  0
 53160  1  0  0  0
 56161  1  0  0  0
 56162  1  0  0  0
 57163  1  0  0  0
 57164  1  0  0  0
 58165  1  0  0  0
 58166  1  0  0  0
 59167  1  0  0  0
 61168  1  0  0  0
 61169  1  0  0  0
 62170  1  0  0  0
 63171  1  0  0  0
 64172  1  0  0  0
 67173  1  0  0  0
 67174  1  0  0  0
 68175  1  0  0  0
 69176  1  0  0  0
 69177  1  0  0  0
 69178  1  0  0  0
 70179  1  0  0  0
 70180  1  0  0  0
 70181  1  0  0  0
 71182  1  0  0  0
 72183  1  0  0  0
 75184  1  0  0  0
 75185  1  0  0  0
 75186  1  0  0  0
 76187  1  0  0  0
 77188  1  0  0  0
 80189  1  0  0  0
 80190  1  0  0  0
 80191  1  0  0  0
 81192  1  0  0  0
 82193  1  0  0  0
 85194  1  0  0  0
 85195  1  0  0  0
 86196  1  0  0  0
 87197  1  0  0  0
 87198  1  0  0  0
 87199  1  0  0  0
 88200  1  0  0  0
 88201  1  0  0  0
 88202  1  0  0  0
 89203  1  0  0  0
 90204  1  0  0  0
 93205  1  0  0  0
 93206  1  0  0  0
 94207  1  0  0  0
 94208  1  0  0  0
 95209  1  0  0  0
 95210  1  0  0  0
 96211  1  0  0  0
 98212  1  0  0  0
 98213  1  0  0  0
 99214  1  0  0  0
100215  1  0  0  0
101216  1  0  0  0
104217  1  0  0  0
104218  1  0  0  0
107219  1  0  0  0
107220  1  0  0  0
108221  1  0  0  0
M  END
$$$$
