2xzw_ligand
  -I-interpret- 

 16 15  0  0  0  0  0  0  0  0999 V2000
   -8.8550  -21.4970  -24.2420 C   0  0  0  0  0
   -8.8550  -21.4200  -25.4570 O   0  0  0  0  0
   -7.8850  -21.0460  -23.6090 O   0  0  0  0  0
  -10.0180  -22.0400  -23.5010 C   0  0  0  0  0
  -10.0310  -21.8930  -22.2740 O   0  0  0  0  0
  -11.2110  -22.7220  -24.1550 C   0  0  0  0  0
  -12.3560  -22.7760  -23.1010 C   0  0  0  0  0
  -13.1340  -21.4380  -23.0890 C   0  0  0  0  0
  -14.3690  -21.4370  -22.8490 O   0  0  0  0  0
  -12.5700  -20.3260  -23.3190 O   0  0  0  0  0
   -8.0284  -21.1782  -22.6690 H   0  0  0  0  0
  -10.9441  -23.7278  -24.4794 H   0  0  0  0  0
  -11.5309  -22.1669  -25.0368 H   0  0  0  0  0
  -11.9254  -22.9475  -22.1145 H   0  0  0  0  0
  -13.0402  -23.5846  -23.3582 H   0  0  0  0  0
  -11.6356  -20.4707  -23.4850 H   0  0  0  0  0
  1  2  2  0  0  0
  1  3  1  0  0  0
  1  4  1  0  0  0
  4  5  2  0  0  0
  4  6  1  0  0  0
  6  7  1  0  0  0
  7  8  1  0  0  0
  8  9  2  0  0  0
  8 10  1  0  0  0
  3 11  1  0  0  0
  6 12  1  0  0  0
  6 13  1  0  0  0
  7 14  1  0  0  0
  7 15  1  0  0  0
 10 16  1  0  0  0
M  END
$$$$
