5t6z_ligand
  -I-interpret- 

161162  0  0  0  0  0  0  0  0999 V2000
    2.0350   -9.8340  -18.0990 N   0  3  0  0  0
    2.6030   -9.7420  -16.7580 C   0  0  0  0  0
    1.9880  -10.7630  -15.8070 C   0  0  0  0  0
    0.9310  -11.3330  -16.0870 O   0  0  0  0  0
    2.4040   -8.3400  -16.1520 C   0  0  0  0  0
    1.0280   -7.9540  -16.2640 O   0  0  0  0  0
    3.2840   -7.3190  -16.8580 C   0  0  0  0  0
    2.6590  -10.9860  -14.6810 N   0  0  0  0  0
    2.1600  -11.8830  -13.6470 C   0  0  0  0  0
    1.1450  -11.1680  -12.7570 C   0  0  0  0  0
    0.1030  -11.7280  -12.3990 O   0  0  0  0  0
    3.3170  -12.4070  -12.8040 C   0  0  0  0  0
    2.8480  -13.2460  -11.7610 O   0  0  0  0  0
    1.4650   -9.9320  -12.3980 N   0  0  0  0  0
    0.5140   -9.0680  -11.7170 C   0  0  0  0  0
   -0.5800   -8.6710  -12.6930 C   0  0  0  0  0
   -0.3980   -8.7530  -13.9080 O   0  0  0  0  0
    1.1820   -7.7820  -11.2010 C   0  0  0  0  0
    2.0700   -7.2640  -12.2010 O   0  0  0  0  0
    1.9690   -8.0570   -9.9460 C   0  0  0  0  0
   -1.7200   -8.2440  -12.1580 N   0  0  0  0  0
   -2.8240   -7.7620  -12.9820 C   0  0  0  0  0
   -2.4070   -6.5010  -13.7350 C   0  0  0  0  0
   -2.0460   -5.5000  -13.1230 O   0  0  0  0  0
   -4.0430   -7.4710  -12.1040 C   0  0  0  0  0
   -5.2970   -6.9330  -12.7930 C   0  0  0  0  0
   -5.8910   -7.9720  -13.7320 C   0  0  0  0  0
   -6.3140   -6.4920  -11.7560 C   0  0  0  0  0
   -2.4520   -6.5480  -15.0640 N   0  0  0  0  0
   -1.9940   -5.4210  -15.8710 C   0  0  0  0  0
   -3.0730   -4.3520  -16.0510 C   0  0  0  0  0
   -2.7610   -3.1740  -16.2400 O   0  0  0  0  0
   -1.4650   -5.8950  -17.2300 C   0  0  0  0  0
   -0.7130   -4.8170  -18.0000 C   0  0  0  0  0
    0.0140   -5.3510  -19.2200 C   0  0  0  0  0
   -0.1550   -6.5090  -19.6060 O   0  0  0  0  0
    0.8330   -4.5050  -19.8340 N   0  0  0  0  0
   -4.3370   -4.7590  -15.9910 N   0  0  0  0  0
   -5.4430   -3.8110  -16.1060 C   0  0  0  0  0
   -5.3910   -2.8110  -14.9630 C   0  0  0  0  0
   -5.2090   -3.1930  -13.8100 O   0  0  0  0  0
   -6.7930   -4.5280  -16.0540 C   0  0  0  0  0
   -6.7930   -5.9320  -16.6140 C   0  0  0  0  0
   -6.6930   -5.9660  -18.1200 C   0  0  0  0  0
   -6.8370   -4.8970  -18.7520 O   0  0  0  0  0
   -6.4850   -7.0680  -18.6730 O   0  0  0  0  0
   -5.5530   -1.5370  -15.2900 N   0  0  0  0  0
   -5.6080   -0.4910  -14.2810 C   0  0  0  0  0
   -7.0560   -0.1920  -13.9470 C   0  0  0  0  0
   -7.8700    0.0750  -14.8330 O   0  0  0  0  0
   -4.8870    0.7630  -14.7670 C   0  0  0  0  0
   -3.3990    0.5470  -14.9580 C   0  0  0  0  0
   -2.7220    0.0830  -13.6840 C   0  0  0  0  0
   -2.8080    0.7460  -12.6520 O   0  0  0  0  0
   -2.0600   -1.0680  -13.7440 N   0  0  0  0  0
   -7.3840   -0.2500  -12.6630 N   0  0  0  0  0
   -8.7770   -0.1620  -12.2540 C   0  0  0  0  0
   -9.0440    0.9650  -11.2570 C   0  0  0  0  0
   -8.5480    0.9530  -10.1300 O   0  0  0  0  0
   -9.2630   -1.5060  -11.7100 C   0  0  0  0  0
   -9.2860   -2.5420  -12.8380 C   0  0  0  0  0
  -10.6380   -1.3660  -11.1530 C   0  0  0  0  0
   -8.9840   -3.9270  -12.3720 C   0  0  0  0  0
   -9.8330    1.9410  -11.6970 N   0  0  0  0  0
  -10.1670    3.0940  -10.8850 C   0  0  0  0  0
  -11.4810    2.9170  -10.1500 C   0  0  0  0  0
  -12.3990    2.2590  -10.6400 O   0  0  0  0  0
  -11.5690    3.5120   -8.9650 N   0  0  0  0  0
  -12.7560    3.3930   -8.1300 C   0  0  0  0  0
  -13.8480    4.3880   -8.5080 C   0  0  0  0  0
  -13.6300    5.3040   -9.3000 O   0  0  0  0  0
  -12.3870    3.5720   -6.6600 C   0  0  0  0  0
  -11.7490    2.3670   -6.0380 C   0  0  0  0  0
  -11.1730    1.3130   -6.6850 C   0  0  0  0  0
  -11.6370    2.0900   -4.6380 C   0  0  0  0  0
  -10.7010    0.3970   -5.7720 N   0  0  0  0  0
  -10.9750    0.8520   -4.5080 C   0  0  0  0  0
  -12.0290    2.7710   -3.4800 C   0  0  0  0  0
  -10.7000    0.2810   -3.2710 C   0  0  0  0  0
  -11.7530    2.1980   -2.2470 C   0  0  0  0  0
  -11.0940    0.9670   -2.1540 C   0  0  0  0  0
  -14.9760    4.2990   -8.0170 O   0  0  0  0  0
    2.1854  -10.7734  -18.4669 H   0  0  0  0  0
    1.0345   -9.6400  -18.0572 H   0  0  0  0  0
    2.4895   -9.1527  -18.7069 H   0  0  0  0  0
    3.6675   -9.9471  -16.8713 H   0  0  0  0  0
    2.6877   -8.3738  -15.1001 H   0  0  0  0  0
    0.4778   -8.6014  -15.8170 H   0  0  0  0  0
    3.0073   -7.2691  -17.9111 H   0  0  0  0  0
    3.1445   -6.3409  -16.3977 H   0  0  0  0  0
    4.3284   -7.6182  -16.7692 H   0  0  0  0  0
    3.5516  -10.5140  -14.5365 H   0  0  0  0  0
    1.6634  -12.7239  -14.1310 H   0  0  0  0  0
    3.8393  -11.5586  -12.3618 H   0  0  0  0  0
    3.9824  -12.9853  -13.4450 H   0  0  0  0  0
    3.5941  -13.5621  -11.2461 H   0  0  0  0  0
    2.3996   -9.5794  -12.6043 H   0  0  0  0  0
    0.1109   -9.6193  -10.8675 H   0  0  0  0  0
    0.4001   -7.0553  -10.9802 H   0  0  0  0  0
    2.4844   -6.4619  -11.8748 H   0  0  0  0  0
    1.2998   -8.4405   -9.1758 H   0  0  0  0  0
    2.7421   -8.7955  -10.1580 H   0  0  0  0  0
    2.4324   -7.1332   -9.5995 H   0  0  0  0  0
   -1.8259   -8.2536  -11.1436 H   0  0  0  0  0
   -3.0857   -8.5327  -13.7070 H   0  0  0  0  0
   -3.7279   -6.6874  -11.4150 H   0  0  0  0  0
   -4.3323   -8.4309  -11.6763 H   0  0  0  0  0
   -5.0178   -6.0674  -13.3937 H   0  0  0  0  0
   -5.1569   -8.2327  -14.4944 H   0  0  0  0  0
   -6.1585   -8.8628  -13.1637 H   0  0  0  0  0
   -6.7817   -7.5624  -14.2084 H   0  0  0  0  0
   -6.5858   -7.3426  -11.1309 H   0  0  0  0  0
   -5.8815   -5.7070  -11.1357 H   0  0  0  0  0
   -7.2025   -6.1109  -12.2594 H   0  0  0  0  0
   -2.8117   -7.3835  -15.5256 H   0  0  0  0  0
   -1.1745   -4.9564  -15.3226 H   0  0  0  0  0
   -2.3253   -6.1874  -17.8321 H   0  0  0  0  0
   -0.7668   -6.7109  -17.0429 H   0  0  0  0  0
    0.0344   -4.3927  -17.3296 H   0  0  0  0  0
   -1.4446   -4.0863  -18.3450 H   0  0  0  0  0
    1.3519   -4.8056  -20.6591 H   0  0  0  0  0
    0.9432   -3.5546  -19.4805 H   0  0  0  0  0
   -4.5384   -5.7506  -15.8624 H   0  0  0  0  0
   -5.3416   -3.3018  -17.0644 H   0  0  0  0  0
   -7.4823   -3.9455  -16.6653 H   0  0  0  0  0
   -7.0658   -4.6090  -15.0018 H   0  0  0  0  0
   -7.7356   -6.4017  -16.3330 H   0  0  0  0  0
   -5.9226   -6.4502  -16.2115 H   0  0  0  0  0
   -6.4061   -7.7511  -18.0031 H   0  0  0  0  0
   -5.6413   -1.2837  -16.2741 H   0  0  0  0  0
   -5.1010   -0.8327  -13.3786 H   0  0  0  0  0
   -5.0179    1.5377  -14.0115 H   0  0  0  0  0
   -5.3112    1.0394  -15.7323 H   0  0  0  0  0
   -2.9528    1.4966  -15.2536 H   0  0  0  0  0
   -3.2620   -0.2242  -15.7160 H   0  0  0  0  0
   -1.5974   -1.4342  -12.9120 H   0  0  0  0  0
   -2.0146   -1.5851  -14.6221 H   0  0  0  0  0
   -6.6547   -0.3570  -11.9580 H   0  0  0  0  0
   -9.3491    0.0863  -13.1479 H   0  0  0  0  0
   -8.5833   -1.8311  -10.9224 H   0  0  0  0  0
   -8.5180   -2.2617  -13.5590 H   0  0  0  0  0
  -10.2909   -2.5478  -13.2601 H   0  0  0  0  0
  -10.6285   -0.6346  -10.3449 H   0  0  0  0  0
  -11.3149   -1.0318  -11.9393 H   0  0  0  0  0
  -10.9729   -2.3295  -10.7688 H   0  0  0  0  0
   -7.9905   -3.9497  -11.9241 H   0  0  0  0  0
   -9.7247   -4.2295  -11.6318 H   0  0  0  0  0
   -9.0169   -4.6099  -13.2209 H   0  0  0  0  0
  -10.2168    1.8757  -12.6398 H   0  0  0  0  0
  -10.2613    3.9568  -11.5444 H   0  0  0  0  0
   -9.3791    3.2257  -10.1434 H   0  0  0  0  0
  -10.7821    4.0683   -8.6306 H   0  0  0  0  0
  -13.1563    2.3930   -8.2967 H   0  0  0  0  0
  -13.3121    3.7638   -6.1164 H   0  0  0  0  0
  -11.6624    4.3845   -6.6061 H   0  0  0  0  0
  -11.0975    1.2109   -7.7676 H   0  0  0  0  0
  -12.5404    3.7314   -3.5454 H   0  0  0  0  0
  -10.1889   -0.6786   -3.1932 H   0  0  0  0  0
  -12.0543    2.7150   -1.3360 H   0  0  0  0  0
  -10.8899    0.5450   -1.1700 H   0  0  0  0  0
  -15.0063    3.5463   -7.4219 H   0  0  0  0  0
  1  2  1  0  0  0
  2  3  1  0  0  0
  2  5  1  0  0  0
  3  4  2  0  0  0
  3  8  1  0  0  0
  5  6  1  0  0  0
  5  7  1  0  0  0
  8  9  1  0  0  0
  9 10  1  0  0  0
  9 12  1  0  0  0
 10 11  2  0  0  0
 10 14  1  0  0  0
 12 13  1  0  0  0
 14 15  1  0  0  0
 15 16  1  0  0  0
 15 18  1  0  0  0
 16 17  2  0  0  0
 16 21  1  0  0  0
 18 19  1  0  0  0
 18 20  1  0  0  0
 21 22  1  0  0  0
 22 23  1  0  0  0
 22 25  1  0  0  0
 23 24  2  0  0  0
 23 29  1  0  0  0
 25 26  1  0  0  0
 26 27  1  0  0  0
 26 28  1  0  0  0
 29 30  1  0  0  0
 30 31  1  0  0  0
 30 33  1  0  0  0
 31 32  2  0  0  0
 31 38  1  0  0  0
 33 34  1  0  0  0
 34 35  1  0  0  0
 35 36  2  0  0  0
 35 37  1  0  0  0
 38 39  1  0  0  0
 39 40  1  0  0  0
 39 42  1  0  0  0
 40 41  2  0  0  0
 40 47  1  0  0  0
 42 43  1  0  0  0
 43 44  1  0  0  0
 44 45  2  0  0  0
 44 46  1  0  0  0
 47 48  1  0  0  0
 48 49  1  0  0  0
 48 51  1  0  0  0
 49 50  2  0  0  0
 49 56  1  0  0  0
 51 52  1  0  0  0
 52 53  1  0  0  0
 53 54  2  0  0  0
 53 55  1  0  0  0
 56 57  1  0  0  0
 57 58  1  0  0  0
 57 60  1  0  0  0
 58 59  2  0  0  0
 58 64  1  0  0  0
 60 61  1  0  0  0
 60 62  1  0  0  0
 61 63  1  0  0  0
 64 65  1  0  0  0
 65 66  1  0  0  0
 66 67  2  0  0  0
 66 68  1  0  0  0
 68 69  1  0  0  0
 69 70  1  0  0  0
 69 72  1  0  0  0
 70 71  2  0  0  0
 70 82  1  0  0  0
 72 73  1  0  0  0
 73 74  4  0  0  0
 73 75  4  0  0  0
 74 76  4  0  0  0
 75 77  4  0  0  0
 75 78  4  0  0  0
 76 77  4  0  0  0
 77 79  4  0  0  0
 78 80  4  0  0  0
 79 81  4  0  0  0
 80 81  4  0  0  0
  1 83  1  0  0  0
  1 84  1  0  0  0
  1 85  1  0  0  0
  2 86  1  0  0  0
  5 87  1  0  0  0
  6 88  1  0  0  0
  7 89  1  0  0  0
  7 90  1  0  0  0
  7 91  1  0  0  0
  8 92  1  0  0  0
  9 93  1  0  0  0
 12 94  1  0  0  0
 12 95  1  0  0  0
 13 96  1  0  0  0
 14 97  1  0  0  0
 15 98  1  0  0  0
 18 99  1  0  0  0
 19100  1  0  0  0
 20101  1  0  0  0
 20102  1  0  0  0
 20103  1  0  0  0
 21104  1  0  0  0
 22105  1  0  0  0
 25106  1  0  0  0
 25107  1  0  0  0
 26108  1  0  0  0
 27109  1  0  0  0
 27110  1  0  0  0
 27111  1  0  0  0
 28112  1  0  0  0
 28113  1  0  0  0
 28114  1  0  0  0
 29115  1  0  0  0
 30116  1  0  0  0
 33117  1  0  0  0
 33118  1  0  0  0
 34119  1  0  0  0
 34120  1  0  0  0
 37121  1  0  0  0
 37122  1  0  0  0
 38123  1  0  0  0
 39124  1  0  0  0
 42125  1  0  0  0
 42126  1  0  0  0
 43127  1  0  0  0
 43128  1  0  0  0
 46129  1  0  0  0
 47130  1  0  0  0
 48131  1  0  0  0
 51132  1  0  0  0
 51133  1  0  0  0
 52134  1  0  0  0
 52135  1  0  0  0
 55136  1  0  0  0
 55137  1  0  0  0
 56138  1  0  0  0
 57139  1  0  0  0
 60140  1  0  0  0
 61141  1  0  0  0
 61142  1  0  0  0
 62143  1  0  0  0
 62144  1  0  0  0
 62145  1  0  0  0
 63146  1  0  0  0
 63147  1  0  0  0
 63148  1  0  0  0
 64149  1  0  0  0
 65150  1  0  0  0
 65151  1  0  0  0
 68152  1  0  0  0
 69153  1  0  0  0
 72154  1  0  0  0
 72155  1  0  0  0
 74156  1  0  0  0
 78157  1  0  0  0
 79158  1  0  0  0
 80159  1  0  0  0
 81160  1  0  0  0
 82161  1  0  0  0
M  END
$$$$
