### 
### Created by X-TOOL on Mon Sep 10 21:13:33 2018
### 

@<TRIPOS>MOLECULE
5t6z_ligand
  160   161     1     0     0
SMALL
GAST_HUCK


@<TRIPOS>ATOM
      1 N           2.0350   -9.8340  -18.0990 N.4       1 THR         0.2398
      2 CA          2.6030   -9.7420  -16.7580 C.3       1 THR         0.0910
      3 C           1.9880  -10.7630  -15.8070 C.2       1 THR         0.2293
      4 O           0.9310  -11.3330  -16.0870 O.2       1 THR        -0.3906
      5 CB          2.4040   -8.3400  -16.1520 C.3       1 THR         0.1120
      6 OG1         1.0280   -7.9540  -16.2640 O.3       1 THR        -0.3840
      7 CG2         3.2840   -7.3190  -16.8580 C.3       1 THR        -0.0314
      8 N           2.6590  -10.9860  -14.6810 N.am      1 SER        -0.2588
      9 CA          2.1600  -11.8830  -13.6470 C.3       1 SER         0.1540
     10 C           1.1450  -11.1680  -12.7570 C.2       1 SER         0.2063
     11 O           0.1030  -11.7280  -12.3990 O.2       1 SER        -0.3943
     12 CB          3.3170  -12.4070  -12.8040 C.3       1 SER         0.0843
     13 OG          2.8480  -13.2460  -11.7610 O.3       1 SER        -0.3903
     14 N           1.4650   -9.9320  -12.3980 N.am      1 THR        -0.2613
     15 CA          0.5140   -9.0680  -11.7170 C.3       1 THR         0.1565
     16 C          -0.5800   -8.6710  -12.6930 C.2       1 THR         0.2065
     17 O          -0.3980   -8.7530  -13.9080 O.2       1 THR        -0.3943
     18 CB          1.1820   -7.7820  -11.2010 C.3       1 THR         0.0924
     19 OG1         2.0700   -7.2640  -12.2010 O.3       1 THR        -0.3874
     20 CG2         1.9690   -8.0570   -9.9460 C.3       1 THR        -0.0346
     21 N          -1.7200   -8.2440  -12.1580 N.am      1 LEU        -0.2636
     22 CA         -2.8240   -7.7620  -12.9820 C.3       1 LEU         0.1312
     23 C          -2.4070   -6.5010  -13.7350 C.2       1 LEU         0.2039
     24 O          -2.0460   -5.5000  -13.1230 O.2       1 LEU        -0.3944
     25 CB         -4.0430   -7.4710  -12.1040 C.3       1 LEU        -0.0101
     26 CG         -5.2970   -6.9330  -12.7930 C.3       1 LEU        -0.0425
     27 CD1        -5.8910   -7.9720  -13.7320 C.3       1 LEU        -0.0625
     28 CD2        -6.3140   -6.4920  -11.7560 C.3       1 LEU        -0.0625
     29 N          -2.4520   -6.5480  -15.0640 N.am      1 GLN        -0.2636
     30 CA         -1.9940   -5.4210  -15.8710 C.3       1 GLN         0.1330
     31 C          -3.0730   -4.3520  -16.0510 C.2       1 GLN         0.2040
     32 O          -2.7610   -3.1740  -16.2400 O.2       1 GLN        -0.3944
     33 CB         -1.4650   -5.8950  -17.2300 C.3       1 GLN         0.0045
     34 CG         -0.7130   -4.8170  -18.0000 C.3       1 GLN         0.0412
     35 CD          0.0140   -5.3510  -19.2200 C.2       1 GLN         0.1737
     36 OE1        -0.1550   -6.5090  -19.6060 O.2       1 GLN        -0.3973
     37 NE2         0.8330   -4.5050  -19.8340 N.am      1 GLN        -0.3009
     38 N          -4.3370   -4.7590  -15.9910 N.am      1 GLU        -0.2636
     39 CA         -5.4430   -3.8110  -16.1060 C.3       1 GLU         0.1325
     40 C          -5.3910   -2.8110  -14.9630 C.2       1 GLU         0.2040
     41 O          -5.2090   -3.1930  -13.8100 O.2       1 GLU        -0.3944
     42 CB         -6.7930   -4.5280  -16.0540 C.3       1 GLU        -0.0008
     43 CG         -6.7930   -5.9320  -16.6140 C.3       1 GLU         0.0044
     44 CD         -6.6930   -5.9660  -18.1200 C.2       1 GLU         0.0350
     45 OE1        -6.8370   -4.8970  -18.7520 O.co2     1 GLU        -0.5690
     46 OE2        -6.4850   -7.0680  -18.6730 O.co2     1 GLU        -0.5690
     47 N          -5.5530   -1.5370  -15.2900 N.am      1 GLN        -0.2636
     48 CA         -5.6080   -0.4910  -14.2810 C.3       1 GLN         0.1330
     49 C          -7.0560   -0.1920  -13.9470 C.2       1 GLN         0.2041
     50 O          -7.8700    0.0750  -14.8330 O.2       1 GLN        -0.3944
     51 CB         -4.8870    0.7630  -14.7670 C.3       1 GLN         0.0045
     52 CG         -3.3990    0.5470  -14.9580 C.3       1 GLN         0.0412
     53 CD         -2.7220    0.0830  -13.6840 C.2       1 GLN         0.1737
     54 OE1        -2.8080    0.7460  -12.6520 O.2       1 GLN        -0.3973
     55 NE2        -2.0600   -1.0680  -13.7440 N.am      1 GLN        -0.3009
     56 N          -7.3840   -0.2500  -12.6630 N.am      1 ILE        -0.2635
     57 CA         -8.7770   -0.1620  -12.2540 C.3       1 ILE         0.1335
     58 C          -9.0440    0.9650  -11.2570 C.2       1 ILE         0.2040
     59 O          -8.5480    0.9530  -10.1300 O.2       1 ILE        -0.3944
     60 CB         -9.2630   -1.5060  -11.7100 C.3       1 ILE        -0.0037
     61 CG1        -9.2860   -2.5420  -12.8380 C.3       1 ILE        -0.0491
     62 CG2       -10.6380   -1.3660  -11.1530 C.3       1 ILE        -0.0582
     63 CD1        -8.9840   -3.9270  -12.3720 C.3       1 ILE        -0.0648
     64 N          -9.8330    1.9410  -11.6970 N.am      1 GLY        -0.2664
     65 CA        -10.1670    3.0940  -10.8850 C.3       1 GLY         0.1201
     66 C         -11.4810    2.9170  -10.1500 C.2       1 GLY         0.2003
     67 O         -12.3990    2.2590  -10.6400 O.2       1 GLY        -0.3947
     68 N         -11.5690    3.5120   -8.9650 N.am      1 TRP        -0.2687
     69 CA        -12.7560    3.3930   -8.1300 C.3       1 TRP         0.0986
     70 C         -13.8480    4.3880   -8.5080 C.2       1 TRP         0.0613
     71 O         -13.6300    5.3040   -9.3000 O.co2     1 TRP        -0.5665
     72 CB        -12.3870    3.5720   -6.6600 C.3       1 TRP        -0.0013
     73 CG        -11.7490    2.3670   -6.0380 C.2       1 TRP        -0.0424
     74 CD1       -11.1730    1.3130   -6.6850 C.2       1 TRP         0.0166
     75 CD2       -11.6370    2.0900   -4.6380 C.ar      1 TRP        -0.0214
     76 NE1       -10.7010    0.3970   -5.7720 N.pl3     1 TRP        -0.2891
     77 CE2       -10.9750    0.8520   -4.5080 C.ar      1 TRP         0.0603
     78 CE3       -12.0290    2.7710   -3.4800 C.ar      1 TRP        -0.0747
     79 CZ2       -10.7000    0.2810   -3.2710 C.ar      1 TRP        -0.0443
     80 CZ3       -11.7530    2.1980   -2.2470 C.ar      1 TRP        -0.0792
     81 CH2       -11.0940    0.9670   -2.1540 C.ar      1 TRP        -0.0768
     82 OXT       -14.9760    4.2990   -8.0170 O.co2     1 TRP        -0.5665
     83 H1          2.1830  -10.7620  -18.4636 H         1 THR         0.2016
     84 H2          2.4835   -9.1611  -18.7008 H         1 THR         0.2016
     85 H3          1.0462   -9.6425  -18.0590 H         1 THR         0.2016
     86 H4          3.6821   -9.9411  -16.8344 H         1 THR         0.1125
     87 H5          2.6813   -8.3713  -15.0880 H         1 THR         0.0674
     88 H6          0.4860   -8.5788  -15.7967 H         1 THR         0.2102
     89 H7          3.1261   -6.3268  -16.4101 H         1 THR         0.0258
     90 H8          3.0220   -7.2851  -17.9258 H         1 THR         0.0258
     91 H9          4.3400   -7.6069  -16.7485 H         1 THR         0.0258
     92 H10         3.5341  -10.5233  -14.5393 H         1 SER         0.1885
     93 H11         1.6624  -12.7355  -14.1323 H         1 SER         0.0823
     94 H12         3.8566  -11.5550  -12.3648 H         1 SER         0.0606
     95 H13         3.9997  -12.9811  -13.4477 H         1 SER         0.0606
     96 H14         3.5863  -13.5588  -11.2515 H         1 SER         0.2097
     97 H15         2.3813   -9.5863  -12.6003 H         1 THR         0.1884
     98 H16         0.0760   -9.6143  -10.8687 H         1 THR         0.0826
     99 H17         0.4032   -7.0364  -10.9829 H         1 THR         0.0639
    100 H18         2.7383   -7.9107  -12.3951 H         1 THR         0.2101
    101 H19         2.4372   -7.1254   -9.5953 H         1 THR         0.0257
    102 H20         2.7497   -8.8022  -10.1586 H         1 THR         0.0257
    103 H21         1.2948   -8.4440   -9.1678 H         1 THR         0.0257
    104 H22        -1.8238   -8.2534  -11.1634 H         1 LEU         0.1883
    105 H23        -3.0891   -8.5406  -13.7124 H         1 LEU         0.0800
    106 H24        -3.7372   -6.7298  -11.3509 H         1 LEU         0.0315
    107 H25        -4.3198   -8.4102  -11.6028 H         1 LEU         0.0315
    108 H26        -5.0120   -6.0551  -13.3913 H         1 LEU         0.0298
    109 H27        -6.7900   -7.5597  -14.2134 H         1 LEU         0.0232
    110 H28        -6.1614   -8.8716  -13.1596 H         1 LEU         0.0232
    111 H29        -5.1512   -8.2359  -14.5020 H         1 LEU         0.0232
    112 H30        -5.8590   -5.7424  -11.0919 H         1 LEU         0.0232
    113 H31        -6.6336   -7.3615  -11.1629 H         1 LEU         0.0232
    114 H32        -7.1864   -6.0524  -12.2617 H         1 LEU         0.0232
    115 H33        -2.8046   -7.3671  -15.5165 H         1 GLN         0.1883
    116 H34        -1.1564   -4.9533  -15.3328 H         1 GLN         0.0801
    117 H35        -2.3187   -6.2264  -17.8394 H         1 GLN         0.0337
    118 H36        -0.7836   -6.7420  -17.0620 H         1 GLN         0.0337
    119 H37         0.0253   -4.3570  -17.3267 H         1 GLN         0.0504
    120 H38        -1.4345   -4.0546  -18.3289 H         1 GLN         0.0504
    121 H39         1.3403   -4.7991  -20.6440 H         1 GLN         0.1814
    122 H40         0.9425   -3.5738  -19.4863 H         1 GLN         0.1814
    123 H41        -4.5345   -5.7312  -15.8649 H         1 GLU         0.1883
    124 H42        -5.3545   -3.2767  -17.0634 H         1 GLU         0.0801
    125 H43        -7.5182   -3.9320  -16.6275 H         1 GLU         0.0330
    126 H44        -7.1113   -4.5802  -15.0024 H         1 GLU         0.0330
    127 H45        -7.7269   -6.4294  -16.3134 H         1 GLU         0.0433
    128 H46        -5.9353   -6.4773  -16.1933 H         1 GLU         0.0433
    129 H47        -5.6396   -1.2886  -16.2548 H         1 GLN         0.1883
    130 H48        -5.1042   -0.8504  -13.3716 H         1 GLN         0.0801
    131 H49        -5.0339    1.5626  -14.0260 H         1 GLN         0.0337
    132 H50        -5.3241    1.0695  -15.7288 H         1 GLN         0.0337
    133 H51        -2.9412    1.4947  -15.2780 H         1 GLN         0.0504
    134 H52        -3.2483   -0.2146  -15.7373 H         1 GLN         0.0504
    135 H53        -1.5950   -1.4203  -12.9318 H         1 GLN         0.1814
    136 H54        -2.0269   -1.5817  -14.6013 H         1 GLN         0.1814
    137 H55        -6.6690   -0.3549  -11.9718 H         1 ILE         0.1883
    138 H56        -9.3650    0.0617  -13.1563 H         1 ILE         0.0803
    139 H57        -8.5804   -1.8437  -10.9163 H         1 ILE         0.0345
    140 H58        -8.5368   -2.2556  -13.5908 H         1 ILE         0.0267
    141 H59       -10.2861   -2.5378  -13.2959 H         1 ILE         0.0267
    142 H60       -10.6310   -0.6233  -10.3416 H         1 ILE         0.0235
    143 H61       -10.9746   -2.3363  -10.7590 H         1 ILE         0.0235
    144 H62       -11.3234   -1.0350  -11.9471 H         1 ILE         0.0235
    145 H63        -9.0169   -4.6172  -13.2279 H         1 ILE         0.0230
    146 H64        -9.7309   -4.2336  -11.6249 H         1 ILE         0.0230
    147 H65        -7.9816   -3.9513  -11.9198 H         1 ILE         0.0230
    148 H66       -10.2093    1.8770  -12.6213 H         1 GLY         0.1881
    149 H67       -10.2423    3.9765  -11.5373 H         1 GLY         0.0763
    150 H68        -9.3668    3.2509  -10.1467 H         1 GLY         0.0763
    151 H69       -10.7976    4.0574   -8.6372 H         1 TRP         0.1876
    152 H70       -13.1612    2.3793   -8.2653 H         1 TRP         0.0741
    153 H71       -13.3043    3.8052   -6.0995 H         1 TRP         0.0390
    154 H72       -11.6844    4.4146   -6.5803 H         1 TRP         0.0390
    155 H73       -11.0975    1.2110   -7.7666 H         1 TRP         0.0795
    156 H74       -10.2210   -0.4851   -6.0009 H         1 TRP         0.2216
    157 H75       -12.5376    3.7261   -3.5450 H         1 TRP         0.0540
    158 H76       -10.1917   -0.6733   -3.1936 H         1 TRP         0.0541
    159 H77       -12.0527    2.7122   -1.3410 H         1 TRP         0.0510
    160 H78       -10.8910    0.5473   -1.1754 H         1 TRP         0.0530
@<TRIPOS>BOND
     1    1    2 1  
     2    2    3 1  
     3    2    5 1  
     4    3    4 2  
     5    3    8 am 
     6    5    6 1  
     7    5    7 1  
     8    8    9 1  
     9    9   10 1  
    10    9   12 1  
    11   10   11 2  
    12   10   14 am 
    13   12   13 1  
    14   14   15 1  
    15   15   16 1  
    16   15   18 1  
    17   16   17 2  
    18   16   21 am 
    19   18   19 1  
    20   18   20 1  
    21   21   22 1  
    22   22   23 1  
    23   22   25 1  
    24   23   24 2  
    25   23   29 am 
    26   25   26 1  
    27   26   27 1  
    28   26   28 1  
    29   29   30 1  
    30   30   31 1  
    31   30   33 1  
    32   31   32 2  
    33   31   38 am 
    34   33   34 1  
    35   34   35 1  
    36   35   36 2  
    37   35   37 am 
    38   38   39 1  
    39   39   40 1  
    40   39   42 1  
    41   40   41 2  
    42   40   47 am 
    43   42   43 1  
    44   43   44 1  
    45   44   45 ar 
    46   44   46 ar 
    47   47   48 1  
    48   48   49 1  
    49   48   51 1  
    50   49   50 2  
    51   49   56 am 
    52   51   52 1  
    53   52   53 1  
    54   53   54 2  
    55   53   55 am 
    56   56   57 1  
    57   57   58 1  
    58   57   60 1  
    59   58   59 2  
    60   58   64 am 
    61   60   61 1  
    62   60   62 1  
    63   61   63 1  
    64   64   65 1  
    65   65   66 1  
    66   66   67 2  
    67   66   68 am 
    68   68   69 1  
    69   69   70 1  
    70   69   72 1  
    71   70   71 ar 
    72   70   82 ar 
    73   72   73 1  
    74   73   74 2  
    75   73   75 1  
    76   74   76 1  
    77   75   77 ar 
    78   75   78 ar 
    79   76   77 1  
    80   77   79 ar 
    81   78   80 ar 
    82   79   81 ar 
    83   80   81 ar 
    84    1   83 1  
    85    1   84 1  
    86    1   85 1  
    87    2   86 1  
    88    5   87 1  
    89    6   88 1  
    90    7   89 1  
    91    7   90 1  
    92    7   91 1  
    93    8   92 1  
    94    9   93 1  
    95   12   94 1  
    96   12   95 1  
    97   13   96 1  
    98   14   97 1  
    99   15   98 1  
   100   18   99 1  
   101   19  100 1  
   102   20  101 1  
   103   20  102 1  
   104   20  103 1  
   105   21  104 1  
   106   22  105 1  
   107   25  106 1  
   108   25  107 1  
   109   26  108 1  
   110   27  109 1  
   111   27  110 1  
   112   27  111 1  
   113   28  112 1  
   114   28  113 1  
   115   28  114 1  
   116   29  115 1  
   117   30  116 1  
   118   33  117 1  
   119   33  118 1  
   120   34  119 1  
   121   34  120 1  
   122   37  121 1  
   123   37  122 1  
   124   38  123 1  
   125   39  124 1  
   126   42  125 1  
   127   42  126 1  
   128   43  127 1  
   129   43  128 1  
   130   47  129 1  
   131   48  130 1  
   132   51  131 1  
   133   51  132 1  
   134   52  133 1  
   135   52  134 1  
   136   55  135 1  
   137   55  136 1  
   138   56  137 1  
   139   57  138 1  
   140   60  139 1  
   141   61  140 1  
   142   61  141 1  
   143   62  142 1  
   144   62  143 1  
   145   62  144 1  
   146   63  145 1  
   147   63  146 1  
   148   63  147 1  
   149   64  148 1  
   150   65  149 1  
   151   65  150 1  
   152   68  151 1  
   153   69  152 1  
   154   72  153 1  
   155   72  154 1  
   156   74  155 1  
   157   76  156 1  
   158   78  157 1  
   159   79  158 1  
   160   80  159 1  
   161   81  160 1  
@<TRIPOS>SUBSTRUCTURE
     1 THR         1

