2cni_ligand
  -I-interpret- 

 81 84  0  0  0  0  0  0  0  0999 V2000
   18.9790   16.7510   82.0810 C   0  0  0  0  0
   20.2880   17.3520   81.6380 C   0  0  0  0  0
   21.3960   16.6130   82.2880 C   0  0  0  0  0
   21.0720   15.3830   82.6970 N   0  0  0  0  0
   19.3600   14.9850   82.3430 S   0  0  0  0  0
   18.4980   14.5970   83.7200 O   0  0  0  0  0
   19.0820   14.1180   80.9170 O   0  0  0  0  0
   22.5140   17.0710   82.4850 O   0  0  0  0  0
   17.7890   16.9800   81.1460 C   0  0  0  0  0
   17.9760   16.9510   79.6950 C   0  0  0  0  0
   16.8220   17.1470   78.8100 C   0  0  0  0  0
   15.4890   17.3690   79.3870 C   0  0  0  0  0
   15.3140   17.4010   80.8330 C   0  0  0  0  0
   16.4550   17.2090   81.7090 C   0  0  0  0  0
   14.2990   17.5610   78.4870 C   0  0  0  0  0
   13.6960   18.9600   78.6360 C   0  0  0  0  0
   12.3880   18.9820   77.9620 N   0  0  0  0  0
   11.2440   20.2700   78.2180 S   0  0  0  0  0
    9.6420   19.6250   78.0160 O   0  0  0  0  0
   11.5240   20.8180   79.7740 O   0  0  0  0  0
   15.6240   21.0190   76.0430 C   0  0  0  0  0
   14.7900   20.0250   76.7400 N   0  0  0  0  0
   14.6740   19.9710   78.0630 C   0  0  0  0  0
   11.5530   22.3420   74.5890 C   0  0  0  0  0
   12.4470   23.4430   74.9620 C   0  0  0  0  0
   11.1610   21.3480   75.5920 C   0  0  0  0  0
   11.6610   21.4580   76.9640 C   0  0  0  0  0
   12.5520   22.5580   77.3380 C   0  0  0  0  0
   12.9470   23.5510   76.3360 C   0  0  0  0  0
   16.8840   19.3850   74.5090 C   0  0  0  0  0
   16.9930   20.4720   75.5760 C   0  0  0  0  0
   15.3550   20.6900   78.7890 O   0  0  0  0  0
   16.2490   17.2640   83.3700 Cl  0  0  0  0  0
   16.6110   18.0160   75.1240 C   0  0  0  0  0
   16.5800   16.9240   74.0610 C   0  0  0  0  0
   18.0560   16.2540   72.2310 C   0  0  0  0  0
   17.0590   15.4080   71.5800 C   0  0  0  0  0
   17.2940   14.9160   70.2220 C   0  0  0  0  0
   18.5240   15.2680   69.5230 C   0  0  0  0  0
   19.5160   16.1110   70.1790 C   0  0  0  0  0
   19.2750   16.6050   71.5350 C   0  0  0  0  0
   20.2970   17.4880   72.2110 C   0  0  0  0  0
   21.4760   17.0340   72.4170 O   0  0  0  0  0
   19.9200   18.6190   72.6640 O   0  0  0  0  0
   20.8060   19.3240   73.3860 C   0  0  0  0  0
   20.6570   16.4220   69.5450 O   0  0  0  0  0
   17.8500   16.6970   73.4780 O   0  0  0  0  0
   18.6234   17.2478   82.9837 H   0  0  0  0  0
   20.3274   18.4033   81.9231 H   0  0  0  0  0
   20.3805   17.2789   80.5544 H   0  0  0  0  0
   21.7221   14.7454   83.1566 H   0  0  0  0  0
   18.9674   16.7847   79.2737 H   0  0  0  0  0
   16.9532   17.1280   77.7281 H   0  0  0  0  0
   14.3244   17.5694   81.2576 H   0  0  0  0  0
   13.5395   16.8288   78.7612 H   0  0  0  0  0
   14.6256   17.4361   77.4546 H   0  0  0  0  0
   13.5290   19.2215   79.6809 H   0  0  0  0  0
   12.1446   18.2217   77.3272 H   0  0  0  0  0
   15.8212   21.8274   76.7471 H   0  0  0  0  0
   15.0791   21.3317   75.1523 H   0  0  0  0  0
   14.2763   19.3447   76.1799 H   0  0  0  0  0
   11.1807   22.2631   73.5676 H   0  0  0  0  0
   12.7402   24.1822   74.2166 H   0  0  0  0  0
   10.4980   20.5277   75.3171 H   0  0  0  0  0
   12.9209   22.6379   78.3606 H   0  0  0  0  0
   13.6120   24.3694   76.6117 H   0  0  0  0  0
   17.8302   19.3368   73.9700 H   0  0  0  0  0
   16.0551   19.6355   73.8470 H   0  0  0  0  0
   17.4823   20.0305   76.4441 H   0  0  0  0  0
   17.5464   21.3039   75.1403 H   0  0  0  0  0
   15.6395   18.0460   75.6174 H   0  0  0  0  0
   17.4096   17.7886   75.8302 H   0  0  0  0  0
   15.9001   17.2434   73.2711 H   0  0  0  0  0
   16.2599   15.9985   74.5396 H   0  0  0  0  0
   16.1411   15.1435   72.1050 H   0  0  0  0  0
   16.5500   14.2868   69.7335 H   0  0  0  0  0
   18.7015   14.9016   68.5119 H   0  0  0  0  0
   21.1012   18.7459   74.2616 H   0  0  0  0  0
   21.6840   19.5353   72.7756 H   0  0  0  0  0
   20.3494   20.2610   73.7047 H   0  0  0  0  0
   21.1951   16.9794   70.1119 H   0  0  0  0  0
  1  2  1  0  0  0
  1  5  1  0  0  0
  9  1  1  0  0  0
  2  3  1  0  0  0
  4  3  1  0  0  0
  3  8  2  0  0  0
  5  4  1  0  0  0
  5  6  2  0  0  0
  5  7  2  0  0  0
 10  9  4  0  0  0
 14  9  4  0  0  0
 11 10  4  0  0  0
 12 11  4  0  0  0
 12 13  4  0  0  0
 15 12  1  0  0  0
 13 14  4  0  0  0
 14 33  1  0  0  0
 16 15  1  0  0  0
 16 17  1  0  0  0
 23 16  1  0  0  0
 17 18  1  0  0  0
 18 19  2  0  0  0
 18 20  2  0  0  0
 18 27  1  0  0  0
 21 22  1  0  0  0
 31 21  1  0  0  0
 22 23  1  0  0  0
 23 32  2  0  0  0
 24 25  4  0  0  0
 26 24  4  0  0  0
 29 25  4  0  0  0
 27 26  4  0  0  0
 27 28  4  0  0  0
 28 29  4  0  0  0
 30 31  1  0  0  0
 34 30  1  0  0  0
 35 34  1  0  0  0
 47 35  1  0  0  0
 36 37  4  0  0  0
 36 41  4  0  0  0
 36 47  1  0  0  0
 37 38  4  0  0  0
 38 39  4  0  0  0
 39 40  4  0  0  0
 40 41  4  0  0  0
 40 46  1  0  0  0
 41 42  1  0  0  0
 42 43  2  0  0  0
 42 44  1  0  0  0
 44 45  1  0  0  0
  1 48  1  0  0  0
  2 49  1  0  0  0
  2 50  1  0  0  0
  4 51  1  0  0  0
 10 52  1  0  0  0
 11 53  1  0  0  0
 13 54  1  0  0  0
 15 55  1  0  0  0
 15 56  1  0  0  0
 16 57  1  0  0  0
 17 58  1  0  0  0
 21 59  1  0  0  0
 21 60  1  0  0  0
 22 61  1  0  0  0
 24 62  1  0  0  0
 25 63  1  0  0  0
 26 64  1  0  0  0
 28 65  1  0  0  0
 29 66  1  0  0  0
 30 67  1  0  0  0
 30 68  1  0  0  0
 31 69  1  0  0  0
 31 70  1  0  0  0
 34 71  1  0  0  0
 34 72  1  0  0  0
 35 73  1  0  0  0
 35 74  1  0  0  0
 37 75  1  0  0  0
 38 76  1  0  0  0
 39 77  1  0  0  0
 45 78  1  0  0  0
 45 79  1  0  0  0
 45 80  1  0  0  0
 46 81  1  0  0  0
M  END
$$$$
