2z6w_ligand
  -I-interpret- 

196196  0  0  0  0  0  0  0  0999 V2000
   -2.7700    4.7820    8.9110 N   0  0  0  0  0
   -1.3000    4.5760    9.0020 C   0  0  0  0  0
   -3.3290    6.0730    9.2740 C   0  0  0  0  0
   -2.8880    7.1720    8.2880 C   0  0  0  0  0
   -2.0990    6.9530    7.3650 O   0  0  0  0  0
   -3.0510    6.4890   10.7450 C   0  0  0  0  0
   -1.6840    6.8800   10.8160 O   0  0  0  0  0
   -3.4180    5.3960   11.7720 C   0  0  0  0  0
   -4.8870    4.9750   11.6330 C   0  0  0  0  0
   -3.1310    5.8660   13.2200 C   0  0  0  0  0
   -4.0050    6.9910   13.6970 C   0  0  0  0  0
   -3.4370    8.2200   14.0980 C   0  0  0  0  0
   -4.2750    9.3760   14.5900 C   0  0  0  0  0
   -3.4940    8.3650    8.5110 N   0  0  0  0  0
   -3.4620    9.4900    7.5710 C   0  0  0  0  0
   -2.9360   10.7270    8.3010 C   0  0  0  0  0
   -3.7040   11.6280    8.6100 O   0  0  0  0  0
   -4.8640    9.7250    6.9870 C   0  0  0  0  0
   -5.3680    8.5370    6.2270 C   0  0  0  0  0
   -1.6210   10.7910    8.5970 N   0  0  0  0  0
   -1.0840   11.9980    9.2380 C   0  0  0  0  0
   -0.0830   11.6480   10.3120 C   0  0  0  0  0
    1.1190   11.9600   10.1530 O   0  0  0  0  0
   -0.6580    9.7780    8.2000 C   0  0  0  0  0
   -0.4800   10.9330   11.3740 N   0  0  0  0  0
   -1.8880   10.5130   11.5420 C   0  0  0  0  0
    0.5620   10.4750   12.3310 C   0  0  0  0  0
    0.4420   10.7880   13.8390 C   0  0  0  0  0
    0.4850   12.2270   14.2920 C   0  0  0  0  0
    0.4620   12.2600   15.8190 C   0  0  0  0  0
    1.7410   12.9230   13.8290 C   0  0  0  0  0
    0.6160    8.9800   12.2320 C   0  0  0  0  0
   -0.2430    8.2650   12.7700 O   0  0  0  0  0
    1.5930    8.4820   11.4910 N   0  0  0  0  0
    1.7540    7.0590   11.2950 C   0  0  0  0  0
    2.2380    6.4500   12.6110 C   0  0  0  0  0
    3.2100    6.9730   13.1730 O   0  0  0  0  0
    2.7560    6.7810   10.1370 C   0  0  0  0  0
    3.0320    5.2700    9.9800 C   0  0  0  0  0
    2.2280    7.3690    8.8250 C   0  0  0  0  0
    1.6000    5.4030   13.1330 N   0  0  0  0  0
    0.5250    4.6940   12.4490 C   0  0  0  0  0
    2.0040    4.9160   14.4810 C   0  0  0  0  0
    0.7980    4.8390   15.4100 C   0  0  0  0  0
   -0.0320    6.1000   15.4950 C   0  0  0  0  0
   -1.2590    5.8920   16.3610 C   0  0  0  0  0
    0.7360    7.3300   15.9410 C   0  0  0  0  0
    2.7300    3.5790   14.3490 C   0  0  0  0  0
    2.7860    2.9480   13.2700 O   0  0  0  0  0
    3.3170    3.1340   15.4610 N   0  0  0  0  0
    4.0520    1.8780   15.4860 C   0  0  0  0  0
    3.1390    0.6770   15.1700 C   0  0  0  0  0
    1.9540    0.6570   15.5010 O   0  0  0  0  0
    4.6820    1.7110   16.8280 C   0  0  0  0  0
    3.7360   -0.3590   14.6110 N   0  0  0  0  0
    3.0570   -1.6490   14.3710 C   0  0  0  0  0
    3.9780   -2.8100   14.6810 C   0  0  0  0  0
    2.6400   -1.7390   12.9110 C   0  0  0  0  0
    3.4230   -1.3710   12.0430 O   0  0  0  0  0
    1.4400   -2.2830   12.6210 N   0  0  0  0  0
    0.5510   -2.8110   13.6690 C   0  0  0  0  0
    0.9910   -2.4360   11.1980 C   0  0  0  0  0
    0.8350   -3.8950   10.7760 C   0  0  0  0  0
    2.1860   -4.6700   10.7350 C   0  0  0  0  0
    1.9230   -6.1140   10.3770 C   0  0  0  0  0
    3.1710   -4.1040    9.7460 C   0  0  0  0  0
   -0.3300   -1.6690   11.0500 C   0  0  0  0  0
   -1.4070   -2.2990   11.0060 O   0  0  0  0  0
   -0.3080   -0.3300   11.0140 N   0  0  0  0  0
    0.9510    0.4330   11.1910 C   0  0  0  0  0
   -1.5540    0.4290   10.9530 C   0  0  0  0  0
   -1.7140    1.3570   12.1740 C   0  0  0  0  0
   -1.6570    0.6100   13.5040 C   0  0  0  0  0
   -1.5010    1.5980   14.6460 C   0  0  0  0  0
   -2.8930   -0.2440   13.6960 C   0  0  0  0  0
   -1.6750    1.1590    9.6080 C   0  0  0  0  0
   -0.6990    1.2520    8.8580 O   0  0  0  0  0
   -2.8690    1.6970    9.2990 N   0  0  0  0  0
   -4.1280    1.4540   10.0360 C   0  0  0  0  0
   -3.0220    2.4730    8.0540 C   0  0  0  0  0
   -3.8600    1.7620    6.9730 C   0  0  0  0  0
   -3.5990    2.4960    5.6480 C   0  0  0  0  0
   -3.4770    0.3020    6.8310 C   0  0  0  0  0
   -3.6180    3.8440    8.3800 C   0  0  0  0  0
   -4.8340    4.0770    8.2150 O   0  0  0  0  0
   -1.0947    3.6975    9.6137 H   0  0  0  0  0
   -0.8927    4.4273    8.0020 H   0  0  0  0  0
   -0.8390    5.4528    9.4568 H   0  0  0  0  0
   -4.4102    5.9555    9.2015 H   0  0  0  0  0
   -3.6973    7.3224   11.0205 H   0  0  0  0  0
   -1.5118    7.5584   10.1589 H   0  0  0  0  0
   -2.7901    4.5302   11.5617 H   0  0  0  0  0
   -5.0960    4.1569   12.3224 H   0  0  0  0  0
   -5.5304    5.8230   11.8677 H   0  0  0  0  0
   -5.0745    4.6471   10.6105 H   0  0  0  0  0
   -2.1041    6.2311   13.2384 H   0  0  0  0  0
   -3.3218    5.0154   13.8743 H   0  0  0  0  0
   -5.0862    6.8575   13.7338 H   0  0  0  0  0
   -2.3545    8.3386   14.0507 H   0  0  0  0  0
   -4.9714    9.6772   13.8075 H   0  0  0  0  0
   -4.8319    9.0686   15.4751 H   0  0  0  0  0
   -3.6244   10.2137   14.8413 H   0  0  0  0  0
   -4.0032    8.4870    9.3863 H   0  0  0  0  0
   -2.7953    9.2704    6.7371 H   0  0  0  0  0
   -4.8072   10.5682    6.2987 H   0  0  0  0  0
   -5.5483    9.9131    7.8143 H   0  0  0  0  0
   -4.6893    8.3204    5.4020 H   0  0  0  0  0
   -5.4185    7.6758    6.8932 H   0  0  0  0  0
   -6.3617    8.7532    5.8346 H   0  0  0  0  0
   -1.9085   12.5441    9.6963 H   0  0  0  0  0
   -0.5837   12.6006    8.4799 H   0  0  0  0  0
   -0.9427    8.8187    8.6321 H   0  0  0  0  0
   -0.6436    9.6984    7.1130 H   0  0  0  0  0
    0.3322   10.0597    8.5581 H   0  0  0  0  0
   -2.5265   11.3954   11.5838 H   0  0  0  0  0
   -2.1829    9.8892   10.6982 H   0  0  0  0  0
   -1.9887    9.9459   12.4674 H   0  0  0  0  0
    1.4351   11.0473   12.0175 H   0  0  0  0  0
    1.3175   10.3239   14.2931 H   0  0  0  0  0
   -0.5492   10.4336   14.1218 H   0  0  0  0  0
   -0.3758   12.7404   13.8636 H   0  0  0  0  0
   -0.4512   11.7852   16.1777 H   0  0  0  0  0
    1.3282   11.7232   16.2058 H   0  0  0  0  0
    0.4927   13.2951   16.1593 H   0  0  0  0  0
    2.6112   12.4090   14.2372 H   0  0  0  0  0
    1.7845   12.9050   12.7400 H   0  0  0  0  0
    1.7315   13.9561   14.1765 H   0  0  0  0  0
    2.2515    9.1209   11.0453 H   0  0  0  0  0
    0.8048    6.6034   11.0128 H   0  0  0  0  0
    3.6997    7.2659   10.3867 H   0  0  0  0  0
    3.4564    4.8814   10.9057 H   0  0  0  0  0
    2.0981    4.7522    9.7614 H   0  0  0  0  0
    3.7357    5.1135    9.1624 H   0  0  0  0  0
    1.2684    6.9118    8.5836 H   0  0  0  0  0
    2.1012    8.4459    8.9360 H   0  0  0  0  0
    2.9400    7.1662    8.0249 H   0  0  0  0  0
   -0.2939    5.3848   12.2482 H   0  0  0  0  0
    0.8992    4.2890   11.5088 H   0  0  0  0  0
    0.1689    3.8801   13.0805 H   0  0  0  0  0
    2.6983    5.6244   14.9330 H   0  0  0  0  0
    1.1861    4.6522   16.4113 H   0  0  0  0  0
    0.1458    4.0617   15.0118 H   0  0  0  0  0
   -0.3434    6.3032   14.4704 H   0  0  0  0  0
   -1.8732    5.0990   15.9342 H   0  0  0  0  0
   -0.9485    5.6111   17.3674 H   0  0  0  0  0
   -1.8344    6.8169   16.4018 H   0  0  0  0  0
    1.1527    7.1566   16.9332 H   0  0  0  0  0
    1.5433    7.5281   15.2360 H   0  0  0  0  0
    0.0618    8.1859   15.9732 H   0  0  0  0  0
    3.2491    3.6876   16.3150 H   0  0  0  0  0
    4.8211    1.9101   14.7143 H   0  0  0  0  0
    5.3641    2.5407   17.0135 H   0  0  0  0  0
    3.9059    1.6989   17.5933 H   0  0  0  0  0
    5.2346    0.7718   16.8542 H   0  0  0  0  0
    4.7124   -0.2645   14.3315 H   0  0  0  0  0
    2.1846   -1.7008   15.0224 H   0  0  0  0  0
    4.8597   -2.7532   14.0426 H   0  0  0  0  0
    4.2814   -2.7622   15.7268 H   0  0  0  0  0
    3.4536   -3.7475   14.4960 H   0  0  0  0  0
    1.0597   -3.6118   14.2056 H   0  0  0  0  0
    0.2957   -2.0111   14.3641 H   0  0  0  0  0
   -0.3583   -3.1996   13.2105 H   0  0  0  0  0
    1.7547   -2.0288   10.5353 H   0  0  0  0  0
    0.4180   -3.9048    9.7690 H   0  0  0  0  0
    0.1955   -4.3847   11.5104 H   0  0  0  0  0
    2.6287   -4.5756   11.7265 H   0  0  0  0  0
    1.2688   -6.5595   11.1265 H   0  0  0  0  0
    1.4438   -6.1631    9.3992 H   0  0  0  0  0
    2.8673   -6.6576   10.3479 H   0  0  0  0  0
    2.7411   -4.1414    8.7451 H   0  0  0  0  0
    3.3941   -3.0699   10.0086 H   0  0  0  0  0
    4.0881   -4.6926    9.7711 H   0  0  0  0  0
    1.3785    0.2047   12.1673 H   0  0  0  0  0
    1.6571    0.1529   10.4093 H   0  0  0  0  0
    0.7397    1.5003   11.1260 H   0  0  0  0  0
   -2.3912   -0.2670   11.0061 H   0  0  0  0  0
   -2.6919    1.8332   12.1027 H   0  0  0  0  0
   -0.8899    2.0702   12.1587 H   0  0  0  0  0
   -0.7924   -0.0537   13.4951 H   0  0  0  0  0
   -0.5794    2.1643   14.5115 H   0  0  0  0  0
   -2.3507    2.2807   14.6528 H   0  0  0  0  0
   -1.4613    1.0559   15.5908 H   0  0  0  0  0
   -3.7777    0.3926   13.6880 H   0  0  0  0  0
   -2.9598   -0.9713   12.8869 H   0  0  0  0  0
   -2.8278   -0.7657   14.6508 H   0  0  0  0  0
   -4.3621    0.3897   10.0117 H   0  0  0  0  0
   -4.0105    1.7780   11.0701 H   0  0  0  0  0
   -4.9360    2.0159    9.5675 H   0  0  0  0  0
   -2.0254    2.5827    7.6264 H   0  0  0  0  0
   -4.9137    1.7885    7.2506 H   0  0  0  0  0
   -3.9006    3.5388    5.7463 H   0  0  0  0  0
   -2.5368    2.4446    5.4088 H   0  0  0  0  0
   -4.1752    2.0232    4.8526 H   0  0  0  0  0
   -2.4258    0.2289    6.5521 H   0  0  0  0  0
   -3.6388   -0.2087    7.7803 H   0  0  0  0  0
   -4.0920   -0.1602    6.0589 H   0  0  0  0  0
  1  2  1  0  0  0
  1  3  1  0  0  0
  1 84  1  0  0  0
  3  4  1  0  0  0
  3  6  1  0  0  0
  4  5  2  0  0  0
  4 14  1  0  0  0
  6  7  1  0  0  0
  6  8  1  0  0  0
  8  9  1  0  0  0
  8 10  1  0  0  0
 10 11  1  0  0  0
 11 12  2  0  0  0
 12 13  1  0  0  0
 14 15  1  0  0  0
 15 16  1  0  0  0
 15 18  1  0  0  0
 16 17  2  0  0  0
 16 20  1  0  0  0
 18 19  1  0  0  0
 20 21  1  0  0  0
 20 24  1  0  0  0
 21 22  1  0  0  0
 22 23  2  0  0  0
 22 25  1  0  0  0
 25 26  1  0  0  0
 25 27  1  0  0  0
 27 28  1  0  0  0
 27 32  1  0  0  0
 28 29  1  0  0  0
 29 30  1  0  0  0
 29 31  1  0  0  0
 32 33  2  0  0  0
 32 34  1  0  0  0
 34 35  1  0  0  0
 35 36  1  0  0  0
 35 38  1  0  0  0
 36 37  2  0  0  0
 36 41  1  0  0  0
 38 39  1  0  0  0
 38 40  1  0  0  0
 41 42  1  0  0  0
 41 43  1  0  0  0
 43 44  1  0  0  0
 43 48  1  0  0  0
 44 45  1  0  0  0
 45 46  1  0  0  0
 45 47  1  0  0  0
 48 49  2  0  0  0
 48 50  1  0  0  0
 50 51  1  0  0  0
 51 52  1  0  0  0
 51 54  1  0  0  0
 52 53  2  0  0  0
 52 55  1  0  0  0
 55 56  1  0  0  0
 56 57  1  0  0  0
 56 58  1  0  0  0
 58 59  2  0  0  0
 58 60  1  0  0  0
 60 61  1  0  0  0
 60 62  1  0  0  0
 62 63  1  0  0  0
 62 67  1  0  0  0
 63 64  1  0  0  0
 64 65  1  0  0  0
 64 66  1  0  0  0
 67 68  2  0  0  0
 67 69  1  0  0  0
 69 70  1  0  0  0
 69 71  1  0  0  0
 71 72  1  0  0  0
 71 76  1  0  0  0
 72 73  1  0  0  0
 73 74  1  0  0  0
 73 75  1  0  0  0
 76 77  2  0  0  0
 76 78  1  0  0  0
 78 79  1  0  0  0
 78 80  1  0  0  0
 80 81  1  0  0  0
 80 84  1  0  0  0
 81 82  1  0  0  0
 81 83  1  0  0  0
 84 85  2  0  0  0
  2 86  1  0  0  0
  2 87  1  0  0  0
  2 88  1  0  0  0
  3 89  1  0  0  0
  6 90  1  0  0  0
  7 91  1  0  0  0
  8 92  1  0  0  0
  9 93  1  0  0  0
  9 94  1  0  0  0
  9 95  1  0  0  0
 10 96  1  0  0  0
 10 97  1  0  0  0
 11 98  1  0  0  0
 12 99  1  0  0  0
 13100  1  0  0  0
 13101  1  0  0  0
 13102  1  0  0  0
 14103  1  0  0  0
 15104  1  0  0  0
 18105  1  0  0  0
 18106  1  0  0  0
 19107  1  0  0  0
 19108  1  0  0  0
 19109  1  0  0  0
 21110  1  0  0  0
 21111  1  0  0  0
 24112  1  0  0  0
 24113  1  0  0  0
 24114  1  0  0  0
 26115  1  0  0  0
 26116  1  0  0  0
 26117  1  0  0  0
 27118  1  0  0  0
 28119  1  0  0  0
 28120  1  0  0  0
 29121  1  0  0  0
 30122  1  0  0  0
 30123  1  0  0  0
 30124  1  0  0  0
 31125  1  0  0  0
 31126  1  0  0  0
 31127  1  0  0  0
 34128  1  0  0  0
 35129  1  0  0  0
 38130  1  0  0  0
 39131  1  0  0  0
 39132  1  0  0  0
 39133  1  0  0  0
 40134  1  0  0  0
 40135  1  0  0  0
 40136  1  0  0  0
 42137  1  0  0  0
 42138  1  0  0  0
 42139  1  0  0  0
 43140  1  0  0  0
 44141  1  0  0  0
 44142  1  0  0  0
 45143  1  0  0  0
 46144  1  0  0  0
 46145  1  0  0  0
 46146  1  0  0  0
 47147  1  0  0  0
 47148  1  0  0  0
 47149  1  0  0  0
 50150  1  0  0  0
 51151  1  0  0  0
 54152  1  0  0  0
 54153  1  0  0  0
 54154  1  0  0  0
 55155  1  0  0  0
 56156  1  0  0  0
 57157  1  0  0  0
 57158  1  0  0  0
 57159  1  0  0  0
 61160  1  0  0  0
 61161  1  0  0  0
 61162  1  0  0  0
 62163  1  0  0  0
 63164  1  0  0  0
 63165  1  0  0  0
 64166  1  0  0  0
 65167  1  0  0  0
 65168  1  0  0  0
 65169  1  0  0  0
 66170  1  0  0  0
 66171  1  0  0  0
 66172  1  0  0  0
 70173  1  0  0  0
 70174  1  0  0  0
 70175  1  0  0  0
 71176  1  0  0  0
 72177  1  0  0  0
 72178  1  0  0  0
 73179  1  0  0  0
 74180  1  0  0  0
 74181  1  0  0  0
 74182  1  0  0  0
 75183  1  0  0  0
 75184  1  0  0  0
 75185  1  0  0  0
 79186  1  0  0  0
 79187  1  0  0  0
 79188  1  0  0  0
 80189  1  0  0  0
 81190  1  0  0  0
 82191  1  0  0  0
 82192  1  0  0  0
 82193  1  0  0  0
 83194  1  0  0  0
 83195  1  0  0  0
 83196  1  0  0  0
M  END
$$$$
