### 
### Created by X-TOOL on Mon Sep 10 21:12:57 2018
### 

@<TRIPOS>MOLECULE
2z6w_ligand
  196   196     1     0     0
SMALL
GAST_HUCK


@<TRIPOS>ATOM
      1 N          -2.7700    4.7820    8.9110 N.am      1 BMT        -0.2503
      2 CN         -1.3000    4.5760    9.0020 C.3       1 BMT         0.0255
      3 CA         -3.3290    6.0730    9.2740 C.3       1 BMT         0.1594
      4 C          -2.8880    7.1720    8.2880 C.2       1 BMT         0.2067
      5 O          -2.0990    6.9530    7.3650 O.2       1 BMT        -0.3943
      6 CB         -3.0510    6.4890   10.7450 C.3       1 BMT         0.0994
      7 OG1        -1.6840    6.8800   10.8160 O.3       1 BMT        -0.3867
      8 CG2        -3.4180    5.3960   11.7720 C.3       1 BMT        -0.0069
      9 CD1        -4.8870    4.9750   11.6330 C.3       1 BMT        -0.0583
     10 CD2        -3.1310    5.8660   13.2200 C.3       1 BMT        -0.0313
     11 CE         -4.0050    6.9910   13.6970 C.2       1 BMT        -0.0986
     12 CZ         -3.4370    8.2200   14.0980 C.2       1 BMT        -0.1017
     13 CH         -4.2750    9.3760   14.5900 C.3       1 BMT        -0.0486
     14 N          -3.4940    8.3650    8.5110 N.am      1 ABA        -0.2636
     15 CA         -3.4620    9.4900    7.5710 C.3       1 ABA         0.1309
     16 C          -2.9360   10.7270    8.3010 C.2       1 ABA         0.2059
     17 O          -3.7040   11.6280    8.6100 O.2       1 ABA        -0.3942
     18 CB         -4.8640    9.7250    6.9870 C.3       1 ABA        -0.0152
     19 CG         -5.3680    8.5370    6.2270 C.3       1 ABA        -0.0610
     20 N          -1.6210   10.7910    8.5970 N.am      1 SAR        -0.2556
     21 CA         -1.0840   11.9980    9.2380 C.3       1 SAR         0.1227
     22 C          -0.0830   11.6480   10.3120 C.2       1 SAR         0.2032
     23 O           1.1190   11.9600   10.1530 O.2       1 SAR        -0.3945
     24 CN         -0.6580    9.7780    8.2000 C.3       1 SAR         0.0252
     25 N          -0.4800   10.9330   11.3740 N.am      1 MLE        -0.2531
     26 CN         -1.8880   10.5130   11.5420 C.3       1 MLE         0.0254
     27 CA          0.5620   10.4750   12.3310 C.3       1 MLE         0.1336
     28 CB          0.4420   10.7880   13.8390 C.3       1 MLE        -0.0099
     29 CG          0.4850   12.2270   14.2920 C.3       1 MLE        -0.0425
     30 CD1         0.4620   12.2600   15.8190 C.3       1 MLE        -0.0625
     31 CD2         1.7410   12.9230   13.8290 C.3       1 MLE        -0.0625
     32 C           0.6160    8.9800   12.2320 C.2       1 MLE         0.2041
     33 O          -0.2430    8.2650   12.7700 O.2       1 MLE        -0.3944
     34 N           1.5930    8.4820   11.4910 N.am      1 VAL        -0.2635
     35 CA          1.7540    7.0590   11.2950 C.3       1 VAL         0.1334
     36 C           2.2380    6.4500   12.6110 C.2       1 VAL         0.2064
     37 O           3.2100    6.9730   13.1730 O.2       1 VAL        -0.3942
     38 CB          2.7560    6.7810   10.1370 C.3       1 VAL        -0.0062
     39 CG1         3.0320    5.2700    9.9800 C.3       1 VAL        -0.0584
     40 CG2         2.2280    7.3690    8.8250 C.3       1 VAL        -0.0584
     41 N           1.6000    5.4030   13.1330 N.am      1 MLE        -0.2529
     42 CN          0.5250    4.6940   12.4490 C.3       1 MLE         0.0254
     43 CA          2.0040    4.9160   14.4810 C.3       1 MLE         0.1336
     44 CB          0.7980    4.8390   15.4100 C.3       1 MLE        -0.0099
     45 CG         -0.0320    6.1000   15.4950 C.3       1 MLE        -0.0425
     46 CD1        -1.2590    5.8920   16.3610 C.3       1 MLE        -0.0625
     47 CD2         0.7360    7.3300   15.9410 C.3       1 MLE        -0.0625
     48 C           2.7300    3.5790   14.3490 C.2       1 MLE         0.2041
     49 O           2.7860    2.9480   13.2700 O.2       1 MLE        -0.3944
     50 N           3.3170    3.1340   15.4610 N.am      1 ALA        -0.2640
     51 CA          4.0520    1.8780   15.4860 C.3       1 ALA         0.1282
     52 C           3.1390    0.6770   15.1700 C.2       1 ALA         0.2036
     53 O           1.9540    0.6570   15.5010 O.2       1 ALA        -0.3944
     54 CB          4.6820    1.7110   16.8280 C.3       1 ALA        -0.0244
     55 N           3.7360   -0.3590   14.6110 N.am      1 DAL        -0.2640
     56 CA          3.0570   -1.6490   14.3710 C.3       1 DAL         0.1284
     57 CB          3.9780   -2.8100   14.6810 C.3       1 DAL        -0.0244
     58 C           2.6400   -1.7390   12.9110 C.2       1 DAL         0.2059
     59 O           3.4230   -1.3710   12.0430 O.2       1 DAL        -0.3942
     60 N           1.4400   -2.2830   12.6210 N.am      1 MLE        -0.2529
     61 CN          0.5510   -2.8110   13.6690 C.3       1 MLE         0.0254
     62 CA          0.9910   -2.4360   11.1980 C.3       1 MLE         0.1338
     63 CB          0.8350   -3.8950   10.7760 C.3       1 MLE        -0.0099
     64 CG          2.1860   -4.6700   10.7350 C.3       1 MLE        -0.0425
     65 CD1         1.9230   -6.1140   10.3770 C.3       1 MLE        -0.0625
     66 CD2         3.1710   -4.1040    9.7460 C.3       1 MLE        -0.0625
     67 C          -0.3300   -1.6690   11.0500 C.2       1 MLE         0.2064
     68 O          -1.4070   -2.2990   11.0060 O.2       1 MLE        -0.3942
     69 N          -0.3080   -0.3300   11.0140 N.am      1 MLE        -0.2529
     70 CN          0.9510    0.4330   11.1910 C.3       1 MLE         0.0254
     71 CA         -1.5540    0.4290   10.9530 C.3       1 MLE         0.1338
     72 CB         -1.7140    1.3570   12.1740 C.3       1 MLE        -0.0099
     73 CG         -1.6570    0.6100   13.5040 C.3       1 MLE        -0.0425
     74 CD1        -1.5010    1.5980   14.6460 C.3       1 MLE        -0.0625
     75 CD2        -2.8930   -0.2440   13.6960 C.3       1 MLE        -0.0625
     76 C          -1.6750    1.1590    9.6080 C.2       1 MLE         0.2064
     77 O          -0.6990    1.2520    8.8580 O.2       1 MLE        -0.3942
     78 N          -2.8690    1.6970    9.2990 N.am      1 MVA        -0.2526
     79 CN         -4.1280    1.4540   10.0360 C.3       1 MVA         0.0254
     80 CA         -3.0220    2.4730    8.0540 C.3       1 MVA         0.1359
     81 CB         -3.8600    1.7620    6.9730 C.3       1 MVA        -0.0061
     82 CG1        -3.5990    2.4960    5.6480 C.3       1 MVA        -0.0584
     83 CG2        -3.4770    0.3020    6.8310 C.3       1 MVA        -0.0584
     84 C          -3.6180    3.8440    8.3800 C.2       1 MVA         0.2067
     85 O          -4.8340    4.0770    8.2150 O.2       1 MVA        -0.3942
     86 H1         -0.8336    5.4603    9.4608 H         1 BMT         0.0488
     87 H2         -0.8876    4.4258    7.9934 H         1 BMT         0.0488
     88 H3         -1.0914    3.6897    9.6192 H         1 BMT         0.0488
     89 H4         -4.4207    5.9768    9.1792 H         1 BMT         0.0828
     90 H5         -3.6722    7.3671   10.9752 H         1 BMT         0.0646
     91 H6         -1.4766    7.1423   11.7052 H         1 BMT         0.2101
     92 H7         -2.7898    4.5164   11.5680 H         1 BMT         0.0345
     93 H8         -5.1174    4.1973   12.3761 H         1 BMT         0.0235
     94 H9         -5.0608    4.5787   10.6217 H         1 BMT         0.0235
     95 H10        -5.5359    5.8470   11.8017 H         1 BMT         0.0235
     96 H11        -2.0840    6.1994   13.2714 H         1 BMT         0.0391
     97 H12        -3.2764    5.0090   13.8941 H         1 BMT         0.0391
     98 H13        -5.0852    6.8576   13.7338 H         1 BMT         0.0450
     99 H14        -2.3555    8.3385   14.0508 H         1 BMT         0.0447
    100 H15        -3.6195   10.2221   14.8439 H         1 BMT         0.0353
    101 H16        -4.8375    9.0670   15.4834 H         1 BMT         0.0353
    102 H17        -4.9783    9.6810   13.8011 H         1 BMT         0.0353
    103 H18        -3.9932    8.4846    9.3692 H         1 ABA         0.1883
    104 H19        -2.7762    9.2494    6.7453 H         1 ABA         0.0800
    105 H20        -4.8242   10.5891    6.3075 H         1 ABA         0.0310
    106 H21        -5.5598    9.9388    7.8117 H         1 ABA         0.0310
    107 H22        -6.3708    8.7540    5.8304 H         1 ABA         0.0232
    108 H23        -5.4195    7.6671    6.8983 H         1 ABA         0.0232
    109 H24        -4.6839    8.3174    5.3940 H         1 ABA         0.0232
    110 H25        -1.9126   12.5626    9.6905 H         1 SAR         0.0765
    111 H26        -0.5900   12.6190    8.4762 H         1 SAR         0.0765
    112 H27        -1.1861    8.9321    7.7356 H         1 SAR         0.0488
    113 H28        -0.1097    9.4260    9.0862 H         1 SAR         0.0488
    114 H29         0.0507   10.2089    7.4775 H         1 SAR         0.0488
    115 H30        -2.4998   10.9524   10.7404 H         1 MLE         0.0488
    116 H31        -2.2597   10.8583   12.5180 H         1 MLE         0.0488
    117 H32        -1.9518    9.4160   11.4925 H         1 MLE         0.0488
    118 H33         1.5152   10.9050   11.9898 H         1 MLE         0.0802
    119 H34         1.2685   10.2662   14.3436 H         1 MLE         0.0315
    120 H35        -0.5172   10.3711   14.1797 H         1 MLE         0.0315
    121 H36        -0.3921   12.7573   13.8927 H         1 MLE         0.0298
    122 H37         0.4929   13.3042   16.1637 H         1 MLE         0.0232
    123 H38         1.3357   11.7186   16.2107 H         1 MLE         0.0232
    124 H39        -0.4592   11.7812   16.1823 H         1 MLE         0.0232
    125 H40         1.7818   12.9129   12.7298 H         1 MLE         0.0232
    126 H41         2.6203   12.4001   14.2333 H         1 MLE         0.0232
    127 H42         1.7367   13.9634   14.1862 H         1 MLE         0.0232
    128 H43         2.2385    9.1084   11.0540 H         1 VAL         0.1883
    129 H44         0.7819    6.6170   11.0311 H         1 VAL         0.0803
    130 H45         3.7066    7.2781   10.3804 H         1 VAL         0.0343
    131 H46         3.7421    5.1108    9.1551 H         1 VAL         0.0234
    132 H47         2.0902    4.7462    9.7593 H         1 VAL         0.0234
    133 H48         3.4604    4.8765   10.9136 H         1 VAL         0.0234
    134 H49         2.0374    8.4444    8.9557 H         1 VAL         0.0234
    135 H50         1.2925    6.8620    8.5462 H         1 VAL         0.0234
    136 H51         2.9750    7.2229    8.0308 H         1 VAL         0.0234
    137 H52         0.3391    5.1643   11.4722 H         1 MLE         0.0488
    138 H53        -0.3899    4.7396   13.0579 H         1 MLE         0.0488
    139 H54         0.8149    3.6433   12.3008 H         1 MLE         0.0488
    140 H55         2.7101    5.6415   14.9112 H         1 MLE         0.0802
    141 H56         1.1618    4.6026   16.4208 H         1 MLE         0.0315
    142 H57         0.1468    4.0265   15.0553 H         1 MLE         0.0315
    143 H58        -0.3870    6.3069   14.4746 H         1 MLE         0.0298
    144 H59        -1.8405    6.8248   16.4030 H         1 MLE         0.0232
    145 H60        -0.9470    5.6085   17.3770 H         1 MLE         0.0232
    146 H61        -1.8797    5.0920   15.9313 H         1 MLE         0.0232
    147 H62         1.6206    7.4621   15.3006 H         1 MLE         0.0232
    148 H63         1.0554    7.2039   16.9860 H         1 MLE         0.0232
    149 H64         0.0889    8.2158   15.8597 H         1 MLE         0.0232
    150 H65         3.2504    3.6768   16.2982 H         1 ALA         0.1883
    151 H66         4.8442    1.9201   14.7240 H         1 ALA         0.0797
    152 H67         5.2400    0.7635   16.8557 H         1 ALA         0.0277
    153 H68         3.8998    1.6986   17.6013 H         1 ALA         0.0277
    154 H69         5.3707    2.5477   17.0165 H         1 ALA         0.0277
    155 H70         4.6932   -0.2664   14.3369 H         1 DAL         0.1883
    156 H71         2.1658   -1.7112   15.0128 H         1 DAL         0.0797
    157 H72         3.4499   -3.7568   14.4946 H         1 DAL         0.0277
    158 H73         4.2849   -2.7629   15.7362 H         1 DAL         0.0277
    159 H74         4.8682   -2.7539   14.0373 H         1 DAL         0.0277
    160 H75         1.0015   -2.6319   14.6564 H         1 MLE         0.0488
    161 H76         0.4108   -3.8919   13.5206 H         1 MLE         0.0488
    162 H77        -0.4234   -2.3037   13.6131 H         1 MLE         0.0488
    163 H78         1.7448   -1.9759   10.5423 H         1 MLE         0.0802
    164 H79         0.3857   -3.9225    9.7724 H         1 MLE         0.0315
    165 H80         0.1661   -4.3962   11.4911 H         1 MLE         0.0315
    166 H81         2.6377   -4.6238   11.7369 H         1 MLE         0.0298
    167 H82         2.8753   -6.6637   10.3473 H         1 MLE         0.0232
    168 H83         1.4394   -6.1650    9.3903 H         1 MLE         0.0232
    169 H84         1.2629   -6.5648   11.1327 H         1 MLE         0.0232
    170 H85         3.3741   -3.0514    9.9924 H         1 MLE         0.0232
    171 H86         2.7504   -4.1686    8.7317 H         1 MLE         0.0232
    172 H87         4.1079   -4.6786    9.7917 H         1 MLE         0.0232
    173 H88         1.8014   -0.2642   11.2191 H         1 MLE         0.0488
    174 H89         0.9083    0.9973   12.1342 H         1 MLE         0.0488
    175 H90         1.0775    1.1318   10.3510 H         1 MLE         0.0488
    176 H91        -2.3800   -0.2961   10.9978 H         1 MLE         0.0802
    177 H92        -2.6853    1.8681   12.1007 H         1 MLE         0.0315
    178 H93        -0.9052    2.1023   12.1559 H         1 MLE         0.0315
    179 H94        -0.7786   -0.0521   13.4940 H         1 MLE         0.0298
    180 H95        -1.4608    1.0521   15.6001 H         1 MLE         0.0232
    181 H96        -2.3580    2.2875   14.6540 H         1 MLE         0.0232
    182 H97        -0.5712    2.1702   14.5115 H         1 MLE         0.0232
    183 H98        -2.9843   -0.9505   12.8578 H         1 MLE         0.0232
    184 H99        -3.7830    0.4015   13.7301 H         1 MLE         0.0232
    185 H100       -2.8093   -0.8034   14.6394 H         1 MLE         0.0232
    186 H101       -3.9145    0.8715   10.9444 H         1 MVA         0.0488
    187 H102       -4.8251    0.8931    9.3961 H         1 MVA         0.0488
    188 H103       -4.5808    2.4166   10.3158 H         1 MVA         0.0488
    189 H104       -2.0162    2.6280    7.6365 H         1 MVA         0.0804
    190 H105       -4.9266    1.8275    7.2339 H         1 MVA         0.0343
    191 H106       -4.1800    2.0198    4.8444 H         1 MVA         0.0234
    192 H107       -2.5273    2.4448    5.4054 H         1 MVA         0.0234
    193 H108       -3.9030    3.5486    5.7458 H         1 MVA         0.0234
    194 H109       -3.6649   -0.2204    7.7806 H         1 MVA         0.0234
    195 H110       -2.4097    0.2260    6.5757 H         1 MVA         0.0234
    196 H111       -4.0785   -0.1590    6.0337 H         1 MVA         0.0234
@<TRIPOS>BOND
     1    1    2 1  
     2    1    3 1  
     3    1   84 am 
     4    3    4 1  
     5    3    6 1  
     6    4    5 2  
     7    4   14 am 
     8    6    7 1  
     9    6    8 1  
    10    8    9 1  
    11    8   10 1  
    12   10   11 1  
    13   11   12 2  
    14   12   13 1  
    15   14   15 1  
    16   15   16 1  
    17   15   18 1  
    18   16   17 2  
    19   16   20 am 
    20   18   19 1  
    21   20   21 1  
    22   20   24 1  
    23   21   22 1  
    24   22   23 2  
    25   22   25 am 
    26   25   26 1  
    27   25   27 1  
    28   27   28 1  
    29   27   32 1  
    30   28   29 1  
    31   29   30 1  
    32   29   31 1  
    33   32   33 2  
    34   32   34 am 
    35   34   35 1  
    36   35   36 1  
    37   35   38 1  
    38   36   37 2  
    39   36   41 am 
    40   38   39 1  
    41   38   40 1  
    42   41   42 1  
    43   41   43 1  
    44   43   44 1  
    45   43   48 1  
    46   44   45 1  
    47   45   46 1  
    48   45   47 1  
    49   48   49 2  
    50   48   50 am 
    51   50   51 1  
    52   51   52 1  
    53   51   54 1  
    54   52   53 2  
    55   52   55 am 
    56   55   56 1  
    57   56   57 1  
    58   56   58 1  
    59   58   59 2  
    60   58   60 am 
    61   60   61 1  
    62   60   62 1  
    63   62   63 1  
    64   62   67 1  
    65   63   64 1  
    66   64   65 1  
    67   64   66 1  
    68   67   68 2  
    69   67   69 am 
    70   69   70 1  
    71   69   71 1  
    72   71   72 1  
    73   71   76 1  
    74   72   73 1  
    75   73   74 1  
    76   73   75 1  
    77   76   77 2  
    78   76   78 am 
    79   78   79 1  
    80   78   80 1  
    81   80   81 1  
    82   80   84 1  
    83   81   82 1  
    84   81   83 1  
    85   84   85 2  
    86    2   86 1  
    87    2   87 1  
    88    2   88 1  
    89    3   89 1  
    90    6   90 1  
    91    7   91 1  
    92    8   92 1  
    93    9   93 1  
    94    9   94 1  
    95    9   95 1  
    96   10   96 1  
    97   10   97 1  
    98   11   98 1  
    99   12   99 1  
   100   13  100 1  
   101   13  101 1  
   102   13  102 1  
   103   14  103 1  
   104   15  104 1  
   105   18  105 1  
   106   18  106 1  
   107   19  107 1  
   108   19  108 1  
   109   19  109 1  
   110   21  110 1  
   111   21  111 1  
   112   24  112 1  
   113   24  113 1  
   114   24  114 1  
   115   26  115 1  
   116   26  116 1  
   117   26  117 1  
   118   27  118 1  
   119   28  119 1  
   120   28  120 1  
   121   29  121 1  
   122   30  122 1  
   123   30  123 1  
   124   30  124 1  
   125   31  125 1  
   126   31  126 1  
   127   31  127 1  
   128   34  128 1  
   129   35  129 1  
   130   38  130 1  
   131   39  131 1  
   132   39  132 1  
   133   39  133 1  
   134   40  134 1  
   135   40  135 1  
   136   40  136 1  
   137   42  137 1  
   138   42  138 1  
   139   42  139 1  
   140   43  140 1  
   141   44  141 1  
   142   44  142 1  
   143   45  143 1  
   144   46  144 1  
   145   46  145 1  
   146   46  146 1  
   147   47  147 1  
   148   47  148 1  
   149   47  149 1  
   150   50  150 1  
   151   51  151 1  
   152   54  152 1  
   153   54  153 1  
   154   54  154 1  
   155   55  155 1  
   156   56  156 1  
   157   57  157 1  
   158   57  158 1  
   159   57  159 1  
   160   61  160 1  
   161   61  161 1  
   162   61  162 1  
   163   62  163 1  
   164   63  164 1  
   165   63  165 1  
   166   64  166 1  
   167   65  167 1  
   168   65  168 1  
   169   65  169 1  
   170   66  170 1  
   171   66  171 1  
   172   66  172 1  
   173   70  173 1  
   174   70  174 1  
   175   70  175 1  
   176   71  176 1  
   177   72  177 1  
   178   72  178 1  
   179   73  179 1  
   180   74  180 1  
   181   74  181 1  
   182   74  182 1  
   183   75  183 1  
   184   75  184 1  
   185   75  185 1  
   186   79  186 1  
   187   79  187 1  
   188   79  188 1  
   189   80  189 1  
   190   81  190 1  
   191   82  191 1  
   192   82  192 1  
   193   82  193 1  
   194   83  194 1  
   195   83  195 1  
   196   83  196 1  
@<TRIPOS>SUBSTRUCTURE
     1 BMT         1

