### 
### Created by X-TOOL on Mon Sep 10 21:13:24 2018
### 

@<TRIPOS>MOLECULE
5csz_ligand
  167   169     1     0     0
SMALL
GAST_HUCK


@<TRIPOS>ATOM
      1 N         -32.4180    9.2750   87.3760 N.4       1 ASP         0.2391
      2 CA        -31.0360    8.7040   87.3630 C.3       1 ASP         0.0764
      3 C         -30.2590    9.0940   86.1060 C.2       1 ASP         0.2284
      4 O         -29.0660    8.7980   85.9870 O.2       1 ASP        -0.3906
      5 CB        -31.0760    7.1680   87.4360 C.3       1 ASP         0.0607
      6 CG        -31.9750    6.6360   88.5400 C.2       1 ASP         0.0425
      7 OD1       -31.7700    6.9780   89.7300 O.co2     1 ASP        -0.5686
      8 OD2       -32.8820    5.8440   88.2040 O.co2     1 ASP        -0.5686
      9 N         -30.9410    9.7570   85.1770 N.am      1 ALA        -0.2612
     10 CA        -30.4930    9.8250   83.7890 C.3       1 ALA         0.1283
     11 C         -29.8140   11.1230   83.3360 C.2       1 ALA         0.2036
     12 O         -29.0230   11.1010   82.4030 O.2       1 ALA        -0.3944
     13 CB        -31.6580    9.4740   82.8530 C.3       1 ALA        -0.0244
     14 N         -30.1150   12.2450   83.9860 N.am      1 GLU        -0.2636
     15 CA        -29.6420   13.5530   83.5180 C.3       1 GLU         0.1325
     16 C         -29.1480   14.4310   84.6790 C.2       1 GLU         0.2041
     17 O         -29.6110   14.2790   85.7950 O.2       1 GLU        -0.3944
     18 CB        -30.7700   14.2710   82.7520 C.3       1 GLU        -0.0008
     19 CG        -30.4870   15.7260   82.3410 C.3       1 GLU         0.0044
     20 CD        -29.3410   15.8920   81.3320 C.2       1 GLU         0.0350
     21 OE1       -28.1920   15.4530   81.5840 O.co2     1 GLU        -0.5690
     22 OE2       -29.5860   16.5100   80.2740 O.co2     1 GLU        -0.5690
     23 N         -28.2160   15.3340   84.4000 N.am      1 PHE        -0.2619
     24 CA        -27.7770   16.3250   85.3860 C.3       1 PHE         0.1404
     25 C         -28.4760   17.6670   85.2110 C.2       1 PHE         0.2060
     26 O         -28.7040   18.1230   84.0880 O.2       1 PHE        -0.3942
     27 CB        -26.2610   16.5280   85.3210 C.3       1 PHE         0.0214
     28 CG        -25.4820   15.3180   85.7220 C.ar      1 PHE        -0.0386
     29 CD1       -25.1900   15.0870   87.0590 C.ar      1 PHE        -0.0601
     30 CD2       -25.0490   14.4050   84.7670 C.ar      1 PHE        -0.0601
     31 CE1       -24.4610   13.9550   87.4490 C.ar      1 PHE        -0.0686
     32 CE2       -24.3280   13.2720   85.1420 C.ar      1 PHE        -0.0686
     33 CZ        -24.0370   13.0430   86.4810 C.ar      1 PHE        -0.0687
     34 N         -28.7980   18.2950   86.3370 N.am      1 ARG        -0.2636
     35 CA        -29.4180   19.6140   86.3490 C.3       1 ARG         0.1311
     36 C         -28.3890   20.6510   85.9330 C.2       1 ARG         0.2040
     37 O         -27.2740   20.6760   86.4500 O.2       1 ARG        -0.3944
     38 CB        -29.9910   19.9050   87.7410 C.3       1 ARG        -0.0092
     39 CG        -31.0140   21.0440   87.7900 C.3       1 ARG        -0.0156
     40 CD        -31.6540   21.1410   89.1840 C.3       1 ARG         0.0627
     41 NE        -32.5630   22.2880   89.2990 N.pl3     1 ARG        -0.2723
     42 CZ        -32.1860   23.5580   89.4280 C.cat     1 ARG         0.2882
     43 NH1       -30.8960   23.8970   89.4810 N.pl3     1 ARG        -0.2849
     44 NH2       -33.1160   24.5040   89.5110 N.pl3     1 ARG        -0.2849
     45 N         -28.7460   21.5010   84.9700 N.am      1 HIS        -0.2625
     46 CA        -27.8090   22.5100   84.4880 C.3       1 HIS         0.1369
     47 C         -28.5300   23.6580   83.7940 C.2       1 HIS         0.2054
     48 O         -29.6380   23.4740   83.2810 O.2       1 HIS        -0.3942
     49 CB        -26.8050   21.8720   83.5050 C.3       1 HIS         0.0145
     50 CG        -27.4450   21.3450   82.2590 C.2       1 HIS        -0.0027
     51 ND1       -28.2780   20.2470   82.2590 N.2       1 HIS        -0.3252
     52 CD2       -27.3990   21.7840   80.9810 C.2       1 HIS         0.0291
     53 CE1       -28.7140   20.0260   81.0310 C.2       1 HIS         0.0907
     54 NE2       -28.1930   20.9440   80.2350 N.pl3     1 HIS        -0.2752
     55 N         -27.8870   24.8250   83.7900 N.am      1 ASP        -0.2621
     56 CA        -28.2970   25.9650   82.9700 C.3       1 ASP         0.1423
     57 C         -27.9560   25.6650   81.5150 C.2       1 ASP         0.2057
     58 O         -26.9250   25.0420   81.2430 O.2       1 ASP        -0.3943
     59 CB        -27.5350   27.2300   83.3830 C.3       1 ASP         0.0406
     60 CG        -27.7580   27.6150   84.8330 C.2       1 ASP         0.0393
     61 OD1       -28.7820   27.2230   85.4250 O.co2     1 ASP        -0.5688
     62 OD2       -26.8990   28.3310   85.3830 O.co2     1 ASP        -0.5688
     63 N         -28.8050   26.1150   80.5880 N.am      1 SER        -0.2615
     64 CA        -28.5510   25.9640   79.1420 C.3       1 SER         0.1539
     65 C         -27.1870   26.5000   78.7620 C.2       1 SER         0.2060
     66 O         -26.7840   27.5620   79.2300 O.2       1 SER        -0.3943
     67 CB        -29.6040   26.7050   78.3170 C.3       1 SER         0.0843
     68 OG        -30.8960   26.1990   78.5720 O.3       1 SER        -0.3903
     69 N         -26.4770   25.7530   77.9220 N.am      1 GLY        -0.2663
     70 CA        -25.1700   26.1790   77.4250 C.3       1 GLY         0.1201
     71 C         -23.9650   25.7530   78.2520 C.2       1 GLY         0.2009
     72 O         -22.8230   25.9510   77.8340 O.2       1 GLY        -0.3947
     73 N         -24.1980   25.1760   79.4280 N.am      1 TYR        -0.2624
     74 CA        -23.0730   24.8160   80.2840 C.3       1 TYR         0.1390
     75 C         -22.1360   23.8250   79.5720 C.2       1 TYR         0.2052
     76 O         -22.5860   22.8010   79.0490 O.2       1 TYR        -0.3943
     77 CB        -23.5200   24.2540   81.6460 C.3       1 TYR         0.0163
     78 CG        -22.3100   23.9200   82.4840 C.ar      1 TYR        -0.0493
     79 CD1       -21.6960   24.8990   83.2700 C.ar      1 TYR        -0.0685
     80 CD2       -21.7270   22.6420   82.4260 C.ar      1 TYR        -0.0685
     81 CE1       -20.5560   24.6130   84.0040 C.ar      1 TYR        -0.0398
     82 CE2       -20.5810   22.3430   83.1630 C.ar      1 TYR        -0.0398
     83 CZ        -20.0020   23.3320   83.9470 C.ar      1 TYR         0.0805
     84 OH        -18.8680   23.0530   84.6730 O.3       1 TYR        -0.3376
     85 N         -20.8450   24.1420   79.5560 N.am      1 GLU        -0.2692
     86 CA        -19.8460   23.2790   78.9320 C.3       1 GLU         0.0959
     87 C         -19.0990   22.3800   79.9440 C.2       1 GLU         0.0602
     88 O         -18.3650   22.8770   80.8100 O.co2     1 GLU        -0.5666
     89 CB        -18.8720   24.1240   78.1000 C.3       1 GLU        -0.0064
     90 CG        -19.4910   24.6400   76.7880 C.3       1 GLU         0.0038
     91 CD        -18.7920   25.8720   76.2190 C.2       1 GLU         0.0350
     92 OE1       -17.6260   26.1390   76.5800 O.co2     1 GLU        -0.5690
     93 OE2       -19.4150   26.5780   75.3980 O.co2     1 GLU        -0.5690
     94 OXT       -19.2220   21.1470   79.9060 O.co2     1 GLU        -0.5666
     95 H1        -32.8904    8.9923   88.2204 H         1 ASP         0.2016
     96 H2        -32.9290    8.9365   86.5757 H         1 ASP         0.2016
     97 H3        -32.3663   10.2810   87.3407 H         1 ASP         0.2016
     98 H4        -30.4992    9.0894   88.2424 H         1 ASP         0.1117
     99 H5        -30.0541    6.8012   87.6123 H         1 ASP         0.0512
    100 H6        -31.4426    6.7832   86.4729 H         1 ASP         0.0512
    101 H7        -31.7866   10.2233   85.4368 H         1 ALA         0.1884
    102 H8        -29.7349    9.0358   83.6771 H         1 ALA         0.0797
    103 H9        -31.3175    9.5261   81.8083 H         1 ALA         0.0277
    104 H10       -32.4800   10.1886   83.0067 H         1 ALA         0.0277
    105 H11       -32.0113    8.4558   83.0731 H         1 ALA         0.0277
    106 H12       -30.6763   12.1954   84.8121 H         1 GLU         0.1883
    107 H13       -28.8000   13.3888   82.8295 H         1 GLU         0.0801
    108 H14       -31.6647   14.2702   83.3920 H         1 GLU         0.0330
    109 H15       -30.9736   13.6964   81.8364 H         1 GLU         0.0330
    110 H16       -30.2321   16.2954   83.2469 H         1 GLU         0.0433
    111 H17       -31.4020   16.1405   81.8927 H         1 GLU         0.0433
    112 H18       -27.8012   15.3381   83.4901 H         1 PHE         0.1885
    113 H19       -28.0303   15.9380   86.3840 H         1 PHE         0.0823
    114 H20       -25.9909   17.3552   85.9939 H         1 PHE         0.0474
    115 H21       -25.9885   16.7915   84.2884 H         1 PHE         0.0474
    116 H22       -25.5297   15.7903   87.8106 H         1 PHE         0.0557
    117 H23       -25.2742   14.5757   83.7205 H         1 PHE         0.0557
    118 H24       -24.2282   13.7891   88.4946 H         1 PHE         0.0599
    119 H25       -23.9940   12.5688   84.3876 H         1 PHE         0.0599
    120 H26       -23.4823   12.1587   86.7732 H         1 PHE         0.0559
    121 H27       -28.6076   17.8453   87.2097 H         1 ARG         0.1883
    122 H28       -30.2438   19.6283   85.6225 H         1 ARG         0.0800
    123 H29       -29.1556   20.1667   88.4070 H         1 ARG         0.0313
    124 H30       -30.4797   18.9903   88.1078 H         1 ARG         0.0313
    125 H31       -31.8003   20.8553   87.0443 H         1 ARG         0.0301
    126 H32       -30.5088   21.9932   87.5580 H         1 ARG         0.0301
    127 H33       -30.8558   21.2452   89.9337 H         1 ARG         0.0689
    128 H34       -32.2213   20.2188   89.3782 H         1 ARG         0.0689
    129 H35       -33.5744   22.0943   89.2782 H         1 ARG         0.2642
    130 H36       -30.6272   24.8862   89.5811 H         1 ARG         0.2615
    131 H37       -30.1694   23.1693   89.4218 H         1 ARG         0.2615
    132 H38       -34.1135   24.2505   89.4709 H         1 ARG         0.2615
    133 H39       -32.8392   25.4906   89.6154 H         1 ARG         0.2615
    134 H40       -29.6631   21.4465   84.5750 H         1 HIS         0.1885
    135 H41       -27.2570   22.9125   85.3502 H         1 HIS         0.0817
    136 H42       -26.2985   21.0396   84.0154 H         1 HIS         0.0420
    137 H43       -26.0637   22.6334   83.2208 H         1 HIS         0.0420
    138 H44       -26.8386   22.6416   80.6115 H         1 HIS         0.0729
    139 H45       -29.3867   19.2254   80.7271 H         1 HIS         0.1199
    140 H46       -28.3553   21.0183   79.2206 H         1 HIS         0.2361
    141 H47       -27.0838   24.9267   84.3770 H         1 ASP         0.1884
    142 H48       -29.3790   26.1297   83.0802 H         1 ASP         0.0819
    143 H49       -27.8674   28.0623   82.7452 H         1 ASP         0.0478
    144 H50       -26.4598   27.0565   83.2287 H         1 ASP         0.0478
    145 H51       -29.6440   26.5712   80.8844 H         1 SER         0.1884
    146 H52       -28.5934   24.8931   78.8943 H         1 SER         0.0823
    147 H53       -29.3746   26.5828   77.2482 H         1 SER         0.0606
    148 H54       -29.5785   27.7733   78.5777 H         1 SER         0.0606
    149 H55       -31.5302   26.6748   78.0487 H         1 SER         0.2097
    150 H56       -26.8479   24.8743   77.6215 H         1 GLY         0.1881
    151 H57       -25.1716   27.2779   77.3756 H         1 GLY         0.0763
    152 H58       -25.0451   25.7666   76.4129 H         1 GLY         0.0763
    153 H59       -25.1356   24.9908   79.7223 H         1 TYR         0.1885
    154 H60       -22.5023   25.7359   80.4791 H         1 TYR         0.0821
    155 H61       -24.1166   23.3436   81.4872 H         1 TYR         0.0453
    156 H62       -24.1298   25.0056   82.1687 H         1 TYR         0.0453
    157 H63       -22.1178   25.8969   83.3060 H         1 TYR         0.0530
    158 H64       -22.1742   21.8784   81.7999 H         1 TYR         0.0530
    159 H65       -20.0969   25.3788   84.6187 H         1 TYR         0.0525
    160 H66       -20.1475   21.3502   83.1241 H         1 TYR         0.0525
    161 H67       -18.1723   22.7886   84.0825 H         1 TYR         0.2458
    162 H68       -20.5495   24.9963   79.9837 H         1 GLU         0.1875
    163 H69       -20.3789   22.6093   78.2410 H         1 GLU         0.0727
    164 H70       -17.9947   23.5075   77.8547 H         1 GLU         0.0323
    165 H71       -18.5559   24.9887   78.7020 H         1 GLU         0.0323
    166 H72       -20.5438   24.8957   76.9784 H         1 GLU         0.0432
    167 H73       -19.4386   23.8353   76.0399 H         1 GLU         0.0432
@<TRIPOS>BOND
     1    1    2 1  
     2    2    3 1  
     3    2    5 1  
     4    3    4 2  
     5    3    9 am 
     6    5    6 1  
     7    6    7 ar 
     8    6    8 ar 
     9    9   10 1  
    10   10   11 1  
    11   10   13 1  
    12   11   12 2  
    13   11   14 am 
    14   14   15 1  
    15   15   16 1  
    16   15   18 1  
    17   16   17 2  
    18   16   23 am 
    19   18   19 1  
    20   19   20 1  
    21   20   21 ar 
    22   20   22 ar 
    23   23   24 1  
    24   24   25 1  
    25   24   27 1  
    26   25   26 2  
    27   25   34 am 
    28   27   28 1  
    29   28   29 ar 
    30   28   30 ar 
    31   29   31 ar 
    32   30   32 ar 
    33   31   33 ar 
    34   32   33 ar 
    35   34   35 1  
    36   35   36 1  
    37   35   38 1  
    38   36   37 2  
    39   36   45 am 
    40   38   39 1  
    41   39   40 1  
    42   40   41 1  
    43   41   42 ar 
    44   42   43 ar 
    45   42   44 ar 
    46   45   46 1  
    47   46   47 1  
    48   46   49 1  
    49   47   48 2  
    50   47   55 am 
    51   49   50 1  
    52   50   51 1  
    53   50   52 2  
    54   51   53 2  
    55   52   54 1  
    56   53   54 1  
    57   55   56 1  
    58   56   57 1  
    59   56   59 1  
    60   57   58 2  
    61   57   63 am 
    62   59   60 1  
    63   60   61 ar 
    64   60   62 ar 
    65   63   64 1  
    66   64   65 1  
    67   64   67 1  
    68   65   66 2  
    69   65   69 am 
    70   67   68 1  
    71   69   70 1  
    72   70   71 1  
    73   71   72 2  
    74   71   73 am 
    75   73   74 1  
    76   74   75 1  
    77   74   77 1  
    78   75   76 2  
    79   75   85 am 
    80   77   78 1  
    81   78   79 ar 
    82   78   80 ar 
    83   79   81 ar 
    84   80   82 ar 
    85   81   83 ar 
    86   82   83 ar 
    87   83   84 1  
    88   85   86 1  
    89   86   87 1  
    90   86   89 1  
    91   87   88 ar 
    92   87   94 ar 
    93   89   90 1  
    94   90   91 1  
    95   91   92 ar 
    96   91   93 ar 
    97    1   95 1  
    98    1   96 1  
    99    1   97 1  
   100    2   98 1  
   101    5   99 1  
   102    5  100 1  
   103    9  101 1  
   104   10  102 1  
   105   13  103 1  
   106   13  104 1  
   107   13  105 1  
   108   14  106 1  
   109   15  107 1  
   110   18  108 1  
   111   18  109 1  
   112   19  110 1  
   113   19  111 1  
   114   23  112 1  
   115   24  113 1  
   116   27  114 1  
   117   27  115 1  
   118   29  116 1  
   119   30  117 1  
   120   31  118 1  
   121   32  119 1  
   122   33  120 1  
   123   34  121 1  
   124   35  122 1  
   125   38  123 1  
   126   38  124 1  
   127   39  125 1  
   128   39  126 1  
   129   40  127 1  
   130   40  128 1  
   131   41  129 1  
   132   43  130 1  
   133   43  131 1  
   134   44  132 1  
   135   44  133 1  
   136   45  134 1  
   137   46  135 1  
   138   49  136 1  
   139   49  137 1  
   140   52  138 1  
   141   53  139 1  
   142   54  140 1  
   143   55  141 1  
   144   56  142 1  
   145   59  143 1  
   146   59  144 1  
   147   63  145 1  
   148   64  146 1  
   149   67  147 1  
   150   67  148 1  
   151   68  149 1  
   152   69  150 1  
   153   70  151 1  
   154   70  152 1  
   155   73  153 1  
   156   74  154 1  
   157   77  155 1  
   158   77  156 1  
   159   79  157 1  
   160   80  158 1  
   161   81  159 1  
   162   82  160 1  
   163   84  161 1  
   164   85  162 1  
   165   86  163 1  
   166   89  164 1  
   167   89  165 1  
   168   90  166 1  
   169   90  167 1  
@<TRIPOS>SUBSTRUCTURE
     1 ASP         1

