### 
### Created by X-TOOL on Mon Sep 10 21:13:22 2018
### 

@<TRIPOS>MOLECULE
4pvx_ligand
   38    40     1     0     0
SMALL
GAST_HUCK


@<TRIPOS>ATOM
      1 OAJ        16.3520   32.7090  -10.4890 O.co2     1 YS1        -0.5598
      2 PAI        16.5760   34.0130   -9.6110 P.3       1 YS1         0.1025
      3 OAK        17.9430   33.8720   -8.9110 O.co2     1 YS1        -0.5598
      4 OAL        16.3400   35.2390  -10.4000 O.co2     1 YS1        -0.5598
      5 CAH        15.3030   34.0550   -8.2760 C.3       1 YS1         0.1784
      6 PAM        15.4300   35.6200   -7.3480 P.3       1 YS1         0.1025
      7 OAN        14.3440   35.5080   -6.2540 O.co2     1 YS1        -0.5598
      8 OAP        16.7520   35.6640   -6.6300 O.co2     1 YS1        -0.5598
      9 OAO        15.1940   36.7100   -8.3070 O.co2     1 YS1        -0.5598
     10 NAG        15.4890   32.9500   -7.3180 N.pl3     1 YS1        -0.2780
     11 CAD        15.2330   31.6740   -7.7050 C.ar      1 YS1         0.1098
     12 CAE        16.0480   30.6780   -7.1610 C.ar      1 YS1        -0.0132
     13 NAC        14.2560   31.3790   -8.6420 N.ar      1 YS1        -0.2894
     14 CAB        14.1200   29.9990   -8.9800 C.ar      1 YS1        -0.0069
     15 CAA        14.9410   28.9830   -8.4170 C.ar      1 YS1        -0.0441
     16 CAF        15.9290   29.2980   -7.4860 C.ar      1 YS1        -0.0185
     17 CAQ        16.8100   28.3180   -6.9440 C.ar      1 YS1        -0.0226
     18 CAV        16.4870   27.0030   -6.6920 C.ar      1 YS1        -0.0590
     19 CAU        17.3660   26.0450   -6.1980 C.ar      1 YS1        -0.0293
     20 CAR        18.1300   28.6240   -6.7150 C.ar      1 YS1        -0.0590
     21 CAS        19.0230   27.6820   -6.2110 C.ar      1 YS1        -0.0293
     22 CAT        18.6520   26.3800   -5.9210 C.ar      1 YS1         0.0959
     23 OAW        19.6060   25.4910   -5.5000 O.3       1 YS1        -0.3043
     24 CAX        19.2630   24.2760   -4.8240 C.3       1 YS1         0.1187
     25 CAY        20.2520   23.6300   -4.0490 C.2       1 YS1        -0.0478
     26 CAZ        19.6770   24.8610   -3.5900 C.2       1 YS1        -0.0478
     27 H1         14.3055   33.9761   -8.7328 H         1 YS1         0.0946
     28 H2         15.8117   33.1451   -6.3595 H         1 YS1         0.1829
     29 H3         16.8132   30.9730   -6.4522 H         1 YS1         0.0589
     30 H4         13.3584   29.7129   -9.6964 H         1 YS1         0.0771
     31 H5         14.7964   27.9511   -8.7158 H         1 YS1         0.0586
     32 H6         15.4689   26.6905   -6.8943 H         1 YS1         0.0615
     33 H7         17.0237   25.0296   -6.0340 H         1 YS1         0.0552
     34 H8         18.4853   29.6248   -6.9324 H         1 YS1         0.0615
     35 H9         20.0508   27.9803   -6.0386 H         1 YS1         0.0552
     36 H10        18.3349   23.7681   -5.1252 H         1 YS1         0.0742
     37 H11        20.9448   22.8022   -3.9052 H         1 YS1         0.0603
     38 H12        19.6076   25.6552   -2.8481 H         1 YS1         0.0603
@<TRIPOS>BOND
     1    1    2 ar 
     2    2    3 ar 
     3    2    4 ar 
     4    2    5 1  
     5    5    6 1  
     6    5   10 1  
     7    6    7 ar 
     8    6    8 ar 
     9    6    9 ar 
    10   10   11 1  
    11   11   12 ar 
    12   11   13 ar 
    13   12   16 ar 
    14   13   14 ar 
    15   14   15 ar 
    16   15   16 ar 
    17   16   17 1  
    18   17   18 ar 
    19   17   20 ar 
    20   18   19 ar 
    21   19   22 ar 
    22   20   21 ar 
    23   21   22 ar 
    24   22   23 1  
    25   23   24 1  
    26   24   25 1  
    27   24   26 1  
    28   25   26 2  
    29    5   27 1  
    30   10   28 1  
    31   12   29 1  
    32   14   30 1  
    33   15   31 1  
    34   18   32 1  
    35   19   33 1  
    36   20   34 1  
    37   21   35 1  
    38   24   36 1  
    39   25   37 1  
    40   26   38 1  
@<TRIPOS>SUBSTRUCTURE
     1 YS1         1

