4pvx_ligand
  -I-interpret- 

 42 44  0  0  0  0  0  0  0  0999 V2000
   16.3520   32.7090  -10.4890 O   0  0  0  0  0
   16.5760   34.0130   -9.6110 P   0  0  0  0  0
   17.9430   33.8720   -8.9110 O   0  0  0  0  0
   16.3400   35.2390  -10.4000 O   0  0  0  0  0
   15.3030   34.0550   -8.2760 C   0  0  0  0  0
   15.4300   35.6200   -7.3480 P   0  0  0  0  0
   14.3440   35.5080   -6.2540 O   0  0  0  0  0
   16.7520   35.6640   -6.6300 O   0  0  0  0  0
   15.1940   36.7100   -8.3070 O   0  0  0  0  0
   15.4890   32.9500   -7.3180 N   0  0  0  0  0
   15.2330   31.6740   -7.7050 C   0  0  0  0  0
   16.0480   30.6780   -7.1610 C   0  0  0  0  0
   14.2560   31.3790   -8.6420 N   0  0  0  0  0
   14.1200   29.9990   -8.9800 C   0  0  0  0  0
   14.9410   28.9830   -8.4170 C   0  0  0  0  0
   15.9290   29.2980   -7.4860 C   0  0  0  0  0
   16.8100   28.3180   -6.9440 C   0  0  0  0  0
   16.4870   27.0030   -6.6920 C   0  0  0  0  0
   17.3660   26.0450   -6.1980 C   0  0  0  0  0
   18.1300   28.6240   -6.7150 C   0  0  0  0  0
   19.0230   27.6820   -6.2110 C   0  0  0  0  0
   18.6520   26.3800   -5.9210 C   0  0  0  0  0
   19.6060   25.4910   -5.5000 O   0  0  0  0  0
   19.2630   24.2760   -4.8240 C   0  0  0  0  0
   20.2520   23.6300   -4.0490 C   0  0  0  0  0
   19.6770   24.8610   -3.5900 C   0  0  0  0  0
   16.5122   31.9306   -9.9505 H   0  0  0  0  0
   17.9728   33.0392   -8.4344 H   0  0  0  0  0
   14.3283   33.9606   -8.7548 H   0  0  0  0  0
   14.5584   34.7807   -5.6652 H   0  0  0  0  0
   16.8139   34.9173   -6.0298 H   0  0  0  0  0
   15.8085   33.1432   -6.3688 H   0  0  0  0  0
   16.8175   30.9746   -6.4482 H   0  0  0  0  0
   13.3542   29.7114   -9.7004 H   0  0  0  0  0
   14.7956   27.9454   -8.7174 H   0  0  0  0  0
   15.4633   26.6888   -6.8955 H   0  0  0  0  0
   17.0218   25.0240   -6.0331 H   0  0  0  0  0
   18.4872   29.6303   -6.9336 H   0  0  0  0  0
   20.0565   27.9819   -6.0377 H   0  0  0  0  0
   18.4942   23.7752   -5.4125 H   0  0  0  0  0
   20.9454   22.8014   -3.9051 H   0  0  0  0  0
   19.6075   25.6559   -2.8474 H   0  0  0  0  0
  1  2  1  0  0  0
  2  3  1  0  0  0
  2  4  2  0  0  0
  2  5  1  0  0  0
  5  6  1  0  0  0
  5 10  1  0  0  0
  6  7  1  0  0  0
  6  8  1  0  0  0
  6  9  2  0  0  0
 10 11  1  0  0  0
 11 12  4  0  0  0
 11 13  4  0  0  0
 12 16  4  0  0  0
 13 14  4  0  0  0
 14 15  4  0  0  0
 15 16  4  0  0  0
 16 17  1  0  0  0
 17 18  4  0  0  0
 17 20  4  0  0  0
 18 19  4  0  0  0
 19 22  4  0  0  0
 20 21  4  0  0  0
 21 22  4  0  0  0
 22 23  1  0  0  0
 23 24  1  0  0  0
 24 25  1  0  0  0
 24 26  1  0  0  0
 25 26  2  0  0  0
  1 27  1  0  0  0
  3 28  1  0  0  0
  5 29  1  0  0  0
  7 30  1  0  0  0
  8 31  1  0  0  0
 10 32  1  0  0  0
 12 33  1  0  0  0
 14 34  1  0  0  0
 15 35  1  0  0  0
 18 36  1  0  0  0
 19 37  1  0  0  0
 20 38  1  0  0  0
 21 39  1  0  0  0
 24 40  1  0  0  0
 25 41  1  0  0  0
 26 42  1  0  0  0
M  END
$$$$
