4b12_ligand
  -I-interpret- 

 53 56  0  0  0  0  0  0  0  0999 V2000
   23.1370   46.1030   60.5640 O   0  0  0  0  0
   23.9390   45.5640   61.3140 C   0  0  0  0  0
   25.4120   45.9880   61.3060 C   0  0  0  0  0
   25.5680   47.5200   60.9530 C   0  0  0  0  0
   25.2390   48.3980   62.1820 C   0  0  0  0  0
   26.2230   48.6810   63.1500 C   0  0  0  0  0
   25.9090   49.4500   64.2900 C   0  0  0  0  0
   24.6130   49.9550   64.4510 C   0  0  0  0  0
   23.6110   49.6290   63.5250 C   0  0  0  0  0
   23.9120   48.8700   62.3930 C   0  0  0  0  0
   23.4510   44.3400   62.0370 C   0  0  0  0  0
   22.2680   43.8970   61.8380 O   0  0  0  0  0
   22.1640   42.7280   62.5470 C   0  0  0  0  0
   23.3390   42.3960   63.2170 C   0  0  0  0  0
   24.1830   43.4800   62.8610 C   0  0  0  0  0
   25.6170   43.5640   63.3560 C   0  0  0  0  0
   23.3940   41.2450   64.0340 C   0  0  0  0  0
   22.2480   40.4530   64.1120 C   0  0  0  0  0
   21.0690   40.7570   63.4170 C   0  0  0  0  0
   21.0130   41.9160   62.6460 C   0  0  0  0  0
   24.5300   40.9150   64.7720 O   0  0  0  0  0
   24.4090   40.7300   66.1990 C   0  0  0  0  0
   25.4720   39.7560   66.7520 C   0  0  0  0  0
   26.8340   40.4180   66.8560 C   0  0  0  0  0
   26.7720   41.7390   67.4670 N   0  3  0  0  0
   25.7470   42.6700   67.0400 C   0  0  0  0  0
   24.3640   42.0480   66.9810 C   0  0  0  0  0
   25.9368   45.4032   60.5505 H   0  0  0  0  0
   25.8271   45.8173   62.2993 H   0  0  0  0  0
   24.8781   47.7686   60.1466 H   0  0  0  0  0
   26.5976   47.7093   60.6493 H   0  0  0  0  0
   27.2363   48.3021   63.0166 H   0  0  0  0  0
   26.6719   49.6503   65.0423 H   0  0  0  0  0
   24.3824   50.6024   65.2971 H   0  0  0  0  0
   22.5894   49.9711   63.6908 H   0  0  0  0  0
   23.1304   48.6382   61.6695 H   0  0  0  0  0
   26.2948   43.5726   62.5024 H   0  0  0  0  0
   25.7474   44.4787   63.9343 H   0  0  0  0  0
   25.8340   42.7008   63.9852 H   0  0  0  0  0
   22.2703   39.5616   64.7388 H   0  0  0  0  0
   20.2060   40.0941   63.4792 H   0  0  0  0  0
   20.0949   42.1917   62.1272 H   0  0  0  0  0
   23.4368   40.2628   66.3561 H   0  0  0  0  0
   25.5513   38.9089   66.0706 H   0  0  0  0  0
   25.1650   39.4402   67.7490 H   0  0  0  0  0
   27.2274   40.5345   65.8462 H   0  0  0  0  0
   27.4650   39.7884   67.4833 H   0  0  0  0  0
   27.6526   42.1858   67.2115 H   0  0  0  0  0
   26.5695   41.5618   68.4509 H   0  0  0  0  0
   26.0023   43.0051   66.0347 H   0  0  0  0  0
   25.7140   43.4819   67.7665 H   0  0  0  0  0
   24.0186   41.8492   67.9956 H   0  0  0  0  0
   23.6840   42.7370   66.4800 H   0  0  0  0  0
  1  2  2  0  0  0
  2  3  1  0  0  0
  2 11  1  0  0  0
  3  4  1  0  0  0
  4  5  1  0  0  0
  5  6  4  0  0  0
  5 10  4  0  0  0
  6  7  4  0  0  0
  7  8  4  0  0  0
  8  9  4  0  0  0
  9 10  4  0  0  0
 11 12  4  0  0  0
 11 15  4  0  0  0
 12 13  4  0  0  0
 13 14  4  0  0  0
 13 20  4  0  0  0
 14 15  4  0  0  0
 14 17  4  0  0  0
 15 16  1  0  0  0
 17 18  4  0  0  0
 17 21  1  0  0  0
 18 19  4  0  0  0
 19 20  4  0  0  0
 21 22  1  0  0  0
 22 23  1  0  0  0
 22 27  1  0  0  0
 23 24  1  0  0  0
 24 25  1  0  0  0
 25 26  1  0  0  0
 26 27  1  0  0  0
  3 28  1  0  0  0
  3 29  1  0  0  0
  4 30  1  0  0  0
  4 31  1  0  0  0
  6 32  1  0  0  0
  7 33  1  0  0  0
  8 34  1  0  0  0
  9 35  1  0  0  0
 10 36  1  0  0  0
 16 37  1  0  0  0
 16 38  1  0  0  0
 16 39  1  0  0  0
 18 40  1  0  0  0
 19 41  1  0  0  0
 20 42  1  0  0  0
 22 43  1  0  0  0
 23 44  1  0  0  0
 23 45  1  0  0  0
 24 46  1  0  0  0
 24 47  1  0  0  0
 25 48  1  0  0  0
 25 49  1  0  0  0
 26 50  1  0  0  0
 26 51  1  0  0  0
 27 52  1  0  0  0
 27 53  1  0  0  0
M  END
$$$$
