4ipf_ligand
  -I-interpret- 

 98102  0  0  0  0  0  0  0  0999 V2000
   12.5930    8.4480   35.6800 N   0  0  0  0  0
   11.6930    9.0880   34.7370 C   0  0  0  0  0
   10.6480    8.1090   34.1730 C   0  0  0  0  0
   12.5190    9.7250   33.6330 C   0  0  0  0  0
   11.0400   10.1620   35.6600 C   0  0  0  0  0
    9.7150    9.6460   36.2220 C   0  0  0  0  0
   10.8030   11.4630   34.9430 C   0  0  0  0  0
   11.9970   10.3170   36.7720 N   0  0  0  0  0
   12.8170    9.3230   36.8000 C   0  0  0  0  0
   13.8480    9.0940   37.8320 C   0  0  0  0  0
   13.8950    9.9110   33.8140 C   0  0  0  0  0
   14.6510   10.5850   32.8470 C   0  0  0  0  0
   14.0230   11.0690   31.6990 C   0  0  0  0  0
   14.9490   12.0200   30.5330 Cl  0  0  0  0  0
   12.6640   10.8230   31.4760 C   0  0  0  0  0
   11.9130   10.1510   32.4430 C   0  0  0  0  0
    9.5430   11.7220   34.3940 C   0  0  0  0  0
    9.3140   12.9070   33.7010 C   0  0  0  0  0
   10.3530   13.8250   33.5590 C   0  0  0  0  0
   10.0880   15.3050   32.6470 Cl  0  0  0  0  0
   11.6080   13.5830   34.1220 C   0  0  0  0  0
   11.8280   12.4000   34.8190 C   0  0  0  0  0
   13.0660    7.0970   35.4780 C   0  0  0  0  0
   13.3310    6.7080   34.3340 O   0  0  0  0  0
   13.2410    6.2470   36.5800 N   0  0  0  0  0
   13.8940    4.9610   36.3600 C   0  0  0  0  0
   14.7730    4.6360   37.5540 C   0  0  0  0  0
   13.9860    4.6500   38.8110 N   0  3  0  0  0
   13.3380    5.9800   39.0310 C   0  0  0  0  0
   12.4680    6.3950   37.8190 C   0  0  0  0  0
   13.5640    9.4060   39.1630 C   0  0  0  0  0
   14.5320    9.2370   40.1560 C   0  0  0  0  0
   15.8000    8.7430   39.8310 C   0  0  0  0  0
   16.8240    8.5630   40.9220 C   0  0  0  0  0
   17.7970    9.7470   40.9110 C   0  0  0  0  0
   17.6040    7.2640   40.6970 C   0  0  0  0  0
   16.1090    8.4270   38.5040 C   0  0  0  0  0
   15.1270    8.6120   37.5190 C   0  0  0  0  0
   15.4220    8.3400   36.2110 O   0  0  0  0  0
   16.7390    7.8810   35.9490 C   0  0  0  0  0
   16.8820    7.5420   34.4590 C   0  0  0  0  0
   16.1170    8.5010   42.2790 C   0  0  0  0  0
   14.1050    4.2660   41.2850 C   0  0  0  0  0
   15.0680    3.7860   42.3820 C   0  0  0  0  0
   14.4700    4.2170   43.9960 S   0  0  0  0  0
   15.5690    3.4180   45.1430 C   0  0  0  0  0
   13.1380    3.6560   44.1630 O   0  0  0  0  0
   14.5940    5.6660   44.1580 O   0  0  0  0  0
   14.8370    4.2230   39.9420 C   0  0  0  0  0
   10.1501    7.5970   34.9964 H   0  0  0  0  0
    9.9121    8.6618   33.5891 H   0  0  0  0  0
   11.1443    7.3773   33.5355 H   0  0  0  0  0
    9.8779    8.6840   36.7079 H   0  0  0  0  0
    9.3271   10.3602   36.9483 H   0  0  0  0  0
    8.9987    9.5272   35.4091 H   0  0  0  0  0
   14.3802    9.5292   34.7123 H   0  0  0  0  0
   15.7217   10.7304   32.9901 H   0  0  0  0  0
   12.1929   11.1547   30.5507 H   0  0  0  0  0
   10.8540    9.9575   32.2720 H   0  0  0  0  0
    8.7393   10.9948   34.5091 H   0  0  0  0  0
    8.3329   13.1148   33.2740 H   0  0  0  0  0
   12.4084   14.3153   34.0159 H   0  0  0  0  0
   12.8018   12.2052   35.2684 H   0  0  0  0  0
   14.5053    5.0108   35.4589 H   0  0  0  0  0
   13.1394    4.1838   36.2393 H   0  0  0  0  0
   15.5594    5.3874   37.6248 H   0  0  0  0  0
   15.1962    3.6409   37.4168 H   0  0  0  0  0
   13.2215    3.9788   38.7377 H   0  0  0  0  0
   14.1202    6.7269   39.1664 H   0  0  0  0  0
   12.6959    5.9102   39.9091 H   0  0  0  0  0
   11.5858    5.7565   37.7725 H   0  0  0  0  0
   12.1638    7.4355   37.9325 H   0  0  0  0  0
   12.5775    9.7851   39.4298 H   0  0  0  0  0
   14.2981    9.4914   41.1898 H   0  0  0  0  0
   18.2994    9.7938   39.9448 H   0  0  0  0  0
   17.2445   10.6713   41.0798 H   0  0  0  0  0
   18.5367    9.6151   41.7006 H   0  0  0  0  0
   16.9137    6.4205   40.7087 H   0  0  0  0  0
   18.1098    7.3078   39.7325 H   0  0  0  0  0
   18.3416    7.1425   41.4903 H   0  0  0  0  0
   17.0947    8.0440   38.2398 H   0  0  0  0  0
   16.9353    6.9884   36.5430 H   0  0  0  0  0
   17.4527    8.6618   36.2120 H   0  0  0  0  0
   16.1677    6.7621   34.1950 H   0  0  0  0  0
   16.6846    8.4338   33.8642 H   0  0  0  0  0
   17.8949    7.1901   34.2633 H   0  0  0  0  0
   15.5680    9.4281   42.4439 H   0  0  0  0  0
   15.4235    7.6601   42.2879 H   0  0  0  0  0
   16.8580    8.3708   43.0677 H   0  0  0  0  0
   13.7773    5.2837   41.4973 H   0  0  0  0  0
   13.2281    3.6194   41.2512 H   0  0  0  0  0
   16.0348    4.2658   42.2300 H   0  0  0  0  0
   15.1516    2.7009   42.3207 H   0  0  0  0  0
   15.2179    3.5899   46.1605 H   0  0  0  0  0
   15.5882    2.3472   44.9400 H   0  0  0  0  0
   16.5722    3.8288   45.0292 H   0  0  0  0  0
   15.6824    4.9086   40.0008 H   0  0  0  0  0
   15.1405    3.1920   39.7604 H   0  0  0  0  0
  1  2  1  0  0  0
  1  9  1  0  0  0
 23  1  1  0  0  0
  2  3  1  0  0  0
  2  4  1  0  0  0
  2  5  1  0  0  0
  4 11  4  0  0  0
  4 16  4  0  0  0
  5  6  1  0  0  0
  5  7  1  0  0  0
  8  5  1  0  0  0
  7 17  4  0  0  0
  7 22  4  0  0  0
  9  8  2  0  0  0
  9 10  1  0  0  0
 10 31  4  0  0  0
 10 38  4  0  0  0
 11 12  4  0  0  0
 12 13  4  0  0  0
 13 14  1  0  0  0
 15 13  4  0  0  0
 16 15  4  0  0  0
 17 18  4  0  0  0
 18 19  4  0  0  0
 19 20  1  0  0  0
 21 19  4  0  0  0
 22 21  4  0  0  0
 23 24  2  0  0  0
 25 23  1  0  0  0
 26 25  1  0  0  0
 30 25  1  0  0  0
 27 26  1  0  0  0
 28 27  1  0  0  0
 28 29  1  0  0  0
 49 28  1  0  0  0
 29 30  1  0  0  0
 31 32  4  0  0  0
 32 33  4  0  0  0
 33 34  1  0  0  0
 37 33  4  0  0  0
 34 35  1  0  0  0
 34 36  1  0  0  0
 34 42  1  0  0  0
 38 37  4  0  0  0
 38 39  1  0  0  0
 39 40  1  0  0  0
 40 41  1  0  0  0
 43 44  1  0  0  0
 43 49  1  0  0  0
 44 45  1  0  0  0
 45 46  1  0  0  0
 45 47  2  0  0  0
 45 48  2  0  0  0
  3 50  1  0  0  0
  3 51  1  0  0  0
  3 52  1  0  0  0
  6 53  1  0  0  0
  6 54  1  0  0  0
  6 55  1  0  0  0
 11 56  1  0  0  0
 12 57  1  0  0  0
 15 58  1  0  0  0
 16 59  1  0  0  0
 17 60  1  0  0  0
 18 61  1  0  0  0
 21 62  1  0  0  0
 22 63  1  0  0  0
 26 64  1  0  0  0
 26 65  1  0  0  0
 27 66  1  0  0  0
 27 67  1  0  0  0
 28 68  1  0  0  0
 29 69  1  0  0  0
 29 70  1  0  0  0
 30 71  1  0  0  0
 30 72  1  0  0  0
 31 73  1  0  0  0
 32 74  1  0  0  0
 35 75  1  0  0  0
 35 76  1  0  0  0
 35 77  1  0  0  0
 36 78  1  0  0  0
 36 79  1  0  0  0
 36 80  1  0  0  0
 37 81  1  0  0  0
 40 82  1  0  0  0
 40 83  1  0  0  0
 41 84  1  0  0  0
 41 85  1  0  0  0
 41 86  1  0  0  0
 42 87  1  0  0  0
 42 88  1  0  0  0
 42 89  1  0  0  0
 43 90  1  0  0  0
 43 91  1  0  0  0
 44 92  1  0  0  0
 44 93  1  0  0  0
 46 94  1  0  0  0
 46 95  1  0  0  0
 46 96  1  0  0  0
 49 97  1  0  0  0
 49 98  1  0  0  0
M  END
$$$$
