1y3w_ligand
  -I-interpret- 

 64 69  0  0  0  0  0  0  0  0999 V2000
   -5.1160    9.5300   19.7200 N   0  0  0  0  0
   -3.8020    9.3080   19.6660 C   0  0  0  0  0
   -3.0460   10.3260   19.1450 N   0  0  0  0  0
   -3.2170    8.0870   20.1190 C   0  0  0  0  0
   -3.9830    7.0630   20.6810 C   0  0  0  0  0
   -3.3710    5.8710   21.0980 C   0  0  0  0  0
   -1.9900    5.6930   21.0140 C   0  0  0  0  0
   -1.2150    6.7270   20.4490 C   0  0  0  0  0
   -1.8260    7.8970   20.0300 C   0  0  0  0  0
   -1.2970    4.4660   21.5280 C   0  0  0  0  0
   -2.1500    3.2380   21.4310 N   0  3  0  0  0
   -2.3340    2.7210   20.0380 C   0  0  0  0  0
   -1.4570    1.4490   19.9320 C   0  0  0  0  0
   -0.4980    1.5180   21.0940 C   0  0  0  0  0
   -1.3530    2.1930   22.1920 C   0  0  0  0  0
   -0.3770    2.9470   23.1420 C   0  0  0  0  0
   -0.7130    2.7060   24.6490 C   0  0  0  0  0
   -1.6930    3.7270   24.9450 N   0  0  0  0  0
   -1.6720    4.7810   24.0690 C   0  0  0  0  0
   -2.5550    5.6860   24.0290 O   0  0  0  0  0
   -0.6880    4.4480   22.9320 C   0  0  0  0  0
   -2.6350    3.8600   26.1000 C   0  0  0  0  0
   -2.0470    4.5110   27.3460 C   0  0  0  0  0
   -1.1700    3.7830   28.2160 C   0  0  0  0  0
   -0.6730    4.3370   29.4160 C   0  0  0  0  0
   -1.0830    5.6500   29.7000 C   0  0  0  0  0
   -0.7440    6.4240   30.7870 O   0  0  0  0  0
   -1.4440    7.6970   30.5940 C   0  0  0  0  0
   -2.2090    7.6600   29.3620 O   0  0  0  0  0
   -1.9430    6.3810   28.8580 C   0  0  0  0  0
   -2.4420    5.8230   27.6640 C   0  0  0  0  0
    0.5200    2.7320   25.5850 C   0  0  0  0  0
    1.3180    1.4360   25.5760 C   0  0  0  0  0
   -5.7391    8.8146   20.0945 H   0  0  0  0  0
   -3.4959   11.1850   18.8287 H   0  0  0  0  0
   -2.0336   10.2244   19.0737 H   0  0  0  0  0
   -5.0594    7.1902   20.7960 H   0  0  0  0  0
   -3.9886    5.0661   21.4965 H   0  0  0  0  0
   -0.1371    6.6055   20.3423 H   0  0  0  0  0
   -1.2095    8.6960   19.6182 H   0  0  0  0  0
   -0.4481    4.4839   20.8445 H   0  0  0  0  0
   -3.0853    3.4439   21.7821 H   0  0  0  0  0
   -2.0380    3.4659   19.2993 H   0  0  0  0  0
   -3.3812    2.4950   19.8371 H   0  0  0  0  0
   -0.9270    1.4092   18.9804 H   0  0  0  0  0
   -2.0629    0.5436   19.9692 H   0  0  0  0  0
    0.4141    2.0685   20.8635 H   0  0  0  0  0
   -0.1145    0.5417   21.3905 H   0  0  0  0  0
   -1.9716    1.4978   22.7595 H   0  0  0  0  0
    0.6417    2.6231   22.9287 H   0  0  0  0  0
   -1.0953    1.7008   24.8267 H   0  0  0  0  0
    0.1264    5.1712   22.9742 H   0  0  0  0  0
   -2.9268    2.8488   26.3836 H   0  0  0  0  0
   -3.4500    4.5024   25.7665 H   0  0  0  0  0
   -0.8775    2.7693   27.9422 H   0  0  0  0  0
   -0.0123    3.7803   30.0806 H   0  0  0  0  0
   -0.7130    8.5036   30.5384 H   0  0  0  0  0
   -2.1208    7.8650   31.4317 H   0  0  0  0  0
   -3.1088    6.3868   27.0116 H   0  0  0  0  0
    0.1563    2.8852   26.6010 H   0  0  0  0  0
    1.1803    3.5252   25.2344 H   0  0  0  0  0
    0.6788    0.6150   25.9007 H   0  0  0  0  0
    1.6787    1.2399   24.5663 H   0  0  0  0  0
    2.1660    1.5283   26.2546 H   0  0  0  0  0
  1  2  2  0  0  0
  2  3  1  0  0  0
  2  4  1  0  0  0
  4  5  4  0  0  0
  4  9  4  0  0  0
  5  6  4  0  0  0
  6  7  4  0  0  0
  7  8  4  0  0  0
  7 10  1  0  0  0
  8  9  4  0  0  0
 10 11  1  0  0  0
 10 21  1  0  0  0
 11 12  1  0  0  0
 11 15  1  0  0  0
 12 13  1  0  0  0
 13 14  1  0  0  0
 14 15  1  0  0  0
 15 16  1  0  0  0
 16 17  1  0  0  0
 16 21  1  0  0  0
 17 18  1  0  0  0
 17 32  1  0  0  0
 18 19  1  0  0  0
 18 22  1  0  0  0
 19 20  2  0  0  0
 19 21  1  0  0  0
 22 23  1  0  0  0
 23 24  4  0  0  0
 23 31  4  0  0  0
 24 25  4  0  0  0
 25 26  4  0  0  0
 26 27  1  0  0  0
 26 30  4  0  0  0
 27 28  1  0  0  0
 28 29  1  0  0  0
 29 30  1  0  0  0
 30 31  4  0  0  0
 32 33  1  0  0  0
  1 34  1  0  0  0
  3 35  1  0  0  0
  3 36  1  0  0  0
  5 37  1  0  0  0
  6 38  1  0  0  0
  8 39  1  0  0  0
  9 40  1  0  0  0
 10 41  1  0  0  0
 11 42  1  0  0  0
 12 43  1  0  0  0
 12 44  1  0  0  0
 13 45  1  0  0  0
 13 46  1  0  0  0
 14 47  1  0  0  0
 14 48  1  0  0  0
 15 49  1  0  0  0
 16 50  1  0  0  0
 17 51  1  0  0  0
 21 52  1  0  0  0
 22 53  1  0  0  0
 22 54  1  0  0  0
 24 55  1  0  0  0
 25 56  1  0  0  0
 28 57  1  0  0  0
 28 58  1  0  0  0
 31 59  1  0  0  0
 32 60  1  0  0  0
 32 61  1  0  0  0
 33 62  1  0  0  0
 33 63  1  0  0  0
 33 64  1  0  0  0
M  END
$$$$
