4trw_ligand
  -I-interpret- 

 97 97  0  0  0  0  0  0  0  0999 V2000
  -16.0110    9.8700   22.1450 N   0  3  0  0  0
  -16.0650    8.6320   21.3770 C   0  0  0  0  0
  -15.3450    8.7790   20.0410 C   0  0  0  0  0
  -15.5260    9.7690   19.3330 O   0  0  0  0  0
  -17.5170    8.2070   21.1480 C   0  0  0  0  0
  -17.7150    6.7040   21.0410 C   0  0  0  0  0
  -19.1440    6.3260   20.7050 C   0  0  0  0  0
  -19.3410    5.3490   19.9520 O   0  0  0  0  0
  -20.0700    7.0060   21.1950 O   0  0  0  0  0
  -14.5270    7.7870   19.7030 N   0  0  0  0  0
  -13.7960    7.8030   18.4810 C   0  0  0  0  0
  -13.9350    6.4740   17.7630 C   0  0  0  0  0
  -14.2120    5.4710   18.3570 O   0  0  0  0  0
  -12.3380    8.1340   18.7660 C   0  0  0  0  0
  -11.8070    7.2150   19.8240 C   0  0  0  0  0
  -12.2040    9.5220   19.3190 C   0  0  0  0  0
  -10.3820    7.4930   20.1830 C   0  0  0  0  0
  -13.7600    6.5200   16.4610 N   0  0  0  0  0
  -13.8720    5.4020   15.5290 C   0  0  0  0  0
  -12.7280    5.5880   14.5120 C   0  0  0  0  0
  -12.9430    5.6320   13.2990 O   0  0  0  0  0
  -15.2040    5.4050   14.7650 C   0  0  0  0  0
  -16.3800    5.6490   15.7040 C   0  0  0  0  0
  -16.7250    6.8030   16.2760 C   0  0  0  0  0
  -17.8150    6.7000   17.0580 C   0  0  0  0  0
  -18.3830    5.4760   17.1150 C   0  0  0  0  0
  -17.4490    4.4360   16.1400 S   0  0  0  0  0
  -11.5240    5.6980   15.0630 N   0  0  0  0  0
  -10.3050    5.8930   14.2890 C   0  0  0  0  0
   -9.4830    6.8300   15.1480 C   0  0  0  0  0
   -9.6400    8.3200   14.7350 C   0  0  0  0  0
   -9.2510    9.1260   15.9750 C   0  0  0  0  0
  -11.0600    8.7580   14.2780 C   0  0  0  0  0
   -9.5870    4.5390   14.1260 C   0  0  0  0  0
   -8.3600    4.6990   13.4180 O   0  0  0  0  0
  -10.4990    3.5480   13.4130 C   0  0  0  0  0
   -9.8610    2.7080   12.3800 N   0  3  0  0  0
  -10.8420    2.5220   11.2500 C   0  0  0  0  0
  -10.4150    2.9980    9.8180 C   0  0  0  0  0
   -9.0070    2.4840    9.3570 C   0  0  0  0  0
   -8.3820    3.3430    8.1660 C   0  0  0  0  0
  -11.2580    1.0430   11.2810 C   0  0  0  0  0
  -10.4250    0.2310   10.8850 O   0  0  0  0  0
  -12.3740    0.7420   11.7530 O   0  0  0  0  0
  -15.0372   10.1378   22.2879 H   0  0  0  0  0
  -16.4962   10.6073   21.6337 H   0  0  0  0  0
  -16.4620    9.7280   23.0488 H   0  0  0  0  0
  -15.5565    7.8597   21.9541 H   0  0  0  0  0
  -17.8344    8.6420   20.2003 H   0  0  0  0  0
  -18.0919    8.5472   22.0093 H   0  0  0  0  0
  -17.4704    6.2641   22.0078 H   0  0  0  0  0
  -17.0740    6.3378   20.2390 H   0  0  0  0  0
  -18.4974    4.9723   19.6911 H   0  0  0  0  0
  -14.4202    6.9938   20.3354 H   0  0  0  0  0
  -14.2014    8.5724   17.8239 H   0  0  0  0  0
  -11.7937    8.0339   17.8269 H   0  0  0  0  0
  -11.8577    6.1981   19.4347 H   0  0  0  0  0
  -12.4086    7.3608   20.7212 H   0  0  0  0  0
  -12.5924   10.2390   18.5957 H   0  0  0  0  0
  -12.7698    9.5980   20.2476 H   0  0  0  0  0
  -11.1528    9.7341   19.5142 H   0  0  0  0  0
   -9.7561    7.3750   19.2984 H   0  0  0  0  0
  -10.2953    8.5130   20.5575 H   0  0  0  0  0
  -10.0596    6.7929   20.9538 H   0  0  0  0  0
  -13.5221    7.4280   16.0618 H   0  0  0  0  0
  -13.8204    4.4617   16.0779 H   0  0  0  0  0
  -15.3344    4.4323   14.2908 H   0  0  0  0  0
  -15.1783    6.2054   14.0255 H   0  0  0  0  0
  -16.1797    7.7347   16.1254 H   0  0  0  0  0
  -18.2143    7.5505   17.6105 H   0  0  0  0  0
  -19.2743    5.2036   17.6803 H   0  0  0  0  0
  -11.4493    5.6432   16.0788 H   0  0  0  0  0
  -10.4786    6.2894   13.2886 H   0  0  0  0  0
   -8.4341    6.5592   15.0277 H   0  0  0  0  0
   -9.8299    6.7305   16.1765 H   0  0  0  0  0
   -9.0148    8.4880   13.8581 H   0  0  0  0  0
   -9.9162    8.8668   16.7987 H   0  0  0  0  0
   -8.2223    8.8932   16.2501 H   0  0  0  0  0
   -9.3382   10.1904   15.7570 H   0  0  0  0  0
  -11.3580    8.1708   13.4094 H   0  0  0  0  0
  -11.7685    8.5934   15.0898 H   0  0  0  0  0
  -11.0456    9.8158   14.0155 H   0  0  0  0  0
   -9.3523    4.1467   15.1155 H   0  0  0  0  0
   -7.9302    3.8453   13.3279 H   0  0  0  0  0
  -11.2549    4.1425   12.8999 H   0  0  0  0  0
  -10.8664    2.8648   14.1788 H   0  0  0  0  0
   -9.6048    1.8027   12.7739 H   0  0  0  0  0
   -9.0128    3.1588   12.0368 H   0  0  0  0  0
  -11.6724    3.2040   11.4328 H   0  0  0  0  0
  -10.3650    4.0865    9.8446 H   0  0  0  0  0
  -11.1469    2.5976    9.1165 H   0  0  0  0  0
   -9.1301    1.4623    8.9976 H   0  0  0  0  0
   -8.3321    2.5617   10.2094 H   0  0  0  0  0
   -9.0464    3.3023    7.3029 H   0  0  0  0  0
   -8.2657    4.3778    8.4882 H   0  0  0  0  0
   -7.4085    2.9335    7.8964 H   0  0  0  0  0
  -12.8459    1.5432   11.9917 H   0  0  0  0  0
  1  2  1  0  0  0
  2  3  1  0  0  0
  2  5  1  0  0  0
  3  4  2  0  0  0
  3 10  1  0  0  0
  5  6  1  0  0  0
  6  7  1  0  0  0
  7  8  1  0  0  0
  7  9  2  0  0  0
 10 11  1  0  0  0
 11 12  1  0  0  0
 11 14  1  0  0  0
 12 13  2  0  0  0
 12 18  1  0  0  0
 14 15  1  0  0  0
 14 16  1  0  0  0
 15 17  1  0  0  0
 18 19  1  0  0  0
 19 20  1  0  0  0
 19 22  1  0  0  0
 20 21  2  0  0  0
 20 28  1  0  0  0
 22 23  1  0  0  0
 23 24  4  0  0  0
 23 27  4  0  0  0
 24 25  4  0  0  0
 25 26  4  0  0  0
 26 27  4  0  0  0
 28 29  1  0  0  0
 29 30  1  0  0  0
 29 34  1  0  0  0
 30 31  1  0  0  0
 31 32  1  0  0  0
 31 33  1  0  0  0
 34 35  1  0  0  0
 34 36  1  0  0  0
 36 37  1  0  0  0
 37 38  1  0  0  0
 38 39  1  0  0  0
 38 42  1  0  0  0
 39 40  1  0  0  0
 40 41  1  0  0  0
 42 43  2  0  0  0
 42 44  1  0  0  0
  1 45  1  0  0  0
  1 46  1  0  0  0
  1 47  1  0  0  0
  2 48  1  0  0  0
  5 49  1  0  0  0
  5 50  1  0  0  0
  6 51  1  0  0  0
  6 52  1  0  0  0
  8 53  1  0  0  0
 10 54  1  0  0  0
 11 55  1  0  0  0
 14 56  1  0  0  0
 15 57  1  0  0  0
 15 58  1  0  0  0
 16 59  1  0  0  0
 16 60  1  0  0  0
 16 61  1  0  0  0
 17 62  1  0  0  0
 17 63  1  0  0  0
 17 64  1  0  0  0
 18 65  1  0  0  0
 19 66  1  0  0  0
 22 67  1  0  0  0
 22 68  1  0  0  0
 24 69  1  0  0  0
 25 70  1  0  0  0
 26 71  1  0  0  0
 28 72  1  0  0  0
 29 73  1  0  0  0
 30 74  1  0  0  0
 30 75  1  0  0  0
 31 76  1  0  0  0
 32 77  1  0  0  0
 32 78  1  0  0  0
 32 79  1  0  0  0
 33 80  1  0  0  0
 33 81  1  0  0  0
 33 82  1  0  0  0
 34 83  1  0  0  0
 35 84  1  0  0  0
 36 85  1  0  0  0
 36 86  1  0  0  0
 37 87  1  0  0  0
 37 88  1  0  0  0
 38 89  1  0  0  0
 39 90  1  0  0  0
 39 91  1  0  0  0
 40 92  1  0  0  0
 40 93  1  0  0  0
 41 94  1  0  0  0
 41 95  1  0  0  0
 41 96  1  0  0  0
 44 97  1  0  0  0
M  END
$$$$
