### 
### Created by X-TOOL on Mon Sep 10 21:13:24 2018
### 

@<TRIPOS>MOLECULE
4trw_ligand
   95    95     1     0     0
SMALL
GAST_HUCK


@<TRIPOS>ATOM
      1 N         -16.0110    9.8700   22.1450 N.4       1 GLU         0.2380
      2 CA        -16.0650    8.6320   21.3770 C.3       1 GLU         0.0665
      3 C         -15.3450    8.7790   20.0410 C.2       1 GLU         0.2268
      4 O         -15.5260    9.7690   19.3330 O.2       1 GLU        -0.3907
      5 CB        -17.5170    8.2070   21.1480 C.3       1 GLU         0.0194
      6 CG        -17.7150    6.7040   21.0410 C.3       1 GLU         0.0075
      7 CD        -19.1440    6.3260   20.7050 C.2       1 GLU         0.0351
      8 OE1       -19.3410    5.3490   19.9520 O.co2     1 GLU        -0.5690
      9 OE2       -20.0700    7.0060   21.1950 O.co2     1 GLU        -0.5690
     10 N         -14.5270    7.7870   19.7030 N.am      1 ILE        -0.2607
     11 CA        -13.7960    7.8030   18.4810 C.3       1 ILE         0.1336
     12 C         -13.9350    6.4740   17.7630 C.2       1 ILE         0.2043
     13 O         -14.2120    5.4710   18.3570 O.2       1 ILE        -0.3944
     14 CB        -12.3380    8.1340   18.7660 C.3       1 ILE        -0.0037
     15 CG1       -11.8070    7.2150   19.8240 C.3       1 ILE        -0.0491
     16 CG2       -12.2040    9.5220   19.3190 C.3       1 ILE        -0.0582
     17 CD1       -10.3820    7.4930   20.1830 C.3       1 ILE        -0.0648
     18 N         -13.7600    6.5200   16.4610 N.am      1 TIH        -0.2617
     19 CA        -13.8720    5.4020   15.5290 C.3       1 TIH         0.1420
     20 C         -12.7280    5.5880   14.5120 C.2       1 TIH         0.2043
     21 O         -12.9430    5.6320   13.2990 O.2       1 TIH        -0.3943
     22 CB        -15.2040    5.4050   14.7650 C.3       1 TIH         0.0330
     23 CG        -16.3800    5.6490   15.7040 C.2       1 TIH         0.0166
     24 CD        -16.7250    6.8030   16.2760 C.2       1 TIH        -0.0815
     25 CE1       -17.8150    6.7000   17.0580 C.2       1 TIH        -0.0932
     26 CE2       -18.3830    5.4760   17.1150 C.2       1 TIH        -0.0196
     27 SD        -17.4490    4.4360   16.1400 S.3       1 TIH        -0.0442
     28 N4        -11.5240    5.6980   15.0630 N.am      1 LHE        -0.2791
     29 C19       -10.3050    5.8930   14.2890 C.3       1 LHE         0.0731
     30 C21        -9.4830    6.8300   15.1480 C.3       1 LHE        -0.0249
     31 C22        -9.6400    8.3200   14.7350 C.3       1 LHE        -0.0446
     32 C23        -9.2510    9.1260   15.9750 C.3       1 LHE        -0.0626
     33 C24       -11.0600    8.7580   14.2780 C.3       1 LHE        -0.0626
     34 C25        -9.5870    4.5390   14.1260 C.3       1 LHE         0.1175
     35 O6         -8.3600    4.6990   13.4180 O.3       1 LHE        -0.3842
     36 C20       -10.4990    3.5480   13.4130 C.3       1 LHE        -0.0033
     37 N5         -9.8610    2.7080   12.3800 N.4       1 LHE         0.2428
     38 C26       -10.8420    2.5220   11.2500 C.3       1 LHE         0.0302
     39 C27       -10.4150    2.9980    9.8180 C.3       1 LHE         0.0022
     40 C28        -9.0070    2.4840    9.3570 C.3       1 LHE        -0.0492
     41 C29        -8.3820    3.3430    8.1660 C.3       1 LHE        -0.0650
     42 C30       -11.2580    1.0430   11.2810 C.2       1 LHE         0.0845
     43 O7        -10.4250    0.2310   10.8850 O.co2     1 LHE        -0.5643
     44 O8        -12.3740    0.7420   11.7530 O.co2     1 LHE        -0.5643
     45 H1        -16.4937    9.7434   23.0208 H         1 GLU         0.2015
     46 H2        -16.4529   10.6096   21.6217 H         1 GLU         0.2015
     47 H3        -15.0492   10.1130   22.3236 H         1 GLU         0.2015
     48 H4        -15.5597    7.8455   21.9567 H         1 GLU         0.1099
     49 H5        -17.8687    8.6689   20.2137 H         1 GLU         0.0363
     50 H6        -18.1216    8.5758   21.9897 H         1 GLU         0.0363
     51 H7        -17.4461    6.2440   22.0033 H         1 GLU         0.0434
     52 H8        -17.0536    6.3169   20.2519 H         1 GLU         0.0434
     53 H9        -14.4223    7.0094   20.3230 H         1 ILE         0.1885
     54 H10       -14.2109    8.5893   17.8333 H         1 ILE         0.0803
     55 H11       -11.7514    8.0348   17.8408 H         1 ILE         0.0345
     56 H12       -11.8800    6.1804   19.4576 H         1 ILE         0.0267
     57 H13       -12.4239    7.3283   20.7276 H         1 ILE         0.0267
     58 H14       -12.5801   10.2478   18.5829 H         1 ILE         0.0235
     59 H15       -11.1453    9.7311   19.5323 H         1 ILE         0.0235
     60 H16       -12.7884    9.6049   20.2472 H         1 ILE         0.0235
     61 H17       -10.0555    6.7871   20.9609 H         1 ILE         0.0230
     62 H18       -10.2932    8.5221   20.5612 H         1 ILE         0.0230
     63 H19        -9.7493    7.3742   19.2911 H         1 ILE         0.0230
     64 H20       -13.5267    7.4102   16.0697 H         1 TIH         0.1885
     65 H21       -13.7626    4.4504   16.0698 H         1 TIH         0.0827
     66 H22       -15.3360    4.4311   14.2709 H         1 TIH         0.0500
     67 H23       -15.1802    6.2010   14.0062 H         1 TIH         0.0500
     68 H24       -16.1802    7.7338   16.1256 H         1 TIH         0.0277
     69 H25       -18.2140    7.5497   17.6100 H         1 TIH         0.0371
     70 H26       -19.2735    5.2038   17.6797 H         1 TIH         0.0598
     71 H27       -11.4508    5.6443   16.0589 H         1 LHE         0.1856
     72 H28       -10.5159    6.3337   13.3035 H         1 LHE         0.0584
     73 H29        -8.4230    6.5503   15.0580 H         1 LHE         0.0291
     74 H30        -9.8038    6.7198   16.1944 H         1 LHE         0.0291
     75 H31        -8.9403    8.5310   13.9128 H         1 LHE         0.0296
     76 H32        -9.3386   10.2005   15.7562 H         1 LHE         0.0232
     77 H33        -8.2129    8.8920   16.2537 H         1 LHE         0.0232
     78 H34        -9.9217    8.8654   16.8070 H         1 LHE         0.0232
     79 H35       -11.3511    8.1844   13.3857 H         1 LHE         0.0232
     80 H36       -11.0531    9.8314   14.0377 H         1 LHE         0.0232
     81 H37       -11.7805    8.5680   15.0872 H         1 LHE         0.0232
     82 H38        -9.3587    4.1435   15.1267 H         1 LHE         0.0670
     83 H39        -7.7933    5.2910   13.8985 H         1 LHE         0.2101
     84 H40       -11.3055    4.1198   12.9307 H         1 LHE         0.0840
     85 H41       -10.9280    2.8786   14.1731 H         1 LHE         0.0840
     86 H42        -9.6181    1.8115   12.7716 H         1 LHE         0.2031
     87 H43        -9.0286    3.1619   12.0376 H         1 LHE         0.2031
     88 H44       -11.7282    3.1224   11.5034 H         1 LHE         0.1025
     89 H45       -10.3985    4.0978    9.8118 H         1 LHE         0.0338
     90 H46       -11.1650    2.6384    9.0981 H         1 LHE         0.0338
     91 H47        -9.1086    1.4418    9.0202 H         1 LHE         0.0266
     92 H48        -8.3210    2.5266   10.2159 H         1 LHE         0.0266
     93 H49        -7.3994    2.9307    7.8930 H         1 LHE         0.0230
     94 H50        -8.2641    4.3876    8.4899 H         1 LHE         0.0230
     95 H51        -9.0516    3.3028    7.2942 H         1 LHE         0.0230
@<TRIPOS>BOND
     1    1    2 1  
     2    2    3 1  
     3    2    5 1  
     4    3    4 2  
     5    3   10 am 
     6    5    6 1  
     7    6    7 1  
     8    7    8 ar 
     9    7    9 ar 
    10   10   11 1  
    11   11   12 1  
    12   11   14 1  
    13   12   13 2  
    14   12   18 am 
    15   14   15 1  
    16   14   16 1  
    17   15   17 1  
    18   18   19 1  
    19   19   20 1  
    20   19   22 1  
    21   20   21 2  
    22   20   28 am 
    23   22   23 1  
    24   23   24 2  
    25   23   27 1  
    26   24   25 1  
    27   25   26 2  
    28   26   27 1  
    29   28   29 1  
    30   29   30 1  
    31   29   34 1  
    32   30   31 1  
    33   31   32 1  
    34   31   33 1  
    35   34   35 1  
    36   34   36 1  
    37   36   37 1  
    38   37   38 1  
    39   38   39 1  
    40   38   42 1  
    41   39   40 1  
    42   40   41 1  
    43   42   43 ar 
    44   42   44 ar 
    45    1   45 1  
    46    1   46 1  
    47    1   47 1  
    48    2   48 1  
    49    5   49 1  
    50    5   50 1  
    51    6   51 1  
    52    6   52 1  
    53   10   53 1  
    54   11   54 1  
    55   14   55 1  
    56   15   56 1  
    57   15   57 1  
    58   16   58 1  
    59   16   59 1  
    60   16   60 1  
    61   17   61 1  
    62   17   62 1  
    63   17   63 1  
    64   18   64 1  
    65   19   65 1  
    66   22   66 1  
    67   22   67 1  
    68   24   68 1  
    69   25   69 1  
    70   26   70 1  
    71   28   71 1  
    72   29   72 1  
    73   30   73 1  
    74   30   74 1  
    75   31   75 1  
    76   32   76 1  
    77   32   77 1  
    78   32   78 1  
    79   33   79 1  
    80   33   80 1  
    81   33   81 1  
    82   34   82 1  
    83   35   83 1  
    84   36   84 1  
    85   36   85 1  
    86   37   86 1  
    87   37   87 1  
    88   38   88 1  
    89   39   89 1  
    90   39   90 1  
    91   40   91 1  
    92   40   92 1  
    93   41   93 1  
    94   41   94 1  
    95   41   95 1  
@<TRIPOS>SUBSTRUCTURE
     1 GLU         1

