5j7b_ligand
  -I-interpret- 

 46 49  0  0  0  0  0  0  0  0999 V2000
  -40.7370   38.0410   -4.5260 C   0  0  0  0  0
  -41.1940   35.8940   -3.5870 N   0  0  0  0  0
  -41.1080   35.0630   -2.5540 C   0  0  0  0  0
  -39.9640   36.6200   -1.1660 C   0  0  0  0  0
  -39.3620   36.4260    1.2140 C   0  0  0  0  0
  -38.9470   34.8940    2.8050 C   0  0  0  0  0
  -38.4740   33.7140    3.3970 C   0  0  0  0  0
  -37.7880   32.7960    2.6170 C   0  0  0  0  0
  -38.7280   35.1390    1.4640 C   0  0  0  0  0
  -39.4760   38.8810   -2.1780 C   0  0  0  0  0
  -39.5270   43.8710   -2.4300 C   0  0  0  0  0
  -40.1650   42.4750   -2.4770 C   0  0  0  0  0
  -41.3820   42.4690   -3.3810 C   0  0  0  0  0
  -40.5120   41.9810   -1.0710 C   0  0  0  0  0
  -38.9320   41.3550   -3.2160 S   0  0  0  0  0
  -37.8080   41.3050   -2.3240 O   0  0  0  0  0
  -38.7190   41.7910   -4.5710 O   0  0  0  0  0
  -39.6140   39.7280   -3.2710 C   0  0  0  0  0
  -40.2220   39.3000   -4.4450 C   0  0  0  0  0
  -40.6470   37.1440   -3.4390 C   0  0  0  0  0
  -40.5090   35.3660   -1.3430 C   0  0  0  0  0
  -39.3380   36.9890    0.0520 N   0  0  0  0  0
  -39.8950   36.9180    2.3530 N   0  0  0  0  0
  -39.6500   35.9890    3.2840 N   0  0  0  0  0
  -37.5890   33.0800    1.2820 C   0  0  0  0  0
  -36.9210   32.1790    0.5290 F   0  0  0  0  0
  -38.0380   34.2400    0.6600 C   0  0  0  0  0
  -40.0080   37.5640   -2.2400 C   0  0  0  0  0
  -41.2268   37.7208   -5.4456 H   0  0  0  0  0
  -41.5410   34.0692   -2.6683 H   0  0  0  0  0
  -38.6435   33.5212    4.4563 H   0  0  0  0  0
  -37.4134   31.8685    3.0500 H   0  0  0  0  0
  -38.9634   39.2240   -1.2793 H   0  0  0  0  0
  -38.6229   43.8356   -1.8221 H   0  0  0  0  0
  -39.2739   44.1877   -3.4418 H   0  0  0  0  0
  -40.2329   44.5772   -1.9928 H   0  0  0  0  0
  -41.0970   42.8160   -4.3742 H   0  0  0  0  0
  -41.7779   41.4557   -3.4485 H   0  0  0  0  0
  -42.1431   43.1310   -2.9680 H   0  0  0  0  0
  -40.9220   40.9729   -1.1324 H   0  0  0  0  0
  -39.6108   41.9714   -0.4579 H   0  0  0  0  0
  -41.2495   42.6480   -0.6246 H   0  0  0  0  0
  -40.2870   39.9715   -5.3012 H   0  0  0  0  0
  -40.4690   34.6261   -0.5436 H   0  0  0  0  0
  -38.7764   37.8390    0.0019 H   0  0  0  0  0
  -37.8589   34.4329   -0.3977 H   0  0  0  0  0
  1 19  4  0  0  0
 20  1  4  0  0  0
  3  2  4  0  0  0
  2 20  4  0  0  0
 21  3  4  0  0  0
  4 21  4  0  0  0
  4 22  1  0  0  0
 28  4  4  0  0  0
  5  9  4  0  0  0
 22  5  1  0  0  0
  5 23  4  0  0  0
  6  7  4  0  0  0
  9  6  4  0  0  0
  6 24  4  0  0  0
  7  8  4  0  0  0
  8 25  4  0  0  0
  9 27  4  0  0  0
 18 10  4  0  0  0
 10 28  4  0  0  0
 12 11  1  0  0  0
 12 13  1  0  0  0
 12 14  1  0  0  0
 15 12  1  0  0  0
 15 16  2  0  0  0
 15 17  2  0  0  0
 15 18  1  0  0  0
 18 19  4  0  0  0
 20 28  4  0  0  0
 23 24  4  0  0  0
 25 26  1  0  0  0
 25 27  4  0  0  0
  1 29  1  0  0  0
  3 30  1  0  0  0
  7 31  1  0  0  0
  8 32  1  0  0  0
 10 33  1  0  0  0
 11 34  1  0  0  0
 11 35  1  0  0  0
 11 36  1  0  0  0
 13 37  1  0  0  0
 13 38  1  0  0  0
 13 39  1  0  0  0
 14 40  1  0  0  0
 14 41  1  0  0  0
 14 42  1  0  0  0
 19 43  1  0  0  0
 21 44  1  0  0  0
 22 45  1  0  0  0
 27 46  1  0  0  0
M  END
$$$$
