### 
### Created by X-TOOL on Mon Sep 10 21:12:55 2018
### 

@<TRIPOS>MOLECULE
2fuu_ligand
  240   239     1     0     0
SMALL
GAST_HUCK


@<TRIPOS>ATOM
      1 N           3.1940   -5.0230   -4.2420 N.4       1 ALA         0.2377
      2 CA          3.5300   -4.0990   -5.3640 C.3       1 ALA         0.0621
      3 C           2.5460   -2.9390   -5.3770 C.2       1 ALA         0.2264
      4 O           1.5630   -2.9330   -4.6350 O.2       1 ALA        -0.3907
      5 CB          3.4460   -4.8580   -6.6930 C.3       1 ALA        -0.0040
      6 N           2.8120   -1.9650   -6.2400 N.am      1 ARG        -0.2610
      7 CA          1.9360   -0.8080   -6.3620 C.3       1 ARG         0.1312
      8 C           0.8120   -1.0970   -7.3420 C.2       1 ARG         0.2040
      9 O           0.6360   -0.3720   -8.3220 O.2       1 ARG        -0.3944
     10 CB          2.7220    0.4080   -6.8560 C.3       1 ARG        -0.0092
     11 CG          3.6200    0.9390   -5.7420 C.3       1 ARG        -0.0156
     12 CD          4.2730    2.2430   -6.2070 C.3       1 ARG         0.0627
     13 NE          5.2420    1.9770   -7.2630 N.pl3     1 ARG        -0.2723
     14 CZ          6.5120    1.7060   -6.9760 C.cat     1 ARG         0.2882
     15 NH1         6.9020    1.6450   -5.7310 N.pl3     1 ARG        -0.2849
     16 NH2         7.3680    1.4980   -7.9370 N.pl3     1 ARG        -0.2849
     17 N           0.0460   -2.1520   -7.0870 N.am      1 THR        -0.2613
     18 CA         -1.0480   -2.4810   -7.9830 C.3       1 THR         0.1565
     19 C          -2.0510   -1.3400   -7.9930 C.2       1 THR         0.2065
     20 O          -2.4710   -0.8590   -6.9410 O.2       1 THR        -0.3943
     21 CB         -1.7420   -3.7780   -7.5590 C.3       1 THR         0.0924
     22 OG1        -0.7660   -4.7950   -7.3770 O.3       1 THR        -0.3874
     23 CG2        -2.7350   -4.2110   -8.6490 C.3       1 THR        -0.0346
     24 N          -2.4210   -0.9030   -9.1880 N.am      1 M3L        -0.2637
     25 CA         -3.3650    0.1940   -9.3410 C.3       1 M3L         0.1310
     26 CB         -2.7320    1.2600  -10.2470 C.3       1 M3L        -0.0122
     27 CG         -2.8840    2.6520   -9.6380 C.3       1 M3L        -0.0440
     28 CD         -2.5430    3.7130  -10.6970 C.3       1 M3L        -0.0123
     29 CE         -3.8030    4.0570  -11.5060 C.3       1 M3L        -0.0309
     30 NZ         -3.4640    4.7850  -12.7840 N.4       1 M3L         0.2369
     31 C          -4.6620   -0.3420   -9.9470 C.2       1 M3L         0.2039
     32 O          -4.7580   -0.5340  -11.1580 O.2       1 M3L        -0.3944
     33 CM1        -3.0480    3.8180  -13.8380 C.3       1 M3L        -0.0418
     34 CM2        -2.4090    5.8070  -12.5570 C.3       1 M3L        -0.0418
     35 CM3        -4.6680    5.4730  -13.2680 C.3       1 M3L        -0.0418
     36 N          -5.6470   -0.6080   -9.0900 N.am      1 GLN        -0.2636
     37 CA         -6.9260   -1.1560   -9.5440 C.3       1 GLN         0.1330
     38 C          -8.1030   -0.3420   -9.0160 C.2       1 GLN         0.2041
     39 O          -7.9240    0.6290   -8.2810 O.2       1 GLN        -0.3944
     40 CB         -7.0620   -2.6090   -9.0770 C.3       1 GLN         0.0045
     41 CG         -7.0680   -2.6730   -7.5370 C.3       1 GLN         0.0412
     42 CD         -5.7650   -3.2790   -7.0240 C.2       1 GLN         0.1737
     43 OE1        -5.6430   -4.5000   -6.9270 O.2       1 GLN        -0.3973
     44 NE2        -4.7790   -2.4920   -6.6900 N.am      1 GLN        -0.3009
     45 N          -9.3090   -0.7480   -9.4080 N.am      1 THR        -0.2613
     46 CA        -10.5250   -0.0620   -8.9850 C.3       1 THR         0.1565
     47 C         -11.5600   -1.0630   -8.4700 C.2       1 THR         0.2065
     48 O         -11.5010   -2.2490   -8.7940 O.2       1 THR        -0.3943
     49 CB        -11.1080    0.7200  -10.1670 C.3       1 THR         0.0924
     50 OG1       -12.0760    1.6460   -9.6910 O.3       1 THR        -0.3874
     51 CG2       -11.7630   -0.2470  -11.1560 C.3       1 THR        -0.0346
     52 N         -12.5050   -0.5750   -7.6710 N.am      1 ALA        -0.2639
     53 CA        -13.5490   -1.4330   -7.1170 C.3       1 ALA         0.1282
     54 C         -14.8320   -0.6350   -6.8970 C.2       1 ALA         0.2036
     55 O         -15.5500   -0.8470   -5.9190 O.2       1 ALA        -0.3944
     56 CB        -13.0850   -2.0340   -5.7900 C.3       1 ALA        -0.0244
     57 N         -15.1090    0.2850   -7.8140 N.am      1 ARG        -0.2637
     58 CA        -16.3030    1.1210   -7.7200 C.3       1 ARG         0.1311
     59 C         -17.5630    0.2660   -7.6180 C.2       1 ARG         0.2039
     60 O         -18.5200    0.6360   -6.9390 O.2       1 ARG        -0.3944
     61 CB        -16.4000    2.0260   -8.9490 C.3       1 ARG        -0.0092
     62 CG        -17.5640    3.0040   -8.7750 C.3       1 ARG        -0.0156
     63 CD        -17.6460    3.9290   -9.9910 C.3       1 ARG         0.0627
     64 NE        -18.1230    3.1910  -11.1570 N.pl3     1 ARG        -0.2723
     65 CZ        -17.2790    2.6180  -12.0100 C.cat     1 ARG         0.2882
     66 NH1       -15.9910    2.6970  -11.8130 N.pl3     1 ARG        -0.2849
     67 NH2       -17.7390    1.9690  -13.0450 N.pl3     1 ARG        -0.2849
     68 N         -17.5610   -0.8710   -8.3070 N.am      1 LYS        -0.2637
     69 CA        -18.7180   -1.7590   -8.2960 C.3       1 LYS         0.1310
     70 C         -19.0830   -2.1670   -6.8710 C.2       1 LYS         0.2040
     71 O         -20.2600   -2.3060   -6.5410 O.2       1 LYS        -0.3944
     72 CB        -18.4240   -3.0110   -9.1300 C.3       1 LYS        -0.0122
     73 CG        -17.3590   -3.8610   -8.4310 C.3       1 LYS        -0.0440
     74 CD        -16.9670   -5.0310   -9.3350 C.3       1 LYS        -0.0124
     75 CE        -16.1770   -6.0600   -8.5270 C.3       1 LYS        -0.0354
     76 NZ        -15.0980   -5.3710   -7.7630 N.4       1 LYS         0.2185
     77 N         -18.0720   -2.3600   -6.0290 N.am      1 SER        -0.2616
     78 CA        -18.3150   -2.7540   -4.6450 C.3       1 SER         0.1539
     79 C         -18.6700   -1.5390   -3.7920 C.2       1 SER         0.2063
     80 O         -18.2060   -0.4290   -4.0500 O.2       1 SER        -0.3943
     81 CB        -17.0750   -3.4360   -4.0690 C.3       1 SER         0.0843
     82 OG        -16.0800   -2.4550   -3.8070 O.3       1 SER        -0.3903
     83 N         -19.4920   -1.7630   -2.7690 N.am      1 THR        -0.2613
     84 CA        -19.9000   -0.6830   -1.8760 C.3       1 THR         0.1565
     85 C         -19.0420   -0.6800   -0.6160 C.2       1 THR         0.2063
     86 O         -18.2190    0.2130   -0.4130 O.2       1 THR        -0.3943
     87 CB        -21.3730   -0.8520   -1.4930 C.3       1 THR         0.0924
     88 OG1       -22.1780   -0.7650   -2.6610 O.3       1 THR        -0.3874
     89 CG2       -21.7760    0.2480   -0.5100 C.3       1 THR        -0.0346
     90 N         -19.2420   -1.6880    0.2270 N.am      1 GLY        -0.2663
     91 CA        -18.4840   -1.8020    1.4680 C.3       1 GLY         0.1201
     92 C         -19.1350   -2.8100    2.4090 C.2       1 GLY         0.2005
     93 O         -20.1220   -2.5040    3.0760 O.2       1 GLY        -0.3947
     94 N         -18.5770   -4.0160    2.4550 N.am      1 GLY        -0.2666
     95 CA        -19.1150   -5.0640    3.3170 C.3       1 GLY         0.1201
     96 C         -18.6670   -4.8670    4.7610 C.2       1 GLY         0.2007
     97 O         -17.4900   -4.6240    5.0280 O.2       1 GLY        -0.3947
     98 N         -19.6120   -4.9790    5.6900 N.am      1 LYS        -0.2640
     99 CA        -19.3020   -4.8140    7.1050 C.3       1 LYS         0.1309
    100 C         -18.2680   -5.8450    7.5510 C.2       1 LYS         0.2033
    101 O         -17.4120   -5.5600    8.3860 O.2       1 LYS        -0.3944
    102 CB        -20.5720   -4.9700    7.9420 C.3       1 LYS        -0.0122
    103 CG        -21.5500   -3.8430    7.5990 C.3       1 LYS        -0.0440
    104 CD        -22.8310   -4.0040    8.4240 C.3       1 LYS        -0.0124
    105 CE        -22.5330   -3.7600    9.9080 C.3       1 LYS        -0.0354
    106 NZ        -23.7810   -3.3190   10.5940 N.4       1 LYS         0.2185
    107 N         -18.3580   -7.0460    6.9850 N.am      1 ALA        -0.2698
    108 CA        -17.4290   -8.1210    7.3280 C.3       1 ALA         0.0916
    109 C         -16.4200   -8.3320    6.2050 C.2       1 ALA         0.0598
    110 O         -15.9220   -9.4390    6.0830 O.co2     1 ALA        -0.5666
    111 CB        -18.2000   -9.4190    7.5710 C.3       1 ALA        -0.0300
    112 OXT       -16.1600   -7.3840    5.4830 O.co2     1 ALA        -0.5666
    113 H1          3.8459   -5.7918   -4.2332 H         1 ALA         0.2015
    114 H2          2.2586   -5.3772   -4.3670 H         1 ALA         0.2015
    115 H3          3.2506   -4.5245   -3.3677 H         1 ALA         0.2015
    116 H4          4.5505   -3.7120   -5.2272 H         1 ALA         0.1095
    117 H5          3.6937   -4.1769   -7.5205 H         1 ALA         0.0310
    118 H6          2.4257   -5.2456   -6.8301 H         1 ALA         0.0310
    119 H7          4.1583   -5.6961   -6.6823 H         1 ALA         0.0310
    120 H8          3.6274   -2.0272   -6.8156 H         1 ARG         0.1884
    121 H9          1.5056   -0.5826   -5.3751 H         1 ARG         0.0800
    122 H10         2.0185    1.1959   -7.1631 H         1 ARG         0.0313
    123 H11         3.3429    0.1154   -7.7156 H         1 ARG         0.0313
    124 H12         4.3996    0.1979   -5.5119 H         1 ARG         0.0301
    125 H13         3.0174    1.1290   -4.8416 H         1 ARG         0.0301
    126 H14         4.7850    2.7157   -5.3559 H         1 ARG         0.0689
    127 H15         3.4962    2.9210   -6.5902 H         1 ARG         0.0689
    128 H16         4.9383    1.9993   -8.2470 H         1 ARG         0.2642
    129 H17         7.8857    1.4351   -5.5092 H         1 ARG         0.2615
    130 H18         6.2259    1.8068   -4.9710 H         1 ARG         0.2615
    131 H19         7.0614    1.5459   -8.9191 H         1 ARG         0.2615
    132 H20         8.3510    1.2858   -7.7141 H         1 ARG         0.2615
    133 H21         0.2222   -2.7173   -6.2811 H         1 THR         0.1884
    134 H22        -0.6455   -2.6134   -8.9981 H         1 THR         0.0826
    135 H23        -2.2824   -3.6138   -6.6151 H         1 THR         0.0639
    136 H24        -1.1951   -5.6007   -7.1138 H         1 THR         0.2101
    137 H25        -3.2325   -5.1429   -8.3425 H         1 THR         0.0257
    138 H26        -2.1944   -4.3772   -9.5925 H         1 THR         0.0257
    139 H27        -3.4889   -3.4229   -8.7922 H         1 THR         0.0257
    140 H28        -2.0422   -1.3378  -10.0050 H         1 M3L         0.1883
    141 H29        -3.5818    0.6358   -8.3572 H         1 M3L         0.0800
    142 H30        -3.2287    1.2399  -11.2282 H         1 M3L         0.0312
    143 H31        -1.6623    1.0368  -10.3729 H         1 M3L         0.0312
    144 H32        -2.2005    2.7548   -8.7823 H         1 M3L         0.0269
    145 H33        -3.9207    2.7927   -9.2982 H         1 M3L         0.0269
    146 H34        -1.7697    3.3199  -11.3734 H         1 M3L         0.0317
    147 H35        -2.1685    4.6198  -10.1995 H         1 M3L         0.0317
    148 H36        -4.4561    4.6964  -10.8940 H         1 M3L         0.0815
    149 H37        -4.3317    3.1253  -11.7559 H         1 M3L         0.0815
    150 H38        -2.8048    4.3642  -14.7613 H         1 M3L         0.0778
    151 H39        -3.8697    3.1136  -14.0343 H         1 M3L         0.0778
    152 H40        -2.1622    3.2622  -13.4967 H         1 M3L         0.0778
    153 H41        -2.7393    6.5077  -11.7761 H         1 M3L         0.0778
    154 H42        -2.2258    6.3586  -13.4909 H         1 M3L         0.0778
    155 H43        -1.4811    5.3111  -12.2359 H         1 M3L         0.0778
    156 H44        -5.4656    4.7362  -13.4440 H         1 M3L         0.0778
    157 H45        -4.4385    5.9963  -14.2079 H         1 M3L         0.0778
    158 H46        -5.0018    6.2017  -12.5146 H         1 M3L         0.0778
    159 H47        -5.5094   -0.4294   -8.1157 H         1 GLN         0.1883
    160 H48        -6.9468   -1.1306  -10.6435 H         1 GLN         0.0801
    161 H49        -6.2148   -3.1955   -9.4620 H         1 GLN         0.0337
    162 H50        -8.0033   -3.0282   -9.4620 H         1 GLN         0.0337
    163 H51        -7.9124   -3.2941   -7.2035 H         1 GLN         0.0504
    164 H52        -7.1785   -1.6561   -7.1325 H         1 GLN         0.0504
    165 H53        -3.9214   -2.8804   -6.3528 H         1 GLN         0.1814
    166 H54        -4.8810   -1.5005   -6.7713 H         1 GLN         0.1814
    167 H55        -9.3832   -1.5443  -10.0083 H         1 THR         0.1884
    168 H56       -10.2754    0.6402   -8.1760 H         1 THR         0.0826
    169 H57       -10.3001    1.2668  -10.6752 H         1 THR         0.0639
    170 H58       -12.4368    2.1302  -10.4243 H         1 THR         0.2101
    171 H59       -12.1794    0.3198  -12.0018 H         1 THR         0.0257
    172 H60       -12.5702   -0.7974  -10.6506 H         1 THR         0.0257
    173 H61       -11.0102   -0.9583  -11.5265 H         1 THR         0.0257
    174 H62       -12.5005    0.3991   -7.4451 H         1 ALA         0.1883
    175 H63       -13.7529   -2.2479   -7.8271 H         1 ALA         0.0797
    176 H64       -13.8781   -2.6778   -5.3819 H         1 ALA         0.0277
    177 H65       -12.8666   -1.2249   -5.0775 H         1 ALA         0.0277
    178 H66       -12.1766   -2.6317   -5.9559 H         1 ALA         0.0277
    179 H67       -14.4859    0.4081   -8.5864 H         1 ARG         0.1883
    180 H68       -16.2256    1.7470   -6.8188 H         1 ARG         0.0800
    181 H69       -16.5698    1.4104   -9.8446 H         1 ARG         0.0313
    182 H70       -15.4623    2.5895   -9.0637 H         1 ARG         0.0313
    183 H71       -17.4038    3.6056   -7.8681 H         1 ARG         0.0301
    184 H72       -18.5040    2.4406   -8.6801 H         1 ARG         0.0301
    185 H73       -16.6473    4.3380  -10.2040 H         1 ARG         0.0689
    186 H74       -18.3412    4.7533   -9.7738 H         1 ARG         0.0689
    187 H75       -19.1366    3.1124  -11.3227 H         1 ARG         0.2642
    188 H76       -15.3404    2.2519  -12.4759 H         1 ARG         0.2615
    189 H77       -15.6253    3.2045  -10.9947 H         1 ARG         0.2615
    190 H78       -18.7548    1.9050  -13.2030 H         1 ARG         0.2615
    191 H79       -17.0862    1.5209  -13.7037 H         1 ARG         0.2615
    192 H80       -16.7535   -1.1213   -8.8412 H         1 LYS         0.1883
    193 H81       -19.5726   -1.2276   -8.7401 H         1 LYS         0.0800
    194 H82       -18.0579   -2.7109  -10.1229 H         1 LYS         0.0312
    195 H83       -19.3461   -3.6003   -9.2418 H         1 LYS         0.0312
    196 H84       -17.7625   -4.2485   -7.4839 H         1 LYS         0.0269
    197 H85       -16.4725   -3.2428   -8.2263 H         1 LYS         0.0269
    198 H86       -16.3457   -4.6611  -10.1640 H         1 LYS         0.0317
    199 H87       -17.8753   -5.5018   -9.7392 H         1 LYS         0.0317
    200 H88       -15.7292   -6.7969   -9.2100 H         1 LYS         0.0813
    201 H89       -16.8523   -6.5725   -7.8261 H         1 LYS         0.0813
    202 H90       -14.5773   -6.0501   -7.2303 H         1 LYS         0.1994
    203 H91       -15.5081   -4.6958   -7.1370 H         1 LYS         0.1994
    204 H92       -14.4790   -4.9014   -8.4051 H         1 LYS         0.1994
    205 H93       -17.1329   -2.2335   -6.3484 H         1 SER         0.1884
    206 H94       -19.1562   -3.4624   -4.6219 H         1 SER         0.0823
    207 H95       -16.6880   -4.1679   -4.7932 H         1 SER         0.0606
    208 H96       -17.3394   -3.9505   -3.1334 H         1 SER         0.0606
    209 H97       -15.8534   -2.0115   -4.6159 H         1 SER         0.2097
    210 H98       -19.8362   -2.6882   -2.6095 H         1 THR         0.1884
    211 H99       -19.7723    0.2772   -2.3972 H         1 THR         0.0826
    212 H100      -21.5180   -1.8349   -1.0210 H         1 THR         0.0639
    213 H101      -23.0917   -0.8699   -2.4230 H         1 THR         0.2101
    214 H102      -22.8342    0.1251   -0.2360 H         1 THR         0.0257
    215 H103      -21.6310    1.2316   -0.9807 H         1 THR         0.0257
    216 H104      -21.1528    0.1785    0.3937 H         1 THR         0.0257
    217 H105      -19.9264   -2.3827    0.0058 H         1 GLY         0.1881
    218 H106      -18.4487   -0.8192    1.9607 H         1 GLY         0.0763
    219 H107      -17.4609   -2.1331    1.2366 H         1 GLY         0.0763
    220 H108      -17.7751   -4.2084    1.8894 H         1 GLY         0.1881
    221 H109      -18.7588   -6.0416    2.9601 H         1 GLY         0.0763
    222 H110      -20.2138   -5.0362    3.2743 H         1 GLY         0.0763
    223 H111      -20.5517   -5.1799    5.4131 H         1 LYS         0.1883
    224 H112      -18.8910   -3.8059    7.2625 H         1 LYS         0.0800
    225 H113      -20.3155   -4.9205    9.0105 H         1 LYS         0.0312
    226 H114      -21.0395   -5.9410    7.7217 H         1 LYS         0.0312
    227 H115      -21.7968   -3.8860    6.5279 H         1 LYS         0.0269
    228 H116      -21.0858   -2.8728    7.8297 H         1 LYS         0.0269
    229 H117      -23.2223   -5.0238    8.2939 H         1 LYS         0.0317
    230 H118      -23.5806   -3.2768    8.0786 H         1 LYS         0.0317
    231 H119      -21.7645   -2.9790   10.0051 H         1 LYS         0.0813
    232 H120      -22.1700   -4.6909   10.3680 H         1 LYS         0.0813
    233 H121      -23.5887   -3.1576   11.5702 H         1 LYS         0.1994
    234 H122      -24.4848   -4.0350   10.5041 H         1 LYS         0.1994
    235 H123      -24.1133   -2.4662   10.1716 H         1 LYS         0.1994
    236 H124      -19.0765   -7.2166    6.3107 H         1 ALA         0.1875
    237 H125      -16.8897   -7.8459    8.2464 H         1 ALA         0.0723
    238 H126      -17.4938  -10.2222    7.8284 H         1 ALA         0.0270
    239 H127      -18.7517   -9.6939    6.6599 H         1 ALA         0.0270
    240 H128      -18.9090   -9.2747    8.3995 H         1 ALA         0.0270
@<TRIPOS>BOND
     1    1    2 1  
     2    2    3 1  
     3    2    5 1  
     4    3    4 2  
     5    3    6 am 
     6    6    7 1  
     7    7    8 1  
     8    7   10 1  
     9    8    9 2  
    10    8   17 am 
    11   10   11 1  
    12   11   12 1  
    13   12   13 1  
    14   13   14 ar 
    15   14   15 ar 
    16   14   16 ar 
    17   17   18 1  
    18   18   19 1  
    19   18   21 1  
    20   19   20 2  
    21   19   24 am 
    22   21   22 1  
    23   21   23 1  
    24   24   25 1  
    25   25   26 1  
    26   25   31 1  
    27   26   27 1  
    28   27   28 1  
    29   28   29 1  
    30   29   30 1  
    31   30   33 1  
    32   30   34 1  
    33   30   35 1  
    34   31   32 2  
    35   31   36 am 
    36   36   37 1  
    37   37   38 1  
    38   37   40 1  
    39   38   39 2  
    40   38   45 am 
    41   40   41 1  
    42   41   42 1  
    43   42   43 2  
    44   42   44 am 
    45   45   46 1  
    46   46   47 1  
    47   46   49 1  
    48   47   48 2  
    49   47   52 am 
    50   49   50 1  
    51   49   51 1  
    52   52   53 1  
    53   53   54 1  
    54   53   56 1  
    55   54   55 2  
    56   54   57 am 
    57   57   58 1  
    58   58   59 1  
    59   58   61 1  
    60   59   60 2  
    61   59   68 am 
    62   61   62 1  
    63   62   63 1  
    64   63   64 1  
    65   64   65 ar 
    66   65   66 ar 
    67   65   67 ar 
    68   68   69 1  
    69   69   70 1  
    70   69   72 1  
    71   70   71 2  
    72   70   77 am 
    73   72   73 1  
    74   73   74 1  
    75   74   75 1  
    76   75   76 1  
    77   77   78 1  
    78   78   79 1  
    79   78   81 1  
    80   79   80 2  
    81   79   83 am 
    82   81   82 1  
    83   83   84 1  
    84   84   85 1  
    85   84   87 1  
    86   85   86 2  
    87   85   90 am 
    88   87   88 1  
    89   87   89 1  
    90   90   91 1  
    91   91   92 1  
    92   92   93 2  
    93   92   94 am 
    94   94   95 1  
    95   95   96 1  
    96   96   97 2  
    97   96   98 am 
    98   98   99 1  
    99   99  100 1  
   100   99  102 1  
   101  100  101 2  
   102  100  107 am 
   103  102  103 1  
   104  103  104 1  
   105  104  105 1  
   106  105  106 1  
   107  107  108 1  
   108  108  109 1  
   109  108  111 1  
   110  109  110 ar 
   111  109  112 ar 
   112    1  113 1  
   113    1  114 1  
   114    1  115 1  
   115    2  116 1  
   116    5  117 1  
   117    5  118 1  
   118    5  119 1  
   119    6  120 1  
   120    7  121 1  
   121   10  122 1  
   122   10  123 1  
   123   11  124 1  
   124   11  125 1  
   125   12  126 1  
   126   12  127 1  
   127   13  128 1  
   128   15  129 1  
   129   15  130 1  
   130   16  131 1  
   131   16  132 1  
   132   17  133 1  
   133   18  134 1  
   134   21  135 1  
   135   22  136 1  
   136   23  137 1  
   137   23  138 1  
   138   23  139 1  
   139   24  140 1  
   140   25  141 1  
   141   26  142 1  
   142   26  143 1  
   143   27  144 1  
   144   27  145 1  
   145   28  146 1  
   146   28  147 1  
   147   29  148 1  
   148   29  149 1  
   149   33  150 1  
   150   33  151 1  
   151   33  152 1  
   152   34  153 1  
   153   34  154 1  
   154   34  155 1  
   155   35  156 1  
   156   35  157 1  
   157   35  158 1  
   158   36  159 1  
   159   37  160 1  
   160   40  161 1  
   161   40  162 1  
   162   41  163 1  
   163   41  164 1  
   164   44  165 1  
   165   44  166 1  
   166   45  167 1  
   167   46  168 1  
   168   49  169 1  
   169   50  170 1  
   170   51  171 1  
   171   51  172 1  
   172   51  173 1  
   173   52  174 1  
   174   53  175 1  
   175   56  176 1  
   176   56  177 1  
   177   56  178 1  
   178   57  179 1  
   179   58  180 1  
   180   61  181 1  
   181   61  182 1  
   182   62  183 1  
   183   62  184 1  
   184   63  185 1  
   185   63  186 1  
   186   64  187 1  
   187   66  188 1  
   188   66  189 1  
   189   67  190 1  
   190   67  191 1  
   191   68  192 1  
   192   69  193 1  
   193   72  194 1  
   194   72  195 1  
   195   73  196 1  
   196   73  197 1  
   197   74  198 1  
   198   74  199 1  
   199   75  200 1  
   200   75  201 1  
   201   76  202 1  
   202   76  203 1  
   203   76  204 1  
   204   77  205 1  
   205   78  206 1  
   206   81  207 1  
   207   81  208 1  
   208   82  209 1  
   209   83  210 1  
   210   84  211 1  
   211   87  212 1  
   212   88  213 1  
   213   89  214 1  
   214   89  215 1  
   215   89  216 1  
   216   90  217 1  
   217   91  218 1  
   218   91  219 1  
   219   94  220 1  
   220   95  221 1  
   221   95  222 1  
   222   98  223 1  
   223   99  224 1  
   224  102  225 1  
   225  102  226 1  
   226  103  227 1  
   227  103  228 1  
   228  104  229 1  
   229  104  230 1  
   230  105  231 1  
   231  105  232 1  
   232  106  233 1  
   233  106  234 1  
   234  106  235 1  
   235  107  236 1  
   236  108  237 1  
   237  111  238 1  
   238  111  239 1  
   239  111  240 1  
@<TRIPOS>SUBSTRUCTURE
     1 ALA         1

