2fuu_ligand
  -I-interpret- 

239238  0  0  0  0  0  0  0  0999 V2000
    3.1940   -5.0230   -4.2420 N   0  3  0  0  0
    3.5300   -4.0990   -5.3640 C   0  0  0  0  0
    2.5460   -2.9390   -5.3770 C   0  0  0  0  0
    1.5630   -2.9330   -4.6350 O   0  0  0  0  0
    3.4460   -4.8580   -6.6930 C   0  0  0  0  0
    2.8120   -1.9650   -6.2400 N   0  0  0  0  0
    1.9360   -0.8080   -6.3620 C   0  0  0  0  0
    0.8120   -1.0970   -7.3420 C   0  0  0  0  0
    0.6360   -0.3720   -8.3220 O   0  0  0  0  0
    2.7220    0.4080   -6.8560 C   0  0  0  0  0
    3.6200    0.9390   -5.7420 C   0  0  0  0  0
    4.2730    2.2430   -6.2070 C   0  0  0  0  0
    5.2420    1.9770   -7.2630 N   0  0  0  0  0
    6.5120    1.7060   -6.9760 C   0  0  0  0  0
    6.9020    1.6450   -5.7310 N   0  0  0  0  0
    7.3680    1.4980   -7.9370 N   0  0  0  0  0
    0.0460   -2.1520   -7.0870 N   0  0  0  0  0
   -1.0480   -2.4810   -7.9830 C   0  0  0  0  0
   -2.0510   -1.3400   -7.9930 C   0  0  0  0  0
   -2.4710   -0.8590   -6.9410 O   0  0  0  0  0
   -1.7420   -3.7780   -7.5590 C   0  0  0  0  0
   -0.7660   -4.7950   -7.3770 O   0  0  0  0  0
   -2.7350   -4.2110   -8.6490 C   0  0  0  0  0
   -2.4210   -0.9030   -9.1880 N   0  0  0  0  0
   -3.3650    0.1940   -9.3410 C   0  0  0  0  0
   -2.7320    1.2600  -10.2470 C   0  0  0  0  0
   -2.8840    2.6520   -9.6380 C   0  0  0  0  0
   -2.5430    3.7130  -10.6970 C   0  0  0  0  0
   -3.8030    4.0570  -11.5060 C   0  0  0  0  0
   -3.4640    4.7850  -12.7840 N   0  3  0  0  0
   -4.6620   -0.3420   -9.9470 C   0  0  0  0  0
   -4.7580   -0.5340  -11.1580 O   0  0  0  0  0
   -3.0480    3.8180  -13.8380 C   0  0  0  0  0
   -2.4090    5.8070  -12.5570 C   0  0  0  0  0
   -4.6680    5.4730  -13.2680 C   0  0  0  0  0
   -5.6470   -0.6080   -9.0900 N   0  0  0  0  0
   -6.9260   -1.1560   -9.5440 C   0  0  0  0  0
   -8.1030   -0.3420   -9.0160 C   0  0  0  0  0
   -7.9240    0.6290   -8.2810 O   0  0  0  0  0
   -7.0620   -2.6090   -9.0770 C   0  0  0  0  0
   -7.0680   -2.6730   -7.5370 C   0  0  0  0  0
   -5.7650   -3.2790   -7.0240 C   0  0  0  0  0
   -5.6430   -4.5000   -6.9270 O   0  0  0  0  0
   -4.7790   -2.4920   -6.6900 N   0  0  0  0  0
   -9.3090   -0.7480   -9.4080 N   0  0  0  0  0
  -10.5250   -0.0620   -8.9850 C   0  0  0  0  0
  -11.5600   -1.0630   -8.4700 C   0  0  0  0  0
  -11.5010   -2.2490   -8.7940 O   0  0  0  0  0
  -11.1080    0.7200  -10.1670 C   0  0  0  0  0
  -12.0760    1.6460   -9.6910 O   0  0  0  0  0
  -11.7630   -0.2470  -11.1560 C   0  0  0  0  0
  -12.5050   -0.5750   -7.6710 N   0  0  0  0  0
  -13.5490   -1.4330   -7.1170 C   0  0  0  0  0
  -14.8320   -0.6350   -6.8970 C   0  0  0  0  0
  -15.5500   -0.8470   -5.9190 O   0  0  0  0  0
  -13.0850   -2.0340   -5.7900 C   0  0  0  0  0
  -15.1090    0.2850   -7.8140 N   0  0  0  0  0
  -16.3030    1.1210   -7.7200 C   0  0  0  0  0
  -17.5630    0.2660   -7.6180 C   0  0  0  0  0
  -18.5200    0.6360   -6.9390 O   0  0  0  0  0
  -16.4000    2.0260   -8.9490 C   0  0  0  0  0
  -17.5640    3.0040   -8.7750 C   0  0  0  0  0
  -17.6460    3.9290   -9.9910 C   0  0  0  0  0
  -18.1230    3.1910  -11.1570 N   0  0  0  0  0
  -17.2790    2.6180  -12.0100 C   0  0  0  0  0
  -15.9910    2.6970  -11.8130 N   0  0  0  0  0
  -17.7390    1.9690  -13.0450 N   0  0  0  0  0
  -17.5610   -0.8710   -8.3070 N   0  0  0  0  0
  -18.7180   -1.7590   -8.2960 C   0  0  0  0  0
  -19.0830   -2.1670   -6.8710 C   0  0  0  0  0
  -20.2600   -2.3060   -6.5410 O   0  0  0  0  0
  -18.4240   -3.0110   -9.1300 C   0  0  0  0  0
  -17.3590   -3.8610   -8.4310 C   0  0  0  0  0
  -16.9670   -5.0310   -9.3350 C   0  0  0  0  0
  -16.1770   -6.0600   -8.5270 C   0  0  0  0  0
  -15.0980   -5.3710   -7.7630 N   0  3  0  0  0
  -18.0720   -2.3600   -6.0290 N   0  0  0  0  0
  -18.3150   -2.7540   -4.6450 C   0  0  0  0  0
  -18.6700   -1.5390   -3.7920 C   0  0  0  0  0
  -18.2060   -0.4290   -4.0500 O   0  0  0  0  0
  -17.0750   -3.4360   -4.0690 C   0  0  0  0  0
  -16.0800   -2.4550   -3.8070 O   0  0  0  0  0
  -19.4920   -1.7630   -2.7690 N   0  0  0  0  0
  -19.9000   -0.6830   -1.8760 C   0  0  0  0  0
  -19.0420   -0.6800   -0.6160 C   0  0  0  0  0
  -18.2190    0.2130   -0.4130 O   0  0  0  0  0
  -21.3730   -0.8520   -1.4930 C   0  0  0  0  0
  -22.1780   -0.7650   -2.6610 O   0  0  0  0  0
  -21.7760    0.2480   -0.5100 C   0  0  0  0  0
  -19.2420   -1.6880    0.2270 N   0  0  0  0  0
  -18.4840   -1.8020    1.4680 C   0  0  0  0  0
  -19.1350   -2.8100    2.4090 C   0  0  0  0  0
  -20.1220   -2.5040    3.0760 O   0  0  0  0  0
  -18.5770   -4.0160    2.4550 N   0  0  0  0  0
  -19.1150   -5.0640    3.3170 C   0  0  0  0  0
  -18.6670   -4.8670    4.7610 C   0  0  0  0  0
  -17.4900   -4.6240    5.0280 O   0  0  0  0  0
  -19.6120   -4.9790    5.6900 N   0  0  0  0  0
  -19.3020   -4.8140    7.1050 C   0  0  0  0  0
  -18.2680   -5.8450    7.5510 C   0  0  0  0  0
  -17.4120   -5.5600    8.3860 O   0  0  0  0  0
  -20.5720   -4.9700    7.9420 C   0  0  0  0  0
  -21.5500   -3.8430    7.5990 C   0  0  0  0  0
  -22.8310   -4.0040    8.4240 C   0  0  0  0  0
  -22.5330   -3.7600    9.9080 C   0  0  0  0  0
  -23.7810   -3.3190   10.5940 N   0  3  0  0  0
  -18.3580   -7.0460    6.9850 N   0  0  0  0  0
  -17.4290   -8.1210    7.3280 C   0  0  0  0  0
  -16.4200   -8.3320    6.2050 C   0  0  0  0  0
  -15.9220   -9.4390    6.0830 O   0  0  0  0  0
  -18.2000   -9.4190    7.5710 C   0  0  0  0  0
  -16.1600   -7.3840    5.4830 O   0  0  0  0  0
    3.2502   -4.5171   -3.3581 H   0  0  0  0  0
    2.2478   -5.3817   -4.3703 H   0  0  0  0  0
    3.8551   -5.7997   -4.2332 H   0  0  0  0  0
    4.5412   -3.7150   -5.2293 H   0  0  0  0  0
    2.4345   -5.2412   -6.8278 H   0  0  0  0  0
    3.6920   -4.1822   -7.5121 H   0  0  0  0  0
    4.1519   -5.6884   -6.6809 H   0  0  0  0  0
    3.6437   -2.0284   -6.8271 H   0  0  0  0  0
    1.5182   -0.5966   -5.3777 H   0  0  0  0  0
    2.0228    1.1889   -7.1550 H   0  0  0  0  0
    3.3399    0.1143   -7.7045 H   0  0  0  0  0
    4.3910    0.2043   -5.5098 H   0  0  0  0  0
    3.0254    1.1243   -4.8475 H   0  0  0  0  0
    4.7853    2.7045   -5.3628 H   0  0  0  0  0
    3.5011    2.9090   -6.5927 H   0  0  0  0  0
    4.9413    1.9991   -8.2374 H   0  0  0  0  0
    7.8756    1.4348   -5.5113 H   0  0  0  0  0
    6.2330    1.8076   -4.9784 H   0  0  0  0  0
    7.0638    1.5431   -8.9095 H   0  0  0  0  0
    0.2257   -2.7286   -6.2650 H   0  0  0  0  0
   -0.6420   -2.6281   -8.9838 H   0  0  0  0  0
   -2.2795   -3.6146   -6.6249 H   0  0  0  0  0
   -1.1996   -5.6092   -7.1110 H   0  0  0  0  0
   -3.4814   -3.4293   -8.7900 H   0  0  0  0  0
   -2.1981   -4.3753   -9.5833 H   0  0  0  0  0
   -3.2273   -5.1345   -8.3441 H   0  0  0  0  0
   -2.0346   -1.3465  -10.0213 H   0  0  0  0  0
   -3.5977    0.6434   -8.3756 H   0  0  0  0  0
   -3.2359    1.2431  -11.2134 H   0  0  0  0  0
   -1.6703    1.0400  -10.3585 H   0  0  0  0  0
   -2.2072    2.7539   -8.7897 H   0  0  0  0  0
   -3.9111    2.7915   -9.3007 H   0  0  0  0  0
   -1.7774    3.3226  -11.3675 H   0  0  0  0  0
   -2.1729    4.6116  -10.2034 H   0  0  0  0  0
   -4.4349    4.7051  -10.8987 H   0  0  0  0  0
   -4.3099    3.1272  -11.7643 H   0  0  0  0  0
   -2.1703    3.2679  -13.4986 H   0  0  0  0  0
   -3.8630    3.1206  -14.0316 H   0  0  0  0  0
   -2.8073    4.3604  -14.7523 H   0  0  0  0  0
   -2.7607    6.5339  -11.8249 H   0  0  0  0  0
   -1.5078    5.3204  -12.1838 H   0  0  0  0  0
   -2.1875    6.3135  -13.4964 H   0  0  0  0  0
   -5.4529    4.7403  -13.4557 H   0  0  0  0  0
   -5.0060    6.1845  -12.5146 H   0  0  0  0  0
   -4.4355    6.0030  -14.1916 H   0  0  0  0  0
   -5.5067   -0.4258   -8.0963 H   0  0  0  0  0
   -6.9413   -1.1104  -10.6329 H   0  0  0  0  0
   -6.2185   -3.1865   -9.4554 H   0  0  0  0  0
   -7.9980   -3.0199   -9.4554 H   0  0  0  0  0
   -7.9013   -3.2955   -7.2111 H   0  0  0  0  0
   -7.1698   -1.6628   -7.1404 H   0  0  0  0  0
   -3.9038   -2.8882   -6.3473 H   0  0  0  0  0
   -4.8835   -1.4807   -6.7716 H   0  0  0  0  0
   -9.3846   -1.5602  -10.0203 H   0  0  0  0  0
  -10.2752    0.6243   -8.1759 H   0  0  0  0  0
  -10.3071    1.2595  -10.6726 H   0  0  0  0  0
  -12.4406    2.1353  -10.4321 H   0  0  0  0  0
  -11.0161   -0.9513  -11.5223 H   0  0  0  0  0
  -12.5626   -0.7918  -10.6540 H   0  0  0  0  0
  -12.1752    0.3158  -11.9935 H   0  0  0  0  0
  -12.5004    0.4186   -7.4406 H   0  0  0  0  0
  -13.7485   -2.2365   -7.8260 H   0  0  0  0  0
  -12.1849   -2.6259   -5.9557 H   0  0  0  0  0
  -12.8689   -1.2313   -5.0849 H   0  0  0  0  0
  -13.8716   -2.6717   -5.3866 H   0  0  0  0  0
  -14.4734    0.4106   -8.6018 H   0  0  0  0  0
  -16.2225    1.7292   -6.8191 H   0  0  0  0  0
  -16.5691    1.4156   -9.8361 H   0  0  0  0  0
  -15.4710    2.5848   -9.0618 H   0  0  0  0  0
  -17.4036    3.6007   -7.8771 H   0  0  0  0  0
  -18.4951    2.4449   -8.6827 H   0  0  0  0  0
  -16.6537    4.3272  -10.2031 H   0  0  0  0  0
  -18.3406    4.7407   -9.7747 H   0  0  0  0  0
  -19.1267    3.1132  -11.3211 H   0  0  0  0  0
  -15.6289    3.1995  -11.0026 H   0  0  0  0  0
  -17.0925    1.5252  -13.6973 H   0  0  0  0  0
  -18.7449    1.9056  -13.2014 H   0  0  0  0  0
  -16.7374   -1.1263   -8.8519 H   0  0  0  0  0
  -19.5620   -1.2213   -8.7280 H   0  0  0  0  0
  -18.0590   -2.7122  -10.1127 H   0  0  0  0  0
  -19.3379   -3.5952   -9.2379 H   0  0  0  0  0
  -17.7587   -4.2449   -7.4924 H   0  0  0  0  0
  -16.4806   -3.2484   -8.2279 H   0  0  0  0  0
  -16.3508   -4.6641  -10.1558 H   0  0  0  0  0
  -17.8673   -5.4977   -9.7346 H   0  0  0  0  0
  -15.7332   -6.7900   -9.2039 H   0  0  0  0  0
  -16.8463   -6.5676   -7.8324 H   0  0  0  0  0
  -14.5718   -6.0591   -7.2244 H   0  0  0  0  0
  -14.4723   -4.8962   -8.4137 H   0  0  0  0  0
  -15.5142   -4.6880   -7.1300 H   0  0  0  0  0
  -17.1141   -2.2310   -6.3548 H   0  0  0  0  0
  -19.1532   -3.4507   -4.6309 H   0  0  0  0  0
  -16.6919   -4.1629   -4.7852 H   0  0  0  0  0
  -17.3364   -3.9478   -3.1428 H   0  0  0  0  0
  -15.2996   -2.8811   -3.4449 H   0  0  0  0  0
  -19.8431   -2.7067   -2.6063 H   0  0  0  0  0
  -19.7663    0.2657   -2.3958 H   0  0  0  0  0
  -21.5172   -1.8254   -1.0241 H   0  0  0  0  0
  -23.1013   -0.8710   -2.4205 H   0  0  0  0  0
  -21.1578    0.1781    0.3850 H   0  0  0  0  0
  -21.6318    1.2220   -0.9776 H   0  0  0  0  0
  -22.8247    0.1252   -0.2392 H   0  0  0  0  0
  -19.9401   -2.3966    0.0014 H   0  0  0  0  0
  -18.4615   -0.8281    1.9570 H   0  0  0  0  0
  -17.4747   -2.1406    1.2337 H   0  0  0  0  0
  -17.7590   -4.2122    1.8781 H   0  0  0  0  0
  -18.7484   -6.0285    2.9655 H   0  0  0  0  0
  -20.2036   -5.0229    3.2798 H   0  0  0  0  0
  -20.5705   -5.1839    5.4076 H   0  0  0  0  0
  -18.8914   -3.8150    7.2520 H   0  0  0  0  0
  -20.3179   -4.9212    9.0008 H   0  0  0  0  0
  -21.0352   -5.9323    7.7240 H   0  0  0  0  0
  -21.7951   -3.8871    6.5378 H   0  0  0  0  0
  -21.0898   -2.8821    7.8291 H   0  0  0  0  0
  -23.2145   -5.0164    8.2970 H   0  0  0  0  0
  -23.5707   -3.2797    8.0829 H   0  0  0  0  0
  -21.7702   -2.9875   10.0052 H   0  0  0  0  0
  -22.1715   -4.6815   10.3643 H   0  0  0  0  0
  -23.5852   -3.1560   11.5817 H   0  0  0  0  0
  -24.1163   -2.4561   10.1657 H   0  0  0  0  0
  -24.4924   -4.0442   10.5023 H   0  0  0  0  0
  -19.0908   -7.2201    6.2972 H   0  0  0  0  0
  -16.8951   -7.8397    8.2357 H   0  0  0  0  0
  -16.2739  -10.0232    6.7587 H   0  0  0  0  0
  -18.9022   -9.2747    8.3921 H   0  0  0  0  0
  -18.7462   -9.6902    6.6676 H   0  0  0  0  0
  -17.4993  -10.2140    7.8259 H   0  0  0  0  0
  1  2  1  0  0  0
  2  3  1  0  0  0
  2  5  1  0  0  0
  3  4  2  0  0  0
  3  6  1  0  0  0
  6  7  1  0  0  0
  7  8  1  0  0  0
  7 10  1  0  0  0
  8  9  2  0  0  0
  8 17  1  0  0  0
 10 11  1  0  0  0
 11 12  1  0  0  0
 12 13  1  0  0  0
 13 14  1  0  0  0
 14 15  1  0  0  0
 14 16  2  0  0  0
 17 18  1  0  0  0
 18 19  1  0  0  0
 18 21  1  0  0  0
 19 20  2  0  0  0
 19 24  1  0  0  0
 21 22  1  0  0  0
 21 23  1  0  0  0
 24 25  1  0  0  0
 25 26  1  0  0  0
 25 31  1  0  0  0
 26 27  1  0  0  0
 27 28  1  0  0  0
 28 29  1  0  0  0
 29 30  1  0  0  0
 30 33  1  0  0  0
 30 34  1  0  0  0
 30 35  1  0  0  0
 31 32  2  0  0  0
 31 36  1  0  0  0
 36 37  1  0  0  0
 37 38  1  0  0  0
 37 40  1  0  0  0
 38 39  2  0  0  0
 38 45  1  0  0  0
 40 41  1  0  0  0
 41 42  1  0  0  0
 42 43  2  0  0  0
 42 44  1  0  0  0
 45 46  1  0  0  0
 46 47  1  0  0  0
 46 49  1  0  0  0
 47 48  2  0  0  0
 47 52  1  0  0  0
 49 50  1  0  0  0
 49 51  1  0  0  0
 52 53  1  0  0  0
 53 54  1  0  0  0
 53 56  1  0  0  0
 54 55  2  0  0  0
 54 57  1  0  0  0
 57 58  1  0  0  0
 58 59  1  0  0  0
 58 61  1  0  0  0
 59 60  2  0  0  0
 59 68  1  0  0  0
 61 62  1  0  0  0
 62 63  1  0  0  0
 63 64  1  0  0  0
 64 65  1  0  0  0
 65 66  2  0  0  0
 65 67  1  0  0  0
 68 69  1  0  0  0
 69 70  1  0  0  0
 69 72  1  0  0  0
 70 71  2  0  0  0
 70 77  1  0  0  0
 72 73  1  0  0  0
 73 74  1  0  0  0
 74 75  1  0  0  0
 75 76  1  0  0  0
 77 78  1  0  0  0
 78 79  1  0  0  0
 78 81  1  0  0  0
 79 80  2  0  0  0
 79 83  1  0  0  0
 81 82  1  0  0  0
 83 84  1  0  0  0
 84 85  1  0  0  0
 84 87  1  0  0  0
 85 86  2  0  0  0
 85 90  1  0  0  0
 87 88  1  0  0  0
 87 89  1  0  0  0
 90 91  1  0  0  0
 91 92  1  0  0  0
 92 93  2  0  0  0
 92 94  1  0  0  0
 94 95  1  0  0  0
 95 96  1  0  0  0
 96 97  2  0  0  0
 96 98  1  0  0  0
 98 99  1  0  0  0
 99100  1  0  0  0
 99102  1  0  0  0
100101  2  0  0  0
100107  1  0  0  0
102103  1  0  0  0
103104  1  0  0  0
104105  1  0  0  0
105106  1  0  0  0
107108  1  0  0  0
108109  1  0  0  0
108111  1  0  0  0
109110  1  0  0  0
109112  2  0  0  0
  1113  1  0  0  0
  1114  1  0  0  0
  1115  1  0  0  0
  2116  1  0  0  0
  5117  1  0  0  0
  5118  1  0  0  0
  5119  1  0  0  0
  6120  1  0  0  0
  7121  1  0  0  0
 10122  1  0  0  0
 10123  1  0  0  0
 11124  1  0  0  0
 11125  1  0  0  0
 12126  1  0  0  0
 12127  1  0  0  0
 13128  1  0  0  0
 15129  1  0  0  0
 15130  1  0  0  0
 16131  1  0  0  0
 17132  1  0  0  0
 18133  1  0  0  0
 21134  1  0  0  0
 22135  1  0  0  0
 23136  1  0  0  0
 23137  1  0  0  0
 23138  1  0  0  0
 24139  1  0  0  0
 25140  1  0  0  0
 26141  1  0  0  0
 26142  1  0  0  0
 27143  1  0  0  0
 27144  1  0  0  0
 28145  1  0  0  0
 28146  1  0  0  0
 29147  1  0  0  0
 29148  1  0  0  0
 33149  1  0  0  0
 33150  1  0  0  0
 33151  1  0  0  0
 34152  1  0  0  0
 34153  1  0  0  0
 34154  1  0  0  0
 35155  1  0  0  0
 35156  1  0  0  0
 35157  1  0  0  0
 36158  1  0  0  0
 37159  1  0  0  0
 40160  1  0  0  0
 40161  1  0  0  0
 41162  1  0  0  0
 41163  1  0  0  0
 44164  1  0  0  0
 44165  1  0  0  0
 45166  1  0  0  0
 46167  1  0  0  0
 49168  1  0  0  0
 50169  1  0  0  0
 51170  1  0  0  0
 51171  1  0  0  0
 51172  1  0  0  0
 52173  1  0  0  0
 53174  1  0  0  0
 56175  1  0  0  0
 56176  1  0  0  0
 56177  1  0  0  0
 57178  1  0  0  0
 58179  1  0  0  0
 61180  1  0  0  0
 61181  1  0  0  0
 62182  1  0  0  0
 62183  1  0  0  0
 63184  1  0  0  0
 63185  1  0  0  0
 64186  1  0  0  0
 66187  1  0  0  0
 67188  1  0  0  0
 67189  1  0  0  0
 68190  1  0  0  0
 69191  1  0  0  0
 72192  1  0  0  0
 72193  1  0  0  0
 73194  1  0  0  0
 73195  1  0  0  0
 74196  1  0  0  0
 74197  1  0  0  0
 75198  1  0  0  0
 75199  1  0  0  0
 76200  1  0  0  0
 76201  1  0  0  0
 76202  1  0  0  0
 77203  1  0  0  0
 78204  1  0  0  0
 81205  1  0  0  0
 81206  1  0  0  0
 82207  1  0  0  0
 83208  1  0  0  0
 84209  1  0  0  0
 87210  1  0  0  0
 88211  1  0  0  0
 89212  1  0  0  0
 89213  1  0  0  0
 89214  1  0  0  0
 90215  1  0  0  0
 91216  1  0  0  0
 91217  1  0  0  0
 94218  1  0  0  0
 95219  1  0  0  0
 95220  1  0  0  0
 98221  1  0  0  0
 99222  1  0  0  0
102223  1  0  0  0
102224  1  0  0  0
103225  1  0  0  0
103226  1  0  0  0
104227  1  0  0  0
104228  1  0  0  0
105229  1  0  0  0
105230  1  0  0  0
106231  1  0  0  0
106232  1  0  0  0
106233  1  0  0  0
107234  1  0  0  0
108235  1  0  0  0
110236  1  0  0  0
111237  1  0  0  0
111238  1  0  0  0
111239  1  0  0  0
M  END
$$$$
