6faw_ligand
  -I-interpret- 

160164  0  0  0  0  0  0  0  0999 V2000
   23.2810   -5.1590  -18.0260 C   0  0  0  0  0
   23.6900   -6.2890  -18.2890 O   0  0  0  0  0
   23.1550   -4.0980  -19.0890 C   0  0  0  0  0
   22.9220   -4.7940  -16.7910 N   0  0  0  0  0
   22.9970   -5.7130  -15.6640 C   0  0  0  0  0
   22.1390   -6.9650  -15.9110 C   0  0  0  0  0
   21.1730   -6.9370  -16.6860 O   0  0  0  0  0
   22.5560   -5.0180  -14.3620 C   0  0  0  0  0
   23.6200   -4.1170  -13.6560 C   0  0  0  0  0
   23.6090   -4.3190  -12.1080 C   0  0  0  0  0
   24.2450   -3.2480  -11.3190 N   0  0  0  0  0
   25.5230   -3.2330  -10.9340 C   0  0  0  0  0
   25.9890   -2.2210  -10.2060 N   0  0  0  0  0
   26.3460   -4.2210  -11.2700 N   0  0  0  0  0
   22.5310   -8.0600  -15.2670 N   0  0  0  0  0
   21.7110   -9.2680  -15.2440 C   0  0  0  0  0
   20.3500   -8.9550  -14.6220 C   0  0  0  0  0
   20.2820   -8.2920  -13.5850 O   0  0  0  0  0
   22.3760  -10.3390  -14.3780 C   0  0  0  0  0
   23.7280  -10.5490  -14.8010 O   0  0  0  0  0
   21.6030  -11.6440  -14.4630 C   0  0  0  0  0
   19.2390   -9.4700  -15.1850 N   0  0  0  0  0
   17.9490   -9.1850  -14.5390 C   0  0  0  0  0
   17.6190   -9.9930  -13.2620 C   0  0  0  0  0
   17.9030  -11.1790  -13.1010 O   0  0  0  0  0
   16.9110   -9.4590  -15.6450 C   0  0  0  0  0
   17.6020  -10.1550  -16.6980 C   0  0  0  0  0
   19.0890  -10.0020  -16.5500 C   0  0  0  0  0
   17.0360   -9.2750  -12.3170 N   0  0  0  0  0
   16.5620   -9.8430  -11.0680 C   0  0  0  0  0
   16.7560   -8.8330   -9.9300 C   0  0  0  0  0
   16.0220   -7.6660  -10.2440 O   0  0  0  0  0
   15.0680  -10.1990  -11.1930 C   0  0  0  0  0
   14.4580  -10.0350  -12.2380 O   0  0  0  0  0
   16.2460   -6.3440   -9.3680 P   0  0  0  0  0
   15.2560   -5.3080   -9.9920 O   0  0  0  0  0
   17.7120   -5.9230   -9.5230 O   0  0  0  0  0
   15.9080   -6.7370   -7.9020 O   0  0  0  0  0
   14.4910  -10.7540  -10.1440 N   0  0  0  0  0
   13.0790  -11.1330  -10.1680 C   0  0  0  0  0
   12.2300   -9.9170  -10.5400 C   0  0  0  0  0
   12.3770   -8.8640   -9.9390 O   0  0  0  0  0
   12.7060  -11.6570   -8.7880 C   0  0  0  0  0
   11.3940  -12.4410   -8.6980 C   0  0  0  0  0
   11.4500  -13.7770   -9.4380 C   0  0  0  0  0
   11.0150  -12.6710   -7.2210 C   0  0  0  0  0
   11.3380  -10.0490  -11.5200 N   0  0  0  0  0
   10.5590   -8.8950  -11.9950 C   0  0  0  0  0
    9.2870   -8.6850  -11.1890 C   0  0  0  0  0
    8.2270   -8.3950  -11.7370 O   0  0  0  0  0
   10.2330   -9.2620  -13.4430 C   0  0  0  0  0
   10.1220  -10.7440  -13.4210 C   0  0  0  0  0
   11.1780  -11.2090  -12.4050 C   0  0  0  0  0
    9.4030   -8.7890   -9.8810 N   0  0  0  0  0
    8.2810   -8.7720   -8.9840 C   0  0  0  0  0
    8.7460   -9.3620   -7.6770 C   0  0  0  0  0
    9.9360   -9.4750   -7.4640 O   0  0  0  0  0
    7.3020  -12.3560   -8.6300 C   0  0  0  0  0
    3.4820   -9.8070   -7.3320 C   0  0  0  0  0
    6.2320  -11.4580   -8.5970 C   0  0  0  0  0
    4.2200  -10.9350   -7.1960 C   0  0  0  0  0
    5.7170  -10.9770   -7.2340 C   0  0  0  0  0
    7.8340  -15.3790   -6.0670 C   0  0  0  0  0
    5.4310  -15.2890   -6.0520 C   0  0  0  0  0
    4.2520  -14.3050   -5.8650 C   0  0  0  0  0
    3.5450  -12.2010   -6.9470 C   0  0  0  0  0
    2.1890  -12.2540   -6.8670 C   0  0  0  0  0
    1.4460  -11.0820   -6.9960 C   0  0  0  0  0
    2.0680   -9.8260   -7.2280 C   0  0  0  0  0
    7.7930  -12.8260   -9.8720 C   0  0  0  0  0
    7.2360  -12.3520  -11.0490 C   0  0  0  0  0
    6.1570  -11.4780  -11.0280 C   0  0  0  0  0
    5.6610  -11.0120   -9.7770 C   0  0  0  0  0
    6.3980   -9.6000   -6.8610 C   0  0  0  0  0
    8.1380  -10.1110   -5.2420 C   0  0  0  0  0
    6.9490   -9.9860   -4.5540 C   0  0  0  0  0
    6.0070   -9.1690   -5.4100 C   0  0  0  0  0
    7.7340   -9.7550   -6.7630 N   0  0  0  0  0
    6.7000  -14.6010   -5.8200 O   0  0  0  0  0
    4.4190  -13.3090   -6.8490 O   0  0  0  0  0
   24.1333   -3.9112  -19.5319 H   0  0  0  0  0
   22.4646   -4.4387  -19.8606 H   0  0  0  0  0
   22.7763   -3.1795  -18.6407 H   0  0  0  0  0
   22.5857   -3.8440  -16.6336 H   0  0  0  0  0
   24.0365   -6.0242  -15.5603 H   0  0  0  0  0
   22.3228   -5.8168  -13.6581 H   0  0  0  0  0
   21.7351   -4.3558  -14.6370 H   0  0  0  0  0
   23.3837   -3.0744  -13.8687 H   0  0  0  0  0
   24.6061   -4.3902  -14.0317 H   0  0  0  0  0
   24.1786   -5.2273  -11.9111 H   0  0  0  0  0
   22.5616   -4.3435  -11.8073 H   0  0  0  0  0
   23.6626   -2.4564  -11.0459 H   0  0  0  0  0
   26.9661   -2.2107   -9.9134 H   0  0  0  0  0
   25.3691   -1.4557   -9.9406 H   0  0  0  0  0
   26.0032   -5.0027  -11.8284 H   0  0  0  0  0
   23.4258   -8.0562  -14.7774 H   0  0  0  0  0
   21.5975   -9.6230  -16.2683 H   0  0  0  0  0
   22.3755   -9.9947  -13.3438 H   0  0  0  0  0
   24.1335  -11.2226  -14.2501 H   0  0  0  0  0
   20.5837  -11.4846  -14.1112 H   0  0  0  0  0
   21.5823  -11.9858  -15.4978 H   0  0  0  0  0
   22.0903  -12.3946  -13.8408 H   0  0  0  0  0
   17.9600   -8.1630  -14.1603 H   0  0  0  0  0
   16.4804   -8.5276  -16.0127 H   0  0  0  0  0
   16.0841  -10.0570  -15.2618 H   0  0  0  0  0
   17.2984   -9.7341  -17.6565 H   0  0  0  0  0
   17.3500  -11.2141  -16.6445 H   0  0  0  0  0
   19.6246  -10.9399  -16.6967 H   0  0  0  0  0
   19.5214   -9.3468  -17.3062 H   0  0  0  0  0
   16.9135   -8.2745  -12.4731 H   0  0  0  0  0
   17.1316  -10.7459  -10.8479 H   0  0  0  0  0
   17.8133   -8.5919   -9.8196 H   0  0  0  0  0
   16.4024   -9.2560   -8.9897 H   0  0  0  0  0
   14.3546   -5.6149   -9.8702 H   0  0  0  0  0
   14.9847   -6.9937   -7.8455 H   0  0  0  0  0
   15.0401  -10.9217   -9.3009 H   0  0  0  0  0
   12.8981  -11.9097  -10.9110 H   0  0  0  0  0
   12.5825  -10.7807   -8.1516 H   0  0  0  0  0
   13.4965  -12.3502   -8.5005 H   0  0  0  0  0
   10.6295  -11.8376   -9.1875 H   0  0  0  0  0
   11.6600  -13.5983  -10.4925 H   0  0  0  0  0
   12.2382  -14.3957   -9.0091 H   0  0  0  0  0
   10.4916  -14.2866   -9.3383 H   0  0  0  0  0
   11.8055  -13.2371   -6.7283 H   0  0  0  0  0
   10.8922  -11.7084   -6.7246 H   0  0  0  0  0
   10.0803  -13.2295   -7.1698 H   0  0  0  0  0
   11.1085   -7.9589  -11.8957 H   0  0  0  0  0
   10.9962   -8.9148  -14.1395 H   0  0  0  0  0
    9.3188   -8.7840  -13.7950 H   0  0  0  0  0
   10.2934  -11.1759  -14.4070 H   0  0  0  0  0
    9.1205  -11.0692  -13.1392 H   0  0  0  0  0
   10.8723  -12.1059  -11.8663 H   0  0  0  0  0
   12.1136  -11.5032  -12.8806 H   0  0  0  0  0
   10.3377   -8.8866   -9.4846 H   0  0  0  0  0
    7.4534   -9.3511   -9.3936 H   0  0  0  0  0
    7.9211   -7.7534   -8.8388 H   0  0  0  0  0
    7.7585  -12.6946   -7.6999 H   0  0  0  0  0
    3.9879   -8.8612   -7.5262 H   0  0  0  0  0
    6.0025  -11.6950   -6.4652 H   0  0  0  0  0
    7.8225  -16.2528   -5.4155 H   0  0  0  0  0
    7.8326  -15.7006   -7.1085 H   0  0  0  0  0
    8.7284  -14.7884   -5.8690 H   0  0  0  0  0
    5.4152  -15.6774   -7.0703 H   0  0  0  0  0
    5.3314  -16.1069   -5.3384 H   0  0  0  0  0
    4.2511  -13.8750   -4.8634 H   0  0  0  0  0
    3.2931  -14.8117   -5.9742 H   0  0  0  0  0
    1.6861  -13.2070   -6.7030 H   0  0  0  0  0
    0.3599  -11.1303   -6.9169 H   0  0  0  0  0
    1.4810   -8.9124   -7.3224 H   0  0  0  0  0
    8.6028  -13.5550   -9.9021 H   0  0  0  0  0
    7.6509  -12.6699  -12.0055 H   0  0  0  0  0
    5.6944  -11.1520  -11.9596 H   0  0  0  0  0
    4.8323  -10.3046   -9.7484 H   0  0  0  0  0
    6.0878   -8.8889   -7.6267 H   0  0  0  0  0
    8.5721  -11.1064   -5.1476 H   0  0  0  0  0
    8.9164   -9.4549   -4.8525 H   0  0  0  0  0
    7.1148   -9.4936   -3.5958 H   0  0  0  0  0
    6.5225  -10.9684   -4.3516 H   0  0  0  0  0
    4.9573   -9.3526   -5.1807 H   0  0  0  0  0
    6.1052   -8.0961   -5.2446 H   0  0  0  0  0
  1  2  2  0  0  0
  1  3  1  0  0  0
  4  1  1  0  0  0
  5  4  1  0  0  0
  6  5  1  0  0  0
  5  8  1  0  0  0
  6  7  2  0  0  0
 15  6  1  0  0  0
  8  9  1  0  0  0
  9 10  1  0  0  0
 10 11  1  0  0  0
 11 12  1  0  0  0
 12 13  1  0  0  0
 12 14  2  0  0  0
 16 15  1  0  0  0
 17 16  1  0  0  0
 16 19  1  0  0  0
 17 18  2  0  0  0
 22 17  1  0  0  0
 19 20  1  0  0  0
 19 21  1  0  0  0
 23 22  1  0  0  0
 22 28  1  0  0  0
 24 23  1  0  0  0
 23 26  1  0  0  0
 24 25  2  0  0  0
 29 24  1  0  0  0
 26 27  1  0  0  0
 27 28  1  0  0  0
 30 29  1  0  0  0
 30 31  1  0  0  0
 33 30  1  0  0  0
 31 32  1  0  0  0
 32 35  1  0  0  0
 33 34  2  0  0  0
 39 33  1  0  0  0
 35 36  1  0  0  0
 35 37  2  0  0  0
 35 38  1  0  0  0
 40 39  1  0  0  0
 41 40  1  0  0  0
 40 43  1  0  0  0
 41 42  2  0  0  0
 47 41  1  0  0  0
 43 44  1  0  0  0
 44 45  1  0  0  0
 44 46  1  0  0  0
 48 47  1  0  0  0
 47 53  1  0  0  0
 49 48  1  0  0  0
 48 51  1  0  0  0
 49 50  2  0  0  0
 54 49  1  0  0  0
 51 52  1  0  0  0
 52 53  1  0  0  0
 55 54  1  0  0  0
 56 55  1  0  0  0
 56 57  2  0  0  0
 78 56  1  0  0  0
 60 58  4  0  0  0
 58 70  4  0  0  0
 61 59  4  0  0  0
 59 69  4  0  0  0
 62 60  1  0  0  0
 60 73  4  0  0  0
 62 61  1  0  0  0
 61 66  4  0  0  0
 74 62  1  0  0  0
 79 63  1  0  0  0
 65 64  1  0  0  0
 64 79  1  0  0  0
 80 65  1  0  0  0
 66 67  4  0  0  0
 66 80  1  0  0  0
 67 68  4  0  0  0
 69 68  4  0  0  0
 70 71  4  0  0  0
 72 71  4  0  0  0
 73 72  4  0  0  0
 74 77  1  0  0  0
 78 74  1  0  0  0
 75 76  1  0  0  0
 78 75  1  0  0  0
 76 77  1  0  0  0
  3 81  1  0  0  0
  3 82  1  0  0  0
  3 83  1  0  0  0
  4 84  1  0  0  0
  5 85  1  0  0  0
  8 86  1  0  0  0
  8 87  1  0  0  0
  9 88  1  0  0  0
  9 89  1  0  0  0
 10 90  1  0  0  0
 10 91  1  0  0  0
 11 92  1  0  0  0
 13 93  1  0  0  0
 13 94  1  0  0  0
 14 95  1  0  0  0
 15 96  1  0  0  0
 16 97  1  0  0  0
 19 98  1  0  0  0
 20 99  1  0  0  0
 21100  1  0  0  0
 21101  1  0  0  0
 21102  1  0  0  0
 23103  1  0  0  0
 26104  1  0  0  0
 26105  1  0  0  0
 27106  1  0  0  0
 27107  1  0  0  0
 28108  1  0  0  0
 28109  1  0  0  0
 29110  1  0  0  0
 30111  1  0  0  0
 31112  1  0  0  0
 31113  1  0  0  0
 36114  1  0  0  0
 38115  1  0  0  0
 39116  1  0  0  0
 40117  1  0  0  0
 43118  1  0  0  0
 43119  1  0  0  0
 44120  1  0  0  0
 45121  1  0  0  0
 45122  1  0  0  0
 45123  1  0  0  0
 46124  1  0  0  0
 46125  1  0  0  0
 46126  1  0  0  0
 48127  1  0  0  0
 51128  1  0  0  0
 51129  1  0  0  0
 52130  1  0  0  0
 52131  1  0  0  0
 53132  1  0  0  0
 53133  1  0  0  0
 54134  1  0  0  0
 55135  1  0  0  0
 55136  1  0  0  0
 58137  1  0  0  0
 59138  1  0  0  0
 62139  1  0  0  0
 63140  1  0  0  0
 63141  1  0  0  0
 63142  1  0  0  0
 64143  1  0  0  0
 64144  1  0  0  0
 65145  1  0  0  0
 65146  1  0  0  0
 67147  1  0  0  0
 68148  1  0  0  0
 69149  1  0  0  0
 70150  1  0  0  0
 71151  1  0  0  0
 72152  1  0  0  0
 73153  1  0  0  0
 74154  1  0  0  0
 75155  1  0  0  0
 75156  1  0  0  0
 76157  1  0  0  0
 76158  1  0  0  0
 77159  1  0  0  0
 77160  1  0  0  0
M  END
$$$$
