### 
### Created by X-TOOL on Wed Jan  1 15:39:34 2020
### 

@<TRIPOS>MOLECULE
6faw_ligand
  159   163     1     0     0
SMALL
GAST_HUCK


@<TRIPOS>ATOM
      1 C          23.2810   -5.1590  -18.0260 C.2       1 ACE         0.1751
      2 O          23.6900   -6.2890  -18.2890 O.2       1 ACE        -0.3972
      3 CH3        23.1550   -4.0980  -19.0890 C.3       1 ACE         0.0258
      4 N          22.9220   -4.7940  -16.7910 N.am      1 ARG        -0.2658
      5 CA         22.9970   -5.7130  -15.6640 C.3       1 ARG         0.1310
      6 C          22.1390   -6.9650  -15.9110 C.2       1 ARG         0.2040
      7 O          21.1730   -6.9370  -16.6860 O.2       1 ARG        -0.3944
      8 CB         22.5560   -5.0180  -14.3620 C.3       1 ARG        -0.0092
      9 CG         23.6200   -4.1170  -13.6560 C.3       1 ARG        -0.0156
     10 CD         23.6090   -4.3190  -12.1080 C.3       1 ARG         0.0627
     11 NE         24.2450   -3.2480  -11.3190 N.pl3     1 ARG        -0.2723
     12 CZ         25.5230   -3.2330  -10.9340 C.cat     1 ARG         0.2882
     13 NH1        25.9890   -2.2210  -10.2060 N.pl3     1 ARG        -0.2849
     14 NH2        26.3460   -4.2210  -11.2700 N.pl3     1 ARG        -0.2849
     15 N          22.5310   -8.0600  -15.2670 N.am      1 THR        -0.2613
     16 CA         21.7110   -9.2680  -15.2440 C.3       1 THR         0.1567
     17 C          20.3500   -8.9550  -14.6220 C.2       1 THR         0.2090
     18 O          20.2820   -8.2920  -13.5850 O.2       1 THR        -0.3941
     19 CB         22.3760  -10.3390  -14.3780 C.3       1 THR         0.0924
     20 OG1        23.7280  -10.5490  -14.8010 O.3       1 THR        -0.3874
     21 CG2        21.6030  -11.6440  -14.4630 C.3       1 THR        -0.0346
     22 N          19.2390   -9.4700  -15.1850 N.am      1 PRO        -0.2498
     23 CA         17.9490   -9.1850  -14.5390 C.3       1 PRO         0.1338
     24 C          17.6190   -9.9930  -13.2620 C.2       1 PRO         0.2042
     25 O          17.9030  -11.1790  -13.1010 O.2       1 PRO        -0.3944
     26 CB         16.9110   -9.4590  -15.6450 C.3       1 PRO        -0.0104
     27 CG         17.6020  -10.1550  -16.6980 C.3       1 PRO        -0.0281
     28 CD         19.0890  -10.0020  -16.5500 C.3       1 PRO         0.0369
     29 N          17.0360   -9.2750  -12.3170 N.am      1 SEP        -0.2613
     30 CA         16.5620   -9.8430  -11.0680 C.3       1 SEP         0.1586
     31 CB         16.7560   -8.8330   -9.9300 C.3       1 SEP         0.1184
     32 OG         16.0220   -7.6660  -10.2440 O.3       1 SEP        -0.2714
     33 C          15.0680  -10.1990  -11.1930 C.2       1 SEP         0.2065
     34 O          14.4580  -10.0350  -12.2380 O.2       1 SEP        -0.3943
     35 P          16.2460   -6.3440   -9.3680 P.3       1 SEP         0.2010
     36 O1P        15.2560   -5.3080   -9.9920 O.co2     1 SEP        -0.5537
     37 O2P        17.7120   -5.9230   -9.5230 O.co2     1 SEP        -0.5537
     38 O3P        15.9080   -6.7370   -7.9020 O.co2     1 SEP        -0.5537
     39 N          14.4910  -10.7540  -10.1440 N.am      1 LEU        -0.2636
     40 CA         13.0790  -11.1330  -10.1680 C.3       1 LEU         0.1314
     41 C          12.2300   -9.9170  -10.5400 C.2       1 LEU         0.2064
     42 O          12.3770   -8.8640   -9.9390 O.2       1 LEU        -0.3942
     43 CB         12.7060  -11.6570   -8.7880 C.3       1 LEU        -0.0101
     44 CG         11.3940  -12.4410   -8.6980 C.3       1 LEU        -0.0425
     45 CD1        11.4500  -13.7770   -9.4380 C.3       1 LEU        -0.0625
     46 CD2        11.0150  -12.6710   -7.2210 C.3       1 LEU        -0.0625
     47 N          11.3380  -10.0490  -11.5200 N.am      1 PRO        -0.2498
     48 CA         10.5590   -8.8950  -11.9950 C.3       1 PRO         0.1338
     49 C           9.2870   -8.6850  -11.1890 C.2       1 PRO         0.2039
     50 O           8.2270   -8.3950  -11.7370 O.2       1 PRO        -0.3944
     51 CB         10.2330   -9.2620  -13.4430 C.3       1 PRO        -0.0104
     52 CG         10.1220  -10.7440  -13.4210 C.3       1 PRO        -0.0281
     53 CD         11.1780  -11.2090  -12.4050 C.3       1 PRO         0.0369
     54 N           9.4030   -8.7890   -9.8810 N.am      1 GLY        -0.2664
     55 CA          8.2810   -8.7720   -8.9840 C.3       1 GLY         0.1202
     56 C           8.7460   -9.3620   -7.6770 C.2       1 GLY         0.2015
     57 O           9.9360   -9.4750   -7.4640 O.2       1 GLY        -0.3946
     58 C14         7.3020  -12.3560   -8.6300 C.ar      1 D3K        -0.0583
     59 C10         3.4820   -9.8070   -7.3320 C.ar      1 D3K        -0.0664
     60 C13         6.2320  -11.4580   -8.5970 C.ar      1 D3K        -0.0285
     61 C11         4.2200  -10.9350   -7.1960 C.ar      1 D3K         0.0027
     62 C12         5.7170  -10.9770   -7.2340 C.3       1 D3K         0.0470
     63 C01         7.8340  -15.3790   -6.0670 C.3       1 D3K         0.0366
     64 C03         5.4310  -15.2890   -6.0520 C.3       1 D3K         0.0748
     65 C04         4.2520  -14.3050   -5.8650 C.3       1 D3K         0.0922
     66 C06         3.5450  -12.2010   -6.9470 C.ar      1 D3K         0.0953
     67 C07         2.1890  -12.2540   -6.8670 C.ar      1 D3K        -0.0392
     68 C08         1.4460  -11.0820   -6.9960 C.ar      1 D3K        -0.0774
     69 C09         2.0680   -9.8260   -7.2280 C.ar      1 D3K        -0.0793
     70 C15         7.7930  -12.8260   -9.8720 C.ar      1 D3K        -0.0683
     71 C16         7.2360  -12.3520  -11.0490 C.ar      1 D3K        -0.0686
     72 C17         6.1570  -11.4780  -11.0280 C.ar      1 D3K        -0.0683
     73 C18         5.6610  -11.0120   -9.7770 C.ar      1 D3K        -0.0583
     74 C19         6.3980   -9.6000   -6.8610 C.3       1 D3K         0.0650
     75 C21         8.1380  -10.1110   -5.2420 C.3       1 D3K         0.0347
     76 C22         6.9490   -9.9860   -4.5540 C.3       1 D3K        -0.0301
     77 C23         6.0070   -9.1690   -5.4100 C.3       1 D3K        -0.0241
     78 N20         7.7340   -9.7550   -6.7630 N.am      1 D3K        -0.2646
     79 O02         6.7000  -14.6010   -5.8200 O.3       1 D3K        -0.3803
     80 O05         4.4190  -13.3090   -6.8490 O.3       1 D3K        -0.3191
     81 H1         22.7729   -3.1704  -18.6377 H         1 ACE         0.0467
     82 H2         22.4584   -4.4406  -19.8683 H         1 ACE         0.0467
     83 H3         24.1417   -3.9085  -19.5367 H         1 ACE         0.0467
     84 H4         22.5923   -3.8626  -16.6367 H         1 ARG         0.1882
     85 H5         24.0442   -6.0297  -15.5497 H         1 ARG         0.0800
     86 H6         22.2566   -5.8013  -13.6502 H         1 ARG         0.0313
     87 H7         21.6873   -4.3860  -14.5985 H         1 ARG         0.0313
     88 H8         23.3999   -3.0627  -13.8798 H         1 ARG         0.0301
     89 H9         24.6175   -4.3734  -14.0422 H         1 ARG         0.0301
     90 H10        24.1343   -5.2596  -11.8861 H         1 ARG         0.0689
     91 H11        22.5606   -4.3995  -11.7851 H         1 ARG         0.0689
     92 H12        23.6569   -2.4486  -11.0433 H         1 ARG         0.2642
     93 H13        26.9754   -2.2110   -9.9098 H         1 ARG         0.2615
     94 H14        25.3632   -1.4478   -9.9388 H         1 ARG         0.2615
     95 H15        25.9996   -5.0108  -11.8331 H         1 ARG         0.2615
     96 H16        27.3302   -4.1969  -10.9673 H         1 ARG         0.2615
     97 H17        23.4082   -8.0563  -14.7869 H         1 THR         0.1884
     98 H18        21.5797   -9.6427  -16.2698 H         1 THR         0.0826
     99 H19        22.3796   -9.9961  -13.3328 H         1 THR         0.0639
    100 H20        24.2139   -9.7368  -14.7193 H         1 THR         0.2101
    101 H21        22.0938  -12.4024  -13.8354 H         1 THR         0.0257
    102 H22        21.5814  -11.9901  -15.5069 H         1 THR         0.0257
    103 H23        20.5741  -11.4845  -14.1082 H         1 THR         0.0257
    104 H24        17.9248   -8.1201  -14.2643 H         1 PRO         0.0802
    105 H25        16.5007   -8.5110  -16.0230 H         1 PRO         0.0313
    106 H26        16.0937  -10.0815  -15.2520 H         1 PRO         0.0313
    107 H27        17.2915   -9.7411  -17.6687 H         1 PRO         0.0287
    108 H28        17.3431  -11.2232  -16.6551 H         1 PRO         0.0287
    109 H29        19.5974  -10.9720  -16.6533 H         1 PRO         0.0524
    110 H30        19.4888   -9.2974  -17.2940 H         1 PRO         0.0524
    111 H31        16.9159   -8.2941  -12.4700 H         1 SEP         0.1884
    112 H32        17.1349  -10.7551  -10.8447 H         1 SEP         0.0827
    113 H33        17.8231   -8.5857   -9.8297 H         1 SEP         0.0662
    114 H34        16.3884   -9.2610   -8.9857 H         1 SEP         0.0662
    115 H35        15.0293  -10.9184   -9.3175 H         1 LEU         0.1883
    116 H36        12.9204  -11.9251  -10.9146 H         1 LEU         0.0800
    117 H37        12.6292  -10.7941   -8.1101 H         1 LEU         0.0315
    118 H38        13.5168  -12.3185   -8.4491 H         1 LEU         0.0315
    119 H39        10.6067  -11.8315   -9.1655 H         1 LEU         0.0298
    120 H40        10.4833  -14.2922   -9.3381 H         1 LEU         0.0232
    121 H41        12.2451  -14.4024   -9.0060 H         1 LEU         0.0232
    122 H42        11.6618  -13.5980  -10.5025 H         1 LEU         0.0232
    123 H43        10.9773  -11.7044   -6.6973 H         1 LEU         0.0232
    124 H44        11.7681  -13.3165   -6.7454 H         1 LEU         0.0232
    125 H45        10.0292  -13.1561   -7.1666 H         1 LEU         0.0232
    126 H46        11.1651   -7.9780  -11.9522 H         1 PRO         0.0802
    127 H47        11.0388   -8.9401  -14.1191 H         1 PRO         0.0313
    128 H48         9.2843   -8.8034  -13.7587 H         1 PRO         0.0313
    129 H49        10.3332  -11.1620  -14.4163 H         1 PRO         0.0287
    130 H50         9.1157  -11.0513  -13.1002 H         1 PRO         0.0287
    131 H51        10.8235  -12.0859  -11.8434 H         1 PRO         0.0524
    132 H52        12.1255  -11.4537  -12.9073 H         1 PRO         0.0524
    133 H53        10.3194   -8.8847   -9.4923 H         1 GLY         0.1881
    134 H54         7.4586   -9.3740   -9.3977 H         1 GLY         0.0763
    135 H55         7.9374   -7.7385   -8.8298 H         1 GLY         0.0763
    136 H56         7.7560  -12.6927   -7.7050 H         1 GLY         0.0560
    137 H57         3.9851   -8.8664   -7.5252 H         1 GLY         0.0530
    138 H58         6.0348  -11.7119   -6.4798 H         1 GLY         0.0619
    139 H59         8.7374  -14.7840   -5.8675 H         1 GLY         0.0524
    140 H60         7.8338  -15.7042   -7.1178 H         1 GLY         0.0524
    141 H61         7.8236  -16.2612   -5.4101 H         1 GLY         0.0524
    142 H62         5.4145  -15.6861   -7.0777 H         1 GLY         0.0586
    143 H63         5.3303  -16.1180   -5.3361 H         1 GLY         0.0586
    144 H64         4.2821  -13.8586   -4.8601 H         1 GLY         0.0634
    145 H65         3.2933  -14.8254   -6.0065 H         1 GLY         0.0634
    146 H66         1.6888  -13.2018   -6.7039 H         1 GLY         0.0522
    147 H67         0.3659  -11.1300   -6.9173 H         1 GLY         0.0533
    148 H68         1.4843   -8.9174   -7.3219 H         1 GLY         0.0506
    149 H69         8.5983  -13.5510   -9.9020 H         1 GLY         0.0600
    150 H70         7.6486  -12.6681  -12.0002 H         1 GLY         0.0560
    151 H71         5.6970  -11.1538  -11.9544 H         1 GLY         0.0600
    152 H72         4.8368  -10.3085   -9.7486 H         1 GLY         0.0560
    153 H73         6.1288   -8.8314   -7.6004 H         1 GLY         0.0604
    154 H74         8.5283  -11.1368   -5.1690 H         1 GLY         0.0522
    155 H75         8.8895   -9.4046   -4.8595 H         1 GLY         0.0522
    156 H76         7.1226   -9.4752   -3.5954 H         1 GLY         0.0285
    157 H77         6.5180  -10.9806   -4.3668 H         1 GLY         0.0285
    158 H78         4.9577   -9.4167   -5.1920 H         1 GLY         0.0291
    159 H79         6.1683   -8.0914   -5.2594 H         1 GLY         0.0291
@<TRIPOS>BOND
     1    1    2 2  
     2    1    3 1  
     3    4    1 am 
     4    5    4 1  
     5    6    5 1  
     6    5    8 1  
     7    6    7 2  
     8   15    6 am 
     9    8    9 1  
    10    9   10 1  
    11   10   11 1  
    12   11   12 ar 
    13   12   13 ar 
    14   12   14 ar 
    15   16   15 1  
    16   17   16 1  
    17   16   19 1  
    18   17   18 2  
    19   22   17 am 
    20   19   20 1  
    21   19   21 1  
    22   23   22 1  
    23   22   28 1  
    24   24   23 1  
    25   23   26 1  
    26   24   25 2  
    27   29   24 am 
    28   26   27 1  
    29   27   28 1  
    30   30   29 1  
    31   30   31 1  
    32   33   30 1  
    33   31   32 1  
    34   32   35 1  
    35   33   34 2  
    36   39   33 am 
    37   35   36 ar 
    38   35   37 ar 
    39   35   38 ar 
    40   40   39 1  
    41   41   40 1  
    42   40   43 1  
    43   41   42 2  
    44   47   41 am 
    45   43   44 1  
    46   44   45 1  
    47   44   46 1  
    48   48   47 1  
    49   47   53 1  
    50   49   48 1  
    51   48   51 1  
    52   49   50 2  
    53   54   49 am 
    54   51   52 1  
    55   52   53 1  
    56   55   54 1  
    57   56   55 1  
    58   56   57 2  
    59   78   56 am 
    60   60   58 ar 
    61   58   70 ar 
    62   61   59 ar 
    63   59   69 ar 
    64   62   60 1  
    65   60   73 ar 
    66   62   61 1  
    67   61   66 ar 
    68   74   62 1  
    69   79   63 1  
    70   65   64 1  
    71   64   79 1  
    72   80   65 1  
    73   66   67 ar 
    74   66   80 1  
    75   67   68 ar 
    76   69   68 ar 
    77   70   71 ar 
    78   72   71 ar 
    79   73   72 ar 
    80   74   77 1  
    81   78   74 1  
    82   75   76 1  
    83   78   75 1  
    84   76   77 1  
    85    3   81 1  
    86    3   82 1  
    87    3   83 1  
    88    4   84 1  
    89    5   85 1  
    90    8   86 1  
    91    8   87 1  
    92    9   88 1  
    93    9   89 1  
    94   10   90 1  
    95   10   91 1  
    96   11   92 1  
    97   13   93 1  
    98   13   94 1  
    99   14   95 1  
   100   14   96 1  
   101   15   97 1  
   102   16   98 1  
   103   19   99 1  
   104   20  100 1  
   105   21  101 1  
   106   21  102 1  
   107   21  103 1  
   108   23  104 1  
   109   26  105 1  
   110   26  106 1  
   111   27  107 1  
   112   27  108 1  
   113   28  109 1  
   114   28  110 1  
   115   29  111 1  
   116   30  112 1  
   117   31  113 1  
   118   31  114 1  
   119   39  115 1  
   120   40  116 1  
   121   43  117 1  
   122   43  118 1  
   123   44  119 1  
   124   45  120 1  
   125   45  121 1  
   126   45  122 1  
   127   46  123 1  
   128   46  124 1  
   129   46  125 1  
   130   48  126 1  
   131   51  127 1  
   132   51  128 1  
   133   52  129 1  
   134   52  130 1  
   135   53  131 1  
   136   53  132 1  
   137   54  133 1  
   138   55  134 1  
   139   55  135 1  
   140   58  136 1  
   141   59  137 1  
   142   62  138 1  
   143   63  139 1  
   144   63  140 1  
   145   63  141 1  
   146   64  142 1  
   147   64  143 1  
   148   65  144 1  
   149   65  145 1  
   150   67  146 1  
   151   68  147 1  
   152   69  148 1  
   153   70  149 1  
   154   71  150 1  
   155   72  151 1  
   156   73  152 1  
   157   74  153 1  
   158   75  154 1  
   159   75  155 1  
   160   76  156 1  
   161   76  157 1  
   162   77  158 1  
   163   77  159 1  
@<TRIPOS>SUBSTRUCTURE
     1 ACE         1

