4y4v_ligand
  -I-interpret- 

 14 13  0  0  0  0  0  0  0  0999 V2000
   15.3500   -7.2060   11.0850 N   0  3  0  0  0
   15.2290   -8.6180   10.7080 C   0  0  0  0  0
   15.0230   -8.7780    9.2020 C   0  0  0  0  0
   14.0420   -9.2240   11.4580 C   0  0  0  0  0
   14.0810  -10.4490   11.7470 O   0  0  0  0  0
   13.1150   -8.4490   11.7500 O   0  0  0  0  0
   16.1393   -6.7898   10.5908 H   0  0  0  0  0
   14.4925   -6.7137   10.8344 H   0  0  0  0  0
   15.5021   -7.1358   12.0912 H   0  0  0  0  0
   16.1524   -9.1329   10.9731 H   0  0  0  0  0
   14.9434   -9.8374    8.9580 H   0  0  0  0  0
   14.1078   -8.2657    8.9053 H   0  0  0  0  0
   15.8714   -8.3446    8.6725 H   0  0  0  0  0
   14.8970  -10.8294   11.4137 H   0  0  0  0  0
  1  2  1  0  0  0
  2  3  1  0  0  0
  2  4  1  0  0  0
  4  5  1  0  0  0
  4  6  2  0  0  0
  1  7  1  0  0  0
  1  8  1  0  0  0
  1  9  1  0  0  0
  2 10  1  0  0  0
  3 11  1  0  0  0
  3 12  1  0  0  0
  3 13  1  0  0  0
  5 14  1  0  0  0
M  END
$$$$
