3uix_ligand
  -I-interpret- 

 41 43  0  0  0  0  0  0  0  0999 V2000
  -37.4550   -3.1150   -1.3480 C   0  0  0  0  0
  -36.5150   -3.2090   -0.3120 C   0  0  0  0  0
  -36.8740   -2.9870    1.0160 C   0  0  0  0  0
  -38.1790   -2.6320    1.3710 C   0  0  0  0  0
  -39.1330   -2.5080    0.3790 C   0  0  0  0  0
  -38.7640   -2.7790   -1.0450 C   0  0  0  0  0
  -39.6830   -2.7010   -2.0510 O   0  0  0  0  0
  -40.5100   -2.1630    0.7890 C   0  0  0  0  0
  -40.7860   -1.9700    2.1120 N   0  0  0  0  0
  -42.0400   -1.6660    2.5060 C   0  0  0  0  0
  -43.0530   -1.5460    1.5450 C   0  0  0  0  0
  -42.7440   -1.7500    0.2090 C   0  0  0  0  0
  -41.4710   -2.0500   -0.1390 N   0  0  0  0  0
  -43.7180   -1.6550   -0.7890 C   0  0  0  0  0
  -45.0330   -1.3350   -0.4340 C   0  0  0  0  0
  -45.3430   -1.1430    0.9070 C   0  0  0  0  0
  -44.3680   -1.2390    1.9050 C   0  0  0  0  0
  -42.2930   -1.5040    3.8230 N   0  0  0  0  0
  -41.2300   -1.3240    4.8130 C   0  0  0  0  0
  -40.2580   -2.5000    5.0540 C   0  0  0  0  0
  -40.8770   -3.8170    5.4820 C   0  0  0  0  0
  -39.9600   -4.5710    6.3510 N   0  3  0  0  0
  -37.1590   -3.3042   -2.3799 H   0  0  0  0  0
  -35.4817   -3.4610   -0.5504 H   0  0  0  0  0
  -36.1201   -3.0925    1.7961 H   0  0  0  0  0
  -38.4399   -2.4557    2.4145 H   0  0  0  0  0
  -40.5370   -2.4599   -1.6847 H   0  0  0  0  0
  -43.4559   -1.8284   -1.8327 H   0  0  0  0  0
  -45.8036   -1.2376   -1.1987 H   0  0  0  0  0
  -46.3706   -0.9121    1.1877 H   0  0  0  0  0
  -44.6304   -1.0764    2.9504 H   0  0  0  0  0
  -43.2625   -1.5072    4.1399 H   0  0  0  0  0
  -41.7421   -1.1723    5.7632 H   0  0  0  0  0
  -40.6123   -0.5117    4.4300 H   0  0  0  0  0
  -39.6103   -2.1914    5.8746 H   0  0  0  0  0
  -39.7750   -2.6921    4.0959 H   0  0  0  0  0
  -41.0851   -4.4117    4.5925 H   0  0  0  0  0
  -41.7931   -3.6101    6.0352 H   0  0  0  0  0
  -40.3986   -5.4504    6.6244 H   0  0  0  0  0
  -39.0955   -4.7637    5.8452 H   0  0  0  0  0
  -39.7524   -4.0199    7.1838 H   0  0  0  0  0
  1  2  4  0  0  0
  1  6  4  0  0  0
  2  3  4  0  0  0
  3  4  4  0  0  0
  4  5  4  0  0  0
  5  6  4  0  0  0
  5  8  1  0  0  0
  6  7  1  0  0  0
  8  9  4  0  0  0
  8 13  4  0  0  0
  9 10  4  0  0  0
 10 11  4  0  0  0
 10 18  1  0  0  0
 11 12  4  0  0  0
 11 17  4  0  0  0
 12 13  4  0  0  0
 12 14  4  0  0  0
 14 15  4  0  0  0
 15 16  4  0  0  0
 16 17  4  0  0  0
 18 19  1  0  0  0
 19 20  1  0  0  0
 20 21  1  0  0  0
 21 22  1  0  0  0
  1 23  1  0  0  0
  2 24  1  0  0  0
  3 25  1  0  0  0
  4 26  1  0  0  0
  7 27  1  0  0  0
 14 28  1  0  0  0
 15 29  1  0  0  0
 16 30  1  0  0  0
 17 31  1  0  0  0
 18 32  1  0  0  0
 19 33  1  0  0  0
 19 34  1  0  0  0
 20 35  1  0  0  0
 20 36  1  0  0  0
 21 37  1  0  0  0
 21 38  1  0  0  0
 22 39  1  0  0  0
 22 40  1  0  0  0
 22 41  1  0  0  0
M  END
$$$$
