2f10_ligand
  -I-interpret- 

 51 51  0  0  0  0  0  0  0  0999 V2000
   10.3120   14.1680   27.8280 C   0  0  0  0  0
   11.4290   14.0600   28.7680 N   0  0  0  0  0
   11.5180   13.0430   29.5550 C   0  0  0  0  0
   10.6480   11.9860   29.6250 N   0  0  0  0  0
   12.5750   12.9880   30.4190 N   0  0  0  0  0
    9.9300   15.6610   27.5710 C   0  0  0  0  0
    9.2860   16.4670   28.7570 C   0  0  0  0  0
    8.9130   17.9660   28.3050 C   0  0  0  0  0
   10.1460   18.7580   27.7630 C   0  0  0  0  0
    9.8510   19.8100   26.6660 C   0  0  0  0  0
    8.2460   18.7300   29.5080 C   0  0  0  0  0
    6.9970   18.0470   30.1180 C   0  0  0  0  0
   10.2750   16.4720   29.8660 N   0  0  0  0  0
    9.9840   16.0140   31.1260 C   0  0  0  0  0
   11.0840   16.0640   32.1660 C   0  0  0  0  0
    8.9110   15.5600   31.4980 O   0  0  0  0  0
    9.0240   15.5810   26.3010 C   0  0  0  0  0
    7.6270   15.4720   26.7230 O   0  0  0  0  0
    9.4820   14.2920   25.5230 C   0  0  0  0  0
    9.9170   14.5220   24.0840 C   0  0  0  0  0
   10.4830   13.6680   23.4120 O   0  0  0  0  0
    9.6710   15.7170   23.5210 O   0  0  0  0  0
   10.6170   13.6720   26.3910 C   0  0  0  0  0
    9.5435   13.5642   28.3106 H   0  0  0  0  0
   12.1390   14.7916   28.8003 H   0  0  0  0  0
   10.8151   11.2311   30.2903 H   0  0  0  0  0
    9.8336   11.9543   29.0117 H   0  0  0  0  0
   12.6726   12.1971   31.0557 H   0  0  0  0  0
   10.8321   16.2591   27.4427 H   0  0  0  0  0
    8.3539   16.0007   29.0763 H   0  0  0  0  0
    8.2064   17.8937   27.4782 H   0  0  0  0  0
   10.8070   18.0201   27.3085 H   0  0  0  0  0
   10.5528   19.3078   28.6117 H   0  0  0  0  0
    9.4047   19.3171   25.8023 H   0  0  0  0  0
    9.1600   20.5568   27.0570 H   0  0  0  0  0
   10.7814   20.2942   26.3691 H   0  0  0  0  0
    7.9156   19.6935   29.1200 H   0  0  0  0  0
    8.9934   18.7764   30.3000 H   0  0  0  0  0
    6.2286   17.9466   29.3515 H   0  0  0  0  0
    7.2702   17.0603   30.4919 H   0  0  0  0  0
    6.6162   18.6552   30.9385 H   0  0  0  0  0
   11.2116   16.8318   29.6823 H   0  0  0  0  0
   10.7650   16.6883   33.0006 H   0  0  0  0  0
   11.2905   15.0552   32.5233 H   0  0  0  0  0
   11.9853   16.4844   31.7198 H   0  0  0  0  0
    9.1115   16.4625   25.6658 H   0  0  0  0  0
    7.3731   16.2690   27.1941 H   0  0  0  0  0
    8.6325   13.6203   25.3992 H   0  0  0  0  0
    9.2268   16.2834   24.1562 H   0  0  0  0  0
   10.6357   12.5840   26.3270 H   0  0  0  0  0
   11.6070   13.9774   26.0522 H   0  0  0  0  0
  1  2  1  0  0  0
  1  6  1  0  0  0
  1 23  1  0  0  0
  2  3  1  0  0  0
  3  4  1  0  0  0
  3  5  2  0  0  0
  6  7  1  0  0  0
  6 17  1  0  0  0
  7  8  1  0  0  0
  7 13  1  0  0  0
  8  9  1  0  0  0
  8 11  1  0  0  0
  9 10  1  0  0  0
 11 12  1  0  0  0
 13 14  1  0  0  0
 14 15  1  0  0  0
 14 16  2  0  0  0
 17 18  1  0  0  0
 17 19  1  0  0  0
 19 20  1  0  0  0
 19 23  1  0  0  0
 20 21  2  0  0  0
 20 22  1  0  0  0
  1 24  1  0  0  0
  2 25  1  0  0  0
  4 26  1  0  0  0
  4 27  1  0  0  0
  5 28  1  0  0  0
  6 29  1  0  0  0
  7 30  1  0  0  0
  8 31  1  0  0  0
  9 32  1  0  0  0
  9 33  1  0  0  0
 10 34  1  0  0  0
 10 35  1  0  0  0
 10 36  1  0  0  0
 11 37  1  0  0  0
 11 38  1  0  0  0
 12 39  1  0  0  0
 12 40  1  0  0  0
 12 41  1  0  0  0
 13 42  1  0  0  0
 15 43  1  0  0  0
 15 44  1  0  0  0
 15 45  1  0  0  0
 17 46  1  0  0  0
 18 47  1  0  0  0
 19 48  1  0  0  0
 22 49  1  0  0  0
 23 50  1  0  0  0
 23 51  1  0  0  0
M  END
$$$$
