2qp6_ligand
  -I-interpret- 

 19 19  0  0  0  0  0  0  0  0999 V2000
   -5.9390    0.7660   16.7530 S   0  0  0  0  0
   -7.3710    0.7070   16.7030 O   0  0  0  0  0
   -5.3000    1.0570   18.0070 O   0  0  0  0  0
   -5.3660   -0.6030   16.2430 N   0  0  0  0  0
   -4.7460    4.0060   13.6990 C   0  0  0  0  0
   -4.4700    2.6270   13.4780 C   0  0  0  0  0
   -4.8400    1.6650   14.4260 C   0  0  0  0  0
   -5.4920    2.0550   15.6090 C   0  0  0  0  0
   -5.7820    3.4240   15.8520 C   0  0  0  0  0
   -5.3990    4.3950   14.8840 C   0  0  0  0  0
   -6.5810    3.9020   17.2770 Cl  0  0  0  0  0
   -3.7880    2.1750   12.2150 N   0  0  0  0  0
   -4.1600    2.7420   10.9650 O   0  0  0  0  0
   -2.8030    1.1630   12.2730 O   0  0  0  0  0
   -6.0020   -1.3442   15.9487 H   0  0  0  0  0
   -4.3576   -0.7517   16.2058 H   0  0  0  0  0
   -4.4551    4.7520   12.9594 H   0  0  0  0  0
   -4.6222    0.6122   14.2465 H   0  0  0  0  0
   -5.6132    5.4488   15.0619 H   0  0  0  0  0
  1  2  2  0  0  0
  1  3  2  0  0  0
  1  4  1  0  0  0
  8  1  1  0  0  0
  6  5  4  0  0  0
  5 10  4  0  0  0
  7  6  4  0  0  0
  6 12  1  0  0  0
  7  8  4  0  0  0
  8  9  4  0  0  0
  9 10  4  0  0  0
  9 11  1  0  0  0
 12 13  2  0  0  0
 12 14  2  0  0  0
  4 15  1  0  0  0
  4 16  1  0  0  0
  5 17  1  0  0  0
  7 18  1  0  0  0
 10 19  1  0  0  0
M  END
$$$$
