3exo_ligand
  -I-interpret- 

 43 45  0  0  0  0  0  0  0  0999 V2000
   33.8520   40.5790    1.9270 C   0  0  0  0  0
   34.2310   40.0940    0.6790 C   0  0  0  0  0
   34.6980   40.9550   -0.3120 C   0  0  0  0  0
   34.7990   42.3260   -0.0820 C   0  0  0  0  0
   34.4110   42.8130    1.1740 C   0  0  0  0  0
   33.9400   41.9600    2.1780 C   0  0  0  0  0
   35.2390   43.1900   -1.0100 N   0  0  0  0  0
   34.5800   44.1400   -1.6950 C   0  0  0  0  0
   35.2410   44.7520   -2.7700 C   0  0  0  0  0
   34.5800   45.7460   -3.4990 C   0  0  0  0  0
   33.3090   46.1020   -3.1600 N   0  0  0  0  0
   32.7360   45.4720   -2.1030 C   0  0  0  0  0
   33.3130   44.5040   -1.3570 N   0  0  0  0  0
   35.1800   46.4710   -4.6810 C   0  0  0  0  0
   34.3540   47.0430   -5.6690 C   0  0  0  0  0
   34.8770   47.7220   -6.7780 C   0  0  0  0  0
   36.2620   47.8380   -6.9300 C   0  0  0  0  0
   37.1080   47.2750   -5.9660 C   0  0  0  0  0
   36.5690   46.6030   -4.8620 C   0  0  0  0  0
   33.3500   39.5810    2.9430 C   0  0  0  0  0
   33.5600   42.4250    3.3950 N   0  0  0  0  0
   33.5050   44.0500    3.9350 S   0  0  0  0  0
   32.2160   44.7370    3.0520 C   0  0  0  0  0
   32.9520   43.9950    5.5330 O   0  0  0  0  0
   34.9330   44.8860    3.5520 O   0  0  0  0  0
   34.1616   39.0257    0.4738 H   0  0  0  0  0
   34.9887   40.5504   -1.2815 H   0  0  0  0  0
   34.4779   43.8825    1.3733 H   0  0  0  0  0
   36.2319   43.1134   -1.2305 H   0  0  0  0  0
   36.2566   44.4569   -3.0339 H   0  0  0  0  0
   31.7237   45.7726   -1.8327 H   0  0  0  0  0
   33.2724   46.9545   -5.5674 H   0  0  0  0  0
   34.2067   48.1578   -7.5189 H   0  0  0  0  0
   36.6793   48.3614   -7.7902 H   0  0  0  0  0
   38.1891   47.3602   -6.0755 H   0  0  0  0  0
   37.2436   46.1706   -4.1231 H   0  0  0  0  0
   32.4670   39.0772    2.5499 H   0  0  0  0  0
   34.1295   38.8463    3.1446 H   0  0  0  0  0
   33.0924   40.1017    3.8653 H   0  0  0  0  0
   33.2712   41.7193    4.0725 H   0  0  0  0  0
   31.3319   44.1075    3.1530 H   0  0  0  0  0
   32.0011   45.7325    3.4405 H   0  0  0  0  0
   32.4947   44.8082    2.0007 H   0  0  0  0  0
  1  2  4  0  0  0
  1  6  4  0  0  0
  1 20  1  0  0  0
  2  3  4  0  0  0
  3  4  4  0  0  0
  4  5  4  0  0  0
  4  7  1  0  0  0
  5  6  4  0  0  0
  6 21  1  0  0  0
  7  8  1  0  0  0
  8  9  4  0  0  0
  8 13  4  0  0  0
  9 10  4  0  0  0
 10 11  4  0  0  0
 10 14  1  0  0  0
 11 12  4  0  0  0
 12 13  4  0  0  0
 14 15  4  0  0  0
 14 19  4  0  0  0
 15 16  4  0  0  0
 16 17  4  0  0  0
 17 18  4  0  0  0
 18 19  4  0  0  0
 21 22  1  0  0  0
 22 23  1  0  0  0
 22 24  2  0  0  0
 22 25  2  0  0  0
  2 26  1  0  0  0
  3 27  1  0  0  0
  5 28  1  0  0  0
  7 29  1  0  0  0
  9 30  1  0  0  0
 12 31  1  0  0  0
 15 32  1  0  0  0
 16 33  1  0  0  0
 17 34  1  0  0  0
 18 35  1  0  0  0
 19 36  1  0  0  0
 20 37  1  0  0  0
 20 38  1  0  0  0
 20 39  1  0  0  0
 21 40  1  0  0  0
 23 41  1  0  0  0
 23 42  1  0  0  0
 23 43  1  0  0  0
M  END
$$$$
