6gev_ligand
  -I-interpret- 

 49 52  0  0  0  0  0  0  0  0999 V2000
    8.4370   18.8410   14.1950 C   0  0  0  0  0
    7.4320   17.9270   13.5010 C   0  0  0  0  0
    7.6800   17.9450   12.0090 C   0  0  0  0  0
    9.0280   14.4670   16.0770 C   0  0  0  0  0
   10.1390   13.6460   16.1700 C   0  0  0  0  0
   11.2700   14.2110   16.7310 C   0  0  0  0  0
   11.3250   15.5120   17.1820 C   0  0  0  0  0
   10.2010   16.3100   17.0830 C   0  0  0  0  0
    9.0520   15.7700   16.5330 C   0  0  0  0  0
    7.3990   17.5130   17.2950 C   0  0  0  0  0
    8.6490   16.6590   20.7640 C   0  0  0  0  0
    8.9130   17.9370   21.2380 C   0  0  0  0  0
    8.6770   19.0400   20.4490 C   0  0  0  0  0
    8.2060   18.9120   19.1560 C   0  0  0  0  0
    8.8990   20.3430   20.9670 N   0  0  0  0  0
    9.5270   20.5450   22.1620 C   0  0  0  0  0
    7.5650   16.4680   13.9320 C   0  0  0  0  0
    6.9780   16.1820   15.3040 C   0  0  0  0  0
    6.7080   14.7080   15.4910 C   0  0  0  0  0
    7.9160   13.9230   15.4650 O   0  0  0  0  0
    7.8640   16.5480   16.4060 N   0  0  0  0  0
    6.4490   18.2460   17.0000 O   0  0  0  0  0
    7.9600   17.6340   18.6690 C   0  0  0  0  0
    8.1780   16.5150   19.4600 C   0  0  0  0  0
    9.6610   21.6490   22.6510 O   0  0  0  0  0
   10.0720   19.3080   22.8070 C   0  0  0  0  0
    9.3020   18.1140   22.5590 O   0  0  0  0  0
   12.3750   13.4470   16.8520 F   0  0  0  0  0
    8.2832   18.7958   15.2731 H   0  0  0  0  0
    9.4490   18.5133   13.9570 H   0  0  0  0  0
    8.2945   19.8647   13.8490 H   0  0  0  0  0
    6.4444   18.3007   13.7715 H   0  0  0  0  0
    8.6798   17.5626   11.8035 H   0  0  0  0  0
    6.9403   17.3177   11.5114 H   0  0  0  0  0
    7.5979   18.9676   11.6406 H   0  0  0  0  0
   10.1232   12.6135   15.8211 H   0  0  0  0  0
   12.2451   15.9074   17.6122 H   0  0  0  0  0
   10.2193   17.3429   17.4308 H   0  0  0  0  0
    8.8067   15.7866   21.3982 H   0  0  0  0  0
    8.0321   19.7904   18.5346 H   0  0  0  0  0
    8.5804   21.1505   20.4314 H   0  0  0  0  0
    8.6292   16.2368   13.9776 H   0  0  0  0  0
    7.0168   15.8630   13.2098 H   0  0  0  0  0
    6.0685   16.7822   15.3315 H   0  0  0  0  0
    6.0704   14.3745   14.6722 H   0  0  0  0  0
    6.2369   14.5714   16.4644 H   0  0  0  0  0
    7.9803   15.5203   19.0604 H   0  0  0  0  0
   10.0587   19.4778   23.8836 H   0  0  0  0  0
   11.0639   19.1404   22.3872 H   0  0  0  0  0
  2  1  1  0  0  0
  2  3  1  0  0  0
 17  2  1  0  0  0
  4  5  4  0  0  0
  9  4  4  0  0  0
  4 20  1  0  0  0
  5  6  4  0  0  0
  7  6  4  0  0  0
  6 28  1  0  0  0
  8  7  4  0  0  0
  9  8  4  0  0  0
 21  9  1  0  0  0
 21 10  1  0  0  0
 10 22  2  0  0  0
 10 23  1  0  0  0
 12 11  4  0  0  0
 11 24  4  0  0  0
 13 12  4  0  0  0
 12 27  1  0  0  0
 14 13  4  0  0  0
 13 15  1  0  0  0
 23 14  4  0  0  0
 15 16  1  0  0  0
 16 25  2  0  0  0
 16 26  1  0  0  0
 18 17  1  0  0  0
 18 19  1  0  0  0
 18 21  1  0  0  0
 19 20  1  0  0  0
 23 24  4  0  0  0
 26 27  1  0  0  0
  1 29  1  0  0  0
  1 30  1  0  0  0
  1 31  1  0  0  0
  2 32  1  0  0  0
  3 33  1  0  0  0
  3 34  1  0  0  0
  3 35  1  0  0  0
  5 36  1  0  0  0
  7 37  1  0  0  0
  8 38  1  0  0  0
 11 39  1  0  0  0
 14 40  1  0  0  0
 15 41  1  0  0  0
 17 42  1  0  0  0
 17 43  1  0  0  0
 18 44  1  0  0  0
 19 45  1  0  0  0
 19 46  1  0  0  0
 24 47  1  0  0  0
 26 48  1  0  0  0
 26 49  1  0  0  0
M  END
$$$$
