1fh7_ligand
  -I-interpret- 

 38 39  0  0  0  0  0  0  0  0999 V2000
   17.1220   65.3790   38.5060 C   0  0  0  0  0
   16.8660   64.3700   39.6420 C   0  0  0  0  0
   15.4110   63.8560   39.6120 C   0  0  0  0  0
   14.4530   65.0350   39.5620 C   0  0  0  0  0
   14.7990   65.9160   38.3550 C   0  0  0  0  0
   17.7440   63.2640   39.4700 O   0  0  0  0  0
   15.1520   63.0910   40.7840 O   0  0  0  0  0
   13.1100   64.5590   39.4820 O   0  0  0  0  0
   16.1330   66.4110   38.5210 O   0  0  0  0  0
   20.5600   68.0800   35.7980 C   0  0  0  0  0
   20.2130   68.8110   37.0190 C   0  0  0  0  0
   21.1550   69.7400   37.4210 O   0  0  0  0  0
   19.7320   67.9200   38.1950 C   0  0  0  0  0
   19.1130   68.7080   39.2010 O   0  0  0  0  0
   18.7040   66.9000   37.6700 C   0  0  0  0  0
   18.4290   65.9560   38.6960 O   0  0  0  0  0
   19.3030   66.1600   36.4410 C   0  0  0  0  0
   19.6740   67.1090   35.4040 N   0  3  0  0  0
   17.0686   64.8681   37.5446 H   0  0  0  0  0
   17.0394   64.8659   40.5971 H   0  0  0  0  0
   15.2687   63.2332   38.7289 H   0  0  0  0  0
   14.5483   65.6333   40.4681 H   0  0  0  0  0
   14.0987   66.7487   38.2892 H   0  0  0  0  0
   14.7302   65.3328   37.4367 H   0  0  0  0  0
   18.6529   63.5727   39.4871 H   0  0  0  0  0
   15.7559   62.3455   40.8181 H   0  0  0  0  0
   12.9196   64.0117   40.2474 H   0  0  0  0  0
   20.5813   68.8178   34.9959 H   0  0  0  0  0
   21.5007   67.5696   36.0045 H   0  0  0  0  0
   19.3404   69.3868   36.7106 H   0  0  0  0  0
   20.8539   70.1727   38.2233 H   0  0  0  0  0
   20.5969   67.4109   38.6203 H   0  0  0  0  0
   18.8231   68.1394   39.9181 H   0  0  0  0  0
   17.7861   67.4108   37.3791 H   0  0  0  0  0
   18.5551   65.4749   36.0419 H   0  0  0  0  0
   20.1928   65.6148   36.7559 H   0  0  0  0  0
   20.1314   66.5747   34.6653 H   0  0  0  0  0
   18.8183   67.5874   35.1223 H   0  0  0  0  0
  1  9  1  0  0  0
  1  2  1  0  0  0
  2  6  1  0  0  0
  2  3  1  0  0  0
  3  7  1  0  0  0
  3  4  1  0  0  0
  4  8  1  0  0  0
  5  4  1  0  0  0
  9  5  1  0  0  0
 18 10  1  0  0  0
 11 10  1  0  0  0
 13 11  1  0  0  0
 11 12  1  0  0  0
 15 13  1  0  0  0
 13 14  1  0  0  0
 15 17  1  0  0  0
 16 15  1  0  0  0
 17 18  1  0  0  0
 16  1  1  0  0  0
  1 19  1  0  0  0
  2 20  1  0  0  0
  3 21  1  0  0  0
  4 22  1  0  0  0
  5 23  1  0  0  0
  5 24  1  0  0  0
  6 25  1  0  0  0
  7 26  1  0  0  0
  8 27  1  0  0  0
 10 28  1  0  0  0
 10 29  1  0  0  0
 11 30  1  0  0  0
 12 31  1  0  0  0
 13 32  1  0  0  0
 14 33  1  0  0  0
 15 34  1  0  0  0
 17 35  1  0  0  0
 17 36  1  0  0  0
 18 37  1  0  0  0
 18 38  1  0  0  0
M  END
$$$$
