### 
### Created by X-TOOL on Tue Oct 16 15:17:55 2018
### 

@<TRIPOS>MOLECULE
5lgr_ligand
  159   160     1     0     0
SMALL
GAST_HUCK


@<TRIPOS>ATOM
      1 N          39.0010   14.7900  128.1710 N.4       1 GLN         0.2380
      2 CA         40.3820   15.1700  128.5840 C.3       1 GLN         0.0671
      3 C          41.0060   16.1650  127.6070 C.2       1 GLN         0.2270
      4 O          42.2140   16.4010  127.6320 O.2       1 GLN        -0.3907
      5 CB         41.2590   13.9240  128.7140 C.3       1 GLN         0.0247
      6 CG         40.9910   13.1280  129.9820 C.3       1 GLN         0.0443
      7 CD         41.9850   12.0020  130.1950 C.2       1 GLN         0.1738
      8 OE1        42.6270   11.5360  129.2540 O.2       1 GLN        -0.3973
      9 NE2        42.1210   11.5640  131.4430 N.am      1 GLN        -0.3009
     10 N          40.1760   16.7410  126.7400 N.am      1 GLN        -0.2589
     11 CA         40.5760   17.9360  126.0170 C.3       1 GLN         0.1477
     12 C          40.6480   19.1160  126.9820 C.2       1 GLN         0.2063
     13 O          40.0280   19.1170  128.0500 O.2       1 GLN        -0.3942
     14 CB         39.5930   18.2430  124.8860 C.3       1 GLN         0.0773
     15 CG         39.7850   17.3430  123.6790 C.2       1 GLN         0.1780
     16 OD1        40.5740   16.3990  123.7100 O.2       1 GLN        -0.3970
     17 ND2        39.0560   17.6330  122.6060 N.am      1 GLN        -0.3007
     18 N          41.4210   20.1280  126.6000 N.am      1 GLN        -0.2636
     19 CA         41.6090   21.3260  127.4200 C.3       1 GLN         0.1319
     20 C          41.3150   22.5720  126.5910 C.2       1 GLN         0.2064
     21 O          42.1950   23.4030  126.3480 O.2       1 GLN        -0.3942
     22 CB         43.0210   21.3640  128.0060 C.3       1 GLN        -0.0034
     23 CG         44.1130   20.8190  127.0940 C.3       1 GLN        -0.0024
     24 SD         45.7210   20.7330  127.9130 S.3       1 GLN        -0.1639
     25 CE         46.1780   22.4590  127.9740 C.3       1 GLN        -0.0181
     26 N          40.0680   22.7350  126.1450 N.am      1 GLN        -0.2498
     27 CA         39.6990   23.9430  125.3920 C.3       1 GLN         0.1338
     28 C          39.6490   25.1540  126.3110 C.2       1 GLN         0.2039
     29 O          38.9220   25.1650  127.3080 O.2       1 GLN        -0.3944
     30 CB         38.3170   23.5990  124.8250 C.3       1 GLN        -0.0104
     31 CG         37.7570   22.6110  125.7910 C.3       1 GLN        -0.0281
     32 CD         38.9270   21.8170  126.3110 C.3       1 GLN         0.0369
     33 N          40.4320   26.1770  125.9720 N.am      1 GLN        -0.2664
     34 CA         40.4860   27.3910  126.7540 C.3       1 GLN         0.1201
     35 C          41.4330   27.3530  127.9300 C.2       1 GLN         0.2007
     36 O          41.7060   28.4100  128.5150 O.2       1 GLN        -0.3947
     37 N          41.9420   26.1800  128.3060 N.am      1 GLN        -0.2642
     38 CA         42.9030   26.0660  129.4020 C.3       1 GLN         0.1282
     39 C          44.2930   26.2840  128.8190 C.2       1 GLN         0.2036
     40 O          44.9360   25.3620  128.3150 O.2       1 GLN        -0.3944
     41 CB         42.7810   24.7170  130.0960 C.3       1 GLN        -0.0244
     42 N          44.7580   27.5240  128.8890 N.am      1 GLN        -0.2635
     43 CA         46.0230   27.9080  128.2790 C.3       1 GLN         0.1335
     44 C          47.1740   27.1530  128.9340 C.2       1 GLN         0.2042
     45 O          48.0410   26.6140  128.2470 O.2       1 GLN        -0.3944
     46 CB         46.2290   29.4280  128.3720 C.3       1 GLN        -0.0037
     47 CG1        45.0080   30.1710  127.8100 C.3       1 GLN        -0.0491
     48 CG2        47.4920   29.8440  127.6300 C.3       1 GLN        -0.0582
     49 CD1        44.6550   29.8160  126.3720 C.3       1 GLN        -0.0648
     50 N          47.1830   27.1250  130.2620 N.am      1 GLN        -0.2637
     51 CA         48.1920   26.3600  131.0140 C.3       1 GLN         0.1313
     52 C          47.6030   25.0530  131.6260 C.2       1 GLN         0.2064
     53 O          46.5430   25.0900  132.1870 O.2       1 GLN        -0.3942
     54 CB         48.7410   27.1970  132.1710 C.3       1 GLN        -0.0092
     55 CG         49.3820   28.5240  131.7780 C.3       1 GLN        -0.0156
     56 CD         50.8520   28.3650  131.4440 C.3       1 GLN         0.0627
     57 NE         51.5000   29.6580  131.2640 N.pl3     1 GLN        -0.2723
     58 CZ         52.3990   30.2000  132.0790 C.cat     1 GLN         0.2882
     59 NH1        52.8270   29.5410  133.1380 N.pl3     1 GLN        -0.2849
     60 NH2        52.8620   31.4220  131.8410 N.pl3     1 GLN        -0.2849
     61 N          48.3200   23.9200  131.5090 N.am      1 GLN        -0.2498
     62 CA         47.7830   22.6920  132.1110 C.3       1 GLN         0.1338
     63 C          47.6580   22.7870  133.6290 C.2       1 GLN         0.2041
     64 O          48.3870   23.5540  134.2560 O.2       1 GLN        -0.3944
     65 CB         48.8140   21.6230  131.7240 C.3       1 GLN        -0.0104
     66 CG         49.6180   22.2190  130.6190 C.3       1 GLN        -0.0281
     67 CD         49.6220   23.6870  130.8620 C.3       1 GLN         0.0369
     68 N          46.7450   22.0130  134.2120 N.am      1 GLN        -0.2640
     69 CA         46.6500   21.9420  135.6620 C.3       1 GLN         0.1282
     70 C          47.9220   21.3290  136.2310 C.2       1 GLN         0.2031
     71 O          48.4220   20.3230  135.7220 O.2       1 GLN        -0.3944
     72 CB         45.4320   21.1170  136.0740 C.3       1 GLN        -0.0244
     73 N          48.4480   21.9410  137.2880 N.am      1 GLN        -0.2698
     74 CA         49.6990   21.4860  137.8790 C.3       1 GLN         0.0916
     75 C          49.5520   20.0810  138.4560 C.2       1 GLN         0.0598
     76 O          48.5050   19.7310  138.9980 O.co2     1 GLN        -0.5666
     77 CB         50.1580   22.4560  138.9560 C.3       1 GLN        -0.0300
     78 OXT        50.4780   19.2740  138.3890 O.co2     1 GLN        -0.5666
     79 H1         38.6200   14.1345  128.8353 H         1 GLN         0.2015
     80 H2         39.0285   14.3648  127.2575 H         1 GLN         0.2015
     81 H3         38.4206   15.6136  128.1410 H         1 GLN         0.2015
     82 H4         40.3221   15.6536  129.5702 H         1 GLN         0.1100
     83 H5         42.3132   14.2379  128.7154 H         1 GLN         0.0370
     84 H6         41.0713   13.2732  127.8473 H         1 GLN         0.0370
     85 H7         39.9810   12.6969  129.9186 H         1 GLN         0.0506
     86 H8         41.0449   13.8108  130.8427 H         1 GLN         0.0506
     87 H9         42.7614   10.8233  131.6459 H         1 GLN         0.1814
     88 H10        41.5829   11.9753  132.1787 H         1 GLN         0.1814
     89 H11        39.2697   16.3479  126.5851 H         1 GLN         0.1886
     90 H12        41.5724   17.7695  125.5818 H         1 GLN         0.0826
     91 H13        39.7343   19.2875  124.5714 H         1 GLN         0.0551
     92 H14        38.5689   18.1094  125.2646 H         1 GLN         0.0551
     93 H15        39.1388   17.0758  121.7797 H         1 GLN         0.1814
     94 H16        38.4248   18.4084  122.6250 H         1 GLN         0.1814
     95 H17        41.8916   20.0686  125.7196 H         1 GLN         0.1883
     96 H18        40.8938   21.2911  128.2550 H         1 GLN         0.0800
     97 H19        43.0221   20.7700  128.9318 H         1 GLN         0.0320
     98 H20        43.2644   22.4105  128.2415 H         1 GLN         0.0320
     99 H21        44.1993   21.4758  126.2159 H         1 GLN         0.0378
    100 H22        43.8285   19.8074  126.7688 H         1 GLN         0.0378
    101 H23        47.1600   22.5613  128.4590 H         1 GLN         0.0340
    102 H24        45.4250   23.0176  128.5493 H         1 GLN         0.0340
    103 H25        46.2305   22.8608  126.9514 H         1 GLN         0.0340
    104 H26        40.4156   24.1338  124.5795 H         1 GLN         0.0802
    105 H27        38.4067   23.1556  123.8224 H         1 GLN         0.0313
    106 H28        37.6826   24.4962  124.7738 H         1 GLN         0.0313
    107 H29        37.0412   21.9469  125.2845 H         1 GLN         0.0287
    108 H30        37.2523   23.1314  126.6183 H         1 GLN         0.0287
    109 H31        38.7844   21.5546  127.3697 H         1 GLN         0.0524
    110 H32        39.0720   20.8993  125.7221 H         1 GLN         0.0524
    111 H33        40.9994   26.1026  125.1519 H         1 GLN         0.1881
    112 H34        39.4752   27.5952  127.1368 H         1 GLN         0.0763
    113 H35        40.7993   28.2104  126.0904 H         1 GLN         0.0763
    114 H36        41.6576   25.3517  127.8232 H         1 GLN         0.1883
    115 H37        42.6997   26.8535  130.1426 H         1 GLN         0.0797
    116 H38        43.5136   24.6581  130.9144 H         1 GLN         0.0277
    117 H39        42.9756   23.9128  129.3712 H         1 GLN         0.0277
    118 H40        41.7657   24.6051  130.5041 H         1 GLN         0.0277
    119 H41        44.2240   28.2157  129.3751 H         1 GLN         0.1883
    120 H42        45.9921   27.6314  127.2148 H         1 GLN         0.0803
    121 H43        46.3436   29.6988  129.4320 H         1 GLN         0.0345
    122 H44        45.2125   31.2508  127.8562 H         1 GLN         0.0267
    123 H45        44.1409   29.9345  128.4442 H         1 GLN         0.0267
    124 H46        48.3556   29.3033  128.0445 H         1 GLN         0.0235
    125 H47        47.6465   30.9267  127.7475 H         1 GLN         0.0235
    126 H48        47.3863   29.6024  126.5621 H         1 GLN         0.0235
    127 H49        43.7731   30.3935  126.0577 H         1 GLN         0.0230
    128 H50        44.4326   28.7409  126.3037 H         1 GLN         0.0230
    129 H51        45.5042   30.0572  125.7157 H         1 GLN         0.0230
    130 H52        46.4862   27.6369  130.7644 H         1 GLN         0.1883
    131 H53        49.0126   26.0985  130.3297 H         1 GLN         0.0800
    132 H54        49.5000   26.5960  132.6932 H         1 GLN         0.0313
    133 H55        47.9088   27.4132  132.8571 H         1 GLN         0.0313
    134 H56        49.2821   29.2292  132.6163 H         1 GLN         0.0301
    135 H57        48.8586   28.9247  130.8974 H         1 GLN         0.0301
    136 H58        50.9469   27.7848  130.5143 H         1 GLN         0.0689
    137 H59        51.3492   27.8269  132.2645 H         1 GLN         0.0689
    138 H60        51.2373   30.2011  130.4292 H         1 GLN         0.2642
    139 H61        53.5239   29.9691  133.7640 H         1 GLN         0.2615
    140 H62        52.4644   28.5982  133.3391 H         1 GLN         0.2615
    141 H63        52.5343   31.9454  131.0167 H         1 GLN         0.2615
    142 H64        53.5488   31.8462  132.4808 H         1 GLN         0.2615
    143 H65        46.7968   22.4564  131.6845 H         1 GLN         0.0802
    144 H66        48.3080   20.7089  131.3801 H         1 GLN         0.0313
    145 H67        49.4594   21.3842  132.5821 H         1 GLN         0.0313
    146 H68        49.1569   21.9937  129.6460 H         1 GLN         0.0287
    147 H69        50.6450   21.8255  130.6380 H         1 GLN         0.0287
    148 H70        50.4504   23.9754  131.5257 H         1 GLN         0.0524
    149 H71        49.6988   24.2438  129.9165 H         1 GLN         0.0524
    150 H72        46.1185   21.4753  133.6478 H         1 GLN         0.1883
    151 H73        46.5375   22.9609  136.0610 H         1 GLN         0.0797
    152 H74        45.3736   21.0724  137.1715 H         1 GLN         0.0277
    153 H75        45.5256   20.0981  135.6701 H         1 GLN         0.0277
    154 H76        44.5198   21.5865  135.6771 H         1 GLN         0.0277
    155 H77        47.9758   22.7283  137.6845 H         1 GLN         0.1875
    156 H78        50.4638   21.4565  137.0889 H         1 GLN         0.0723
    157 H79        51.1027   22.0992  139.3923 H         1 GLN         0.0270
    158 H80        49.3918   22.5198  139.7427 H         1 GLN         0.0270
    159 H81        50.3117   23.4507  138.5123 H         1 GLN         0.0270
@<TRIPOS>BOND
     1    1    2 1  
     2    2    3 1  
     3    2    5 1  
     4    3    4 2  
     5    3   10 am 
     6    5    6 1  
     7    6    7 1  
     8    7    8 2  
     9    7    9 am 
    10   10   11 1  
    11   11   12 1  
    12   11   14 1  
    13   12   13 2  
    14   12   18 am 
    15   14   15 1  
    16   15   16 2  
    17   15   17 am 
    18   18   19 1  
    19   19   20 1  
    20   19   22 1  
    21   20   21 2  
    22   20   26 am 
    23   22   23 1  
    24   23   24 1  
    25   24   25 1  
    26   26   27 1  
    27   26   32 1  
    28   27   28 1  
    29   27   30 1  
    30   28   29 2  
    31   28   33 am 
    32   30   31 1  
    33   31   32 1  
    34   33   34 1  
    35   34   35 1  
    36   35   36 2  
    37   35   37 am 
    38   37   38 1  
    39   38   39 1  
    40   38   41 1  
    41   39   40 2  
    42   39   42 am 
    43   42   43 1  
    44   43   44 1  
    45   43   46 1  
    46   44   45 2  
    47   44   50 am 
    48   46   47 1  
    49   46   48 1  
    50   47   49 1  
    51   50   51 1  
    52   51   52 1  
    53   51   54 1  
    54   52   53 2  
    55   52   61 am 
    56   54   55 1  
    57   55   56 1  
    58   56   57 1  
    59   57   58 ar 
    60   58   59 ar 
    61   58   60 ar 
    62   61   62 1  
    63   61   67 1  
    64   62   63 1  
    65   62   65 1  
    66   63   64 2  
    67   63   68 am 
    68   65   66 1  
    69   66   67 1  
    70   68   69 1  
    71   69   70 1  
    72   69   72 1  
    73   70   71 2  
    74   70   73 am 
    75   73   74 1  
    76   74   75 1  
    77   74   77 1  
    78   75   76 ar 
    79   75   78 ar 
    80    1   79 1  
    81    1   80 1  
    82    1   81 1  
    83    2   82 1  
    84    5   83 1  
    85    5   84 1  
    86    6   85 1  
    87    6   86 1  
    88    9   87 1  
    89    9   88 1  
    90   10   89 1  
    91   11   90 1  
    92   14   91 1  
    93   14   92 1  
    94   17   93 1  
    95   17   94 1  
    96   18   95 1  
    97   19   96 1  
    98   22   97 1  
    99   22   98 1  
   100   23   99 1  
   101   23  100 1  
   102   25  101 1  
   103   25  102 1  
   104   25  103 1  
   105   27  104 1  
   106   30  105 1  
   107   30  106 1  
   108   31  107 1  
   109   31  108 1  
   110   32  109 1  
   111   32  110 1  
   112   33  111 1  
   113   34  112 1  
   114   34  113 1  
   115   37  114 1  
   116   38  115 1  
   117   41  116 1  
   118   41  117 1  
   119   41  118 1  
   120   42  119 1  
   121   43  120 1  
   122   46  121 1  
   123   47  122 1  
   124   47  123 1  
   125   48  124 1  
   126   48  125 1  
   127   48  126 1  
   128   49  127 1  
   129   49  128 1  
   130   49  129 1  
   131   50  130 1  
   132   51  131 1  
   133   54  132 1  
   134   54  133 1  
   135   55  134 1  
   136   55  135 1  
   137   56  136 1  
   138   56  137 1  
   139   57  138 1  
   140   59  139 1  
   141   59  140 1  
   142   60  141 1  
   143   60  142 1  
   144   62  143 1  
   145   65  144 1  
   146   65  145 1  
   147   66  146 1  
   148   66  147 1  
   149   67  148 1  
   150   67  149 1  
   151   68  150 1  
   152   69  151 1  
   153   72  152 1  
   154   72  153 1  
   155   72  154 1  
   156   73  155 1  
   157   74  156 1  
   158   77  157 1  
   159   77  158 1  
   160   77  159 1  
@<TRIPOS>SUBSTRUCTURE
     1 GLN         1

