5lgr_ligand
  -I-interpret- 

159160  0  0  0  0  0  0  0  0999 V2000
   39.0010   14.7900  128.1710 N   0  3  0  0  0
   40.3820   15.1700  128.5840 C   0  0  0  0  0
   41.0060   16.1650  127.6070 C   0  0  0  0  0
   42.2140   16.4010  127.6320 O   0  0  0  0  0
   41.2590   13.9240  128.7140 C   0  0  0  0  0
   40.9910   13.1280  129.9820 C   0  0  0  0  0
   41.9850   12.0020  130.1950 C   0  0  0  0  0
   42.6270   11.5360  129.2540 O   0  0  0  0  0
   42.1210   11.5640  131.4430 N   0  0  0  0  0
   40.1760   16.7410  126.7400 N   0  0  0  0  0
   40.5760   17.9360  126.0170 C   0  0  0  0  0
   40.6480   19.1160  126.9820 C   0  0  0  0  0
   40.0280   19.1170  128.0500 O   0  0  0  0  0
   39.5930   18.2430  124.8860 C   0  0  0  0  0
   39.7850   17.3430  123.6790 C   0  0  0  0  0
   40.5740   16.3990  123.7100 O   0  0  0  0  0
   39.0560   17.6330  122.6060 N   0  0  0  0  0
   41.4210   20.1280  126.6000 N   0  0  0  0  0
   41.6090   21.3260  127.4200 C   0  0  0  0  0
   41.3150   22.5720  126.5910 C   0  0  0  0  0
   42.1950   23.4030  126.3480 O   0  0  0  0  0
   43.0210   21.3640  128.0060 C   0  0  0  0  0
   44.1130   20.8190  127.0940 C   0  0  0  0  0
   45.7210   20.7330  127.9130 S   0  0  0  0  0
   46.1780   22.4590  127.9740 C   0  0  0  0  0
   40.0680   22.7350  126.1450 N   0  0  0  0  0
   39.6990   23.9430  125.3920 C   0  0  0  0  0
   39.6490   25.1540  126.3110 C   0  0  0  0  0
   38.9220   25.1650  127.3080 O   0  0  0  0  0
   38.3170   23.5990  124.8250 C   0  0  0  0  0
   37.7570   22.6110  125.7910 C   0  0  0  0  0
   38.9270   21.8170  126.3110 C   0  0  0  0  0
   40.4320   26.1770  125.9720 N   0  0  0  0  0
   40.4860   27.3910  126.7540 C   0  0  0  0  0
   41.4330   27.3530  127.9300 C   0  0  0  0  0
   41.7060   28.4100  128.5150 O   0  0  0  0  0
   41.9420   26.1800  128.3060 N   0  0  0  0  0
   42.9030   26.0660  129.4020 C   0  0  0  0  0
   44.2930   26.2840  128.8190 C   0  0  0  0  0
   44.9360   25.3620  128.3150 O   0  0  0  0  0
   42.7810   24.7170  130.0960 C   0  0  0  0  0
   44.7580   27.5240  128.8890 N   0  0  0  0  0
   46.0230   27.9080  128.2790 C   0  0  0  0  0
   47.1740   27.1530  128.9340 C   0  0  0  0  0
   48.0410   26.6140  128.2470 O   0  0  0  0  0
   46.2290   29.4280  128.3720 C   0  0  0  0  0
   45.0080   30.1710  127.8100 C   0  0  0  0  0
   47.4920   29.8440  127.6300 C   0  0  0  0  0
   44.6550   29.8160  126.3720 C   0  0  0  0  0
   47.1830   27.1250  130.2620 N   0  0  0  0  0
   48.1920   26.3600  131.0140 C   0  0  0  0  0
   47.6030   25.0530  131.6260 C   0  0  0  0  0
   46.5430   25.0900  132.1870 O   0  0  0  0  0
   48.7410   27.1970  132.1710 C   0  0  0  0  0
   49.3820   28.5240  131.7780 C   0  0  0  0  0
   50.8520   28.3650  131.4440 C   0  0  0  0  0
   51.5000   29.6580  131.2640 N   0  0  0  0  0
   52.3990   30.2000  132.0790 C   0  0  0  0  0
   52.8270   29.5410  133.1380 N   0  0  0  0  0
   52.8620   31.4220  131.8410 N   0  0  0  0  0
   48.3200   23.9200  131.5090 N   0  0  0  0  0
   47.7830   22.6920  132.1110 C   0  0  0  0  0
   47.6580   22.7870  133.6290 C   0  0  0  0  0
   48.3870   23.5540  134.2560 O   0  0  0  0  0
   48.8140   21.6230  131.7240 C   0  0  0  0  0
   49.6180   22.2190  130.6190 C   0  0  0  0  0
   49.6220   23.6870  130.8620 C   0  0  0  0  0
   46.7450   22.0130  134.2120 N   0  0  0  0  0
   46.6500   21.9420  135.6620 C   0  0  0  0  0
   47.9220   21.3290  136.2310 C   0  0  0  0  0
   48.4220   20.3230  135.7220 O   0  0  0  0  0
   45.4320   21.1170  136.0740 C   0  0  0  0  0
   48.4480   21.9410  137.2880 N   0  0  0  0  0
   49.6990   21.4860  137.8790 C   0  0  0  0  0
   49.5520   20.0810  138.4560 C   0  0  0  0  0
   48.5050   19.7310  138.9980 O   0  0  0  0  0
   50.1580   22.4560  138.9560 C   0  0  0  0  0
   50.4780   19.2740  138.3890 O   0  0  0  0  0
   38.4287   15.6303  128.0886 H   0  0  0  0  0
   39.0361   14.3115  127.2709 H   0  0  0  0  0
   38.5965   14.1691  128.8719 H   0  0  0  0  0
   40.3171   15.6591  129.5560 H   0  0  0  0  0
   42.2973   14.2543  128.7461 H   0  0  0  0  0
   41.0379   13.2761  127.8658 H   0  0  0  0  0
   39.9997   12.6838  129.8923 H   0  0  0  0  0
   41.0760   13.8108  130.8273 H   0  0  0  0  0
   42.7783   10.8123  131.6509 H   0  0  0  0  0
   41.5680   11.9797  132.1925 H   0  0  0  0  0
   39.2515   16.3400  126.5820 H   0  0  0  0  0
   41.5582   17.7652  125.5764 H   0  0  0  0  0
   39.7629   19.2711  124.5661 H   0  0  0  0  0
   38.5848   18.0800  125.2668 H   0  0  0  0  0
   39.1385   17.0631  121.7641 H   0  0  0  0  0
   38.4141   18.4254  122.6245 H   0  0  0  0  0
   41.9010   20.0674  125.7020 H   0  0  0  0  0
   40.9102   21.2988  128.2561 H   0  0  0  0  0
   43.0095   20.7326  128.8944 H   0  0  0  0  0
   43.2576   22.4124  128.1877 H   0  0  0  0  0
   44.2057   21.4920  126.2416 H   0  0  0  0  0
   43.8314   19.8080  126.7998 H   0  0  0  0  0
   46.2296   22.8559  126.9601 H   0  0  0  0  0
   45.4311   23.0114  128.5442 H   0  0  0  0  0
   47.1511   22.5591  128.4547 H   0  0  0  0  0
   40.4137   24.2041  124.6116 H   0  0  0  0  0
   38.3774   23.1953  123.8143 H   0  0  0  0  0
   37.6833   24.4804  124.7263 H   0  0  0  0  0
   37.0266   21.9618  125.3082 H   0  0  0  0  0
   37.2315   23.1124  126.6038 H   0  0  0  0  0
   38.7913   21.5027  127.3458 H   0  0  0  0  0
   39.0654   20.8779  125.7752 H   0  0  0  0  0
   41.0107   26.1011  125.1355 H   0  0  0  0  0
   39.4868   27.5476  127.1603 H   0  0  0  0  0
   40.8425   28.1775  126.0889 H   0  0  0  0  0
   41.6520   25.3351  127.8136 H   0  0  0  0  0
   42.7050   26.8176  130.1662 H   0  0  0  0  0
   41.7745   24.6073  130.4999 H   0  0  0  0  0
   42.9740   23.9211  129.3768 H   0  0  0  0  0
   43.5074   24.6599  130.9067 H   0  0  0  0  0
   44.2133   28.2296  129.3849 H   0  0  0  0  0
   45.9995   27.6406  127.2226 H   0  0  0  0  0
   46.3436   29.6949  129.4226 H   0  0  0  0  0
   45.2484   31.2340  127.8249 H   0  0  0  0  0
   44.1537   29.8894  128.4256 H   0  0  0  0  0
   48.3532   29.3426  128.0717 H   0  0  0  0  0
   47.4048   29.5624  126.5806 H   0  0  0  0  0
   47.6189   30.9237  127.7084 H   0  0  0  0  0
   45.4972   30.0554  125.7228 H   0  0  0  0  0
   44.4349   28.7505  126.3057 H   0  0  0  0  0
   43.7811   30.3889  126.0617 H   0  0  0  0  0
   46.4723   27.6472  130.7745 H   0  0  0  0  0
   48.9773   26.1057  130.3022 H   0  0  0  0  0
   49.5245   26.6014  132.6394 H   0  0  0  0  0
   47.8905   27.4406  132.8077 H   0  0  0  0  0
   49.2954   29.2084  132.6219 H   0  0  0  0  0
   48.8696   28.9022  130.8934 H   0  0  0  0  0
   50.9366   27.8032  130.5137 H   0  0  0  0  0
   51.3399   27.8454  132.2687 H   0  0  0  0  0
   51.2399   30.1959  130.4373 H   0  0  0  0  0
   52.4679   28.6073  133.3372 H   0  0  0  0  0
   53.5421   31.8421  132.4746 H   0  0  0  0  0
   52.5375   31.9403  131.0247 H   0  0  0  0  0
   46.7735   22.4791  131.7593 H   0  0  0  0  0
   48.3293   20.6989  131.4091 H   0  0  0  0  0
   49.4431   21.3522  132.5719 H   0  0  0  0  0
   49.1895   21.9807  129.6455 H   0  0  0  0  0
   50.6314   21.8177  130.6066 H   0  0  0  0  0
   50.4624   24.0109  131.4759 H   0  0  0  0  0
   49.7484   24.2659  129.9471 H   0  0  0  0  0
   46.1060   21.4645  133.6365 H   0  0  0  0  0
   46.5332   22.9499  136.0603 H   0  0  0  0  0
   44.5289   21.5832  135.6801 H   0  0  0  0  0
   45.5259   20.1077  135.6732 H   0  0  0  0  0
   45.3752   21.0735  137.1617 H   0  0  0  0  0
   47.9664   22.7440  137.6924 H   0  0  0  0  0
   50.4534   21.4517  137.0930 H   0  0  0  0  0
   50.3099   23.4412  138.5151 H   0  0  0  0  0
   49.3980   22.5184  139.7348 H   0  0  0  0  0
   51.0940   22.1014  139.3875 H   0  0  0  0  0
   51.2247   19.6816  137.9441 H   0  0  0  0  0
  1  2  1  0  0  0
  2  3  1  0  0  0
  2  5  1  0  0  0
  3  4  2  0  0  0
  3 10  1  0  0  0
  5  6  1  0  0  0
  6  7  1  0  0  0
  7  8  2  0  0  0
  7  9  1  0  0  0
 10 11  1  0  0  0
 11 12  1  0  0  0
 11 14  1  0  0  0
 12 13  2  0  0  0
 12 18  1  0  0  0
 14 15  1  0  0  0
 15 16  2  0  0  0
 15 17  1  0  0  0
 18 19  1  0  0  0
 19 20  1  0  0  0
 19 22  1  0  0  0
 20 21  2  0  0  0
 20 26  1  0  0  0
 22 23  1  0  0  0
 23 24  1  0  0  0
 24 25  1  0  0  0
 26 27  1  0  0  0
 26 32  1  0  0  0
 27 28  1  0  0  0
 27 30  1  0  0  0
 28 29  2  0  0  0
 28 33  1  0  0  0
 30 31  1  0  0  0
 31 32  1  0  0  0
 33 34  1  0  0  0
 34 35  1  0  0  0
 35 36  2  0  0  0
 35 37  1  0  0  0
 37 38  1  0  0  0
 38 39  1  0  0  0
 38 41  1  0  0  0
 39 40  2  0  0  0
 39 42  1  0  0  0
 42 43  1  0  0  0
 43 44  1  0  0  0
 43 46  1  0  0  0
 44 45  2  0  0  0
 44 50  1  0  0  0
 46 47  1  0  0  0
 46 48  1  0  0  0
 47 49  1  0  0  0
 50 51  1  0  0  0
 51 52  1  0  0  0
 51 54  1  0  0  0
 52 53  2  0  0  0
 52 61  1  0  0  0
 54 55  1  0  0  0
 55 56  1  0  0  0
 56 57  1  0  0  0
 57 58  1  0  0  0
 58 59  2  0  0  0
 58 60  1  0  0  0
 61 62  1  0  0  0
 61 67  1  0  0  0
 62 63  1  0  0  0
 62 65  1  0  0  0
 63 64  2  0  0  0
 63 68  1  0  0  0
 65 66  1  0  0  0
 66 67  1  0  0  0
 68 69  1  0  0  0
 69 70  1  0  0  0
 69 72  1  0  0  0
 70 71  2  0  0  0
 70 73  1  0  0  0
 73 74  1  0  0  0
 74 75  1  0  0  0
 74 77  1  0  0  0
 75 76  2  0  0  0
 75 78  1  0  0  0
  1 79  1  0  0  0
  1 80  1  0  0  0
  1 81  1  0  0  0
  2 82  1  0  0  0
  5 83  1  0  0  0
  5 84  1  0  0  0
  6 85  1  0  0  0
  6 86  1  0  0  0
  9 87  1  0  0  0
  9 88  1  0  0  0
 10 89  1  0  0  0
 11 90  1  0  0  0
 14 91  1  0  0  0
 14 92  1  0  0  0
 17 93  1  0  0  0
 17 94  1  0  0  0
 18 95  1  0  0  0
 19 96  1  0  0  0
 22 97  1  0  0  0
 22 98  1  0  0  0
 23 99  1  0  0  0
 23100  1  0  0  0
 25101  1  0  0  0
 25102  1  0  0  0
 25103  1  0  0  0
 27104  1  0  0  0
 30105  1  0  0  0
 30106  1  0  0  0
 31107  1  0  0  0
 31108  1  0  0  0
 32109  1  0  0  0
 32110  1  0  0  0
 33111  1  0  0  0
 34112  1  0  0  0
 34113  1  0  0  0
 37114  1  0  0  0
 38115  1  0  0  0
 41116  1  0  0  0
 41117  1  0  0  0
 41118  1  0  0  0
 42119  1  0  0  0
 43120  1  0  0  0
 46121  1  0  0  0
 47122  1  0  0  0
 47123  1  0  0  0
 48124  1  0  0  0
 48125  1  0  0  0
 48126  1  0  0  0
 49127  1  0  0  0
 49128  1  0  0  0
 49129  1  0  0  0
 50130  1  0  0  0
 51131  1  0  0  0
 54132  1  0  0  0
 54133  1  0  0  0
 55134  1  0  0  0
 55135  1  0  0  0
 56136  1  0  0  0
 56137  1  0  0  0
 57138  1  0  0  0
 59139  1  0  0  0
 60140  1  0  0  0
 60141  1  0  0  0
 62142  1  0  0  0
 65143  1  0  0  0
 65144  1  0  0  0
 66145  1  0  0  0
 66146  1  0  0  0
 67147  1  0  0  0
 67148  1  0  0  0
 68149  1  0  0  0
 69150  1  0  0  0
 72151  1  0  0  0
 72152  1  0  0  0
 72153  1  0  0  0
 73154  1  0  0  0
 74155  1  0  0  0
 77156  1  0  0  0
 77157  1  0  0  0
 77158  1  0  0  0
 78159  1  0  0  0
M  END
$$$$
