### 
### Created by X-TOOL on Wed Jan  1 15:39:38 2020
### 

@<TRIPOS>MOLECULE
6e06_ligand
   43    44     1     0     0
SMALL
GAST_HUCK


@<TRIPOS>ATOM
      1 N1        -12.8810  -37.2010   24.0760 N.am      1 CTP        -0.2274
      2 C2        -14.3130  -37.6330   24.1190 C.2       1 CTP         0.2929
      3 N3        -15.4010  -36.6260   23.9500 N.am      1 CTP        -0.2085
      4 C4        -15.0960  -35.2310   23.7620 C.2       1 CTP         0.1080
      5 C5        -13.6740  -34.7960   23.7390 C.2       1 CTP        -0.0745
      6 C6        -12.5790  -35.7940   23.9100 C.3       1 CTP         0.0272
      7 O2        -14.6040  -38.7700   24.2690 O.2       1 CTP        -0.3905
      8 N4        -16.1720  -34.2440   23.5990 N.pl3     1 CTP        -0.3235
      9 C1'       -11.8860  -38.0670   24.2810 C.3       1 CTP         0.1753
     10 C2'       -11.0900  -38.5180   23.0590 C.3       1 CTP         0.1309
     11 O2'       -11.6160  -39.8560   22.6710 O.3       1 CTP        -0.3844
     12 C3'        -9.8040  -38.5490   23.4730 C.3       1 CTP         0.1141
     13 C4'        -9.6430  -37.5350   24.7240 C.3       1 CTP         0.1181
     14 O4'       -10.8400  -37.3310   25.2120 O.3       1 CTP        -0.3431
     15 O3'        -9.4110  -39.8110   24.0290 O.3       1 CTP        -0.3864
     16 C5'        -9.0240  -36.2440   24.2600 C.3       1 CTP         0.1131
     17 O5'        -9.7650  -35.7740   23.1670 O.3       1 CTP        -0.2441
     18 PA         -8.8560  -35.3200   21.8590 P.3       1 CTP         0.3266
     19 O1A        -9.6690  -34.6520   20.7670 O.co2     1 CTP        -0.5692
     20 O2A        -8.0570  -36.4930   21.3040 O.co2     1 CTP        -0.5692
     21 O3A        -7.7440  -34.3140   22.5340 O.3       1 CTP        -0.1171
     22 PB         -6.6390  -33.5490   21.5760 P.3       1 CTP         0.3553
     23 O1B        -6.8510  -33.8620   20.1210 O.co2     1 CTP        -0.5652
     24 O2B        -6.7910  -32.0710   21.8250 O.co2     1 CTP        -0.5652
     25 O3B        -5.1300  -33.9350   22.1040 O.3       1 CTP        -0.1546
     26 PG         -3.8340  -33.9550   21.0990 P.3       1 CTP         0.1879
     27 O1G        -4.1400  -33.3530   19.7490 O.co2     1 CTP        -0.6091
     28 O2G        -3.4840  -35.4110   20.9400 O.co2     1 CTP        -0.6091
     29 O3G        -2.7150  -33.1740   21.7460 O.co2     1 CTP        -0.6091
     30 H1        -16.3554  -36.9239   23.9675 H         1 CTP         0.2267
     31 H2        -13.4312  -33.7440   23.5967 H         1 CTP        -0.0093
     32 H3        -11.9380  -35.7130   23.0197 H         1 CTP         0.0511
     33 H4        -12.0105  -35.4873   24.8003 H         1 CTP         0.0511
     34 H5        -15.9422  -33.2489   23.4652 H         1 CTP         0.1728
     35 H6        -17.1562  -34.5471   23.6185 H         1 CTP         0.1728
     36 H7        -12.2969  -38.9568   24.7805 H         1 CTP         0.0896
     37 H8        -11.2029  -37.8147   22.2208 H         1 CTP         0.0668
     38 H9        -11.4987  -40.4626   23.3927 H         1 CTP         0.2101
     39 H10        -9.1429  -38.2718   22.6387 H         1 CTP         0.0648
     40 H11        -9.0006  -37.9877   25.4936 H         1 CTP         0.0651
     41 H12        -9.4726  -40.4832   23.3605 H         1 CTP         0.2100
     42 H13        -7.9813  -36.4184   23.9562 H         1 CTP         0.0648
     43 H14        -9.0500  -35.5044   25.0738 H         1 CTP         0.0648
@<TRIPOS>BOND
     1    1    2 am 
     2    1    6 1  
     3    1    9 1  
     4    2    3 am 
     5    2    7 2  
     6    3    4 1  
     7    4    5 2  
     8    4    8 1  
     9    5    6 1  
    10    9   10 1  
    11    9   14 1  
    12   10   11 1  
    13   10   12 1  
    14   12   13 1  
    15   12   15 1  
    16   13   14 1  
    17   13   16 1  
    18   16   17 1  
    19   17   18 1  
    20   18   19 ar 
    21   18   20 ar 
    22   18   21 1  
    23   21   22 1  
    24   22   23 ar 
    25   22   24 ar 
    26   22   25 1  
    27   25   26 1  
    28   26   27 ar 
    29   26   28 ar 
    30   26   29 ar 
    31    3   30 1  
    32    5   31 1  
    33    6   32 1  
    34    6   33 1  
    35    8   34 1  
    36    8   35 1  
    37    9   36 1  
    38   10   37 1  
    39   11   38 1  
    40   12   39 1  
    41   13   40 1  
    42   15   41 1  
    43   16   42 1  
    44   16   43 1  
@<TRIPOS>SUBSTRUCTURE
     1 CTP         1

