6e06_ligand
  -I-interpret- 

 47 48  0  0  0  0  0  0  0  0999 V2000
  -12.8810  -37.2010   24.0760 N   0  0  0  0  0
  -14.3130  -37.6330   24.1190 C   0  0  0  0  0
  -15.4010  -36.6260   23.9500 N   0  0  0  0  0
  -15.0960  -35.2310   23.7620 C   0  0  0  0  0
  -13.6740  -34.7960   23.7390 C   0  0  0  0  0
  -12.5790  -35.7940   23.9100 C   0  0  0  0  0
  -14.6040  -38.7700   24.2690 O   0  0  0  0  0
  -16.1720  -34.2440   23.5990 N   0  0  0  0  0
  -11.8860  -38.0670   24.2810 C   0  0  0  0  0
  -11.0900  -38.5180   23.0590 C   0  0  0  0  0
  -11.6160  -39.8560   22.6710 O   0  0  0  0  0
   -9.8040  -38.5490   23.4730 C   0  0  0  0  0
   -9.6430  -37.5350   24.7240 C   0  0  0  0  0
  -10.8400  -37.3310   25.2120 O   0  0  0  0  0
   -9.4110  -39.8110   24.0290 O   0  0  0  0  0
   -9.0240  -36.2440   24.2600 C   0  0  0  0  0
   -9.7650  -35.7740   23.1670 O   0  0  0  0  0
   -8.8560  -35.3200   21.8590 P   0  0  0  0  0
   -9.6690  -34.6520   20.7670 O   0  0  0  0  0
   -8.0570  -36.4930   21.3040 O   0  0  0  0  0
   -7.7440  -34.3140   22.5340 O   0  0  0  0  0
   -6.6390  -33.5490   21.5760 P   0  0  0  0  0
   -6.8510  -33.8620   20.1210 O   0  0  0  0  0
   -6.7910  -32.0710   21.8250 O   0  0  0  0  0
   -5.1300  -33.9350   22.1040 O   0  0  0  0  0
   -3.8340  -33.9550   21.0990 P   0  0  0  0  0
   -4.1400  -33.3530   19.7490 O   0  0  0  0  0
   -3.4840  -35.4110   20.9400 O   0  0  0  0  0
   -2.7150  -33.1740   21.7460 O   0  0  0  0  0
  -16.3745  -36.9298   23.9679 H   0  0  0  0  0
  -13.4310  -33.7430   23.5965 H   0  0  0  0  0
  -12.0270  -35.7483   22.9712 H   0  0  0  0  0
  -12.1034  -35.5104   24.8489 H   0  0  0  0  0
  -15.9445  -33.2581   23.4697 H   0  0  0  0  0
  -17.1466  -34.5446   23.6151 H   0  0  0  0  0
  -12.3639  -38.9615   24.6805 H   0  0  0  0  0
  -11.1695  -37.8715   22.1850 H   0  0  0  0  0
  -11.1384  -40.1756   21.9020 H   0  0  0  0  0
   -9.2079  -38.3112   22.5920 H   0  0  0  0  0
   -8.9908  -37.9538   25.4904 H   0  0  0  0  0
   -8.4917  -39.7667   24.3022 H   0  0  0  0  0
   -7.9868  -36.4083   23.9680 H   0  0  0  0  0
   -9.0367  -35.5102   25.0659 H   0  0  0  0  0
   -7.5519  -36.8985   22.0126 H   0  0  0  0  0
   -6.6527  -31.8888   22.7574 H   0  0  0  0  0
   -4.3623  -32.4253   19.8565 H   0  0  0  0  0
   -2.9753  -32.2538   21.8297 H   0  0  0  0  0
  1  2  1  0  0  0
  1  6  1  0  0  0
  1  9  1  0  0  0
  2  3  1  0  0  0
  2  7  2  0  0  0
  3  4  1  0  0  0
  4  5  2  0  0  0
  4  8  1  0  0  0
  5  6  1  0  0  0
  9 10  1  0  0  0
  9 14  1  0  0  0
 10 11  1  0  0  0
 10 12  1  0  0  0
 12 13  1  0  0  0
 12 15  1  0  0  0
 13 14  1  0  0  0
 13 16  1  0  0  0
 16 17  1  0  0  0
 17 18  1  0  0  0
 18 19  2  0  0  0
 18 20  1  0  0  0
 18 21  1  0  0  0
 21 22  1  0  0  0
 22 23  2  0  0  0
 22 24  1  0  0  0
 22 25  1  0  0  0
 25 26  1  0  0  0
 26 27  1  0  0  0
 26 28  2  0  0  0
 26 29  1  0  0  0
  3 30  1  0  0  0
  5 31  1  0  0  0
  6 32  1  0  0  0
  6 33  1  0  0  0
  8 34  1  0  0  0
  8 35  1  0  0  0
  9 36  1  0  0  0
 10 37  1  0  0  0
 11 38  1  0  0  0
 12 39  1  0  0  0
 13 40  1  0  0  0
 15 41  1  0  0  0
 16 42  1  0  0  0
 16 43  1  0  0  0
 20 44  1  0  0  0
 24 45  1  0  0  0
 27 46  1  0  0  0
 29 47  1  0  0  0
M  END
$$$$
