1y3p_ligand
  -I-interpret- 

 80 83  0  0  0  0  0  0  0  0999 V2000
  -11.8890   -9.3790   -6.1680 C   0  0  0  0  0
  -10.3480   -9.3550   -6.2280 C   0  0  0  0  0
   -9.9030   -8.0540   -5.8990 O   0  0  0  0  0
   -9.8100  -10.3360   -5.2230 C   0  0  0  0  0
   -8.3880  -10.4310   -5.2180 O   0  0  0  0  0
  -10.4920  -10.4130   -3.9040 C   0  0  0  0  0
  -11.8890  -10.1160   -3.8520 C   0  0  0  0  0
  -12.3630   -9.1730   -4.8200 O   0  0  0  0  0
  -12.4940  -10.0040   -2.5570 C   0  0  0  0  0
  -13.3820   -9.1420   -2.4080 O   0  0  0  0  0
  -12.1110  -10.7620   -1.6450 O   0  0  0  0  0
  -15.7150   -6.8220   -8.8210 C   0  0  0  0  0
  -15.9840   -7.3680   -7.4120 C   0  0  0  0  0
  -16.6880   -8.5970   -7.5000 O   0  0  0  0  0
  -14.6550   -7.5760   -6.6660 C   0  0  0  0  0
  -14.8850   -8.2530   -5.4410 O   0  0  0  0  0
  -13.6430   -8.3750   -7.5100 C   0  0  0  0  0
  -12.3460   -8.3010   -6.8990 O   0  0  0  0  0
  -13.5290   -7.7730   -8.9020 C   0  0  0  0  0
  -14.8300   -7.7000   -9.5100 O   0  0  0  0  0
  -12.5630   -8.5400   -9.7800 C   0  0  0  0  0
  -13.0140   -9.4090  -10.5570 O   0  0  0  0  0
  -11.3460   -8.2720   -9.6730 O   0  0  0  0  0
  -19.1050   -6.3900  -12.3870 C   0  0  0  0  0
  -17.9380   -7.3750  -12.3110 C   0  0  0  0  0
  -17.7800   -8.0210  -13.5640 O   0  0  0  0  0
  -16.6430   -6.6460  -11.9390 C   0  0  0  0  0
  -16.2340   -5.8110  -13.0140 O   0  0  0  0  0
  -16.8310   -5.7980  -10.6760 C   0  0  0  0  0
  -16.9180   -6.6360   -9.5060 O   0  0  0  0  0
  -18.0780   -4.9070  -10.7700 C   0  0  0  0  0
  -19.2440   -5.6910  -11.1360 O   0  0  0  0  0
  -18.3370   -4.2160   -9.4410 C   0  0  0  0  0
  -19.4960   -4.2360   -8.9750 O   0  0  0  0  0
  -17.3730   -3.6760   -8.8540 O   0  0  0  0  0
  -21.0680   -3.1610  -16.1010 C   0  0  0  0  0
  -20.8450   -2.5420  -14.7250 C   0  0  0  0  0
  -22.0340   -2.6980  -13.9590 O   0  0  0  0  0
  -19.6940   -3.2770  -14.0380 C   0  0  0  0  0
  -19.4720   -2.7370  -12.7430 O   0  0  0  0  0
  -20.0290   -4.7660  -13.9290 C   0  0  0  0  0
  -18.8820   -5.4680  -13.4040 O   0  0  0  0  0
  -20.3920   -5.3280  -15.3200 C   0  0  0  0  0
  -21.4340   -4.5350  -15.9410 O   0  0  0  0  0
  -20.8530   -6.7680  -15.2580 C   0  0  0  0  0
  -22.0840   -6.9820  -15.2070 O   0  0  0  0  0
  -19.9920   -7.6750  -15.2740 O   0  0  0  0  0
  -19.8960   -3.1080  -16.8420 O   0  0  0  0  0
  -12.2372  -10.3417   -6.5424 H   0  0  0  0  0
  -10.0012   -9.6230   -7.2260 H   0  0  0  0  0
  -10.2464   -7.4278   -6.5405 H   0  0  0  0  0
  -10.1362  -11.2961   -5.6229 H   0  0  0  0  0
   -8.0611  -10.3692   -6.1185 H   0  0  0  0  0
   -9.9428  -10.6878   -3.0035 H   0  0  0  0  0
  -13.5158   -8.6755   -3.2363 H   0  0  0  0  0
  -15.2324   -5.8468   -8.7558 H   0  0  0  0  0
  -16.5893   -6.6487   -6.8604 H   0  0  0  0  0
  -16.8534   -8.9337   -6.6163 H   0  0  0  0  0
  -14.2318   -6.5903   -6.4724 H   0  0  0  0  0
  -14.0501   -8.3776   -4.9839 H   0  0  0  0  0
  -13.9869   -9.4075   -7.5720 H   0  0  0  0  0
  -13.1249   -6.7660   -8.7986 H   0  0  0  0  0
  -11.2287   -7.5768   -9.0214 H   0  0  0  0  0
  -20.0187   -6.9471  -12.5940 H   0  0  0  0  0
  -18.1537   -8.1162  -11.5414 H   0  0  0  0  0
  -17.0469   -8.6388  -13.5140 H   0  0  0  0  0
  -15.8764   -7.3953  -11.7415 H   0  0  0  0  0
  -15.4225   -5.3574  -12.7745 H   0  0  0  0  0
  -15.9572   -5.1522  -10.5901 H   0  0  0  0  0
  -17.8963   -4.1571  -11.5399 H   0  0  0  0  0
  -16.5796   -3.7762   -9.3851 H   0  0  0  0  0
  -21.8547   -2.6085  -16.6147 H   0  0  0  0  0
  -20.6018   -1.4834  -14.8159 H   0  0  0  0  0
  -21.9061   -2.3118  -13.0895 H   0  0  0  0  0
  -18.7878   -3.1523  -14.6308 H   0  0  0  0  0
  -18.7479   -3.2059  -12.3218 H   0  0  0  0  0
  -20.8810   -4.9004  -13.2626 H   0  0  0  0  0
  -19.4795   -5.2814  -15.9144 H   0  0  0  0  0
  -19.1166   -7.2830  -15.3147 H   0  0  0  0  0
  -20.0467   -3.4996  -17.7054 H   0  0  0  0  0
  1  2  1  0  0  0
  1  8  1  0  0  0
 18  1  1  0  0  0
  2  3  1  0  0  0
  2  4  1  0  0  0
  4  5  1  0  0  0
  4  6  1  0  0  0
  7  6  2  0  0  0
  8  7  1  0  0  0
  7  9  1  0  0  0
  9 10  1  0  0  0
  9 11  2  0  0  0
 12 13  1  0  0  0
 12 20  1  0  0  0
 30 12  1  0  0  0
 13 14  1  0  0  0
 13 15  1  0  0  0
 15 16  1  0  0  0
 15 17  1  0  0  0
 17 18  1  0  0  0
 19 17  1  0  0  0
 20 19  1  0  0  0
 19 21  1  0  0  0
 21 22  2  0  0  0
 21 23  1  0  0  0
 24 25  1  0  0  0
 24 32  1  0  0  0
 42 24  1  0  0  0
 25 26  1  0  0  0
 25 27  1  0  0  0
 27 28  1  0  0  0
 27 29  1  0  0  0
 29 30  1  0  0  0
 31 29  1  0  0  0
 32 31  1  0  0  0
 31 33  1  0  0  0
 33 34  2  0  0  0
 33 35  1  0  0  0
 37 36  1  0  0  0
 36 44  1  0  0  0
 36 48  1  0  0  0
 37 38  1  0  0  0
 39 37  1  0  0  0
 39 40  1  0  0  0
 41 39  1  0  0  0
 41 42  1  0  0  0
 41 43  1  0  0  0
 43 44  1  0  0  0
 43 45  1  0  0  0
 45 46  2  0  0  0
 45 47  1  0  0  0
  1 49  1  0  0  0
  2 50  1  0  0  0
  3 51  1  0  0  0
  4 52  1  0  0  0
  5 53  1  0  0  0
  6 54  1  0  0  0
 10 55  1  0  0  0
 12 56  1  0  0  0
 13 57  1  0  0  0
 14 58  1  0  0  0
 15 59  1  0  0  0
 16 60  1  0  0  0
 17 61  1  0  0  0
 19 62  1  0  0  0
 23 63  1  0  0  0
 24 64  1  0  0  0
 25 65  1  0  0  0
 26 66  1  0  0  0
 27 67  1  0  0  0
 28 68  1  0  0  0
 29 69  1  0  0  0
 31 70  1  0  0  0
 35 71  1  0  0  0
 36 72  1  0  0  0
 37 73  1  0  0  0
 38 74  1  0  0  0
 39 75  1  0  0  0
 40 76  1  0  0  0
 41 77  1  0  0  0
 43 78  1  0  0  0
 47 79  1  0  0  0
 48 80  1  0  0  0
M  END
$$$$
