6gdg_ligand
  -I-interpret- 

 38 40  0  0  0  0  0  0  0  0999 V2000
   84.8000   54.2810   72.4010 C   0  0  0  0  0
   85.9490   53.9230   72.1790 O   0  0  0  0  0
   84.2250   55.3070   71.7660 N   0  0  0  0  0
   84.9230   56.0920   70.7640 C   0  0  0  0  0
   84.0970   57.2810   70.3290 C   0  0  0  0  0
   83.9550   53.5510   73.4150 C   0  0  0  0  0
   83.6190   52.2590   72.9020 O   0  0  0  0  0
   84.6620   53.3510   74.7540 C   0  0  0  0  0
   84.0230   54.1250   75.7760 O   0  0  0  0  0
   84.5980   51.8580   75.0400 C   0  0  0  0  0
   83.7590   51.5600   76.1640 O   0  0  0  0  0
   84.0410   51.2060   73.7760 C   0  0  0  0  0
   85.0540   50.3340   73.1110 N   0  0  0  0  0
   85.6250   50.5320   71.9010 C   0  0  0  0  0
   86.5000   49.5340   71.6090 N   0  0  0  0  0
   86.4990   48.6710   72.6370 C   0  0  0  0  0
   87.1930   47.4000   72.9770 C   0  0  0  0  0
   88.0880   46.8430   72.1250 N   0  0  0  0  0
   86.8990   46.8180   74.1670 N   0  0  0  0  0
   86.0090   47.3560   75.0320 C   0  0  0  0  0
   85.3470   48.5080   74.7810 N   0  0  0  0  0
   85.5410   49.2000   73.6250 C   0  0  0  0  0
   83.2602   55.5473   71.9938 H   0  0  0  0  0
   85.1094   55.4609   69.8950 H   0  0  0  0  0
   85.8563   56.4552   71.1943 H   0  0  0  0  0
   83.1555   56.9321   69.9048 H   0  0  0  0  0
   83.8951   57.9165   71.1912 H   0  0  0  0  0
   84.6469   57.8487   69.5784 H   0  0  0  0  0
   83.0726   54.1672   73.5877 H   0  0  0  0  0
   85.6980   53.6887   74.7270 H   0  0  0  0  0
   84.0865   55.0574   75.5565 H   0  0  0  0  0
   85.5885   51.4798   75.2928 H   0  0  0  0  0
   83.7462   50.6112   76.3097 H   0  0  0  0  0
   83.2024   50.5583   74.0317 H   0  0  0  0  0
   85.4120   51.3783   71.2479 H   0  0  0  0  0
   88.2947   47.2959   71.2347 H   0  0  0  0  0
   88.5548   45.9710   72.3741 H   0  0  0  0  0
   85.8172   46.8385   75.9720 H   0  0  0  0  0
  1  2  2  0  0  0
  1  3  1  0  0  0
  1  6  1  0  0  0
  3  4  1  0  0  0
  4  5  1  0  0  0
  6  7  1  0  0  0
  6  8  1  0  0  0
  7 12  1  0  0  0
  8  9  1  0  0  0
  8 10  1  0  0  0
 10 11  1  0  0  0
 10 12  1  0  0  0
 12 13  1  0  0  0
 13 14  4  0  0  0
 13 22  4  0  0  0
 14 15  4  0  0  0
 15 16  4  0  0  0
 16 17  4  0  0  0
 16 22  4  0  0  0
 17 18  1  0  0  0
 17 19  4  0  0  0
 19 20  4  0  0  0
 20 21  4  0  0  0
 21 22  4  0  0  0
  3 23  1  0  0  0
  4 24  1  0  0  0
  4 25  1  0  0  0
  5 26  1  0  0  0
  5 27  1  0  0  0
  5 28  1  0  0  0
  6 29  1  0  0  0
  8 30  1  0  0  0
  9 31  1  0  0  0
 10 32  1  0  0  0
 11 33  1  0  0  0
 12 34  1  0  0  0
 14 35  1  0  0  0
 18 36  1  0  0  0
 18 37  1  0  0  0
 20 38  1  0  0  0
M  END
$$$$
