2pr9_ligand
  -I-interpret- 

157158  0  0  0  0  0  0  0  0999 V2000
  -43.6150   58.1020   30.6150 N   0  3  0  0  0
  -42.2090   57.6190   30.7260 C   0  0  0  0  0
  -42.0490   56.1850   30.2610 C   0  0  0  0  0
  -43.0340   55.5110   29.9550 O   0  0  0  0  0
  -41.7630   57.7130   32.1750 C   0  0  0  0  0
  -41.0920   59.0000   32.4780 C   0  0  0  0  0
  -41.7850   59.9480   32.8980 O   0  0  0  0  0
  -39.8650   59.0530   32.2740 O   0  0  0  0  0
  -40.7920   55.7290   30.2120 N   0  0  0  0  0
  -40.4370   54.3460   29.8310 C   0  0  0  0  0
  -39.0310   53.9650   30.4130 C   0  0  0  0  0
  -38.9670   53.6540   31.6090 O   0  0  0  0  0
  -40.6550   54.0990   28.3080 C   0  0  0  0  0
  -42.1860   54.1860   27.8840 C   0  0  0  0  0
  -42.5340   53.6990   26.4720 C   0  0  0  0  0
  -41.6160   53.3090   25.7150 O   0  0  0  0  0
  -43.7450   53.7050   26.1400 O   0  0  0  0  0
  -37.9730   53.8640   29.5760 N   0  0  0  0  0
  -36.5890   54.4920   29.7660 C   0  0  0  0  0
  -35.0840   53.9530   29.5260 C   0  0  0  0  0
  -34.1790   54.6190   30.0880 O   0  0  0  0  0
  -36.6140   55.7420   30.7190 C   0  0  0  0  0
  -37.0510   55.5740   32.1760 C   0  0  0  0  0
  -35.8810   55.3650   33.0990 C   0  0  0  0  0
  -35.8970   55.9380   34.2080 O   0  0  0  0  0
  -34.9340   54.6460   32.7000 O   0  0  0  0  0
  -34.7260   52.8970   28.7180 N   0  0  0  0  0
  -35.3910   51.5530   28.3440 C   0  0  0  0  0
  -34.2940   50.4640   27.8090 C   0  0  0  0  0
  -34.1230   49.3620   28.4230 O   0  0  0  0  0
  -36.6290   51.6430   27.4150 C   0  0  0  0  0
  -37.7510   50.7220   27.8660 C   0  0  0  0  0
  -37.9940   50.5170   29.2560 C   0  0  0  0  0
  -38.5860   50.0400   26.9510 C   0  0  0  0  0
  -39.0620   49.6460   29.7500 C   0  0  0  0  0
  -39.6560   49.1420   27.4400 C   0  0  0  0  0
  -39.8810   48.9590   28.8400 C   0  0  0  0  0
  -40.8930   48.1190   29.3530 O   0  0  0  0  0
  -33.5820   50.7340   26.6900 N   0  0  0  0  0
  -33.9940   51.7670   25.7380 C   0  0  0  0  0
  -33.1740   52.9690   25.9970 C   0  0  0  0  0
  -33.7090   54.0840   26.3550 O   0  0  0  0  0
  -31.8470   52.7190   25.9320 N   0  0  0  0  0
  -31.2490   51.4170   25.7050 C   0  0  0  0  0
  -30.3530   51.1400   26.8950 C   0  0  0  0  0
  -30.0130   52.0430   27.6770 O   0  0  0  0  0
  -30.3580   51.6320   24.4740 C   0  0  0  0  0
  -31.1680   51.5340   23.1690 C   0  0  0  0  0
  -31.2890   50.2970   22.5220 C   0  0  0  0  0
  -31.7510   52.6380   22.5570 C   0  0  0  0  0
  -32.0120   50.1610   21.3050 C   0  0  0  0  0
  -32.5130   52.4760   21.3330 C   0  0  0  0  0
  -32.6200   51.1870   20.7350 C   0  0  0  0  0
  -33.3610   50.8500   19.6080 O   0  0  0  0  0
  -29.9060   49.9080   27.0240 N   0  0  0  0  0
  -28.8290   49.5920   28.0310 C   0  0  0  0  0
  -27.4800   49.3950   27.3010 C   0  0  0  0  0
  -27.4460   48.9020   26.1690 O   0  0  0  0  0
  -29.0980   48.3330   28.8690 C   0  0  0  0  0
  -30.3650   48.3010   29.6840 C   0  0  0  0  0
  -30.4590   49.3720   30.8120 C   0  0  0  0  0
  -31.6040   49.7950   31.1310 O   0  0  0  0  0
  -29.4190   49.7900   31.3850 O   0  0  0  0  0
  -26.3900   49.7590   27.9560 N   0  0  0  0  0
  -25.0630   49.4790   27.4340 C   0  0  0  0  0
  -24.8550   47.9700   27.1150 C   0  0  0  0  0
  -25.3240   47.1200   27.8500 O   0  0  0  0  0
  -24.0770   50.0080   28.3990 C   0  0  0  0  0
  -22.4380   49.6370   27.7510 S   0  0  0  0  0
  -24.2330   47.6310   25.9810 N   0  0  0  0  0
  -23.9240   46.1980   25.7050 C   0  0  0  0  0
  -22.4030   45.9740   25.6830 C   0  0  0  0  0
  -21.7360   46.6560   24.9190 O   0  0  0  0  0
  -24.5110   45.7970   24.3680 C   0  0  0  0  0
  -24.0690   44.3970   23.9340 C   0  0  0  0  0
  -24.6070   43.2530   24.8190 C   0  0  0  0  0
  -24.4600   44.1950   22.4820 C   0  0  0  0  0
  -21.8340   45.1130   26.5160 N   0  0  0  0  0
  -20.3480   44.9910   26.5260 C   0  0  0  0  0
  -19.6690   44.6390   25.1990 C   0  0  0  0  0
  -20.0760   43.7060   24.4870 O   0  0  0  0  0
  -19.8160   44.0350   27.6030 C   0  0  0  0  0
  -19.9980   44.5760   28.9780 C   0  0  0  0  0
  -19.0220   44.5800   29.7410 O   0  0  0  0  0
  -21.1430   45.0020   29.2940 O   0  0  0  0  0
  -18.6430   45.2660   24.8760 O   0  0  0  0  0
  -43.9186   58.0406   29.6432 H   0  0  0  0  0
  -44.2191   57.5232   31.1984 H   0  0  0  0  0
  -43.6659   59.0716   30.9277 H   0  0  0  0  0
  -41.5967   58.2495   30.0813 H   0  0  0  0  0
  -41.0505   56.9094   32.3612 H   0  0  0  0  0
  -42.6487   57.6379   32.8058 H   0  0  0  0  0
  -42.6993   59.6654   32.9742 H   0  0  0  0  0
  -40.0368   56.3717   30.4509 H   0  0  0  0  0
  -41.1225   53.6362   30.2939 H   0  0  0  0  0
  -40.3010   53.0940   28.0782 H   0  0  0  0  0
  -40.1126   54.8716   27.7629 H   0  0  0  0  0
  -42.4470   55.2440   27.9112 H   0  0  0  0  0
  -42.7266   53.5338   28.5699 H   0  0  0  0  0
  -44.2735   54.0410   26.8676 H   0  0  0  0  0
  -38.1115   53.3118   28.7297 H   0  0  0  0  0
  -36.6261   54.3252   28.6895 H   0  0  0  0  0
  -37.3597   56.4064   30.2825 H   0  0  0  0  0
  -35.5743   56.0640   30.7785 H   0  0  0  0  0
  -37.6937   54.6959   32.2385 H   0  0  0  0  0
  -37.5670   56.4838   32.4827 H   0  0  0  0  0
  -35.1359   54.3101   31.8236 H   0  0  0  0  0
  -33.8215   53.0317   28.2662 H   0  0  0  0  0
  -35.8069   51.1928   29.2850 H   0  0  0  0  0
  -36.3243   51.3419   26.4127 H   0  0  0  0  0
  -36.9994   52.6678   27.4408 H   0  0  0  0  0
  -37.3595   51.0290   29.9794 H   0  0  0  0  0
  -38.4408   50.1764   25.8794 H   0  0  0  0  0
  -39.2210   49.5311   30.8222 H   0  0  0  0  0
  -40.2819   48.6122   26.7220 H   0  0  0  0  0
  -41.3722   47.7160   28.6253 H   0  0  0  0  0
  -32.7322   50.2013   26.5043 H   0  0  0  0  0
  -35.0525   51.9960   25.8611 H   0  0  0  0  0
  -33.8470   51.4206   24.7150 H   0  0  0  0  0
  -31.2148   53.5103   26.0524 H   0  0  0  0  0
  -31.9677   50.6083   25.5727 H   0  0  0  0  0
  -29.5904   50.8582   24.4634 H   0  0  0  0  0
  -29.9191   52.6279   24.5346 H   0  0  0  0  0
  -30.8178   49.4181   22.9620 H   0  0  0  0  0
  -31.6352   53.6280   22.9981 H   0  0  0  0  0
  -32.0664   49.1822   20.8284 H   0  0  0  0  0
  -33.0009   53.3355   20.8734 H   0  0  0  0  0
  -33.7721   51.6397   19.2488 H   0  0  0  0  0
  -30.2898   49.1646   26.4405 H   0  0  0  0  0
  -28.8094   50.4405   28.7149 H   0  0  0  0  0
  -28.2825   48.2796   29.5903 H   0  0  0  0  0
  -29.1879   47.5162   28.1528 H   0  0  0  0  0
  -30.3960   47.3280   30.1743 H   0  0  0  0  0
  -31.1848   48.5017   28.9942 H   0  0  0  0  0
  -32.2666   49.3626   30.5873 H   0  0  0  0  0
  -26.4829   50.2469   28.8469 H   0  0  0  0  0
  -24.9296   49.9772   26.4738 H   0  0  0  0  0
  -24.2145   49.5475   29.3773 H   0  0  0  0  0
  -24.2040   51.0833   28.5247 H   0  0  0  0  0
  -21.5159   50.0974   28.5917 H   0  0  0  0  0
  -23.9706   48.3500   25.3068 H   0  0  0  0  0
  -24.3615   45.5877   26.4951 H   0  0  0  0  0
  -24.1624   46.5083   23.6193 H   0  0  0  0  0
  -25.5968   45.7938   24.4633 H   0  0  0  0  0
  -22.9868   44.3486   24.0549 H   0  0  0  0  0
  -24.2592   43.3928   25.8425 H   0  0  0  0  0
  -25.6968   43.2622   24.7998 H   0  0  0  0  0
  -24.2437   42.2987   24.4376 H   0  0  0  0  0
  -25.5410   44.2916   22.3814 H   0  0  0  0  0
  -23.9678   44.9479   21.8664 H   0  0  0  0  0
  -24.1511   43.2009   22.1588 H   0  0  0  0  0
  -22.4044   44.5428   27.1404 H   0  0  0  0  0
  -20.0719   46.0202   26.7551 H   0  0  0  0  0
  -18.7485   43.8946   27.4333 H   0  0  0  0  0
  -20.3725   43.1006   27.5307 H   0  0  0  0  0
  -21.7384   44.8998   28.5479 H   0  0  0  0  0
  -18.4680   45.9487   25.5278 H   0  0  0  0  0
  1  2  1  0  0  0
  2  3  1  0  0  0
  2  5  1  0  0  0
  3  4  2  0  0  0
  3  9  1  0  0  0
  5  6  1  0  0  0
  6  7  1  0  0  0
  6  8  2  0  0  0
  9 10  1  0  0  0
 10 11  1  0  0  0
 10 13  1  0  0  0
 11 12  2  0  0  0
 11 18  1  0  0  0
 13 14  1  0  0  0
 14 15  1  0  0  0
 15 16  2  0  0  0
 15 17  1  0  0  0
 18 19  1  0  0  0
 19 20  1  0  0  0
 19 22  1  0  0  0
 20 21  2  0  0  0
 20 27  1  0  0  0
 22 23  1  0  0  0
 23 24  1  0  0  0
 24 25  2  0  0  0
 24 26  1  0  0  0
 27 28  1  0  0  0
 28 29  1  0  0  0
 28 31  1  0  0  0
 29 30  2  0  0  0
 29 39  1  0  0  0
 31 32  1  0  0  0
 32 33  4  0  0  0
 32 34  4  0  0  0
 33 35  4  0  0  0
 34 36  4  0  0  0
 35 37  4  0  0  0
 36 37  4  0  0  0
 37 38  1  0  0  0
 39 40  1  0  0  0
 40 41  1  0  0  0
 41 42  2  0  0  0
 41 43  1  0  0  0
 43 44  1  0  0  0
 44 45  1  0  0  0
 44 47  1  0  0  0
 45 46  2  0  0  0
 45 55  1  0  0  0
 47 48  1  0  0  0
 48 49  4  0  0  0
 48 50  4  0  0  0
 49 51  4  0  0  0
 50 52  4  0  0  0
 51 53  4  0  0  0
 52 53  4  0  0  0
 53 54  1  0  0  0
 55 56  1  0  0  0
 56 57  1  0  0  0
 56 59  1  0  0  0
 57 58  2  0  0  0
 57 64  1  0  0  0
 59 60  1  0  0  0
 60 61  1  0  0  0
 61 62  1  0  0  0
 61 63  2  0  0  0
 64 65  1  0  0  0
 65 66  1  0  0  0
 65 68  1  0  0  0
 66 67  2  0  0  0
 66 70  1  0  0  0
 68 69  1  0  0  0
 70 71  1  0  0  0
 71 72  1  0  0  0
 71 74  1  0  0  0
 72 73  2  0  0  0
 72 78  1  0  0  0
 74 75  1  0  0  0
 75 76  1  0  0  0
 75 77  1  0  0  0
 78 79  1  0  0  0
 79 80  1  0  0  0
 79 82  1  0  0  0
 80 81  2  0  0  0
 80 86  1  0  0  0
 82 83  1  0  0  0
 83 84  2  0  0  0
 83 85  1  0  0  0
  1 87  1  0  0  0
  1 88  1  0  0  0
  1 89  1  0  0  0
  2 90  1  0  0  0
  5 91  1  0  0  0
  5 92  1  0  0  0
  7 93  1  0  0  0
  9 94  1  0  0  0
 10 95  1  0  0  0
 13 96  1  0  0  0
 13 97  1  0  0  0
 14 98  1  0  0  0
 14 99  1  0  0  0
 17100  1  0  0  0
 18101  1  0  0  0
 19102  1  0  0  0
 22103  1  0  0  0
 22104  1  0  0  0
 23105  1  0  0  0
 23106  1  0  0  0
 26107  1  0  0  0
 27108  1  0  0  0
 28109  1  0  0  0
 31110  1  0  0  0
 31111  1  0  0  0
 33112  1  0  0  0
 34113  1  0  0  0
 35114  1  0  0  0
 36115  1  0  0  0
 38116  1  0  0  0
 39117  1  0  0  0
 40118  1  0  0  0
 40119  1  0  0  0
 43120  1  0  0  0
 44121  1  0  0  0
 47122  1  0  0  0
 47123  1  0  0  0
 49124  1  0  0  0
 50125  1  0  0  0
 51126  1  0  0  0
 52127  1  0  0  0
 54128  1  0  0  0
 55129  1  0  0  0
 56130  1  0  0  0
 59131  1  0  0  0
 59132  1  0  0  0
 60133  1  0  0  0
 60134  1  0  0  0
 62135  1  0  0  0
 64136  1  0  0  0
 65137  1  0  0  0
 68138  1  0  0  0
 68139  1  0  0  0
 69140  1  0  0  0
 70141  1  0  0  0
 71142  1  0  0  0
 74143  1  0  0  0
 74144  1  0  0  0
 75145  1  0  0  0
 76146  1  0  0  0
 76147  1  0  0  0
 76148  1  0  0  0
 77149  1  0  0  0
 77150  1  0  0  0
 77151  1  0  0  0
 78152  1  0  0  0
 79153  1  0  0  0
 82154  1  0  0  0
 82155  1  0  0  0
 85156  1  0  0  0
 86157  1  0  0  0
M  END
$$$$
