### 
### Created by X-TOOL on Mon Sep 10 21:12:58 2018
### 

@<TRIPOS>MOLECULE
2pr9_ligand
  151   152     1     0     0
SMALL
GAST_HUCK


@<TRIPOS>ATOM
      1 N         -43.6150   58.1020   30.6150 N.4       1 ASP         0.2391
      2 CA        -42.2090   57.6190   30.7260 C.3       1 ASP         0.0764
      3 C         -42.0490   56.1850   30.2610 C.2       1 ASP         0.2284
      4 O         -43.0340   55.5110   29.9550 O.2       1 ASP        -0.3906
      5 CB        -41.7630   57.7130   32.1750 C.3       1 ASP         0.0607
      6 CG        -41.0920   59.0000   32.4780 C.2       1 ASP         0.0425
      7 OD1       -41.7850   59.9480   32.8980 O.co2     1 ASP        -0.5686
      8 OD2       -39.8650   59.0530   32.2740 O.co2     1 ASP        -0.5686
      9 N         -40.7920   55.7290   30.2120 N.am      1 GLU        -0.2608
     10 CA        -40.4370   54.3460   29.8310 C.3       1 GLU         0.1326
     11 C         -39.0310   53.9650   30.4130 C.2       1 GLU         0.2040
     12 O         -38.9670   53.6540   31.6090 O.2       1 GLU        -0.3944
     13 CB        -40.6550   54.0990   28.3080 C.3       1 GLU        -0.0008
     14 CG        -42.1860   54.1860   27.8840 C.3       1 GLU         0.0044
     15 CD        -42.5340   53.6990   26.4720 C.2       1 GLU         0.0350
     16 OE1       -41.6160   53.3090   25.7150 O.co2     1 GLU        -0.5690
     17 OE2       -43.7450   53.7050   26.1400 O.co2     1 GLU        -0.5690
     18 N         -37.9730   53.8640   29.5760 N.am      1 GLU        -0.2636
     19 CA        -36.5890   54.4920   29.7660 C.3       1 GLU         0.1325
     20 C         -35.0840   53.9530   29.5260 C.2       1 GLU         0.2041
     21 O         -34.1790   54.6190   30.0880 O.2       1 GLU        -0.3944
     22 CB        -36.6140   55.7420   30.7190 C.3       1 GLU        -0.0008
     23 CG        -37.0510   55.5740   32.1760 C.3       1 GLU         0.0044
     24 CD        -35.8810   55.3650   33.0990 C.2       1 GLU         0.0350
     25 OE1       -35.8970   55.9380   34.2080 O.co2     1 GLU        -0.5690
     26 OE2       -34.9340   54.6460   32.7000 O.co2     1 GLU        -0.5690
     27 N         -34.7260   52.8970   28.7180 N.am      1 TYR        -0.2621
     28 CA        -35.3910   51.5530   28.3440 C.3       1 TYR         0.1390
     29 C         -34.2940   50.4640   27.8090 C.2       1 TYR         0.2055
     30 O         -34.1230   49.3620   28.4230 O.2       1 TYR        -0.3942
     31 CB        -36.6290   51.6430   27.4150 C.3       1 TYR         0.0163
     32 CG        -37.7510   50.7220   27.8660 C.ar      1 TYR        -0.0493
     33 CD1       -37.9940   50.5170   29.2560 C.ar      1 TYR        -0.0685
     34 CD2       -38.5860   50.0400   26.9510 C.ar      1 TYR        -0.0685
     35 CE1       -39.0620   49.6460   29.7500 C.ar      1 TYR        -0.0398
     36 CE2       -39.6560   49.1420   27.4400 C.ar      1 TYR        -0.0398
     37 CZ        -39.8810   48.9590   28.8400 C.ar      1 TYR         0.0805
     38 OH        -40.8930   48.1190   29.3530 O.3       1 TYR        -0.3376
     39 N         -33.5820   50.7340   26.6900 N.am      1 GLY        -0.2663
     40 CA        -33.9940   51.7670   25.7380 C.3       1 GLY         0.1201
     41 C         -33.1740   52.9690   25.9970 C.2       1 GLY         0.2009
     42 O         -33.7090   54.0840   26.3550 O.2       1 GLY        -0.3947
     43 N         -31.8470   52.7190   25.9320 N.am      1 TYR        -0.2624
     44 CA        -31.2490   51.4170   25.7050 C.3       1 TYR         0.1390
     45 C         -30.3530   51.1400   26.8950 C.2       1 TYR         0.2057
     46 O         -30.0130   52.0430   27.6770 O.2       1 TYR        -0.3942
     47 CB        -30.3580   51.6320   24.4740 C.3       1 TYR         0.0163
     48 CG        -31.1680   51.5340   23.1690 C.ar      1 TYR        -0.0493
     49 CD1       -31.2890   50.2970   22.5220 C.ar      1 TYR        -0.0685
     50 CD2       -31.7510   52.6380   22.5570 C.ar      1 TYR        -0.0685
     51 CE1       -32.0120   50.1610   21.3050 C.ar      1 TYR        -0.0398
     52 CE2       -32.5130   52.4760   21.3330 C.ar      1 TYR        -0.0398
     53 CZ        -32.6200   51.1870   20.7350 C.ar      1 TYR         0.0805
     54 OH        -33.3610   50.8500   19.6080 O.3       1 TYR        -0.3376
     55 N         -29.9060   49.9080   27.0240 N.am      1 GLU        -0.2635
     56 CA        -28.8290   49.5920   28.0310 C.3       1 GLU         0.1325
     57 C         -27.4800   49.3950   27.3010 C.2       1 GLU         0.2040
     58 O         -27.4460   48.9020   26.1690 O.2       1 GLU        -0.3944
     59 CB        -29.0980   48.3330   28.8690 C.3       1 GLU        -0.0008
     60 CG        -30.3650   48.3010   29.6840 C.3       1 GLU         0.0044
     61 CD        -30.4590   49.3720   30.8120 C.2       1 GLU         0.0350
     62 OE1       -31.6040   49.7950   31.1310 O.co2     1 GLU        -0.5690
     63 OE2       -29.4190   49.7900   31.3850 O.co2     1 GLU        -0.5690
     64 N         -26.3900   49.7590   27.9560 N.am      1 CYS        -0.2629
     65 CA        -25.0630   49.4790   27.4340 C.3       1 CYS         0.1396
     66 C         -24.8550   47.9700   27.1150 C.2       1 CYS         0.2047
     67 O         -25.3240   47.1200   27.8500 O.2       1 CYS        -0.3944
     68 CB        -24.0770   50.0080   28.3990 C.3       1 CYS         0.0311
     69 SG        -22.4380   49.6370   27.7510 S.3       1 CYS        -0.1735
     70 N         -24.2330   47.6310   25.9810 N.am      1 LEU        -0.2637
     71 CA        -23.9240   46.1980   25.7050 C.3       1 LEU         0.1312
     72 C         -22.4030   45.9740   25.6830 C.2       1 LEU         0.2034
     73 O         -21.7360   46.6560   24.9190 O.2       1 LEU        -0.3944
     74 CB        -24.5110   45.7970   24.3680 C.3       1 LEU        -0.0101
     75 CG        -24.0690   44.3970   23.9340 C.3       1 LEU        -0.0425
     76 CD1       -24.6070   43.2530   24.8190 C.3       1 LEU        -0.0625
     77 CD2       -24.4600   44.1950   22.4820 C.3       1 LEU        -0.0625
     78 N         -21.8340   45.1130   26.5160 N.am      1 ASP        -0.2679
     79 CA        -20.3480   44.9910   26.5260 C.3       1 ASP         0.1057
     80 C         -19.6690   44.6390   25.1990 C.2       1 ASP         0.0618
     81 O         -20.0760   43.7060   24.4870 O.co2     1 ASP        -0.5665
     82 CB        -19.8160   44.0350   27.6030 C.3       1 ASP         0.0351
     83 CG        -19.9980   44.5760   28.9780 C.2       1 ASP         0.0387
     84 OD1       -19.0220   44.5800   29.7410 O.co2     1 ASP        -0.5688
     85 OD2       -21.1430   45.0020   29.2940 O.co2     1 ASP        -0.5688
     86 OXT       -18.6430   45.2660   24.8760 O.co2     1 ASP        -0.5665
     87 H1        -43.6686   59.0564   30.9349 H         1 ASP         0.2016
     88 H2        -44.2148   57.5234   31.1820 H         1 ASP         0.2016
     89 H3        -43.9122   58.0529   29.6531 H         1 ASP         0.2016
     90 H4        -41.5681   58.2629   30.1058 H         1 ASP         0.1117
     91 H5        -41.0615   56.8916   32.3826 H         1 ASP         0.0512
     92 H6        -42.6460   57.6139   32.8235 H         1 ASP         0.0512
     93 H7        -40.0516   56.3591   30.4462 H         1 GLU         0.1885
     94 H8        -41.1556   53.6857   30.3387 H         1 GLU         0.0801
     95 H9        -40.2768   53.0972   28.0564 H         1 GLU         0.0330
     96 H10       -40.0904   54.8564   27.7444 H         1 GLU         0.0330
     97 H11       -42.4944   55.2392   27.9596 H         1 GLU         0.0433
     98 H12       -42.7653   53.5821   28.5979 H         1 GLU         0.0433
     99 H13       -38.1088   53.3226   28.7463 H         1 GLU         0.1883
    100 H14       -36.6262   55.0312   28.8080 H         1 GLU         0.0801
    101 H15       -37.2947   56.4767   30.2642 H         1 GLU         0.0330
    102 H16       -35.5927   56.1503   30.7370 H         1 GLU         0.0330
    103 H17       -37.7188   54.7029   32.2475 H         1 GLU         0.0433
    104 H18       -37.5929   56.4783   32.4900 H         1 GLU         0.0433
    105 H19       -33.8392   53.0290   28.2751 H         1 TYR         0.1885
    106 H20       -35.7758   51.1501   29.2925 H         1 TYR         0.0821
    107 H21       -36.3281   51.3621   26.3949 H         1 TYR         0.0453
    108 H22       -36.9986   52.6790   27.4161 H         1 TYR         0.0453
    109 H23       -37.3630   51.0262   29.9754 H         1 TYR         0.0530
    110 H24       -38.4416   50.1757   25.8853 H         1 TYR         0.0530
    111 H25       -39.2201   49.5318   30.8163 H         1 TYR         0.0525
    112 H26       -40.2785   48.6151   26.7259 H         1 TYR         0.0525
    113 H27       -40.8700   48.1409   30.3025 H         1 TYR         0.2458
    114 H28       -32.7489   50.2118   26.5080 H         1 GLY         0.1881
    115 H29       -35.0592   52.0027   25.8785 H         1 GLY         0.0763
    116 H30       -33.8289   51.4155   24.7089 H         1 GLY         0.0763
    117 H31       -31.2272   53.4948   26.0500 H         1 TYR         0.1885
    118 H32       -31.9945   50.6223   25.5545 H         1 TYR         0.0821
    119 H33       -29.5700   50.8645   24.4643 H         1 TYR         0.0453
    120 H34       -29.8979   52.6292   24.5353 H         1 TYR         0.0453
    121 H35       -30.8204   49.4229   22.9595 H         1 TYR         0.0530
    122 H36       -31.6359   53.6226   22.9956 H         1 TYR         0.0530
    123 H37       -32.0661   49.1876   20.8310 H         1 TYR         0.0525
    124 H38       -32.9982   53.3308   20.8759 H         1 TYR         0.0525
    125 H39       -33.2555   49.9235   19.4264 H         1 TYR         0.2458
    126 H40       -30.2823   49.1792   26.4519 H         1 GLU         0.1883
    127 H41       -28.7464   50.4487   28.7160 H         1 GLU         0.0801
    128 H42       -28.2547   48.2134   29.5651 H         1 GLU         0.0330
    129 H43       -29.1279   47.4771   28.1787 H         1 GLU         0.0330
    130 H44       -30.4437   47.3081   30.1509 H         1 GLU         0.0433
    131 H45       -31.2129   48.4528   28.9999 H         1 GLU         0.0433
    132 H46       -26.4811   50.2373   28.8295 H         1 CYS         0.1884
    133 H47       -24.9434   50.0292   26.4890 H         1 CYS         0.0808
    134 H48       -24.2125   49.5252   29.3780 H         1 CYS         0.0422
    135 H49       -24.2017   51.0956   28.5061 H         1 CYS         0.0422
    136 H50       -22.3254   50.0789   26.8521 H         1 CYS         0.1019
    137 H51       -23.9758   48.3359   25.3200 H         1 LEU         0.1883
    138 H52       -24.3680   45.5763   26.4965 H         1 LEU         0.0800
    139 H53       -24.1856   46.5220   23.6074 H         1 LEU         0.0315
    140 H54       -25.6082   45.8133   24.4445 H         1 LEU         0.0315
    141 H55       -22.9715   44.3634   23.9998 H         1 LEU         0.0298
    142 H56       -24.2410   42.2893   24.4351 H         1 LEU         0.0232
    143 H57       -25.7068   43.2612   24.8004 H         1 LEU         0.0232
    144 H58       -24.2567   43.3929   25.8523 H         1 LEU         0.0232
    145 H59       -24.0637   45.0237   21.8769 H         1 LEU         0.0232
    146 H60       -25.5565   44.1710   22.3974 H         1 LEU         0.0232
    147 H61       -24.0433   43.2439   22.1189 H         1 LEU         0.0232
    148 H62       -22.3932   44.5540   27.1282 H         1 ASP         0.1876
    149 H63       -19.9855   45.9949   26.7919 H         1 ASP         0.0745
    150 H64       -18.7431   43.8669   27.4281 H         1 ASP         0.0471
    151 H65       -20.3545   43.0790   27.5248 H         1 ASP         0.0471
@<TRIPOS>BOND
     1    1    2 1  
     2    2    3 1  
     3    2    5 1  
     4    3    4 2  
     5    3    9 am 
     6    5    6 1  
     7    6    7 ar 
     8    6    8 ar 
     9    9   10 1  
    10   10   11 1  
    11   10   13 1  
    12   11   12 2  
    13   11   18 am 
    14   13   14 1  
    15   14   15 1  
    16   15   16 ar 
    17   15   17 ar 
    18   18   19 1  
    19   19   20 1  
    20   19   22 1  
    21   20   21 2  
    22   20   27 am 
    23   22   23 1  
    24   23   24 1  
    25   24   25 ar 
    26   24   26 ar 
    27   27   28 1  
    28   28   29 1  
    29   28   31 1  
    30   29   30 2  
    31   29   39 am 
    32   31   32 1  
    33   32   33 ar 
    34   32   34 ar 
    35   33   35 ar 
    36   34   36 ar 
    37   35   37 ar 
    38   36   37 ar 
    39   37   38 1  
    40   39   40 1  
    41   40   41 1  
    42   41   42 2  
    43   41   43 am 
    44   43   44 1  
    45   44   45 1  
    46   44   47 1  
    47   45   46 2  
    48   45   55 am 
    49   47   48 1  
    50   48   49 ar 
    51   48   50 ar 
    52   49   51 ar 
    53   50   52 ar 
    54   51   53 ar 
    55   52   53 ar 
    56   53   54 1  
    57   55   56 1  
    58   56   57 1  
    59   56   59 1  
    60   57   58 2  
    61   57   64 am 
    62   59   60 1  
    63   60   61 1  
    64   61   62 ar 
    65   61   63 ar 
    66   64   65 1  
    67   65   66 1  
    68   65   68 1  
    69   66   67 2  
    70   66   70 am 
    71   68   69 1  
    72   70   71 1  
    73   71   72 1  
    74   71   74 1  
    75   72   73 2  
    76   72   78 am 
    77   74   75 1  
    78   75   76 1  
    79   75   77 1  
    80   78   79 1  
    81   79   80 1  
    82   79   82 1  
    83   80   81 ar 
    84   80   86 ar 
    85   82   83 1  
    86   83   84 ar 
    87   83   85 ar 
    88    1   87 1  
    89    1   88 1  
    90    1   89 1  
    91    2   90 1  
    92    5   91 1  
    93    5   92 1  
    94    9   93 1  
    95   10   94 1  
    96   13   95 1  
    97   13   96 1  
    98   14   97 1  
    99   14   98 1  
   100   18   99 1  
   101   19  100 1  
   102   22  101 1  
   103   22  102 1  
   104   23  103 1  
   105   23  104 1  
   106   27  105 1  
   107   28  106 1  
   108   31  107 1  
   109   31  108 1  
   110   33  109 1  
   111   34  110 1  
   112   35  111 1  
   113   36  112 1  
   114   38  113 1  
   115   39  114 1  
   116   40  115 1  
   117   40  116 1  
   118   43  117 1  
   119   44  118 1  
   120   47  119 1  
   121   47  120 1  
   122   49  121 1  
   123   50  122 1  
   124   51  123 1  
   125   52  124 1  
   126   54  125 1  
   127   55  126 1  
   128   56  127 1  
   129   59  128 1  
   130   59  129 1  
   131   60  130 1  
   132   60  131 1  
   133   64  132 1  
   134   65  133 1  
   135   68  134 1  
   136   68  135 1  
   137   69  136 1  
   138   70  137 1  
   139   71  138 1  
   140   74  139 1  
   141   74  140 1  
   142   75  141 1  
   143   76  142 1  
   144   76  143 1  
   145   76  144 1  
   146   77  145 1  
   147   77  146 1  
   148   77  147 1  
   149   78  148 1  
   150   79  149 1  
   151   82  150 1  
   152   82  151 1  
@<TRIPOS>SUBSTRUCTURE
     1 ASP         1

