### 
### Created by X-TOOL on Mon Sep 10 21:12:49 2018
### 

@<TRIPOS>MOLECULE
1lek_ligand
  146   148     1     0     0
SMALL
GAST_HUCK


@<TRIPOS>ATOM
      1 N          49.9290   56.6420    4.0970 N.4       1 GLU         0.2380
      2 CA         48.5770   57.1690    3.7500 C.3       1 GLU         0.0665
      3 C          48.1340   56.7810    2.3490 C.2       1 GLU         0.2268
      4 O          48.9570   56.5520    1.4470 O.2       1 GLU        -0.3907
      5 CB         48.5360   58.6950    3.8690 C.3       1 GLU         0.0194
      6 CG         48.6210   59.2150    5.2870 C.3       1 GLU         0.0075
      7 CD         48.1020   60.6380    5.4110 C.2       1 GLU         0.0351
      8 OE1        48.3420   61.4450    4.4840 O.co2     1 GLU        -0.5690
      9 OE2        47.4620   60.9540    6.4400 O.co2     1 GLU        -0.5690
     10 N          46.8160   56.7390    2.1810 N.am      1 GLN        -0.2609
     11 CA         46.1830   56.3780    0.9220 C.3       1 GLN         0.1331
     12 C          46.1640   57.5260   -0.0860 C.2       1 GLN         0.2042
     13 O          46.2500   58.6950    0.2740 O.2       1 GLN        -0.3944
     14 CB         44.7480   55.9120    1.1980 C.3       1 GLN         0.0045
     15 CG         43.9190   55.6330   -0.0430 C.3       1 GLN         0.0412
     16 CD         44.3980   54.4100   -0.7990 C.2       1 GLN         0.1737
     17 OE1        43.7410   53.3700   -0.7900 O.2       1 GLN        -0.3973
     18 NE2        45.5520   54.5250   -1.4500 N.am      1 GLN        -0.3009
     19 N          46.0530   57.1600   -1.3560 N.am      1 TYR        -0.2621
     20 CA         45.9890   58.0950   -2.4710 C.3       1 TYR         0.1390
     21 C          44.5260   58.5100   -2.6630 C.2       1 TYR         0.2057
     22 O          43.6120   57.7590   -2.3080 O.2       1 TYR        -0.3942
     23 CB         46.4770   57.3880   -3.7390 C.3       1 TYR         0.0163
     24 CG         46.5050   58.2250   -4.9990 C.ar      1 TYR        -0.0493
     25 CD1        47.3690   59.3140   -5.1170 C.ar      1 TYR        -0.0685
     26 CD2        45.7200   57.8830   -6.1000 C.ar      1 TYR        -0.0685
     27 CE1        47.4560   60.0390   -6.3000 C.ar      1 TYR        -0.0398
     28 CE2        45.7970   58.5950   -7.2870 C.ar      1 TYR        -0.0398
     29 CZ         46.6680   59.6740   -7.3840 C.ar      1 TYR         0.0805
     30 OH         46.7590   60.3860   -8.5610 O.3       1 TYR        -0.3376
     31 N          44.3150   59.7030   -3.2200 N.am      1 LYS        -0.2636
     32 CA         42.9720   60.2030   -3.5000 C.3       1 LYS         0.1310
     33 C          42.6960   59.9060   -4.9740 C.2       1 LYS         0.2040
     34 O          43.3110   60.5010   -5.8570 O.2       1 LYS        -0.3944
     35 CB         42.8960   61.7130   -3.2590 C.3       1 LYS        -0.0122
     36 CG         41.7810   62.1300   -2.3210 C.3       1 LYS        -0.0440
     37 CD         41.4790   63.6270   -2.4140 C.3       1 LYS        -0.0124
     38 CE         42.6630   64.4950   -1.9900 C.3       1 LYS        -0.0354
     39 NZ         42.4220   65.9370   -2.3070 N.4       1 LYS         0.2185
     40 N          41.7770   58.9820   -5.2380 N.am      1 PHE        -0.2619
     41 CA         41.4510   58.6040   -6.6110 C.3       1 PHE         0.1404
     42 C          40.3810   59.4730   -7.2650 C.2       1 PHE         0.2061
     43 O          39.6350   60.1740   -6.5900 O.2       1 PHE        -0.3942
     44 CB         40.9520   57.1550   -6.6680 C.3       1 PHE         0.0214
     45 CG         41.9670   56.1350   -6.2460 C.ar      1 PHE        -0.0386
     46 CD1        42.2150   55.8920   -4.8930 C.ar      1 PHE        -0.0601
     47 CD2        42.6790   55.4080   -7.2080 C.ar      1 PHE        -0.0601
     48 CE1        43.1570   54.9390   -4.5020 C.ar      1 PHE        -0.0686
     49 CE2        43.6210   54.4560   -6.8320 C.ar      1 PHE        -0.0686
     50 CZ         43.8640   54.2170   -5.4710 C.ar      1 PHE        -0.0687
     51 N          40.3280   59.4110   -8.5920 N.am      1 TYR        -0.2620
     52 CA         39.3100   60.1050   -9.3700 C.3       1 TYR         0.1390
     53 C          38.8560   59.0770  -10.3970 C.2       1 TYR         0.2058
     54 O          39.6480   58.2620  -10.8520 O.2       1 TYR        -0.3942
     55 CB         39.8430   61.3550  -10.0810 C.3       1 TYR         0.0163
     56 CG         38.7680   62.0100  -10.9290 C.ar      1 TYR        -0.0493
     57 CD1        38.5290   61.5880  -12.2440 C.ar      1 TYR        -0.0685
     58 CD2        37.9120   62.9730  -10.3840 C.ar      1 TYR        -0.0685
     59 CE1        37.4590   62.1010  -12.9920 C.ar      1 TYR        -0.0398
     60 CE2        36.8360   63.4910  -11.1210 C.ar      1 TYR        -0.0398
     61 CZ         36.6150   63.0480  -12.4220 C.ar      1 TYR         0.0805
     62 OH         35.5400   63.5360  -13.1420 O.3       1 TYR        -0.3376
     63 N          37.5790   59.1220  -10.7500 N.am      1 SER        -0.2614
     64 CA         36.9920   58.1810  -11.6920 C.3       1 SER         0.1539
     65 C          37.7740   57.8370  -12.9620 C.2       1 SER         0.2056
     66 O          38.5670   58.6200  -13.4860 O.2       1 SER        -0.3943
     67 CB         35.5900   58.6600  -12.0900 C.3       1 SER         0.0843
     68 OG         35.0190   57.7980  -13.0680 O.3       1 SER        -0.3903
     69 N          37.5210   56.6270  -13.4400 N.am      1 VAL        -0.2692
     70 CA         38.1210   56.1090  -14.6540 C.3       1 VAL         0.0967
     71 C          37.3350   56.6930  -15.8510 C.2       1 VAL         0.0603
     72 O          37.7620   56.5120  -17.0110 O.co2     1 VAL        -0.5666
     73 CB         38.0360   54.5590  -14.6480 C.3       1 VAL        -0.0118
     74 CG1        38.5180   54.0050  -15.9460 C.3       1 VAL        -0.0590
     75 CG2        38.8840   53.9880  -13.5080 C.3       1 VAL        -0.0590
     76 OXT        36.2840   57.3360  -15.6150 O.co2     1 VAL        -0.5666
     77 H1         50.1711   56.9281    5.0327 H         1 GLU         0.2015
     78 H2         50.6085   57.0065    3.4478 H         1 GLU         0.2015
     79 H3         49.9208   55.6354    4.0450 H         1 GLU         0.2015
     80 H4         47.8589   56.7434    4.4664 H         1 GLU         0.1099
     81 H5         47.5920   59.0489    3.4291 H         1 GLU         0.0363
     82 H6         49.3827   59.1071    3.3004 H         1 GLU         0.0363
     83 H7         49.6723   59.1925    5.6097 H         1 GLU         0.0434
     84 H8         48.0229   58.5621    5.9398 H         1 GLU         0.0434
     85 H9         46.2304   56.9669    2.9589 H         1 GLN         0.1885
     86 H10        46.7486   55.5446    0.4798 H         1 GLN         0.0801
     87 H11        44.2399   56.6951    1.7799 H         1 GLN         0.0337
     88 H12        44.7968   54.9873    1.7918 H         1 GLN         0.0337
     89 H13        43.9783   56.5055   -0.7102 H         1 GLN         0.0504
     90 H14        42.8736   55.4733    0.2598 H         1 GLN         0.0504
     91 H15        45.9149   53.7486   -1.9653 H         1 GLN         0.1814
     92 H16        46.0568   55.3878   -1.4242 H         1 GLN         0.1814
     93 H17        46.0107   56.1821   -1.5606 H         1 TYR         0.1885
     94 H18        46.6123   58.9778   -2.2656 H         1 TYR         0.0821
     95 H19        45.8145   56.5289   -3.9209 H         1 TYR         0.0453
     96 H20        47.4997   57.0291   -3.5512 H         1 TYR         0.0453
     97 H21        47.9835   59.6000   -4.2711 H         1 TYR         0.0530
     98 H22        45.0368   57.0446   -6.0261 H         1 TYR         0.0530
     99 H23        48.1331   60.8821   -6.3758 H         1 TYR         0.0525
    100 H24        45.1821   58.3122   -8.1338 H         1 TYR         0.0525
    101 H25        47.0346   59.8054   -9.2605 H         1 TYR         0.2458
    102 H26        45.1021   60.2738   -3.4536 H         1 LYS         0.1883
    103 H27        42.2366   59.6911   -2.8619 H         1 LYS         0.0800
    104 H28        42.7383   62.2107   -4.2272 H         1 LYS         0.0312
    105 H29        43.8526   62.0435   -2.8282 H         1 LYS         0.0312
    106 H30        42.0781   61.8918   -1.2890 H         1 LYS         0.0269
    107 H31        40.8714   61.5682   -2.5797 H         1 LYS         0.0269
    108 H32        40.6239   63.8548   -1.7606 H         1 LYS         0.0317
    109 H33        41.2198   63.8697   -3.4551 H         1 LYS         0.0317
    110 H34        43.5640   64.1569   -2.5229 H         1 LYS         0.0813
    111 H35        42.8160   64.3874   -0.9060 H         1 LYS         0.0813
    112 H36        43.2183   66.4825   -2.0164 H         1 LYS         0.1994
    113 H37        41.6000   66.2557   -1.8183 H         1 LYS         0.1994
    114 H38        42.2854   66.0445   -3.2999 H         1 LYS         0.1994
    115 H39        41.2990   58.5365   -4.4809 H         1 PHE         0.1885
    116 H40        42.3727   58.6882   -7.2055 H         1 PHE         0.0823
    117 H41        40.6521   56.9345   -7.7031 H         1 PHE         0.0474
    118 H42        40.0781   57.0654   -6.0060 H         1 PHE         0.0474
    119 H43        41.6705   56.4490   -4.1392 H         1 PHE         0.0557
    120 H44        42.4935   55.5896   -8.2605 H         1 PHE         0.0557
    121 H45        43.3409   54.7581   -3.4491 H         1 PHE         0.0599
    122 H46        44.1652   53.9010   -7.5876 H         1 PHE         0.0599
    123 H47        44.5963   53.4762   -5.1709 H         1 PHE         0.0559
    124 H48        41.0137   58.8667   -9.0752 H         1 TYR         0.1885
    125 H49        38.4734   60.3966   -8.7181 H         1 TYR         0.0821
    126 H50        40.6840   61.0671  -10.7289 H         1 TYR         0.0453
    127 H51        40.1915   62.0751   -9.3260 H         1 TYR         0.0453
    128 H52        39.1845   60.8501  -12.6922 H         1 TYR         0.0530
    129 H53        38.0831   63.3257   -9.3734 H         1 TYR         0.0530
    130 H54        37.2911   61.7615  -14.0077 H         1 TYR         0.0525
    131 H55        36.1801   64.2325  -10.6793 H         1 TYR         0.0525
    132 H56        35.5304   63.1371  -14.0041 H         1 TYR         0.2458
    133 H57        36.9959   59.8308  -10.3531 H         1 SER         0.1884
    134 H58        36.8794   57.2358  -11.1407 H         1 SER         0.0823
    135 H59        35.6603   59.6771  -12.5031 H         1 SER         0.0606
    136 H60        34.9459   58.6700  -11.1984 H         1 SER         0.0606
    137 H61        35.5707   57.7889  -13.8413 H         1 SER         0.2097
    138 H62        36.8842   56.0418  -12.9380 H         1 VAL         0.1875
    139 H63        39.1751   56.4175  -14.7148 H         1 VAL         0.0729
    140 H64        36.9875   54.2617  -14.4992 H         1 VAL         0.0336
    141 H65        38.4507   52.9073  -15.9237 H         1 VAL         0.0234
    142 H66        39.5640   54.3050  -16.1069 H         1 VAL         0.0234
    143 H67        37.8948   54.3940  -16.7647 H         1 VAL         0.0234
    144 H68        38.5308   54.3949  -12.5490 H         1 VAL         0.0234
    145 H69        39.9372   54.2671  -13.6591 H         1 VAL         0.0234
    146 H70        38.7931   52.8918  -13.4969 H         1 VAL         0.0234
@<TRIPOS>BOND
     1    1    2 1  
     2    2    3 1  
     3    2    5 1  
     4    3    4 2  
     5    3   10 am 
     6    5    6 1  
     7    6    7 1  
     8    7    8 ar 
     9    7    9 ar 
    10   10   11 1  
    11   11   12 1  
    12   11   14 1  
    13   12   13 2  
    14   12   19 am 
    15   14   15 1  
    16   15   16 1  
    17   16   17 2  
    18   16   18 am 
    19   19   20 1  
    20   20   21 1  
    21   20   23 1  
    22   21   22 2  
    23   21   31 am 
    24   23   24 1  
    25   24   25 ar 
    26   24   26 ar 
    27   25   27 ar 
    28   26   28 ar 
    29   27   29 ar 
    30   28   29 ar 
    31   29   30 1  
    32   31   32 1  
    33   32   33 1  
    34   32   35 1  
    35   33   34 2  
    36   33   40 am 
    37   35   36 1  
    38   36   37 1  
    39   37   38 1  
    40   38   39 1  
    41   40   41 1  
    42   41   42 1  
    43   41   44 1  
    44   42   43 2  
    45   42   51 am 
    46   44   45 1  
    47   45   46 ar 
    48   45   47 ar 
    49   46   48 ar 
    50   47   49 ar 
    51   48   50 ar 
    52   49   50 ar 
    53   51   52 1  
    54   52   53 1  
    55   52   55 1  
    56   53   54 2  
    57   53   63 am 
    58   55   56 1  
    59   56   57 ar 
    60   56   58 ar 
    61   57   59 ar 
    62   58   60 ar 
    63   59   61 ar 
    64   60   61 ar 
    65   61   62 1  
    66   63   64 1  
    67   64   65 1  
    68   64   67 1  
    69   65   66 2  
    70   65   69 am 
    71   67   68 1  
    72   69   70 1  
    73   70   71 1  
    74   70   73 1  
    75   71   72 ar 
    76   71   76 ar 
    77   73   74 1  
    78   73   75 1  
    79    1   77 1  
    80    1   78 1  
    81    1   79 1  
    82    2   80 1  
    83    5   81 1  
    84    5   82 1  
    85    6   83 1  
    86    6   84 1  
    87   10   85 1  
    88   11   86 1  
    89   14   87 1  
    90   14   88 1  
    91   15   89 1  
    92   15   90 1  
    93   18   91 1  
    94   18   92 1  
    95   19   93 1  
    96   20   94 1  
    97   23   95 1  
    98   23   96 1  
    99   25   97 1  
   100   26   98 1  
   101   27   99 1  
   102   28  100 1  
   103   30  101 1  
   104   31  102 1  
   105   32  103 1  
   106   35  104 1  
   107   35  105 1  
   108   36  106 1  
   109   36  107 1  
   110   37  108 1  
   111   37  109 1  
   112   38  110 1  
   113   38  111 1  
   114   39  112 1  
   115   39  113 1  
   116   39  114 1  
   117   40  115 1  
   118   41  116 1  
   119   44  117 1  
   120   44  118 1  
   121   46  119 1  
   122   47  120 1  
   123   48  121 1  
   124   49  122 1  
   125   50  123 1  
   126   51  124 1  
   127   52  125 1  
   128   55  126 1  
   129   55  127 1  
   130   57  128 1  
   131   58  129 1  
   132   59  130 1  
   133   60  131 1  
   134   62  132 1  
   135   63  133 1  
   136   64  134 1  
   137   67  135 1  
   138   67  136 1  
   139   68  137 1  
   140   69  138 1  
   141   70  139 1  
   142   73  140 1  
   143   74  141 1  
   144   74  142 1  
   145   74  143 1  
   146   75  144 1  
   147   75  145 1  
   148   75  146 1  
@<TRIPOS>SUBSTRUCTURE
     1 GLU         1

