1lek_ligand
  -I-interpret- 

148150  0  0  0  0  0  0  0  0999 V2000
   49.9290   56.6420    4.0970 N   0  3  0  0  0
   48.5770   57.1690    3.7500 C   0  0  0  0  0
   48.1340   56.7810    2.3490 C   0  0  0  0  0
   48.9570   56.5520    1.4470 O   0  0  0  0  0
   48.5360   58.6950    3.8690 C   0  0  0  0  0
   48.6210   59.2150    5.2870 C   0  0  0  0  0
   48.1020   60.6380    5.4110 C   0  0  0  0  0
   48.3420   61.4450    4.4840 O   0  0  0  0  0
   47.4620   60.9540    6.4400 O   0  0  0  0  0
   46.8160   56.7390    2.1810 N   0  0  0  0  0
   46.1830   56.3780    0.9220 C   0  0  0  0  0
   46.1640   57.5260   -0.0860 C   0  0  0  0  0
   46.2500   58.6950    0.2740 O   0  0  0  0  0
   44.7480   55.9120    1.1980 C   0  0  0  0  0
   43.9190   55.6330   -0.0430 C   0  0  0  0  0
   44.3980   54.4100   -0.7990 C   0  0  0  0  0
   43.7410   53.3700   -0.7900 O   0  0  0  0  0
   45.5520   54.5250   -1.4500 N   0  0  0  0  0
   46.0530   57.1600   -1.3560 N   0  0  0  0  0
   45.9890   58.0950   -2.4710 C   0  0  0  0  0
   44.5260   58.5100   -2.6630 C   0  0  0  0  0
   43.6120   57.7590   -2.3080 O   0  0  0  0  0
   46.4770   57.3880   -3.7390 C   0  0  0  0  0
   46.5050   58.2250   -4.9990 C   0  0  0  0  0
   47.3690   59.3140   -5.1170 C   0  0  0  0  0
   45.7200   57.8830   -6.1000 C   0  0  0  0  0
   47.4560   60.0390   -6.3000 C   0  0  0  0  0
   45.7970   58.5950   -7.2870 C   0  0  0  0  0
   46.6680   59.6740   -7.3840 C   0  0  0  0  0
   46.7590   60.3860   -8.5610 O   0  0  0  0  0
   44.3150   59.7030   -3.2200 N   0  0  0  0  0
   42.9720   60.2030   -3.5000 C   0  0  0  0  0
   42.6960   59.9060   -4.9740 C   0  0  0  0  0
   43.3110   60.5010   -5.8570 O   0  0  0  0  0
   42.8960   61.7130   -3.2590 C   0  0  0  0  0
   41.7810   62.1300   -2.3210 C   0  0  0  0  0
   41.4790   63.6270   -2.4140 C   0  0  0  0  0
   42.6630   64.4950   -1.9900 C   0  0  0  0  0
   42.4220   65.9370   -2.3070 N   0  3  0  0  0
   41.7770   58.9820   -5.2380 N   0  0  0  0  0
   41.4510   58.6040   -6.6110 C   0  0  0  0  0
   40.3810   59.4730   -7.2650 C   0  0  0  0  0
   39.6350   60.1740   -6.5900 O   0  0  0  0  0
   40.9520   57.1550   -6.6680 C   0  0  0  0  0
   41.9670   56.1350   -6.2460 C   0  0  0  0  0
   42.2150   55.8920   -4.8930 C   0  0  0  0  0
   42.6790   55.4080   -7.2080 C   0  0  0  0  0
   43.1570   54.9390   -4.5020 C   0  0  0  0  0
   43.6210   54.4560   -6.8320 C   0  0  0  0  0
   43.8640   54.2170   -5.4710 C   0  0  0  0  0
   40.3280   59.4110   -8.5920 N   0  0  0  0  0
   39.3100   60.1050   -9.3700 C   0  0  0  0  0
   38.8560   59.0770  -10.3970 C   0  0  0  0  0
   39.6480   58.2620  -10.8520 O   0  0  0  0  0
   39.8430   61.3550  -10.0810 C   0  0  0  0  0
   38.7680   62.0100  -10.9290 C   0  0  0  0  0
   38.5290   61.5880  -12.2440 C   0  0  0  0  0
   37.9120   62.9730  -10.3840 C   0  0  0  0  0
   37.4590   62.1010  -12.9920 C   0  0  0  0  0
   36.8360   63.4910  -11.1210 C   0  0  0  0  0
   36.6150   63.0480  -12.4220 C   0  0  0  0  0
   35.5400   63.5360  -13.1420 O   0  0  0  0  0
   37.5790   59.1220  -10.7500 N   0  0  0  0  0
   36.9920   58.1810  -11.6920 C   0  0  0  0  0
   37.7740   57.8370  -12.9620 C   0  0  0  0  0
   38.5670   58.6200  -13.4860 O   0  0  0  0  0
   35.5900   58.6600  -12.0900 C   0  0  0  0  0
   35.0190   57.7980  -13.0680 O   0  0  0  0  0
   37.5210   56.6270  -13.4400 N   0  0  0  0  0
   38.1210   56.1090  -14.6540 C   0  0  0  0  0
   37.3350   56.6930  -15.8510 C   0  0  0  0  0
   37.7620   56.5120  -17.0110 O   0  0  0  0  0
   38.0360   54.5590  -14.6480 C   0  0  0  0  0
   38.5180   54.0050  -15.9460 C   0  0  0  0  0
   38.8840   53.9880  -13.5080 C   0  0  0  0  0
   36.2840   57.3360  -15.6150 O   0  0  0  0  0
   49.9291   55.6257    4.0099 H   0  0  0  0  0
   50.6208   57.0390    3.4613 H   0  0  0  0  0
   50.1581   56.9022    5.0563 H   0  0  0  0  0
   47.8901   56.7155    4.4646 H   0  0  0  0  0
   47.5771   59.0211    3.4661 H   0  0  0  0  0
   49.4044   59.0805    3.3348 H   0  0  0  0  0
   49.6689   59.2097    5.5871 H   0  0  0  0  0
   48.0066   58.5744    5.9197 H   0  0  0  0  0
   47.3920   60.1913    7.0188 H   0  0  0  0  0
   46.2187   56.9715    2.9745 H   0  0  0  0  0
   46.7736   55.5768    0.4778 H   0  0  0  0  0
   44.2510   56.7196    1.7354 H   0  0  0  0  0
   44.8204   54.9735    1.7476 H   0  0  0  0  0
   44.0067   56.4936   -0.7061 H   0  0  0  0  0
   42.8917   55.4517    0.2729 H   0  0  0  0  0
   45.9259   53.7308   -1.9695 H   0  0  0  0  0
   46.0632   55.4074   -1.4298 H   0  0  0  0  0
   46.0098   56.1625   -1.5647 H   0  0  0  0  0
   46.6101   58.9688   -2.2741 H   0  0  0  0  0
   45.7729   56.5774   -3.9267 H   0  0  0  0  0
   47.5083   57.0924   -3.5460 H   0  0  0  0  0
   47.9869   59.6016   -4.2664 H   0  0  0  0  0
   45.0330   57.0400   -6.0257 H   0  0  0  0  0
   48.1369   60.8868   -6.3762 H   0  0  0  0  0
   45.1787   58.3107   -8.1385 H   0  0  0  0  0
   46.1557   60.0121   -9.2073 H   0  0  0  0  0
   45.1179   60.2853   -3.4582 H   0  0  0  0  0
   42.2405   59.7261   -2.8476 H   0  0  0  0  0
   42.7031   62.1856   -4.2221 H   0  0  0  0  0
   43.8367   62.0155   -2.7989 H   0  0  0  0  0
   42.0952   61.9096   -1.3008 H   0  0  0  0  0
   40.8801   61.5838   -2.6003 H   0  0  0  0  0
   40.6481   63.8431   -1.7424 H   0  0  0  0  0
   41.2501   63.8582   -3.4543 H   0  0  0  0  0
   43.5479   64.1638   -2.5335 H   0  0  0  0  0
   42.7983   64.3947   -0.9131 H   0  0  0  0  0
   43.2283   66.4880   -2.0125 H   0  0  0  0  0
   42.2839   66.0445   -3.3119 H   0  0  0  0  0
   41.5901   66.2583   -1.8120 H   0  0  0  0  0
   41.2895   58.5276   -4.4658 H   0  0  0  0  0
   42.3826   58.7391   -7.1605 H   0  0  0  0  0
   40.6984   56.9440   -7.7069 H   0  0  0  0  0
   40.1131   57.0775   -5.9764 H   0  0  0  0  0
   41.6675   56.4521   -4.1350 H   0  0  0  0  0
   42.4925   55.5906   -8.2663 H   0  0  0  0  0
   43.3420   54.7571   -3.4433 H   0  0  0  0  0
   44.1682   53.8979   -7.5917 H   0  0  0  0  0
   44.6003   53.4721   -5.1692 H   0  0  0  0  0
   41.0275   58.8558   -9.0849 H   0  0  0  0  0
   38.5097   60.4650   -8.7234 H   0  0  0  0  0
   40.6653   61.0588  -10.7323 H   0  0  0  0  0
   40.1716   62.0692   -9.3260 H   0  0  0  0  0
   39.1881   60.8460  -12.6946 H   0  0  0  0  0
   38.0841   63.3276   -9.3678 H   0  0  0  0  0
   37.2901   61.7596  -14.0133 H   0  0  0  0  0
   36.1765   64.2366  -10.6769 H   0  0  0  0  0
   35.0631   64.1760  -12.6086 H   0  0  0  0  0
   36.9842   59.8450  -10.3452 H   0  0  0  0  0
   36.9915   57.2471  -11.1300 H   0  0  0  0  0
   35.6675   59.6634  -12.5087 H   0  0  0  0  0
   34.9536   58.6571  -11.2050 H   0  0  0  0  0
   34.1439   58.1162  -13.3016 H   0  0  0  0  0
   36.8714   56.0301  -12.9280 H   0  0  0  0  0
   39.1710   56.3923  -14.7262 H   0  0  0  0  0
   36.9938   54.2748  -14.5029 H   0  0  0  0  0
   37.8998   54.3912  -16.7564 H   0  0  0  0  0
   39.5545   54.3030  -16.1043 H   0  0  0  0  0
   38.4508   52.9173  -15.9227 H   0  0  0  0  0
   39.9229   54.2887  -13.6438 H   0  0  0  0  0
   38.5153   54.3701  -12.5561 H   0  0  0  0  0
   38.8153   52.9002  -13.5155 H   0  0  0  0  0
   36.1312   57.3606  -14.6676 H   0  0  0  0  0
  1  2  1  0  0  0
  2  3  1  0  0  0
  2  5  1  0  0  0
  3  4  2  0  0  0
  3 10  1  0  0  0
  5  6  1  0  0  0
  6  7  1  0  0  0
  7  8  2  0  0  0
  7  9  1  0  0  0
 10 11  1  0  0  0
 11 12  1  0  0  0
 11 14  1  0  0  0
 12 13  2  0  0  0
 12 19  1  0  0  0
 14 15  1  0  0  0
 15 16  1  0  0  0
 16 17  2  0  0  0
 16 18  1  0  0  0
 19 20  1  0  0  0
 20 21  1  0  0  0
 20 23  1  0  0  0
 21 22  2  0  0  0
 21 31  1  0  0  0
 23 24  1  0  0  0
 24 25  4  0  0  0
 24 26  4  0  0  0
 25 27  4  0  0  0
 26 28  4  0  0  0
 27 29  4  0  0  0
 28 29  4  0  0  0
 29 30  1  0  0  0
 31 32  1  0  0  0
 32 33  1  0  0  0
 32 35  1  0  0  0
 33 34  2  0  0  0
 33 40  1  0  0  0
 35 36  1  0  0  0
 36 37  1  0  0  0
 37 38  1  0  0  0
 38 39  1  0  0  0
 40 41  1  0  0  0
 41 42  1  0  0  0
 41 44  1  0  0  0
 42 43  2  0  0  0
 42 51  1  0  0  0
 44 45  1  0  0  0
 45 46  4  0  0  0
 45 47  4  0  0  0
 46 48  4  0  0  0
 47 49  4  0  0  0
 48 50  4  0  0  0
 49 50  4  0  0  0
 51 52  1  0  0  0
 52 53  1  0  0  0
 52 55  1  0  0  0
 53 54  2  0  0  0
 53 63  1  0  0  0
 55 56  1  0  0  0
 56 57  4  0  0  0
 56 58  4  0  0  0
 57 59  4  0  0  0
 58 60  4  0  0  0
 59 61  4  0  0  0
 60 61  4  0  0  0
 61 62  1  0  0  0
 63 64  1  0  0  0
 64 65  1  0  0  0
 64 67  1  0  0  0
 65 66  2  0  0  0
 65 69  1  0  0  0
 67 68  1  0  0  0
 69 70  1  0  0  0
 70 71  1  0  0  0
 70 73  1  0  0  0
 71 72  2  0  0  0
 71 76  1  0  0  0
 73 74  1  0  0  0
 73 75  1  0  0  0
  1 77  1  0  0  0
  1 78  1  0  0  0
  1 79  1  0  0  0
  2 80  1  0  0  0
  5 81  1  0  0  0
  5 82  1  0  0  0
  6 83  1  0  0  0
  6 84  1  0  0  0
  9 85  1  0  0  0
 10 86  1  0  0  0
 11 87  1  0  0  0
 14 88  1  0  0  0
 14 89  1  0  0  0
 15 90  1  0  0  0
 15 91  1  0  0  0
 18 92  1  0  0  0
 18 93  1  0  0  0
 19 94  1  0  0  0
 20 95  1  0  0  0
 23 96  1  0  0  0
 23 97  1  0  0  0
 25 98  1  0  0  0
 26 99  1  0  0  0
 27100  1  0  0  0
 28101  1  0  0  0
 30102  1  0  0  0
 31103  1  0  0  0
 32104  1  0  0  0
 35105  1  0  0  0
 35106  1  0  0  0
 36107  1  0  0  0
 36108  1  0  0  0
 37109  1  0  0  0
 37110  1  0  0  0
 38111  1  0  0  0
 38112  1  0  0  0
 39113  1  0  0  0
 39114  1  0  0  0
 39115  1  0  0  0
 40116  1  0  0  0
 41117  1  0  0  0
 44118  1  0  0  0
 44119  1  0  0  0
 46120  1  0  0  0
 47121  1  0  0  0
 48122  1  0  0  0
 49123  1  0  0  0
 50124  1  0  0  0
 51125  1  0  0  0
 52126  1  0  0  0
 55127  1  0  0  0
 55128  1  0  0  0
 57129  1  0  0  0
 58130  1  0  0  0
 59131  1  0  0  0
 60132  1  0  0  0
 62133  1  0  0  0
 63134  1  0  0  0
 64135  1  0  0  0
 67136  1  0  0  0
 67137  1  0  0  0
 68138  1  0  0  0
 69139  1  0  0  0
 70140  1  0  0  0
 73141  1  0  0  0
 74142  1  0  0  0
 74143  1  0  0  0
 74144  1  0  0  0
 75145  1  0  0  0
 75146  1  0  0  0
 75147  1  0  0  0
 76148  1  0  0  0
M  END
$$$$
