4cst_ligand
  -I-interpret- 

 45 47  0  0  0  0  0  0  0  0999 V2000
   -4.8970   11.0660    9.9720 Cl  0  0  0  0  0
   -2.2840    7.7420    9.9910 C   0  0  0  0  0
   -3.2850    8.7610   10.1170 O   0  0  0  0  0
   -1.0590    8.4360    9.4920 C   0  0  0  0  0
   -0.0580    7.4400    9.4060 O   0  0  0  0  0
   -1.3520    9.0460    8.0830 C   0  0  0  0  0
   -0.1020    9.5770    7.5710 O   0  0  0  0  0
   -1.8310    7.9640    7.1420 C   0  0  0  0  0
   -2.1810    8.5860    5.8990 O   0  0  0  0  0
   -3.0750    7.3380    7.7260 C   0  0  0  0  0
   -2.7840    6.7670    9.0220 O   0  0  0  0  0
   -3.6180    6.1590    6.9000 C   0  0  0  0  0
   -2.6440    5.1300    6.7710 O   0  0  0  0  0
   -4.5400    8.4780   10.5450 C   0  0  0  0  0
   -4.9800    7.2470   11.0290 C   0  0  0  0  0
   -6.3210    7.1370   11.4390 C   0  0  0  0  0
   -7.1880    8.2380   11.3830 C   0  0  0  0  0
   -6.7180    9.4470   10.9140 C   0  0  0  0  0
   -5.3910    9.5720   10.5550 C   0  0  0  0  0
   -8.5590    8.1810   11.7790 C   0  0  0  0  0
   -9.1640    7.0200   12.2430 C   0  0  0  0  0
  -10.5130    7.0120   12.6150 C   0  0  0  0  0
  -11.2890    8.1450   12.5430 C   0  0  0  0  0
  -10.7210    9.3110   12.0980 C   0  0  0  0  0
   -9.3820    9.3100   11.7310 C   0  0  0  0  0
  -12.6810    8.1000   12.9420 C   0  0  0  0  0
  -13.7860    8.0530   13.2610 N   0  0  0  0  0
   -2.0589    7.2210   10.9216 H   0  0  0  0  0
   -0.7459    9.2485   10.1477 H   0  0  0  0  0
    0.1076    7.0781   10.2796 H   0  0  0  0  0
   -2.1165    9.8191    8.1600 H   0  0  0  0  0
    0.2160   10.2665    8.1584 H   0  0  0  0  0
   -1.0590    7.2085    6.9961 H   0  0  0  0  0
   -1.4000    8.9897    5.5134 H   0  0  0  0  0
   -3.8040    8.1478    7.7555 H   0  0  0  0  0
   -3.8760    6.5209    5.9047 H   0  0  0  0  0
   -4.4909    5.7502    7.4089 H   0  0  0  0  0
   -3.0086    4.4090    6.2526 H   0  0  0  0  0
   -4.3041    6.3939   11.0881 H   0  0  0  0  0
   -6.6925    6.1803   11.8063 H   0  0  0  0  0
   -7.3913   10.2998   10.8273 H   0  0  0  0  0
   -8.5801    6.1027   12.3184 H   0  0  0  0  0
  -10.9602    6.0839   12.9710 H   0  0  0  0  0
  -11.3117   10.2248   12.0334 H   0  0  0  0  0
   -8.9458   10.2468   11.3842 H   0  0  0  0  0
 19  1  1  0  0  0
  3  2  1  0  0  0
  2  4  1  0  0  0
  2 11  1  0  0  0
 14  3  1  0  0  0
  4  5  1  0  0  0
  4  6  1  0  0  0
  6  7  1  0  0  0
  6  8  1  0  0  0
  8  9  1  0  0  0
 10  8  1  0  0  0
 11 10  1  0  0  0
 10 12  1  0  0  0
 12 13  1  0  0  0
 14 15  4  0  0  0
 14 19  4  0  0  0
 15 16  4  0  0  0
 16 17  4  0  0  0
 17 18  4  0  0  0
 17 20  1  0  0  0
 18 19  4  0  0  0
 20 21  4  0  0  0
 20 25  4  0  0  0
 21 22  4  0  0  0
 22 23  4  0  0  0
 23 24  4  0  0  0
 23 26  1  0  0  0
 24 25  4  0  0  0
 26 27  3  0  0  0
  2 28  1  0  0  0
  4 29  1  0  0  0
  5 30  1  0  0  0
  6 31  1  0  0  0
  7 32  1  0  0  0
  8 33  1  0  0  0
  9 34  1  0  0  0
 10 35  1  0  0  0
 12 36  1  0  0  0
 12 37  1  0  0  0
 13 38  1  0  0  0
 15 39  1  0  0  0
 16 40  1  0  0  0
 18 41  1  0  0  0
 21 42  1  0  0  0
 22 43  1  0  0  0
 24 44  1  0  0  0
 25 45  1  0  0  0
M  END
$$$$
