5nn0_ligand
  -I-interpret- 

 73 77  0  0  0  0  0  0  0  0999 V2000
   -6.8220   39.1760   40.6410 C   0  0  0  0  0
   -7.7740   37.9850   38.8020 C   0  0  0  0  0
   -8.5740   36.7460   38.4240 C   0  0  0  0  0
   -9.0260   36.9100   35.9790 C   0  0  0  0  0
  -10.3020   36.1620   35.6000 C   0  0  0  0  0
  -10.5720   36.3540   34.0930 C   0  0  0  0  0
  -11.5470   37.5180   33.8730 C   0  0  0  0  0
  -12.8880   37.0600   34.4780 C   0  0  0  0  0
  -13.9800   36.5740   36.6070 C   0  0  0  0  0
  -13.8010   36.9170   38.0980 C   0  0  0  0  0
  -15.1190   37.4210   38.3390 C   0  0  0  0  0
  -15.8590   37.4490   39.4520 C   0  0  0  0  0
  -17.1450   37.9900   39.4740 C   0  0  0  0  0
  -17.6710   38.5100   38.3020 C   0  0  0  0  0
  -16.8710   38.4620   37.1690 C   0  0  0  0  0
  -15.6440   37.9300   37.2040 C   0  0  0  0  0
  -14.7200   37.8030   36.1810 C   0  0  0  0  0
  -11.4780   36.7210   36.4220 C   0  0  0  0  0
   -7.8210   37.0250   41.0260 C   0  0  0  0  0
   -7.2200   35.4280   36.8910 C   0  0  0  0  0
   -6.9750   34.9720   35.6010 C   0  0  0  0  0
   -7.3990   33.6770   35.3300 C   0  0  0  0  0
   -7.2090   33.1250   34.0730 C   0  0  0  0  0
   -6.5860   33.8710   33.0780 C   0  0  0  0  0
   -6.1470   35.1670   33.3440 C   0  0  0  0  0
   -6.3340   35.7190   34.6110 C   0  0  0  0  0
   -7.6420   31.8300   33.8250 C   0  0  0  0  0
   -7.4520   31.2690   32.5660 C   0  0  0  0  0
   -6.8280   32.0130   31.5700 C   0  0  0  0  0
   -6.3940   33.3120   31.8220 C   0  0  0  0  0
   -7.9080   38.2690   40.2410 N   0  3  0  0  0
   -8.2380   36.2910   37.0720 N   0  0  0  0  0
  -12.7520   36.3600   35.7840 N   0  3  0  0  0
   -6.5920   34.9520   37.8290 O   0  0  0  0  0
   -6.9157   39.4072   41.7021 H   0  0  0  0  0
   -5.8617   38.6946   40.4561 H   0  0  0  0  0
   -6.8864   40.0962   40.0603 H   0  0  0  0  0
   -8.1533   38.8365   38.2370 H   0  0  0  0  0
   -6.7228   37.8104   38.5727 H   0  0  0  0  0
   -9.6350   36.9940   38.4542 H   0  0  0  0  0
   -8.3357   35.9493   39.1287 H   0  0  0  0  0
   -9.3315   37.8955   36.3305 H   0  0  0  0  0
   -8.3888   36.9135   35.0947 H   0  0  0  0  0
  -10.1899   35.0987   35.8118 H   0  0  0  0  0
  -11.0100   35.4409   33.6900 H   0  0  0  0  0
   -9.6320   36.5758   33.5877 H   0  0  0  0  0
  -11.6495   37.7555   32.8141 H   0  0  0  0  0
  -11.1885   38.4314   34.3476 H   0  0  0  0  0
  -13.3360   36.3553   33.7774 H   0  0  0  0  0
  -13.4882   37.9535   34.6499 H   0  0  0  0  0
  -14.4577   35.6047   36.4646 H   0  0  0  0  0
  -12.9846   37.6010   38.3300 H   0  0  0  0  0
  -13.4871   36.0920   38.7375 H   0  0  0  0  0
  -15.4445   37.0360   40.3717 H   0  0  0  0  0
  -17.7255   38.0034   40.3965 H   0  0  0  0  0
  -18.6724   38.9393   38.2713 H   0  0  0  0  0
  -17.2505   38.8664   36.2306 H   0  0  0  0  0
  -15.1695   37.7234   35.1912 H   0  0  0  0  0
  -14.0820   38.6777   36.0550 H   0  0  0  0  0
  -11.3967   37.8068   36.4726 H   0  0  0  0  0
  -11.4470   36.2986   37.4264 H   0  0  0  0  0
   -8.6207   36.3491   40.7231 H   0  0  0  0  0
   -6.8558   36.5510   40.8476 H   0  0  0  0  0
   -7.9224   37.2579   42.0860 H   0  0  0  0  0
   -7.8842   33.0914   36.1109 H   0  0  0  0  0
   -5.6580   35.7485   32.5624 H   0  0  0  0  0
   -5.9818   36.7277   34.8270 H   0  0  0  0  0
   -8.1287   31.2551   34.6129 H   0  0  0  0  0
   -7.7899   30.2531   32.3615 H   0  0  0  0  0
   -6.6774   31.5752   30.5832 H   0  0  0  0  0
   -5.9054   33.8877   31.0359 H   0  0  0  0  0
   -8.8163   38.6985   40.4171 H   0  0  0  0  0
  -12.6970   35.3493   35.6577 H   0  0  0  0  0
 31  1  1  0  0  0
  3  2  1  0  0  0
  2 31  1  0  0  0
 32  3  1  0  0  0
  4  5  1  0  0  0
 32  4  1  0  0  0
  5  6  1  0  0  0
  5 18  1  0  0  0
  6  7  1  0  0  0
  7  8  1  0  0  0
 33  8  1  0  0  0
  9 10  1  0  0  0
  9 17  1  0  0  0
 33  9  1  0  0  0
 10 11  1  0  0  0
 11 12  4  0  0  0
 16 11  4  0  0  0
 12 13  4  0  0  0
 14 13  4  0  0  0
 15 14  4  0  0  0
 16 15  4  0  0  0
 17 16  1  0  0  0
 18 33  1  0  0  0
 31 19  1  0  0  0
 20 21  1  0  0  0
 20 32  1  0  0  0
 20 34  2  0  0  0
 21 22  4  0  0  0
 21 26  4  0  0  0
 22 23  4  0  0  0
 23 24  4  0  0  0
 23 27  4  0  0  0
 24 25  4  0  0  0
 24 30  4  0  0  0
 25 26  4  0  0  0
 27 28  4  0  0  0
 28 29  4  0  0  0
 29 30  4  0  0  0
  1 35  1  0  0  0
  1 36  1  0  0  0
  1 37  1  0  0  0
  2 38  1  0  0  0
  2 39  1  0  0  0
  3 40  1  0  0  0
  3 41  1  0  0  0
  4 42  1  0  0  0
  4 43  1  0  0  0
  5 44  1  0  0  0
  6 45  1  0  0  0
  6 46  1  0  0  0
  7 47  1  0  0  0
  7 48  1  0  0  0
  8 49  1  0  0  0
  8 50  1  0  0  0
  9 51  1  0  0  0
 10 52  1  0  0  0
 10 53  1  0  0  0
 12 54  1  0  0  0
 13 55  1  0  0  0
 14 56  1  0  0  0
 15 57  1  0  0  0
 17 58  1  0  0  0
 17 59  1  0  0  0
 18 60  1  0  0  0
 18 61  1  0  0  0
 19 62  1  0  0  0
 19 63  1  0  0  0
 19 64  1  0  0  0
 22 65  1  0  0  0
 25 66  1  0  0  0
 26 67  1  0  0  0
 27 68  1  0  0  0
 28 69  1  0  0  0
 29 70  1  0  0  0
 30 71  1  0  0  0
 31 72  1  0  0  0
 33 73  1  0  0  0
M  END
$$$$
