3tv6_ligand
  -I-interpret- 

 45 47  0  0  0  0  0  0  0  0999 V2000
   17.2570  -23.9250   -0.4770 C   0  0  0  0  0
   18.5020  -24.5400   -0.2590 C   0  0  0  0  0
   18.6510  -25.8760   -0.4060 N   0  0  0  0  0
   17.5690  -26.6080   -0.7740 C   0  0  0  0  0
   16.2830  -26.0520   -1.0090 C   0  0  0  0  0
   16.0990  -24.6500   -0.8590 C   0  0  0  0  0
   17.4580  -22.5490   -0.2380 C   0  0  0  0  0
   18.7620  -22.3740    0.1050 N   0  0  0  0  0
   19.4020  -23.5900    0.0930 N   0  0  0  0  0
   15.2570  -26.9820   -1.3860 N   0  0  0  0  0
   14.0850  -26.8630   -2.0360 C   0  0  0  0  0
   13.3150  -28.1390   -2.2380 C   0  0  0  0  0
   13.6480  -25.8010   -2.4840 O   0  0  0  0  0
   13.0560  -28.5170   -3.5660 C   0  0  0  0  0
   12.3480  -29.6910   -3.8700 C   0  0  0  0  0
   11.8710  -30.5240   -2.8350 C   0  0  0  0  0
   12.1170  -30.1590   -1.4920 C   0  0  0  0  0
   12.8320  -28.9720   -1.1960 C   0  0  0  0  0
   13.0490  -28.6500    0.1010 F   0  0  0  0  0
   13.5010  -27.7370   -4.5660 F   0  0  0  0  0
   12.1570  -29.9740   -5.1500 N   0  0  0  0  0
   11.3580  -31.3210   -5.8090 S   0  0  0  0  0
   12.4350  -32.7270   -5.3310 C   0  0  0  0  0
   13.5480  -33.0470   -6.3420 C   0  0  0  0  0
   14.9050  -32.4730   -5.9190 C   0  0  0  0  0
   10.0950  -31.4170   -5.0660 O   0  0  0  0  0
   11.4170  -31.1480   -7.2700 O   0  0  0  0  0
   16.6070  -21.4910   -0.2950 O   0  0  0  0  0
   16.7240  -20.4970    0.7200 C   0  0  0  0  0
   17.6939  -27.6839   -0.8962 H   0  0  0  0  0
   15.1364  -24.1666   -1.0257 H   0  0  0  0  0
   15.4601  -27.9396   -1.0994 H   0  0  0  0  0
   11.3209  -31.4356   -3.0682 H   0  0  0  0  0
   11.7557  -30.7923   -0.6817 H   0  0  0  0  0
   12.5345  -29.3035   -5.8196 H   0  0  0  0  0
   11.7986  -33.6096   -5.2659 H   0  0  0  0  0
   12.9221  -32.4530   -4.3952 H   0  0  0  0  0
   13.2751  -32.5982   -7.2971 H   0  0  0  0  0
   13.6452  -34.1309   -6.4045 H   0  0  0  0  0
   14.8288  -31.3890   -5.8334 H   0  0  0  0  0
   15.1926  -32.8954   -4.9562 H   0  0  0  0  0
   15.6551  -32.7278   -6.6676 H   0  0  0  0  0
   16.5528  -20.9532    1.6950 H   0  0  0  0  0
   17.7243  -20.0651    0.6902 H   0  0  0  0  0
   15.9840  -19.7153    0.5482 H   0  0  0  0  0
  1  2  4  0  0  0
  1  6  4  0  0  0
  1  7  4  0  0  0
  2  3  4  0  0  0
  2  9  4  0  0  0
  3  4  4  0  0  0
  4  5  4  0  0  0
  5  6  4  0  0  0
  5 10  1  0  0  0
  7  8  4  0  0  0
  7 28  1  0  0  0
  8  9  4  0  0  0
 10 11  1  0  0  0
 11 12  1  0  0  0
 11 13  2  0  0  0
 12 14  4  0  0  0
 12 18  4  0  0  0
 14 15  4  0  0  0
 14 20  1  0  0  0
 15 16  4  0  0  0
 15 21  1  0  0  0
 16 17  4  0  0  0
 17 18  4  0  0  0
 18 19  1  0  0  0
 21 22  1  0  0  0
 22 23  1  0  0  0
 22 26  2  0  0  0
 22 27  2  0  0  0
 23 24  1  0  0  0
 24 25  1  0  0  0
 28 29  1  0  0  0
  4 30  1  0  0  0
  6 31  1  0  0  0
 10 32  1  0  0  0
 16 33  1  0  0  0
 17 34  1  0  0  0
 21 35  1  0  0  0
 23 36  1  0  0  0
 23 37  1  0  0  0
 24 38  1  0  0  0
 24 39  1  0  0  0
 25 40  1  0  0  0
 25 41  1  0  0  0
 25 42  1  0  0  0
 29 43  1  0  0  0
 29 44  1  0  0  0
 29 45  1  0  0  0
M  END
$$$$
