5cw8_ligand
  -I-interpret- 

 75 78  0  0  0  0  0  0  0  0999 V2000
  -31.8430    3.0800  142.8060 C   0  0  0  0  0
  -30.5600    2.2480  143.8120 S   0  0  0  0  0
  -29.2380    2.2370  142.6670 C   0  0  0  0  0
  -27.8730    2.6320  143.2360 C   0  0  0  0  0
  -27.1150    3.4210  142.1670 C   0  0  0  0  0
  -26.3810    4.6210  142.7690 C   0  0  0  0  0
  -25.6570    5.3400  141.6240 C   0  0  0  0  0
  -18.2730    8.0310  145.9180 C   0  0  0  0  0
  -16.8670    8.1180  146.5390 C   0  0  0  0  0
  -20.6880    8.0000  144.1490 C   0  0  0  0  0
  -21.4150    4.6280  141.6680 C   0  0  0  0  0
  -22.9530    4.5790  141.6690 C   0  0  0  0  0
  -25.3290    7.2020  143.2470 C   0  0  0  0  0
  -24.6560    6.3730  142.1490 C   0  0  0  0  0
  -17.2530    6.3880  144.3540 C   0  0  0  0  0
  -18.2340    7.4200  144.5020 C   0  0  0  0  0
  -17.9080    8.5300  143.5040 C   0  0  0  0  0
  -22.1690    6.5340  142.7980 C   0  0  0  0  0
  -21.9670    7.3940  141.5390 C   0  0  0  0  0
  -16.1630    6.9050  146.4400 C   0  0  0  0  0
  -15.3050    6.6080  147.2700 O   0  0  0  0  0
  -18.7330    4.9180  143.0920 C   0  0  0  0  0
  -19.7320    6.0360  142.9670 C   0  0  0  0  0
  -19.6480    6.8680  144.2340 C   0  0  0  0  0
  -21.1280    5.4530  142.9110 C   0  0  0  0  0
  -23.4070    5.6500  142.6830 C   0  0  0  0  0
  -22.0930    7.3960  144.0450 C   0  0  0  0  0
  -16.4140    6.0060  145.4050 C   0  0  0  0  0
  -17.3330    5.4910  143.2770 C   0  0  0  0  0
  -29.3630    1.9410  141.4790 O   0  0  0  0  0
  -27.0910    1.3660  143.5880 C   0  0  0  0  0
  -31.4934    4.0727  142.5223 H   0  0  0  0  0
  -32.0376    2.4919  141.9091 H   0  0  0  0  0
  -32.7593    3.1691  143.3896 H   0  0  0  0  0
  -27.9958    3.2401  144.1322 H   0  0  0  0  0
  -27.8341    3.7884  141.4349 H   0  0  0  0  0
  -26.3787    2.7609  141.7085 H   0  0  0  0  0
  -25.6673    4.2918  143.5242 H   0  0  0  0  0
  -27.0863    5.2941  143.2564 H   0  0  0  0  0
  -26.4006    5.8584  141.0186 H   0  0  0  0  0
  -25.1114    4.5973  141.0419 H   0  0  0  0  0
  -18.6798    9.0397  145.8459 H   0  0  0  0  0
  -18.8892    7.3924  146.5509 H   0  0  0  0  0
  -16.9789    8.3583  147.5963 H   0  0  0  0  0
  -16.3054    8.8797  145.9982 H   0  0  0  0  0
  -20.4890    8.6110  143.2685 H   0  0  0  0  0
  -20.6242    8.6200  145.0432 H   0  0  0  0  0
  -20.9961    5.0567  140.7576 H   0  0  0  0  0
  -20.9504    3.6421  141.6859 H   0  0  0  0  0
  -23.3181    3.5901  141.9465 H   0  0  0  0  0
  -23.3567    4.7766  140.6760 H   0  0  0  0  0
  -26.2010    7.7094  142.8344 H   0  0  0  0  0
  -25.6401    6.5438  144.0583 H   0  0  0  0  0
  -24.6232    7.9406  143.6270 H   0  0  0  0  0
  -24.3434    7.0430  141.3481 H   0  0  0  0  0
  -18.6767    9.3010  143.5561 H   0  0  0  0  0
  -16.9388    8.9643  143.7493 H   0  0  0  0  0
  -17.8767    8.1138  142.4971 H   0  0  0  0  0
  -20.9855    7.8665  141.5770 H   0  0  0  0  0
  -22.0330    6.7613  140.6539 H   0  0  0  0  0
  -22.7398    8.1615  141.4970 H   0  0  0  0  0
  -18.7565    4.3122  142.1862 H   0  0  0  0  0
  -18.9871    4.3040  143.9561 H   0  0  0  0  0
  -19.5262    6.6248  142.0731 H   0  0  0  0  0
  -19.8692    6.2213  145.0831 H   0  0  0  0  0
  -21.1722    4.8566  143.8223 H   0  0  0  0  0
  -23.7161    5.2765  143.6593 H   0  0  0  0  0
  -22.8329    8.1942  143.9858 H   0  0  0  0  0
  -22.2976    6.7873  144.9257 H   0  0  0  0  0
  -15.9606    5.0148  145.4149 H   0  0  0  0  0
  -16.6560    4.6615  143.4812 H   0  0  0  0  0
  -17.0708    6.0339  142.3689 H   0  0  0  0  0
  -26.9767    0.7511  142.6953 H   0  0  0  0  0
  -26.1077    1.6420  143.9690 H   0  0  0  0  0
  -27.6331    0.8057  144.3498 H   0  0  0  0  0
  2  1  1  0  0  0
  3  2  1  0  0  0
  4  3  1  0  0  0
  3 30  2  0  0  0
  5  4  1  0  0  0
  4 31  1  0  0  0
  6  5  1  0  0  0
  7  6  1  0  0  0
 14  7  1  0  0  0
  8  9  1  0  0  0
 16  8  1  0  0  0
 20  9  1  0  0  0
 24 10  1  0  0  0
 10 27  1  0  0  0
 12 11  1  0  0  0
 25 11  1  0  0  0
 26 12  1  0  0  0
 14 13  1  0  0  0
 26 14  1  0  0  0
 15 16  1  0  0  0
 15 28  2  0  0  0
 29 15  1  0  0  0
 16 17  1  0  0  0
 16 24  1  0  0  0
 18 19  1  0  0  0
 18 25  1  0  0  0
 18 26  1  0  0  0
 27 18  1  0  0  0
 20 21  2  0  0  0
 28 20  1  0  0  0
 22 23  1  0  0  0
 22 29  1  0  0  0
 23 24  1  0  0  0
 23 25  1  0  0  0
  1 32  1  0  0  0
  1 33  1  0  0  0
  1 34  1  0  0  0
  4 35  1  0  0  0
  5 36  1  0  0  0
  5 37  1  0  0  0
  6 38  1  0  0  0
  6 39  1  0  0  0
  7 40  1  0  0  0
  7 41  1  0  0  0
  8 42  1  0  0  0
  8 43  1  0  0  0
  9 44  1  0  0  0
  9 45  1  0  0  0
 10 46  1  0  0  0
 10 47  1  0  0  0
 11 48  1  0  0  0
 11 49  1  0  0  0
 12 50  1  0  0  0
 12 51  1  0  0  0
 13 52  1  0  0  0
 13 53  1  0  0  0
 13 54  1  0  0  0
 14 55  1  0  0  0
 17 56  1  0  0  0
 17 57  1  0  0  0
 17 58  1  0  0  0
 19 59  1  0  0  0
 19 60  1  0  0  0
 19 61  1  0  0  0
 22 62  1  0  0  0
 22 63  1  0  0  0
 23 64  1  0  0  0
 24 65  1  0  0  0
 25 66  1  0  0  0
 26 67  1  0  0  0
 27 68  1  0  0  0
 27 69  1  0  0  0
 28 70  1  0  0  0
 29 71  1  0  0  0
 29 72  1  0  0  0
 31 73  1  0  0  0
 31 74  1  0  0  0
 31 75  1  0  0  0
M  END
$$$$
