5he7_ligand
  -I-interpret- 

 49 52  0  0  0  0  0  0  0  0999 V2000
   15.0420    9.8850   22.0730 C   0  0  0  0  0
   23.4270   11.2370   19.5680 C   0  0  0  0  0
   24.5770   11.4080   18.8440 C   0  0  0  0  0
   19.7210   10.1090   21.3470 N   0  0  0  0  0
   25.7090   10.8200   19.3390 C   0  0  0  0  0
   19.9270   11.2800   22.2090 C   0  0  0  0  0
   23.3540   10.5040   20.7500 C   0  0  0  0  0
   24.5410    9.9120   21.1800 C   0  0  0  0  0
   25.7270   10.0690   20.4840 C   0  0  0  0  0
   21.9220   13.4390   23.4580 O   0  0  0  0  0
   18.5470    8.6450   20.0210 N   0  0  0  0  0
   21.3990   11.6510   21.9780 C   0  0  0  0  0
   22.5770   10.0110   23.9400 C   0  0  0  0  0
   23.2690   11.9660   25.2990 C   0  0  0  0  0
   22.0040   12.2480   23.2340 C   0  0  0  0  0
   22.0500   10.3100   21.5360 C   0  0  0  0  0
   18.6000    6.4570   18.4840 C   0  0  0  0  0
   17.3890    8.1170   19.6720 C   0  0  0  0  0
   18.5360    9.5230   21.0410 C   0  0  0  0  0
   16.2630    9.4130   21.3390 C   0  0  0  0  0
   20.9450    9.6680   20.6830 C   0  0  0  0  0
   22.2970   11.7980   19.0870 F   0  0  0  0  0
   26.8740   11.0130   18.6700 F   0  0  0  0  0
   22.6200   11.3810   24.1140 N   0  0  0  0  0
   22.9230    9.2410   24.9090 N   0  0  0  0  0
   22.2270    9.4960   22.7400 N   0  0  0  0  0
   17.4430    9.9240   21.7320 N   0  0  0  0  0
   16.1940    8.4760   20.2770 C   0  0  0  0  0
   15.0380    7.9380   19.8550 F   0  0  0  0  0
   17.3570    7.0960   18.7960 O   0  0  0  0  0
   15.1352    9.6341   23.1296 H   0  0  0  0  0
   14.9477   10.9652   21.9617 H   0  0  0  0  0
   14.1595    9.3974   21.6589 H   0  0  0  0  0
   24.5898   11.9842   17.9189 H   0  0  0  0  0
   19.7122   11.0672   23.2562 H   0  0  0  0  0
   19.2497   12.0986   21.9655 H   0  0  0  0  0
   24.5347    9.3096   22.0884 H   0  0  0  0  0
   26.6493    9.6079   20.8373 H   0  0  0  0  0
   21.5522   12.4228   21.2237 H   0  0  0  0  0
   22.7702   11.6070   26.1992 H   0  0  0  0  0
   24.3178   11.6700   25.3206 H   0  0  0  0  0
   23.1977   13.0526   25.2514 H   0  0  0  0  0
   19.2845    7.1876   18.0530 H   0  0  0  0  0
   19.0335    6.0442   19.3949 H   0  0  0  0  0
   18.4247    5.6546   17.7674 H   0  0  0  0  0
   20.9902    9.9689   19.6363 H   0  0  0  0  0
   21.0293    8.5826   20.6291 H   0  0  0  0  0
   23.2258    9.6426   25.7964 H   0  0  0  0  0
   22.0787    8.4893   22.6699 H   0  0  0  0  0
 20  1  1  0  0  0
  2  3  4  0  0  0
  7  2  4  0  0  0
  2 22  1  0  0  0
  3  5  4  0  0  0
  4  6  1  0  0  0
 19  4  1  0  0  0
  4 21  1  0  0  0
  9  5  4  0  0  0
  5 23  1  0  0  0
  6 12  1  0  0  0
  7  8  4  0  0  0
 16  7  1  0  0  0
  8  9  4  0  0  0
 15 10  2  0  0  0
 11 18  4  0  0  0
 19 11  4  0  0  0
 12 15  1  0  0  0
 16 12  1  0  0  0
 13 24  4  0  0  0
 13 25  2  0  0  0
 26 13  1  0  0  0
 24 14  1  0  0  0
 15 24  1  0  0  0
 21 16  1  0  0  0
 16 26  1  0  0  0
 30 17  1  0  0  0
 18 28  4  0  0  0
 18 30  1  0  0  0
 27 19  4  0  0  0
 20 27  4  0  0  0
 20 28  4  0  0  0
 28 29  1  0  0  0
  1 31  1  0  0  0
  1 32  1  0  0  0
  1 33  1  0  0  0
  3 34  1  0  0  0
  6 35  1  0  0  0
  6 36  1  0  0  0
  8 37  1  0  0  0
  9 38  1  0  0  0
 12 39  1  0  0  0
 14 40  1  0  0  0
 14 41  1  0  0  0
 14 42  1  0  0  0
 17 43  1  0  0  0
 17 44  1  0  0  0
 17 45  1  0  0  0
 21 46  1  0  0  0
 21 47  1  0  0  0
 25 48  1  0  0  0
 26 49  1  0  0  0
M  END
$$$$
