2jdu_ligand
  -I-interpret- 

 26 26  0  0  0  0  0  0  0  0999 V2000
  -40.0780   20.3600   11.1970 C   0  0  0  0  0
  -38.6790   19.8620   11.4050 C   0  0  0  0  0
  -38.1330   20.3660   12.7550 C   0  0  0  0  0
  -39.0380   20.0820   13.9480 C   0  0  0  0  0
  -40.4120   20.6450   13.6230 C   0  0  0  0  0
  -41.4090   20.5160   14.7940 C   0  0  0  0  0
  -40.0430   21.7910   11.0070 O   0  0  0  0  0
  -37.7690   20.2470   10.3390 O   0  0  0  0  0
  -36.8690   19.7030   12.9710 O   0  0  0  0  0
  -39.0420   18.6540   14.1730 O   0  0  0  0  0
  -40.8770   20.0520   12.3800 O   0  0  0  0  0
  -41.3320   22.2360   10.4930 C   0  0  0  0  0
  -40.5170   19.8804   10.3222 H   0  0  0  0  0
  -38.7348   18.7734   11.4003 H   0  0  0  0  0
  -38.0521   21.4512   12.6922 H   0  0  0  0  0
  -38.6954   20.5540   14.8688 H   0  0  0  0  0
  -40.3346   21.7223   13.4762 H   0  0  0  0  0
  -42.3430   21.0123   14.5306 H   0  0  0  0  0
  -41.5999   19.4614   14.9925 H   0  0  0  0  0
  -40.9858   20.9836   15.6830 H   0  0  0  0  0
  -38.1107   19.9323    9.4989 H   0  0  0  0  0
  -36.2880   19.8736   12.2260 H   0  0  0  0  0
  -38.1502   18.3601   14.3726 H   0  0  0  0  0
  -41.5315   21.7441    9.5410 H   0  0  0  0  0
  -42.1146   21.9795   11.2070 H   0  0  0  0  0
  -41.3106   23.3161   10.3478 H   0  0  0  0  0
  1  2  1  0  0  0
  1  7  1  0  0  0
  1 11  1  0  0  0
  2  3  1  0  0  0
  2  8  1  0  0  0
  3  4  1  0  0  0
  3  9  1  0  0  0
  4  5  1  0  0  0
  4 10  1  0  0  0
  5  6  1  0  0  0
  5 11  1  0  0  0
  7 12  1  0  0  0
  1 13  1  0  0  0
  2 14  1  0  0  0
  3 15  1  0  0  0
  4 16  1  0  0  0
  5 17  1  0  0  0
  6 18  1  0  0  0
  6 19  1  0  0  0
  6 20  1  0  0  0
  8 21  1  0  0  0
  9 22  1  0  0  0
 10 23  1  0  0  0
 12 24  1  0  0  0
 12 25  1  0  0  0
 12 26  1  0  0  0
M  END
$$$$
