5prc_ligand
  -I-interpret- 

 28 28  0  0  0  0  0  0  0  0999 V2000
  132.1360   70.9300   -2.6790 N   0  0  0  0  0
  131.6490   69.8030   -2.2030 C   0  0  0  0  0
  131.2140   69.8750   -0.5110 Cl  0  0  0  0  0
  131.4490   68.6260   -2.7890 N   0  0  0  0  0
  131.8420   68.6520   -4.1050 C   0  0  0  0  0
  132.3550   69.7100   -4.7360 N   0  0  0  0  0
  132.4800   70.8130   -3.9950 C   0  0  0  0  0
  131.7170   67.5200   -4.8420 N   0  0  0  0  0
  131.1960   66.2100   -4.4520 C   0  0  0  0  0
  131.8540   65.6470   -3.1750 C   0  0  0  0  0
  129.6910   66.2090   -4.4660 C   0  0  0  0  0
  132.9920   71.9220   -4.5770 N   0  0  0  0  0
  133.2070   73.2080   -3.9260 C   0  0  0  0  0
  133.8530   74.1130   -4.9060 C   0  0  0  0  0
  132.0323   67.5930   -5.8093 H   0  0  0  0  0
  131.4938   65.4836   -5.2081 H   0  0  0  0  0
  132.9264   65.5394   -3.3376 H   0  0  0  0  0
  131.6779   66.3314   -2.3451 H   0  0  0  0  0
  131.4209   64.6739   -2.9434 H   0  0  0  0  0
  129.3219   66.9579   -3.7653 H   0  0  0  0  0
  129.3381   66.4439   -5.4702 H   0  0  0  0  0
  129.3269   65.2244   -4.1726 H   0  0  0  0  0
  133.2511   71.8515   -5.5610 H   0  0  0  0  0
  133.8430   73.0854   -3.0493 H   0  0  0  0  0
  132.2567   73.6269   -3.5950 H   0  0  0  0  0
  134.8048   73.6854   -5.2211 H   0  0  0  0  0
  133.2023   74.2323   -5.7723 H   0  0  0  0  0
  134.0253   75.0845   -4.4428 H   0  0  0  0  0
  1  2  4  0  0  0
  1  7  4  0  0  0
  2  3  1  0  0  0
  2  4  4  0  0  0
  4  5  4  0  0  0
  5  6  4  0  0  0
  5  8  1  0  0  0
  6  7  4  0  0  0
  7 12  1  0  0  0
  8  9  1  0  0  0
  9 10  1  0  0  0
  9 11  1  0  0  0
 12 13  1  0  0  0
 13 14  1  0  0  0
  8 15  1  0  0  0
  9 16  1  0  0  0
 10 17  1  0  0  0
 10 18  1  0  0  0
 10 19  1  0  0  0
 11 20  1  0  0  0
 11 21  1  0  0  0
 11 22  1  0  0  0
 12 23  1  0  0  0
 13 24  1  0  0  0
 13 25  1  0  0  0
 14 26  1  0  0  0
 14 27  1  0  0  0
 14 28  1  0  0  0
M  END
$$$$
