1rdi_ligand
  -I-interpret- 

 26 26  0  0  0  0  0  0  0  0999 V2000
    3.7250   47.9950    0.9270 C   0  0  0  0  0
    4.2030   46.8310    1.7950 C   0  0  0  0  0
    3.0170   46.0070    2.2690 C   0  0  0  0  0
    2.2300   45.5160    1.0540 C   0  0  0  0  0
    1.8170   46.7080    0.1770 C   0  0  0  0  0
    1.1410   46.2830   -1.1180 C   0  0  0  0  0
    2.9890   48.8900    1.7130 O   0  0  0  0  0
    4.9040   47.3240    2.9230 O   0  0  0  0  0
    3.4980   44.8950    3.0100 O   0  0  0  0  0
    3.0420   44.6180    0.3160 O   0  0  0  0  0
    2.9720   47.5020   -0.1850 O   0  0  0  0  0
    2.7480   50.1760    1.1080 C   0  0  0  0  0
    4.5800   48.5349    0.5201 H   0  0  0  0  0
    4.8644   46.2036    1.1975 H   0  0  0  0  0
    2.3660   46.6127    2.8994 H   0  0  0  0  0
    1.3254   45.0037    1.3816 H   0  0  0  0  0
    1.1118   47.2821    0.7780 H   0  0  0  0  0
    0.8387   47.1690   -1.6763 H   0  0  0  0  0
    1.8390   45.6962   -1.7152 H   0  0  0  0  0
    0.2626   45.6803   -0.8870 H   0  0  0  0  0
    5.6545   47.8455    2.6291 H   0  0  0  0  0
    3.9913   45.2086    3.7715 H   0  0  0  0  0
    3.2916   43.8797    0.8765 H   0  0  0  0  0
    3.7011   50.6592    0.8928 H   0  0  0  0  0
    2.1900   50.0413    0.1814 H   0  0  0  0  0
    2.1713   50.7965    1.7940 H   0  0  0  0  0
  1 11  1  0  0  0
  1  7  1  0  0  0
  1  2  1  0  0  0
  2  8  1  0  0  0
  2  3  1  0  0  0
  3  9  1  0  0  0
  3  4  1  0  0  0
  4 10  1  0  0  0
  4  5  1  0  0  0
  5 11  1  0  0  0
  5  6  1  0  0  0
  7 12  1  0  0  0
  1 13  1  0  0  0
  2 14  1  0  0  0
  3 15  1  0  0  0
  4 16  1  0  0  0
  5 17  1  0  0  0
  6 18  1  0  0  0
  6 19  1  0  0  0
  6 20  1  0  0  0
  8 21  1  0  0  0
  9 22  1  0  0  0
 10 23  1  0  0  0
 12 24  1  0  0  0
 12 25  1  0  0  0
 12 26  1  0  0  0
M  END
$$$$
