6cex_ligand
  -I-interpret- 

 31 31  0  0  0  0  0  0  0  0999 V2000
  -33.8820   -0.4150  -55.7070 C   0  0  0  0  0
  -34.7940   -1.0310  -56.7390 C   0  0  0  0  0
  -34.4230   -2.4440  -57.0750 C   0  0  0  0  0
  -34.3340   -3.0730  -55.8750 C   0  0  0  0  0
  -35.4840   -3.0950  -57.8400 N   0  3  0  0  0
  -35.1440   -4.3530  -58.5170 C   0  0  0  0  0
  -36.4080   -5.1620  -58.8450 C   0  0  0  0  0
  -36.0040   -6.6240  -59.8180 S   0  0  0  0  0
  -35.8170   -6.2650  -61.2280 O   0  0  0  0  0
  -37.0580   -7.6000  -59.9950 O   0  0  0  0  0
  -34.7850   -7.2150  -59.2360 O   0  0  0  0  0
  -33.2790   -2.4910  -55.1620 C   0  0  0  0  0
  -33.7810   -1.2950  -54.6120 C   0  0  0  0  0
  -34.2878    0.5415  -55.3775 H   0  0  0  0  0
  -32.8954   -0.2454  -56.1383 H   0  0  0  0  0
  -34.7130   -0.4394  -57.6509 H   0  0  0  0  0
  -35.8037   -1.0402  -56.3284 H   0  0  0  0  0
  -33.5068   -2.4781  -57.6645 H   0  0  0  0  0
  -34.1504   -4.1377  -56.0193 H   0  0  0  0  0
  -35.2675   -2.9664  -55.3225 H   0  0  0  0  0
  -35.7349   -2.4399  -58.5804 H   0  0  0  0  0
  -36.2099   -3.3308  -57.1634 H   0  0  0  0  0
  -34.5117   -4.9457  -57.8559 H   0  0  0  0  0
  -34.6270   -4.1201  -59.4479 H   0  0  0  0  0
  -37.0855   -4.5334  -59.4229 H   0  0  0  0  0
  -36.8717   -5.4803  -57.9113 H   0  0  0  0  0
  -34.9458   -7.4361  -58.3157 H   0  0  0  0  0
  -32.4283   -2.2941  -55.8144 H   0  0  0  0  0
  -32.9200   -3.1601  -54.3800 H   0  0  0  0  0
  -34.7419   -1.4448  -54.1197 H   0  0  0  0  0
  -33.1303   -0.9010  -53.8313 H   0  0  0  0  0
  1  2  1  0  0  0
  1 13  1  0  0  0
  2  3  1  0  0  0
  3  4  1  0  0  0
  3  5  1  0  0  0
  4 12  1  0  0  0
  5  6  1  0  0  0
  6  7  1  0  0  0
  7  8  1  0  0  0
  8  9  2  0  0  0
  8 10  2  0  0  0
  8 11  1  0  0  0
 12 13  1  0  0  0
  1 14  1  0  0  0
  1 15  1  0  0  0
  2 16  1  0  0  0
  2 17  1  0  0  0
  3 18  1  0  0  0
  4 19  1  0  0  0
  4 20  1  0  0  0
  5 21  1  0  0  0
  5 22  1  0  0  0
  6 23  1  0  0  0
  6 24  1  0  0  0
  7 25  1  0  0  0
  7 26  1  0  0  0
 11 27  1  0  0  0
 12 28  1  0  0  0
 12 29  1  0  0  0
 13 30  1  0  0  0
 13 31  1  0  0  0
M  END
$$$$
