1tl1_ligand
  -I-interpret- 

 45 47  0  0  0  0  0  0  0  0999 V2000
    2.2930  -35.9620   23.6580 C   0  0  0  0  0
    3.8350  -35.7750   23.6930 C   0  0  0  0  0
    4.1540  -34.4270   24.3520 C   0  0  0  0  0
    3.8590  -34.5640   25.8570 C   0  0  0  0  0
    2.3780  -34.9640   26.1940 C   0  0  0  0  0
    1.5870  -35.7850   25.0900 C   0  0  0  0  0
    0.9710  -36.8560   18.4110 N   0  0  0  0  0
    2.2840  -37.3580   18.7650 C   0  0  0  0  0
    3.1610  -37.5850   17.8380 O   0  0  0  0  0
    2.5520  -37.5950   20.2560 C   0  0  0  0  0
    1.5140  -37.3110   21.2090 C   0  0  0  0  0
    1.8440  -37.5910   22.9300 S   0  0  0  0  0
   -0.0350  -36.5870   19.3760 C   0  0  0  0  0
    0.2350  -36.8180   20.8120 C   0  0  0  0  0
   -0.8230  -36.5280   21.7690 C   0  0  0  0  0
   -2.0790  -36.0420   21.3060 C   0  0  0  0  0
   -2.3090  -35.8320   19.9150 C   0  0  0  0  0
   -1.2970  -36.1010   18.9500 C   0  0  0  0  0
   -3.3250  -35.7010   22.3840 Cl  0  0  0  0  0
    3.9230  -38.1300   20.7180 C   0  0  0  0  0
    3.9100  -39.6550   20.5600 C   0  0  0  0  0
    3.4550  -40.4250   21.8220 C   0  0  0  0  0
    0.6250  -38.1530   23.6120 O   0  0  0  0  0
    1.9148  -35.1604   23.0235 H   0  0  0  0  0
    4.2327  -35.7937   22.6783 H   0  0  0  0  0
    4.2924  -36.5830   24.2640 H   0  0  0  0  0
    3.5442  -33.6362   23.9152 H   0  0  0  0  0
    5.1993  -34.1630   24.1917 H   0  0  0  0  0
    4.0373  -33.5879   26.3081 H   0  0  0  0  0
    4.4997  -35.3595   26.2374 H   0  0  0  0  0
    1.8356  -34.0262   26.3142 H   0  0  0  0  0
    2.4359  -35.6155   27.0660 H   0  0  0  0  0
    1.4784  -36.7922   25.4923 H   0  0  0  0  0
    0.6732  -35.2216   24.9012 H   0  0  0  0  0
    0.7610  -36.6890   17.4269 H   0  0  0  0  0
   -0.6546  -36.6821   22.8348 H   0  0  0  0  0
   -3.2779  -35.4584   19.5837 H   0  0  0  0  0
   -1.4913  -35.9343   17.8905 H   0  0  0  0  0
    4.1032  -37.8594   21.7584 H   0  0  0  0  0
    4.7208  -37.6945   20.1164 H   0  0  0  0  0
    4.9341  -39.9632   20.3494 H   0  0  0  0  0
    3.1973  -39.8883   19.7690 H   0  0  0  0  0
    4.1284  -40.1963   22.6481 H   0  0  0  0  0
    2.4409  -40.1235   22.0841 H   0  0  0  0  0
    3.4763  -41.4959   21.6200 H   0  0  0  0  0
  1  2  1  0  0  0
  1  6  1  0  0  0
 12  1  1  0  0  0
  2  3  1  0  0  0
  3  4  1  0  0  0
  5  4  1  0  0  0
  6  5  1  0  0  0
  8  7  1  0  0  0
  7 13  1  0  0  0
  8  9  2  0  0  0
 10  8  1  0  0  0
 11 10  2  0  0  0
 10 20  1  0  0  0
 11 12  1  0  0  0
 11 14  1  0  0  0
 12 23  2  0  0  0
 13 14  4  0  0  0
 13 18  4  0  0  0
 14 15  4  0  0  0
 15 16  4  0  0  0
 16 17  4  0  0  0
 16 19  1  0  0  0
 17 18  4  0  0  0
 20 21  1  0  0  0
 21 22  1  0  0  0
  1 24  1  0  0  0
  2 25  1  0  0  0
  2 26  1  0  0  0
  3 27  1  0  0  0
  3 28  1  0  0  0
  4 29  1  0  0  0
  4 30  1  0  0  0
  5 31  1  0  0  0
  5 32  1  0  0  0
  6 33  1  0  0  0
  6 34  1  0  0  0
  7 35  1  0  0  0
 15 36  1  0  0  0
 17 37  1  0  0  0
 18 38  1  0  0  0
 20 39  1  0  0  0
 20 40  1  0  0  0
 21 41  1  0  0  0
 21 42  1  0  0  0
 22 43  1  0  0  0
 22 44  1  0  0  0
 22 45  1  0  0  0
M  END
$$$$
