4qtc_ligand
  -I-interpret- 

 77 83  0  0  0  0  0  0  0  0999 V2000
   60.6110   33.0280   11.2180 O   0  0  0  0  0
   61.1170   32.8720   12.3240 C   0  0  0  0  0
   62.1000   31.9700   12.6080 N   0  0  0  0  0
   62.9610   31.3500   11.6710 C   0  0  0  0  0
   63.6260   30.2200   12.1310 C   0  0  0  0  0
   64.6090   29.6290   11.3220 C   0  0  0  0  0
   65.5780   28.5170   11.4290 C   0  0  0  0  0
   65.8090   27.5570   12.5340 C   0  0  0  0  0
   65.0900   27.5910   13.7080 C   0  0  0  0  0
   65.4270   26.7170   14.7300 C   0  0  0  0  0
   66.4320   25.8130   14.6440 N   0  0  0  0  0
   67.0970   25.7930   13.4920 C   0  0  0  0  0
   66.8350   26.6230   12.4200 C   0  0  0  0  0
   66.3010   28.4810   10.3460 N   0  0  0  0  0
   65.8890   29.4640    9.5140 N   0  0  0  0  0
   64.8720   30.1850   10.0660 C   0  0  0  0  0
   64.1790   31.2920    9.5980 C   0  0  0  0  0
   63.2120   31.8530   10.4100 C   0  0  0  0  0
   60.8440   33.7990   13.4880 C   0  0  0  0  0
   59.6390   33.1870   14.1280 C   0  0  0  0  0
   60.5500   35.2880   13.1530 C   0  0  0  0  0
   59.0800   35.2410   13.0810 N   0  3  0  0  0
   58.5480   33.9180   13.4220 C   0  0  0  0  0
   58.1810   36.3170   12.6590 C   0  0  0  0  0
   56.8510   35.7950   12.1140 C   0  0  0  0  0
   56.7860   34.6770   11.6140 O   0  0  0  0  0
   55.7580   36.5710   12.2420 N   0  0  0  0  0
   55.7130   37.9640   12.7270 C   0  0  0  0  0
   55.0060   38.8550   11.7120 C   0  0  0  0  0
   53.6920   38.3070   11.3620 N   0  0  0  0  0
   53.3690   37.0610   12.0630 C   0  0  0  0  0
   54.4530   36.0280   11.8430 C   0  0  0  0  0
   52.8120   38.8370   10.3960 C   0  0  0  0  0
   53.2920   39.4530    9.2360 C   0  0  0  0  0
   52.4250   39.7900    8.2080 C   0  0  0  0  0
   51.0600   39.5150    8.2920 C   0  0  0  0  0
   50.5820   38.9750    9.4840 C   0  0  0  0  0
   51.4360   38.6460   10.5190 C   0  0  0  0  0
   50.1730   39.6190    7.0920 C   0  0  0  0  0
   50.7190   40.1000    5.9650 N   0  0  0  0  0
   49.9370   40.0650    4.8740 C   0  0  0  0  0
   48.6520   39.5830    4.8780 C   0  0  0  0  0
   48.1880   39.1370    6.0910 C   0  0  0  0  0
   48.9210   39.1500    7.2150 N   0  0  0  0  0
   62.2266   31.7184   13.5883 H   0  0  0  0  0
   63.3874   29.7981   13.1073 H   0  0  0  0  0
   64.2674   28.2953   13.8320 H   0  0  0  0  0
   64.8510   26.7597   15.6544 H   0  0  0  0  0
   67.9061   25.0702   13.3869 H   0  0  0  0  0
   67.4197   26.5484   11.5031 H   0  0  0  0  0
   64.3922   31.7090    8.6137 H   0  0  0  0  0
   62.6380   32.7065   10.0492 H   0  0  0  0  0
   61.7419   33.8696   14.1020 H   0  0  0  0  0
   59.6123   33.2904   15.2128 H   0  0  0  0  0
   59.5849   32.1031   14.0259 H   0  0  0  0  0
   61.0364   35.6534   12.2486 H   0  0  0  0  0
   60.9456   36.0016   13.8758 H   0  0  0  0  0
   58.9206   36.2472   13.1309 H   0  0  0  0  0
   57.6655   34.0056   14.0558 H   0  0  0  0  0
   58.2374   33.3812   12.5256 H   0  0  0  0  0
   58.6747   36.8722   11.8615 H   0  0  0  0  0
   57.9661   36.9348   13.5309 H   0  0  0  0  0
   56.7318   38.3247   12.8684 H   0  0  0  0  0
   55.1664   37.9952   13.6696 H   0  0  0  0  0
   55.6148   38.9104   10.8096 H   0  0  0  0  0
   54.8686   39.8441   12.1489 H   0  0  0  0  0
   52.4274   36.6722   11.6754 H   0  0  0  0  0
   53.2897   37.2672   13.1304 H   0  0  0  0  0
   54.2337   35.1463   12.4452 H   0  0  0  0  0
   54.4845   35.7627   10.7862 H   0  0  0  0  0
   54.3558   39.6698    9.1393 H   0  0  0  0  0
   52.8176   40.2794    7.3167 H   0  0  0  0  0
   49.5113   38.8085    9.6026 H   0  0  0  0  0
   51.0297   38.2325   11.4421 H   0  0  0  0  0
   50.3446   40.4394    3.9350 H   0  0  0  0  0
   48.0395   39.5560    3.9768 H   0  0  0  0  0
   47.1697   38.7518    6.1437 H   0  0  0  0  0
  1  2  2  0  0  0
  2  3  1  0  0  0
  2 19  1  0  0  0
  3  4  1  0  0  0
  4  5  4  0  0  0
  4 18  4  0  0  0
  5  6  4  0  0  0
  6  7  4  0  0  0
  6 16  4  0  0  0
  7  8  1  0  0  0
  7 14  4  0  0  0
  8  9  4  0  0  0
  8 13  4  0  0  0
  9 10  4  0  0  0
 10 11  4  0  0  0
 11 12  4  0  0  0
 12 13  4  0  0  0
 14 15  4  0  0  0
 15 16  4  0  0  0
 16 17  4  0  0  0
 17 18  4  0  0  0
 19 20  1  0  0  0
 19 21  1  0  0  0
 20 23  1  0  0  0
 21 22  1  0  0  0
 22 23  1  0  0  0
 22 24  1  0  0  0
 24 25  1  0  0  0
 25 26  2  0  0  0
 25 27  1  0  0  0
 27 28  1  0  0  0
 27 32  1  0  0  0
 28 29  1  0  0  0
 29 30  1  0  0  0
 30 31  1  0  0  0
 30 33  1  0  0  0
 31 32  1  0  0  0
 33 34  4  0  0  0
 33 38  4  0  0  0
 34 35  4  0  0  0
 35 36  4  0  0  0
 36 37  4  0  0  0
 36 39  1  0  0  0
 37 38  4  0  0  0
 39 40  4  0  0  0
 39 44  4  0  0  0
 40 41  4  0  0  0
 41 42  4  0  0  0
 42 43  4  0  0  0
 43 44  4  0  0  0
  3 45  1  0  0  0
  5 46  1  0  0  0
  9 47  1  0  0  0
 10 48  1  0  0  0
 12 49  1  0  0  0
 13 50  1  0  0  0
 17 51  1  0  0  0
 18 52  1  0  0  0
 19 53  1  0  0  0
 20 54  1  0  0  0
 20 55  1  0  0  0
 21 56  1  0  0  0
 21 57  1  0  0  0
 22 58  1  0  0  0
 23 59  1  0  0  0
 23 60  1  0  0  0
 24 61  1  0  0  0
 24 62  1  0  0  0
 28 63  1  0  0  0
 28 64  1  0  0  0
 29 65  1  0  0  0
 29 66  1  0  0  0
 31 67  1  0  0  0
 31 68  1  0  0  0
 32 69  1  0  0  0
 32 70  1  0  0  0
 34 71  1  0  0  0
 35 72  1  0  0  0
 37 73  1  0  0  0
 38 74  1  0  0  0
 41 75  1  0  0  0
 42 76  1  0  0  0
 43 77  1  0  0  0
M  END
$$$$
