3sd5_ligand
  -I-interpret- 

 50 53  0  0  0  0  0  0  0  0999 V2000
   28.9160   11.5250   20.1500 N   0  0  0  0  0
   27.6550   11.9810   20.3000 C   0  0  0  0  0
   26.9480   12.5400   19.2420 C   0  0  0  0  0
   25.6580   13.0220   19.4400 C   0  0  0  0  0
   25.0780   12.9350   20.7160 C   0  0  0  0  0
   25.8620   12.3540   21.6950 C   0  0  0  0  0
   27.1030   11.8870   21.5230 N   0  0  0  0  0
   23.7210   13.4740   21.0220 C   0  0  0  0  0
   23.3360   14.7470   20.6350 C   0  0  0  0  0
   22.0480   15.1540   20.9910 C   0  0  0  0  0
   21.2300   14.3540   21.6730 N   0  0  0  0  0
   21.6910   13.1400   22.0070 C   0  0  0  0  0
   22.9090   12.6450   21.7120 N   0  0  0  0  0
   20.8660   12.3460   22.7280 N   0  0  0  0  0
   21.2260   11.0000   23.1610 C   0  0  0  0  0
   20.6610   10.7430   24.5330 C   0  0  0  0  0
   19.2500   10.9420   24.5650 O   0  0  0  0  0
   18.9410   12.2810   24.1980 C   0  0  0  0  0
   19.4200   12.5930   22.8090 C   0  0  0  0  0
   21.5670   16.3920   20.6600 N   0  0  0  0  0
   20.1650   16.7780   20.8630 C   0  0  0  0  0
   20.1070   18.0400   21.6720 C   0  0  0  0  0
   20.8560   19.0830   21.0640 O   0  0  0  0  0
   22.2240   18.7050   20.9850 C   0  0  0  0  0
   22.4110   17.4690   20.1470 C   0  0  0  0  0
   24.9640   13.6300   18.2510 C   0  0  0  0  0
   25.5790   13.3660   17.1110 F   0  0  0  0  0
   24.9020   14.9560   18.3210 F   0  0  0  0  0
   23.7140   13.1880   18.1090 F   0  0  0  0  0
   29.3755   11.5856   19.2414 H   0  0  0  0  0
   29.4097   11.1197   20.9452 H   0  0  0  0  0
   27.4054   12.6009   18.2545 H   0  0  0  0  0
   25.4316   12.2693   22.6928 H   0  0  0  0  0
   24.0071   15.4011   20.0783 H   0  0  0  0  0
   22.3116   10.9080   23.1932 H   0  0  0  0  0
   20.8183   10.2725   22.4592 H   0  0  0  0  0
   21.1231   11.4402   25.2319 H   0  0  0  0  0
   20.8690    9.7076   24.8027 H   0  0  0  0  0
   19.4389   12.9547   24.8953 H   0  0  0  0  0
   17.8587   12.4070   24.2274 H   0  0  0  0  0
   18.9002   11.9574   22.0921 H   0  0  0  0  0
   19.2146   13.6383   22.5780 H   0  0  0  0  0
   19.6416   15.9820   21.3927 H   0  0  0  0  0
   19.6897   16.9436   19.8962 H   0  0  0  0  0
   20.5305   17.8391   22.6561 H   0  0  0  0  0
   19.0667   18.3576   21.7422 H   0  0  0  0  0
   22.5814   18.4944   21.9930 H   0  0  0  0  0
   22.7802   19.5209   20.5234 H   0  0  0  0  0
   22.1316   17.6864   19.1161 H   0  0  0  0  0
   23.4554   17.1597   20.1883 H   0  0  0  0  0
  1  2  1  0  0  0
  2  3  4  0  0  0
  2  7  4  0  0  0
  3  4  4  0  0  0
  4  5  4  0  0  0
  4 26  1  0  0  0
  5  6  4  0  0  0
  5  8  1  0  0  0
  6  7  4  0  0  0
  8  9  4  0  0  0
  8 13  4  0  0  0
  9 10  4  0  0  0
 10 11  4  0  0  0
 10 20  1  0  0  0
 11 12  4  0  0  0
 12 13  4  0  0  0
 12 14  1  0  0  0
 14 15  1  0  0  0
 14 19  1  0  0  0
 15 16  1  0  0  0
 16 17  1  0  0  0
 17 18  1  0  0  0
 18 19  1  0  0  0
 20 21  1  0  0  0
 20 25  1  0  0  0
 21 22  1  0  0  0
 22 23  1  0  0  0
 23 24  1  0  0  0
 24 25  1  0  0  0
 26 27  1  0  0  0
 26 28  1  0  0  0
 26 29  1  0  0  0
  1 30  1  0  0  0
  1 31  1  0  0  0
  3 32  1  0  0  0
  6 33  1  0  0  0
  9 34  1  0  0  0
 15 35  1  0  0  0
 15 36  1  0  0  0
 16 37  1  0  0  0
 16 38  1  0  0  0
 18 39  1  0  0  0
 18 40  1  0  0  0
 19 41  1  0  0  0
 19 42  1  0  0  0
 21 43  1  0  0  0
 21 44  1  0  0  0
 22 45  1  0  0  0
 22 46  1  0  0  0
 24 47  1  0  0  0
 24 48  1  0  0  0
 25 49  1  0  0  0
 25 50  1  0  0  0
M  END
$$$$
