1vcu_ligand
  -I-interpret- 

 39 39  0  0  0  0  0  0  0  0999 V2000
   10.3920    3.8360    7.6340 C   0  0  0  0  0
   10.4530    5.0810    8.3340 C   0  0  0  0  0
    9.4390    5.3690    9.4640 C   0  0  0  0  0
   10.0400    6.3520   10.4910 C   0  0  0  0  0
   10.8740    7.4410    9.8330 C   0  0  0  0  0
   12.0060    6.7630    9.0230 C   0  0  0  0  0
   12.9210    7.7780    8.2950 C   0  0  0  0  0
   14.0940    7.1090    7.5110 C   0  0  0  0  0
   14.9750    8.1510    6.8080 C   0  0  0  0  0
   11.0030    9.5750   11.1250 C   0  0  0  0  0
   11.6100   10.3450   12.2730 C   0  0  0  0  0
   11.3800    8.3040   10.9130 N   0  0  0  0  0
   11.4290    3.3790    6.8690 O   0  0  0  0  0
    9.3360    3.0920    7.7250 O   0  0  0  0  0
    8.9620    6.9120   11.2330 O   0  0  0  0  0
   11.4020    5.9040    8.0000 O   0  0  0  0  0
   12.1690    8.5060    7.3140 O   0  0  0  0  0
   14.9200    6.3740    8.4160 O   0  0  0  0  0
   15.7280    8.9330    7.7010 O   0  0  0  0  0
   10.0790   10.2290   10.3410 O   0  0  0  0  0
    9.9036    5.9829    8.6041 H   0  0  0  0  0
    9.1958    4.4340    9.9687 H   0  0  0  0  0
    8.5426    5.8129    9.0311 H   0  0  0  0  0
   10.7224    5.8134   11.1485 H   0  0  0  0  0
   10.3036    8.0556    9.1366 H   0  0  0  0  0
   12.6145    6.2037    9.7336 H   0  0  0  0  0
   13.3223    8.4137    9.0843 H   0  0  0  0  0
   13.6507    6.4532    6.7616 H   0  0  0  0  0
   14.3165    8.8218    6.2561 H   0  0  0  0  0
   15.6752    7.6138    6.1683 H   0  0  0  0  0
   12.1277   11.2229   11.8866 H   0  0  0  0  0
   10.8207   10.6585   12.9562 H   0  0  0  0  0
   12.3183    9.7075   12.8022 H   0  0  0  0  0
   12.0704    7.9055   11.5494 H   0  0  0  0  0
   12.1438    4.0196    6.8853 H   0  0  0  0  0
    8.4524    6.2060   11.6373 H   0  0  0  0  0
   11.4278    8.9427    7.7400 H   0  0  0  0  0
   15.6396    5.9645    7.9301 H   0  0  0  0  0
   16.2563    9.5632    7.2056 H   0  0  0  0  0
  2  1  1  0  0  0
  1 13  1  0  0  0
  1 14  2  0  0  0
  3  2  1  0  0  0
 16  2  1  0  0  0
  4  3  1  0  0  0
  5  4  1  0  0  0
  4 15  1  0  0  0
  5  6  1  0  0  0
 12  5  1  0  0  0
  6  7  1  0  0  0
  6 16  1  0  0  0
  7  8  1  0  0  0
  7 17  1  0  0  0
  8  9  1  0  0  0
  8 18  1  0  0  0
  9 19  1  0  0  0
 10 11  1  0  0  0
 10 12  1  0  0  0
 10 20  2  0  0  0
  2 21  1  0  0  0
  3 22  1  0  0  0
  3 23  1  0  0  0
  4 24  1  0  0  0
  5 25  1  0  0  0
  6 26  1  0  0  0
  7 27  1  0  0  0
  8 28  1  0  0  0
  9 29  1  0  0  0
  9 30  1  0  0  0
 11 31  1  0  0  0
 11 32  1  0  0  0
 11 33  1  0  0  0
 12 34  1  0  0  0
 13 35  1  0  0  0
 15 36  1  0  0  0
 17 37  1  0  0  0
 18 38  1  0  0  0
 19 39  1  0  0  0
M  END
$$$$
