6eq1_ligand
  -I-interpret- 

 87 90  0  0  0  0  0  0  0  0999 V2000
   31.2480   28.9360   68.8820 C   0  0  0  0  0
   30.0520   28.3320   69.5480 O   0  0  0  0  0
   30.2070   26.9370   69.8140 C   0  0  0  0  0
   28.8840   26.2540   70.1790 C   0  0  0  0  0
   27.8650   26.5840   69.2370 O   0  0  0  0  0
   31.3600   26.7400   70.8570 C   0  0  0  0  0
   31.0190   27.4160   72.0850 O   0  0  0  0  0
   32.6720   27.3290   70.2620 C   0  0  0  0  0
   33.7180   27.3240   71.2260 O   0  0  0  0  0
   32.4720   28.7780   69.7630 C   0  0  0  0  0
   33.6430   29.2400   69.1200 O   0  0  0  0  0
   29.6310   29.2710   63.1590 C   0  0  0  0  0
   29.5300   29.3750   64.6230 O   0  0  0  0  0
   30.7610   29.0200   65.2900 C   0  0  0  0  0
   30.3620   28.6900   66.7200 C   0  0  0  0  0
   31.4740   28.3720   67.5990 O   0  0  0  0  0
   31.7020   30.2220   65.1160 C   0  0  0  0  0
   31.1250   31.4110   65.7030 O   0  0  0  0  0
   31.9180   30.5700   63.6200 C   0  0  0  0  0
   33.3020   30.4070   63.2670 O   0  0  0  0  0
   31.0110   29.8050   62.6050 C   0  0  0  0  0
   30.7650   30.6600   61.4670 O   0  0  0  0  0
   29.0510   24.1730   60.4030 C   0  0  0  0  0
   29.7770   23.3640   61.4160 O   0  0  0  0  0
   29.0510   22.2490   62.1340 C   0  0  0  0  0
   28.9220   20.9420   61.2740 C   0  0  0  0  0
   27.6850   20.8760   60.5380 O   0  0  0  0  0
   27.6790   22.6380   62.5620 O   0  0  0  0  0
   27.5850   22.7900   64.0120 C   0  0  0  0  0
   28.8520   22.2610   64.6610 C   0  0  0  0  0
   28.5320   21.0740   65.4520 O   0  0  0  0  0
   29.8540   22.0010   63.4780 C   0  0  0  0  0
   30.4850   20.6640   63.5520 O   0  0  0  0  0
   27.3920   24.2690   64.3300 C   0  0  0  0  0
   26.2860   24.7370   63.5500 O   0  0  0  0  0
   28.5790   25.4460   60.8940 O   0  0  0  0  0
   29.6540   26.3140   61.2590 C   0  0  0  0  0
   28.8540   27.4870   61.7670 C   0  0  0  0  0
   29.5140   27.8450   62.9480 O   0  0  0  0  0
   30.5520   26.7110   60.0210 C   0  0  0  0  0
   31.7560   27.4570   60.3800 O   0  0  0  0  0
   31.0170   25.4710   59.2530 C   0  0  0  0  0
   31.4600   25.9040   57.9440 O   0  0  0  0  0
   29.9140   24.3850   59.1150 C   0  0  0  0  0
   30.5350   23.1680   58.7880 O   0  0  0  0  0
   31.0519   29.9985   68.7384 H   0  0  0  0  0
   30.5069   26.4216   68.9016 H   0  0  0  0  0
   28.5733   26.5960   71.1662 H   0  0  0  0  0
   29.0327   25.1742   70.1711 H   0  0  0  0  0
   27.0475   26.1462   69.4851 H   0  0  0  0  0
   31.5006   25.6805   71.0711 H   0  0  0  0  0
   30.2089   27.0428   72.4401 H   0  0  0  0  0
   32.9431   26.6935   69.4189 H   0  0  0  0  0
   33.8533   26.4287   71.5451 H   0  0  0  0  0
   32.2870   29.4001   70.6387 H   0  0  0  0  0
   33.5056   30.1399   68.8153 H   0  0  0  0  0
   28.8807   29.8694   62.6422 H   0  0  0  0  0
   31.2968   28.1545   64.9003 H   0  0  0  0  0
   29.7267   27.8053   66.6773 H   0  0  0  0  0
   29.8770   29.5768   67.1280 H   0  0  0  0  0
   32.6393   29.9381   65.5946 H   0  0  0  0  0
   31.7268   32.1495   65.5842 H   0  0  0  0  0
   31.6124   31.6127   63.5332 H   0  0  0  0  0
   33.4224   30.6251   62.3399 H   0  0  0  0  0
   31.5706   28.9057   62.3477 H   0  0  0  0  0
   31.6012   30.9868   61.1270 H   0  0  0  0  0
   28.1660   23.5864   60.1564 H   0  0  0  0  0
   28.9507   20.0911   61.9546 H   0  0  0  0  0
   29.7395   20.9354   60.5531 H   0  0  0  0  0
   27.6582   20.0607   60.0318 H   0  0  0  0  0
   26.7396   22.2235   64.4025 H   0  0  0  0  0
   29.3106   22.9548   65.3656 H   0  0  0  0  0
   29.3325   20.7391   65.8626 H   0  0  0  0  0
   30.7000   22.6862   63.5314 H   0  0  0  0  0
   30.9531   20.5780   64.3857 H   0  0  0  0  0
   28.2938   24.8315   64.0881 H   0  0  0  0  0
   27.1941   24.4074   65.3929 H   0  0  0  0  0
   26.1404   25.6687   63.7300 H   0  0  0  0  0
   30.3705   25.8910   61.9631 H   0  0  0  0  0
   27.8060   27.2377   61.9330 H   0  0  0  0  0
   28.8097   28.3054   61.0484 H   0  0  0  0  0
   29.9073   27.3457   59.4130 H   0  0  0  0  0
   32.2517   27.6643   59.5845 H   0  0  0  0  0
   31.8255   25.0024   59.8141 H   0  0  0  0  0
   31.7578   25.1430   57.4403 H   0  0  0  0  0
   29.2293   24.7305   58.3404 H   0  0  0  0  0
   31.0684   23.2843   57.9984 H   0  0  0  0  0
  1  2  1  0  0  0
  1 10  1  0  0  0
 16  1  1  0  0  0
  2  3  1  0  0  0
  3  4  1  0  0  0
  3  6  1  0  0  0
  4  5  1  0  0  0
  6  7  1  0  0  0
  8  6  1  0  0  0
  8  9  1  0  0  0
 10  8  1  0  0  0
 10 11  1  0  0  0
 12 13  1  0  0  0
 12 21  1  0  0  0
 39 12  1  0  0  0
 13 14  1  0  0  0
 14 15  1  0  0  0
 14 17  1  0  0  0
 15 16  1  0  0  0
 17 18  1  0  0  0
 19 17  1  0  0  0
 19 20  1  0  0  0
 21 19  1  0  0  0
 21 22  1  0  0  0
 23 24  1  0  0  0
 36 23  1  0  0  0
 23 44  1  0  0  0
 24 25  1  0  0  0
 25 26  1  0  0  0
 25 28  1  0  0  0
 25 32  1  0  0  0
 26 27  1  0  0  0
 28 29  1  0  0  0
 30 29  1  0  0  0
 29 34  1  0  0  0
 30 31  1  0  0  0
 32 30  1  0  0  0
 32 33  1  0  0  0
 34 35  1  0  0  0
 37 36  1  0  0  0
 38 37  1  0  0  0
 37 40  1  0  0  0
 38 39  1  0  0  0
 40 41  1  0  0  0
 40 42  1  0  0  0
 42 43  1  0  0  0
 42 44  1  0  0  0
 44 45  1  0  0  0
  1 46  1  0  0  0
  3 47  1  0  0  0
  4 48  1  0  0  0
  4 49  1  0  0  0
  5 50  1  0  0  0
  6 51  1  0  0  0
  7 52  1  0  0  0
  8 53  1  0  0  0
  9 54  1  0  0  0
 10 55  1  0  0  0
 11 56  1  0  0  0
 12 57  1  0  0  0
 14 58  1  0  0  0
 15 59  1  0  0  0
 15 60  1  0  0  0
 17 61  1  0  0  0
 18 62  1  0  0  0
 19 63  1  0  0  0
 20 64  1  0  0  0
 21 65  1  0  0  0
 22 66  1  0  0  0
 23 67  1  0  0  0
 26 68  1  0  0  0
 26 69  1  0  0  0
 27 70  1  0  0  0
 29 71  1  0  0  0
 30 72  1  0  0  0
 31 73  1  0  0  0
 32 74  1  0  0  0
 33 75  1  0  0  0
 34 76  1  0  0  0
 34 77  1  0  0  0
 35 78  1  0  0  0
 37 79  1  0  0  0
 38 80  1  0  0  0
 38 81  1  0  0  0
 40 82  1  0  0  0
 41 83  1  0  0  0
 42 84  1  0  0  0
 43 85  1  0  0  0
 44 86  1  0  0  0
 45 87  1  0  0  0
M  END
$$$$
