2xp7_ligand
  -I-interpret- 

 24 25  0  0  0  0  0  0  0  0999 V2000
  -40.7520   18.4640   16.0600 N   0  0  0  0  0
  -41.9740   18.8690   15.6940 C   0  0  0  0  0
  -42.2190   18.4060   14.3840 C   0  0  0  0  0
  -43.4810   18.5870   13.4930 C   0  0  0  0  0
  -44.5950   18.6540   14.0120 O   0  0  0  0  0
  -43.4120   18.5580   12.2560 O   0  0  0  0  0
  -38.9990   17.0960   14.9630 C   0  0  0  0  0
  -38.4570   16.5020   16.1140 C   0  0  0  0  0
  -37.2500   15.7980   16.0700 C   0  0  0  0  0
  -36.5740   15.6420   14.8530 C   0  0  0  0  0
  -37.1360   16.2120   13.7110 C   0  0  0  0  0
  -38.3420   16.9250   13.7600 C   0  0  0  0  0
  -40.2290   17.7620   15.0180 C   0  0  0  0  0
  -43.8410   20.3570   16.0420 O   0  0  0  0  0
  -42.7390   19.8280   17.7960 O   0  0  0  0  0
  -41.1440   17.7060   14.0100 N   0  0  0  0  0
  -42.9130   19.7290   16.5690 C   0  0  0  0  0
  -42.4913   18.5060   11.9891 H   0  0  0  0  0
  -38.9883   16.5916   17.0615 H   0  0  0  0  0
  -36.8349   15.3705   16.9827 H   0  0  0  0  0
  -35.6352   15.0907   14.8001 H   0  0  0  0  0
  -36.6241   16.1002   12.7552 H   0  0  0  0  0
  -38.7624   17.3455   12.8465 H   0  0  0  0  0
  -41.9888   19.2885   18.0562 H   0  0  0  0  0
  1  2  4  0  0  0
 13  1  4  0  0  0
  2  3  4  0  0  0
  2 17  1  0  0  0
  3  4  1  0  0  0
  3 16  4  0  0  0
  4  5  2  0  0  0
  4  6  1  0  0  0
  7  8  4  0  0  0
  7 12  4  0  0  0
  7 13  1  0  0  0
  8  9  4  0  0  0
  9 10  4  0  0  0
 10 11  4  0  0  0
 11 12  4  0  0  0
 13 16  4  0  0  0
 17 14  2  0  0  0
 17 15  1  0  0  0
  6 18  1  0  0  0
  8 19  1  0  0  0
  9 20  1  0  0  0
 10 21  1  0  0  0
 11 22  1  0  0  0
 12 23  1  0  0  0
 15 24  1  0  0  0
M  END
$$$$
