### 
### Created by X-TOOL on Mon Sep 10 21:12:44 2018
### 

@<TRIPOS>MOLECULE
1p06_ligand
   58    59     1     0     0
SMALL
GAST_HUCK


@<TRIPOS>ATOM
      1 N          14.3190   42.3820   18.4820 N.4       1 ALA         0.2377
      2 CA         14.7690   40.9720   18.2970 C.3       1 ALA         0.0621
      3 C          13.8500   39.7890   18.6350 C.2       1 ALA         0.2264
      4 O          13.0900   39.8750   19.6270 O.2       1 ALA        -0.3907
      5 CB         16.1020   40.7080   19.0330 C.3       1 ALA        -0.0040
      6 N          13.9170   38.7380   17.8140 N.am      1 ALA        -0.2613
      7 CA         13.0440   37.5550   18.0760 C.3       1 ALA         0.1285
      8 C          13.9450   36.3430   17.8010 C.2       1 ALA         0.2061
      9 O          14.8410   36.5310   16.9660 O.2       1 ALA        -0.3942
     10 CB         11.7250   37.4350   17.3850 C.3       1 ALA        -0.0244
     11 N          13.7090   35.2750   18.5340 N.am      1 PRO        -0.2498
     12 CA         14.5420   34.1000   18.4170 C.3       1 PRO         0.1336
     13 C          14.0280   33.1860   17.3510 C.2       1 PRO         0.2011
     14 O          12.8120   32.9180   17.5410 O.2       1 PRO        -0.3946
     15 CB         14.3890   33.5550   19.8540 C.3       1 PRO        -0.0104
     16 CG         12.9360   33.7450   20.2350 C.3       1 PRO        -0.0281
     17 CD         12.6430   35.1050   19.5440 C.3       1 PRO         0.0369
     18 N          14.8310   32.7260   16.3640 N.am      1 B2F        -0.2928
     19 CA         14.1730   31.7860   15.3820 C.3       1 B2F         0.0301
     20 CB         13.9510   32.2640   13.9600 C.3       1 B2F        -0.0078
     21 CG         13.1510   33.5710   13.9970 C.ar      1 B2F        -0.0422
     22 CD1        13.8560   34.7850   14.0700 C.ar      1 B2F        -0.0603
     23 CD2        11.7550   33.5610   13.9850 C.ar      1 B2F        -0.0603
     24 CE1        13.1360   35.9820   14.1450 C.ar      1 B2F        -0.0686
     25 CE2        11.0620   34.7600   14.0090 C.ar      1 B2F        -0.0686
     26 CZ         11.7560   35.9590   14.0880 C.ar      1 B2F        -0.0687
     27 B          14.9020   30.4420   15.4400 B         1 B2F         0.4901
     28 O1         14.2540   29.1780   15.3420 O.3       1 B2F        -0.5230
     29 H1         15.0584   43.0095   18.2069 H         1 ALA         0.2015
     30 H2         14.0899   42.5372   19.4513 H         1 ALA         0.2015
     31 H3         13.5047   42.5523   17.9128 H         1 ALA         0.2015
     32 H4         14.9670   40.8874   17.2183 H         1 ALA         0.1095
     33 H5         16.4059   39.6623   18.8774 H         1 ALA         0.0310
     34 H6         15.9702   40.8952   20.1089 H         1 ALA         0.0310
     35 H7         16.8788   41.3784   18.6366 H         1 ALA         0.0310
     36 H8         14.5432   38.7430   17.0344 H         1 ALA         0.1884
     37 H9         12.8069   37.5714   19.1500 H         1 ALA         0.0797
     38 H10        11.2286   36.5057   17.7013 H         1 ALA         0.0277
     39 H11        11.8818   37.4147   16.2964 H         1 ALA         0.0277
     40 H12        11.0933   38.2961   17.6485 H         1 ALA         0.0277
     41 H13        15.5888   34.3555   18.1957 H         1 PRO         0.0802
     42 H14        15.0386   34.1142   20.5434 H         1 PRO         0.0313
     43 H15        14.6534   32.4877   19.8855 H         1 PRO         0.0313
     44 H16        12.8059   33.8064   21.3255 H         1 PRO         0.0287
     45 H17        12.3018   32.9403   19.8348 H         1 PRO         0.0287
     46 H18        11.6553   35.0850   19.0603 H         1 PRO         0.0524
     47 H19        12.6754   35.9236   20.2781 H         1 PRO         0.0524
     48 H20        15.7927   32.9899   16.2899 H         1 B2F         0.1840
     49 H21        13.1614   31.6121   15.7774 H         1 B2F         0.0424
     50 H22        13.3900   31.5031   13.3976 H         1 B2F         0.0435
     51 H23        14.9217   32.4385   13.4729 H         1 B2F         0.0435
     52 H24        14.9400   34.7934   14.0682 H         1 B2F         0.0557
     53 H25        11.2167   32.6205   13.9571 H         1 B2F         0.0557
     54 H26        13.6598   36.9255   14.2476 H         1 B2F         0.0599
     55 H27         9.9788   34.7617   13.9661 H         1 B2F         0.0599
     56 H28        11.2061   36.8930   14.1053 H         1 B2F         0.0559
     57 H29        15.9034   30.4521   15.5547 H         1 B2F        -0.0311
     58 H30        13.8029   29.1185   14.5081 H         1 B2F         0.1648
@<TRIPOS>BOND
     1    1    2 1  
     2    2    3 1  
     3    2    5 1  
     4    3    4 2  
     5    3    6 am 
     6    6    7 1  
     7    7    8 1  
     8    7   10 1  
     9    8    9 2  
    10    8   11 am 
    11   11   12 1  
    12   11   17 1  
    13   12   13 1  
    14   12   15 1  
    15   13   14 2  
    16   13   18 am 
    17   15   16 1  
    18   16   17 1  
    19   18   19 1  
    20   19   20 1  
    21   19   27 1  
    22   20   21 1  
    23   21   22 ar 
    24   21   23 ar 
    25   22   24 ar 
    26   23   25 ar 
    27   24   26 ar 
    28   25   26 ar 
    29   27   28 1  
    30    1   29 1  
    31    1   30 1  
    32    1   31 1  
    33    2   32 1  
    34    5   33 1  
    35    5   34 1  
    36    5   35 1  
    37    6   36 1  
    38    7   37 1  
    39   10   38 1  
    40   10   39 1  
    41   10   40 1  
    42   12   41 1  
    43   15   42 1  
    44   15   43 1  
    45   16   44 1  
    46   16   45 1  
    47   17   46 1  
    48   17   47 1  
    49   18   48 1  
    50   19   49 1  
    51   20   50 1  
    52   20   51 1  
    53   22   52 1  
    54   23   53 1  
    55   24   54 1  
    56   25   55 1  
    57   26   56 1  
    58   27   57 1  
    59   28   58 1  
@<TRIPOS>SUBSTRUCTURE
     1 ALA         1

