1p06_ligand
  -I-interpret- 

 57 58  0  0  0  0  0  0  0  0999 V2000
   14.3190   42.3820   18.4820 N   0  3  0  0  0
   14.7690   40.9720   18.2970 C   0  0  0  0  0
   13.8500   39.7890   18.6350 C   0  0  0  0  0
   13.0900   39.8750   19.6270 O   0  0  0  0  0
   16.1020   40.7080   19.0330 C   0  0  0  0  0
   13.9170   38.7380   17.8140 N   0  0  0  0  0
   13.0440   37.5550   18.0760 C   0  0  0  0  0
   13.9450   36.3430   17.8010 C   0  0  0  0  0
   14.8410   36.5310   16.9660 O   0  0  0  0  0
   11.7250   37.4350   17.3850 C   0  0  0  0  0
   13.7090   35.2750   18.5340 N   0  0  0  0  0
   14.5420   34.1000   18.4170 C   0  0  0  0  0
   14.0280   33.1860   17.3510 C   0  0  0  0  0
   12.8120   32.9180   17.5410 O   0  0  0  0  0
   14.3890   33.5550   19.8540 C   0  0  0  0  0
   12.9360   33.7450   20.2350 C   0  0  0  0  0
   12.6430   35.1050   19.5440 C   0  0  0  0  0
   14.8310   32.7260   16.3640 N   0  0  0  0  0
   14.1730   31.7860   15.3820 C   0  0  0  0  0
   13.9510   32.2640   13.9600 C   0  0  0  0  0
   13.1510   33.5710   13.9970 C   0  0  0  0  0
   13.8560   34.7850   14.0700 C   0  0  0  0  0
   11.7550   33.5610   13.9850 C   0  0  0  0  0
   13.1360   35.9820   14.1450 C   0  0  0  0  0
   11.0620   34.7600   14.0090 C   0  0  0  0  0
   11.7560   35.9590   14.0880 C   0  0  0  0  0
   14.9020   30.4420   15.4400 B   0  0  0  0  0
   14.2540   29.1780   15.3420 O   0  0  0  0  0
   13.4393   42.5247   17.9859 H   0  0  0  0  0
   14.1841   42.5669   19.4760 H   0  0  0  0  0
   15.0270   43.0152   18.1102 H   0  0  0  0  0
   14.8189   40.9665   17.2082 H   0  0  0  0  0
   15.9177   40.6485   20.1057 H   0  0  0  0  0
   16.5285   39.7677   18.6836 H   0  0  0  0  0
   16.7967   41.5223   18.8271 H   0  0  0  0  0
   14.5557   38.7431   17.0188 H   0  0  0  0  0
   12.6825   37.6524   19.0997 H   0  0  0  0  0
   11.8850   37.3643   16.3091 H   0  0  0  0  0
   11.2120   36.5400   17.7369 H   0  0  0  0  0
   11.1190   38.3135   17.6065 H   0  0  0  0  0
   15.5777   34.2534   18.1137 H   0  0  0  0  0
   15.0454   34.0854   20.5439 H   0  0  0  0  0
   14.6707   32.5032   19.9040 H   0  0  0  0  0
   12.7507   33.7397   21.3091 H   0  0  0  0  0
   12.2809   32.9327   19.9200 H   0  0  0  0  0
   11.6542   35.1143   19.0854 H   0  0  0  0  0
   12.6402   35.9247   20.2624 H   0  0  0  0  0
   15.8119   32.9952   16.2884 H   0  0  0  0  0
   13.1394   31.7061   15.7188 H   0  0  0  0  0
   13.3999   31.5095   13.3987 H   0  0  0  0  0
   14.9115   32.4326   13.4730 H   0  0  0  0  0
   14.9460   34.7935   14.0682 H   0  0  0  0  0
   11.2137   32.6153   13.9569 H   0  0  0  0  0
   13.6627   36.9307   14.2482 H   0  0  0  0  0
    9.9729   34.7617   13.9659 H   0  0  0  0  0
   11.2031   36.8982   14.1054 H   0  0  0  0  0
   14.9086   28.4785   15.4037 H   0  0  0  0  0
  1  2  1  0  0  0
  2  3  1  0  0  0
  2  5  1  0  0  0
  3  4  2  0  0  0
  3  6  1  0  0  0
  6  7  1  0  0  0
  7  8  1  0  0  0
  7 10  1  0  0  0
  8  9  2  0  0  0
  8 11  1  0  0  0
 11 12  1  0  0  0
 11 17  1  0  0  0
 12 13  1  0  0  0
 12 15  1  0  0  0
 13 14  2  0  0  0
 13 18  1  0  0  0
 15 16  1  0  0  0
 16 17  1  0  0  0
 18 19  1  0  0  0
 19 20  1  0  0  0
 19 27  1  0  0  0
 20 21  1  0  0  0
 21 22  4  0  0  0
 21 23  4  0  0  0
 22 24  4  0  0  0
 23 25  4  0  0  0
 24 26  4  0  0  0
 25 26  4  0  0  0
 27 28  1  0  0  0
  1 29  1  0  0  0
  1 30  1  0  0  0
  1 31  1  0  0  0
  2 32  1  0  0  0
  5 33  1  0  0  0
  5 34  1  0  0  0
  5 35  1  0  0  0
  6 36  1  0  0  0
  7 37  1  0  0  0
 10 38  1  0  0  0
 10 39  1  0  0  0
 10 40  1  0  0  0
 12 41  1  0  0  0
 15 42  1  0  0  0
 15 43  1  0  0  0
 16 44  1  0  0  0
 16 45  1  0  0  0
 17 46  1  0  0  0
 17 47  1  0  0  0
 18 48  1  0  0  0
 19 49  1  0  0  0
 20 50  1  0  0  0
 20 51  1  0  0  0
 22 52  1  0  0  0
 23 53  1  0  0  0
 24 54  1  0  0  0
 25 55  1  0  0  0
 26 56  1  0  0  0
 28 57  1  0  0  0
M  END
$$$$
