6f7b_ligand
  -I-interpret- 

 63 67  0  0  0  0  0  0  0  0999 V2000
   14.6640  -31.6380  -14.4310 C   0  0  0  0  0
   19.7780  -35.1350  -11.8170 C   0  0  0  0  0
   16.8410  -32.1930  -14.9860 C   0  0  0  0  0
   18.4380  -33.4750  -13.6000 C   0  0  0  0  0
   18.1280  -32.5800  -14.6190 C   0  0  0  0  0
   19.8040  -33.5830  -13.6400 C   0  0  0  0  0
   17.7030  -34.2110  -12.6490 C   0  0  0  0  0
   18.3910  -35.0460  -11.7680 C   0  0  0  0  0
   16.5720  -31.9910  -16.3110 N   0  0  0  0  0
   14.3600  -31.4640  -15.7990 C   0  0  0  0  0
   10.2330  -30.2410  -12.1090 C   0  0  0  0  0
   11.4610  -30.8050  -12.5060 O   0  0  0  0  0
   12.4850  -31.0030  -11.6220 C   0  0  0  0  0
   12.3750  -30.9140  -10.2420 C   0  0  0  0  0
   13.4430  -31.1250   -9.4560 N   0  0  0  0  0
   14.6180  -31.4900   -9.9710 C   0  0  0  0  0
   14.7850  -31.6210  -11.3560 C   0  0  0  0  0
   13.7000  -31.3420  -12.2020 C   0  0  0  0  0
   13.6600  -31.4530  -13.5580 N   0  0  0  0  0
   15.8900  -32.0400  -14.0840 N   0  0  0  0  0
   13.0970  -31.0850  -16.1250 O   0  0  0  0  0
   12.8360  -30.6560  -17.5140 C   0  0  0  0  0
   15.3620  -31.6240  -16.7480 C   0  0  0  0  0
   19.2670  -32.2150  -15.2070 N   0  0  0  0  0
   20.4890  -34.4110  -12.7640 C   0  0  0  0  0
   20.2050  -32.7940  -14.6360 N   0  0  0  0  0
   21.6080  -32.6420  -14.9870 C   0  0  0  0  0
   22.4030  -31.8810  -13.9260 C   0  0  0  0  0
   23.4800  -32.5060  -13.2950 C   0  0  0  0  0
   24.2600  -31.8270  -12.3560 C   0  0  0  0  0
   23.8610  -33.7600  -13.6280 F   0  0  0  0  0
   22.0910  -30.5860  -13.5390 C   0  0  0  0  0
   21.0740  -29.9110  -14.1010 F   0  0  0  0  0
   22.8410  -29.9160  -12.5850 C   0  0  0  0  0
   23.9440  -30.5310  -12.0010 C   0  0  0  0  0
   24.7230  -29.9460  -11.0540 O   0  0  0  0  0
   25.1740  -28.6090  -11.2480 C   0  0  0  0  0
   24.6830  -27.9200  -10.0140 C   0  0  0  0  0
   23.2800  -28.1340  -10.0220 O   0  0  0  0  0
   20.3075  -35.7743  -11.1106 H   0  0  0  0  0
   16.6170  -34.1294  -12.6026 H   0  0  0  0  0
   17.8370  -35.6332  -11.0356 H   0  0  0  0  0
    9.7773  -30.8683  -11.3429 H   0  0  0  0  0
   10.4062  -29.2426  -11.7072 H   0  0  0  0  0
    9.5685  -30.1771  -12.9707 H   0  0  0  0  0
   11.4127  -30.6705   -9.7916 H   0  0  0  0  0
   15.4586  -31.6888   -9.3063 H   0  0  0  0  0
   15.7431  -31.9349  -11.7704 H   0  0  0  0  0
   12.7304  -31.3858  -13.9724 H   0  0  0  0  0
   13.4599  -29.7939  -17.7500 H   0  0  0  0  0
   13.0709  -31.4735  -18.1956 H   0  0  0  0  0
   11.7853  -30.3851  -17.6179 H   0  0  0  0  0
   15.1697  -31.4569  -17.8078 H   0  0  0  0  0
   21.5746  -34.4926  -12.8184 H   0  0  0  0  0
   21.6608  -32.0741  -15.9158 H   0  0  0  0  0
   22.0400  -33.6386  -15.0778 H   0  0  0  0  0
   25.1194  -32.3212  -11.9029 H   0  0  0  0  0
   22.5655  -28.9032  -12.2911 H   0  0  0  0  0
   24.7969  -28.1600  -12.1668 H   0  0  0  0  0
   26.2540  -28.5368  -11.3766 H   0  0  0  0  0
   24.9345  -26.8594  -10.0107 H   0  0  0  0  0
   25.1513  -28.3143   -9.1121 H   0  0  0  0  0
   22.8893  -27.7161   -9.2511 H   0  0  0  0  0
  1 10  4  0  0  0
 19  1  1  0  0  0
  1 20  4  0  0  0
  8  2  4  0  0  0
 25  2  4  0  0  0
  3  5  1  0  0  0
  3  9  4  0  0  0
 20  3  4  0  0  0
  5  4  4  0  0  0
  4  6  4  0  0  0
  4  7  4  0  0  0
  5 24  4  0  0  0
  6 25  4  0  0  0
  6 26  4  0  0  0
  7  8  4  0  0  0
 23  9  4  0  0  0
 10 21  1  0  0  0
 10 23  4  0  0  0
 12 11  1  0  0  0
 13 12  1  0  0  0
 13 14  4  0  0  0
 18 13  4  0  0  0
 14 15  4  0  0  0
 16 15  4  0  0  0
 17 16  4  0  0  0
 18 17  4  0  0  0
 18 19  1  0  0  0
 21 22  1  0  0  0
 24 26  4  0  0  0
 26 27  1  0  0  0
 27 28  1  0  0  0
 28 29  4  0  0  0
 28 32  4  0  0  0
 29 30  4  0  0  0
 29 31  1  0  0  0
 30 35  4  0  0  0
 32 33  1  0  0  0
 32 34  4  0  0  0
 34 35  4  0  0  0
 35 36  1  0  0  0
 36 37  1  0  0  0
 37 38  1  0  0  0
 38 39  1  0  0  0
  2 40  1  0  0  0
  7 41  1  0  0  0
  8 42  1  0  0  0
 11 43  1  0  0  0
 11 44  1  0  0  0
 11 45  1  0  0  0
 14 46  1  0  0  0
 16 47  1  0  0  0
 17 48  1  0  0  0
 19 49  1  0  0  0
 22 50  1  0  0  0
 22 51  1  0  0  0
 22 52  1  0  0  0
 23 53  1  0  0  0
 25 54  1  0  0  0
 27 55  1  0  0  0
 27 56  1  0  0  0
 30 57  1  0  0  0
 34 58  1  0  0  0
 37 59  1  0  0  0
 37 60  1  0  0  0
 38 61  1  0  0  0
 38 62  1  0  0  0
 39 63  1  0  0  0
M  END
$$$$
