3vbw_ligand
  -I-interpret- 

 18 19  0  0  0  0  0  0  0  0999 V2000
   23.1710   33.5730    3.3930 O   0  0  0  0  0
   22.7250   33.9470    2.2880 C   0  0  0  0  0
   22.9040   35.1720    1.6910 C   0  0  0  0  0
   23.3820   36.3300    2.1930 C   0  0  0  0  0
   23.4930   37.4620    1.3670 C   0  0  0  0  0
   23.0680   37.3740    0.0280 C   0  0  0  0  0
   22.5430   36.1410   -0.4340 C   0  0  0  0  0
   22.4930   35.0860    0.3810 C   0  0  0  0  0
   22.0290   33.8290    0.1720 C   0  0  0  0  0
   21.6140   33.3570   -0.9000 O   0  0  0  0  0
   21.8460   33.2340    1.4620 C   0  0  0  0  0
   21.7410   31.7360    1.5120 C   0  0  0  0  0
   21.5520   30.5400    1.5470 N   0  0  0  0  0
   23.6821   36.3875    3.2393 H   0  0  0  0  0
   23.9020   38.3938    1.7575 H   0  0  0  0  0
   23.1409   38.2338   -0.6380 H   0  0  0  0  0
   22.1792   36.0546   -1.4579 H   0  0  0  0  0
   20.8407   33.3407    1.8696 H   0  0  0  0  0
  1  2  2  0  0  0
  2  3  1  0  0  0
  2 11  1  0  0  0
  3  4  4  0  0  0
  3  8  4  0  0  0
  4  5  4  0  0  0
  5  6  4  0  0  0
  6  7  4  0  0  0
  7  8  4  0  0  0
  8  9  1  0  0  0
  9 10  2  0  0  0
  9 11  1  0  0  0
 11 12  1  0  0  0
 12 13  3  0  0  0
  4 14  1  0  0  0
  5 15  1  0  0  0
  6 16  1  0  0  0
  7 17  1  0  0  0
 11 18  1  0  0  0
M  END
$$$$
