6n3l_ligand
  -I-interpret- 

 53 57  0  0  0  0  0  0  0  0999 V2000
   15.5970  135.9010   -2.3470 C   0  0  0  0  0
   16.7070  135.2310   -1.8170 C   0  0  0  0  0
   17.9710  135.2750   -2.3670 C   0  0  0  0  0
   18.0990  136.0370   -3.5050 C   0  0  0  0  0
   15.7800  136.6780   -3.5140 C   0  0  0  0  0
   14.5290  135.7630    3.1400 C   0  0  0  0  0
   14.9100  134.7940    6.1530 C   0  0  0  0  0
   15.0850  135.1090    7.4840 C   0  0  0  0  0
   16.0150  134.3190    8.1830 C   0  0  0  0  0
   16.0760  135.5840   10.3420 C   0  0  0  0  0
   16.5280  135.6020   11.7760 C   0  0  0  0  0
   15.9920  136.7080   12.6740 C   0  0  0  0  0
   11.6870  134.5100   -0.6360 C   0  0  0  0  0
   12.8340  135.0500    0.1060 N   0  0  0  0  0
   13.9880  135.6080   -0.3670 C   0  0  0  0  0
   14.3000  135.7900   -1.7340 N   0  0  0  0  0
   17.0360  136.7390   -4.0930 C   0  0  0  0  0
   19.4400  136.1150   -4.1350 C   0  0  0  0  0
   19.6170  135.1870   -5.1050 F   0  0  0  0  0
   19.4150  137.2940   -4.7820 F   0  0  0  0  0
   20.4920  135.9280   -3.2600 F   0  0  0  0  0
   14.7440  135.9370    0.6400 N   0  0  0  0  0
   14.1480  135.6330    1.7910 C   0  0  0  0  0
   13.6610  135.3150    4.1420 C   0  0  0  0  0
   13.9920  135.4800    5.4800 O   0  0  0  0  0
   16.3160  134.5140    9.5600 N   0  0  0  0  0
   15.4850  136.5400    9.9200 O   0  0  0  0  0
   17.4320  136.7720   12.1530 C   0  0  0  0  0
   16.7240  133.3560    7.5180 N   0  0  0  0  0
   16.5430  133.1110    6.2340 C   0  0  0  0  0
   15.6340  133.8290    5.5590 N   0  0  0  0  0
   12.4050  134.7480    3.8040 C   0  0  0  0  0
   12.0120  134.6200    2.4840 C   0  0  0  0  0
   12.8960  135.0650    1.4790 C   0  0  0  0  0
   16.5629  134.6380   -0.9138 H   0  0  0  0  0
   18.8138  134.7407   -1.9284 H   0  0  0  0  0
   14.9431  137.2219   -3.9521 H   0  0  0  0  0
   15.4893  136.2076    3.4011 H   0  0  0  0  0
   14.5368  135.9195    7.9642 H   0  0  0  0  0
   16.5722  134.5163   11.8615 H   0  0  0  0  0
   15.4589  136.8079   13.6195 H   0  0  0  0  0
   15.1172  137.3546   12.7421 H   0  0  0  0  0
   11.2521  135.2964   -1.2528 H   0  0  0  0  0
   12.0208  133.6903   -1.2722 H   0  0  0  0  0
   10.9400  134.1440    0.0684 H   0  0  0  0  0
   13.5027  135.8504   -2.3673 H   0  0  0  0  0
   17.1975  137.3266   -4.9967 H   0  0  0  0  0
   16.7800  133.7313   10.0209 H   0  0  0  0  0
   18.0967  137.4851   11.6653 H   0  0  0  0  0
   18.4372  136.9403   12.5395 H   0  0  0  0  0
   17.1230  132.3376    5.7305 H   0  0  0  0  0
   11.7392  134.4079    4.5972 H   0  0  0  0  0
   11.0452  134.1869    2.2274 H   0  0  0  0  0
  1  2  4  0  0  0
  1  5  4  0  0  0
 16  1  1  0  0  0
  2  3  4  0  0  0
  3  4  4  0  0  0
 17  4  4  0  0  0
  4 18  1  0  0  0
  5 17  4  0  0  0
  6 23  4  0  0  0
 24  6  4  0  0  0
  7  8  4  0  0  0
 25  7  1  0  0  0
  7 31  4  0  0  0
  8  9  4  0  0  0
  9 26  1  0  0  0
  9 29  4  0  0  0
 10 11  1  0  0  0
 26 10  1  0  0  0
 10 27  2  0  0  0
 11 12  1  0  0  0
 11 28  1  0  0  0
 28 12  1  0  0  0
 14 13  1  0  0  0
 14 15  4  0  0  0
 34 14  4  0  0  0
 15 16  1  0  0  0
 22 15  4  0  0  0
 18 19  1  0  0  0
 18 20  1  0  0  0
 18 21  1  0  0  0
 23 22  4  0  0  0
 23 34  4  0  0  0
 24 25  1  0  0  0
 24 32  4  0  0  0
 29 30  4  0  0  0
 30 31  4  0  0  0
 32 33  4  0  0  0
 33 34  4  0  0  0
  2 35  1  0  0  0
  3 36  1  0  0  0
  5 37  1  0  0  0
  6 38  1  0  0  0
  8 39  1  0  0  0
 11 40  1  0  0  0
 12 41  1  0  0  0
 12 42  1  0  0  0
 13 43  1  0  0  0
 13 44  1  0  0  0
 13 45  1  0  0  0
 16 46  1  0  0  0
 17 47  1  0  0  0
 26 48  1  0  0  0
 28 49  1  0  0  0
 28 50  1  0  0  0
 30 51  1  0  0  0
 32 52  1  0  0  0
 33 53  1  0  0  0
M  END
$$$$
