1jr1_ligand
  -I-interpret- 

 43 44  0  0  0  0  0  0  0  0999 V2000
   65.4650   77.9460   82.6750 C   0  0  0  0  0
   64.9650   82.3900   86.1740 C   0  0  0  0  0
   65.1840   83.6670   86.5070 C   0  0  0  0  0
   64.2870   84.7070   85.8680 C   0  0  0  0  0
   65.1370   85.5900   84.9630 C   0  0  0  0  0
   65.2530   85.0450   83.5560 C   0  0  0  0  0
   69.7740   80.1380   83.5320 C   0  0  0  0  0
   68.4340   82.9550   84.9680 C   0  0  0  0  0
   66.2890   84.1040   87.4630 C   0  0  0  0  0
   67.7520   78.1120   82.1030 C   0  0  0  0  0
   67.4530   79.0770   83.2290 C   0  0  0  0  0
   68.3290   79.9770   83.9000 C   0  0  0  0  0
   67.7890   80.7240   84.9530 C   0  0  0  0  0
   66.4470   80.5640   85.3340 C   0  0  0  0  0
   65.5990   79.6820   84.6580 C   0  0  0  0  0
   66.1280   78.9430   83.5880 C   0  0  0  0  0
   65.9220   81.2770   86.5480 C   0  0  0  0  0
   64.3260   77.6140   82.5880 O   0  0  0  0  0
   66.4440   77.4740   81.8970 O   0  0  0  0  0
   68.5890   81.6440   85.5490 O   0  0  0  0  0
   64.2880   79.5520   85.1000 O   0  0  0  0  0
   64.2030   84.7050   82.9660 O   0  0  0  0  0
   66.3930   84.9550   83.0450 O   0  0  0  0  0
   64.0644   82.1411   85.6127 H   0  0  0  0  0
   63.8127   85.3133   86.6397 H   0  0  0  0  0
   63.5078   84.2173   85.2840 H   0  0  0  0  0
   66.1399   85.6366   85.3874 H   0  0  0  0  0
   64.6587   86.5677   84.9046 H   0  0  0  0  0
   70.2860   79.1828   83.6488 H   0  0  0  0  0
   69.8492   80.4676   82.4958 H   0  0  0  0  0
   70.2334   80.8801   84.1849 H   0  0  0  0  0
   68.6916   82.9147   83.9096 H   0  0  0  0  0
   67.3997   83.2804   85.0794 H   0  0  0  0  0
   69.0940   83.6571   85.4775 H   0  0  0  0  0
   66.1337   83.6348   88.4345 H   0  0  0  0  0
   67.2559   83.8003   87.0618 H   0  0  0  0  0
   66.2643   85.1881   87.5735 H   0  0  0  0  0
   68.5468   77.4043   82.3387 H   0  0  0  0  0
   68.1427   78.5976   81.2087 H   0  0  0  0  0
   65.3857   80.5558   87.1647 H   0  0  0  0  0
   66.7661   81.7146   87.0811 H   0  0  0  0  0
   63.8263   78.9179   84.5465 H   0  0  0  0  0
   67.0489   85.2701   83.6712 H   0  0  0  0  0
 16  1  1  0  0  0
  1 18  2  0  0  0
  1 19  1  0  0  0
  2  3  2  0  0  0
 17  2  1  0  0  0
  3  4  1  0  0  0
  3  9  1  0  0  0
  4  5  1  0  0  0
  5  6  1  0  0  0
  6 22  2  0  0  0
  6 23  1  0  0  0
 12  7  1  0  0  0
 20  8  1  0  0  0
 11 10  1  0  0  0
 10 19  1  0  0  0
 12 11  4  0  0  0
 11 16  4  0  0  0
 13 12  4  0  0  0
 14 13  4  0  0  0
 13 20  1  0  0  0
 14 15  4  0  0  0
 14 17  1  0  0  0
 15 16  4  0  0  0
 15 21  1  0  0  0
  2 24  1  0  0  0
  4 25  1  0  0  0
  4 26  1  0  0  0
  5 27  1  0  0  0
  5 28  1  0  0  0
  7 29  1  0  0  0
  7 30  1  0  0  0
  7 31  1  0  0  0
  8 32  1  0  0  0
  8 33  1  0  0  0
  8 34  1  0  0  0
  9 35  1  0  0  0
  9 36  1  0  0  0
  9 37  1  0  0  0
 10 38  1  0  0  0
 10 39  1  0  0  0
 17 40  1  0  0  0
 17 41  1  0  0  0
 21 42  1  0  0  0
 23 43  1  0  0  0
M  END
$$$$
