### 
### Created by X-TOOL on Mon Sep 10 21:13:19 2018
### 

@<TRIPOS>MOLECULE
3wcf_ligand
   52    52     1     0     0
SMALL
GAST_HUCK


@<TRIPOS>ATOM
      1 OAD       -16.4000   50.8790  -48.4570 O.co2     1 BH8        -0.5611
      2 PAX       -15.6240   50.3950  -49.7820 P.3       1 BH8         0.0789
      3 OAE       -14.4020   51.4200  -49.9960 O.co2     1 BH8        -0.5611
      4 OAB       -16.5110   50.3120  -50.9630 O.co2     1 BH8        -0.5611
      5 CAU       -14.8620   48.7770  -49.3670 C.3       1 BH8         0.1132
      6 PAY       -13.8820   48.9520  -47.8210 P.3       1 BH8         0.0789
      7 OAF       -14.9430   48.8940  -46.6120 O.co2     1 BH8        -0.5611
      8 OAG       -12.9880   47.6190  -47.6910 O.co2     1 BH8        -0.5611
      9 OAC       -13.0650   50.1850  -47.7970 O.co2     1 BH8        -0.5611
     10 CAT       -13.9630   48.3550  -50.5300 C.3       1 BH8         0.0536
     11 NAW       -13.8990   46.8810  -50.6250 N.2       1 BH8        -0.2676
     12 CAJ       -12.8740   46.1320  -50.2190 C.2       1 BH8         0.1885
     13 CAI       -14.9710   46.1000  -50.7100 C.2       1 BH8         0.1185
     14 CAH       -14.6320   44.8820  -50.2980 C.2       1 BH8         0.1816
     15 NAV       -13.3420   44.9160  -49.9670 N.pl3     1 BH8        -0.1380
     16 CAS       -12.5910   43.8400  -49.2830 C.3       1 BH8         0.0877
     17 CAR       -11.8490   44.3460  -48.0450 C.3       1 BH8        -0.0215
     18 CAQ       -12.7870   44.4400  -46.8390 C.3       1 BH8        -0.0503
     19 CAP       -12.0010   43.9510  -45.6190 C.3       1 BH8        -0.0530
     20 CAO       -12.9000   43.8490  -44.3870 C.3       1 BH8        -0.0531
     21 CAN       -12.0760   43.2970  -43.2200 C.3       1 BH8        -0.0531
     22 CAM       -12.9960   43.0680  -42.0200 C.3       1 BH8        -0.0531
     23 CAL       -13.3770   41.5920  -41.9030 C.3       1 BH8        -0.0533
     24 CAK       -12.6600   41.0110  -40.6830 C.3       1 BH8        -0.0559
     25 CAA       -13.0750   41.8040  -39.4400 C.3       1 BH8        -0.0653
     26 H         -15.6478   48.0220  -49.2173 H         1 BH8         0.0688
     27 H         -12.9500   48.7518  -50.3673 H         1 BH8         0.0449
     28 H         -14.3696   48.7611  -51.4680 H         1 BH8         0.0449
     29 H         -11.8405   46.4585  -50.1133 H         1 BH8         0.1987
     30 H         -15.9571   46.4050  -51.0572 H         1 BH8         0.1406
     31 H         -15.2888   44.0152  -50.2415 H         1 BH8         0.2017
     32 H         -11.8583   43.4178  -49.9865 H         1 BH8         0.0657
     33 H         -13.2981   43.0556  -48.9754 H         1 BH8         0.0657
     34 H         -11.4355   45.3431  -48.2568 H         1 BH8         0.0294
     35 H         -11.0292   43.6516  -47.8089 H         1 BH8         0.0294
     36 H         -13.6709   43.8048  -46.9979 H         1 BH8         0.0266
     37 H         -13.1063   45.4820  -46.6894 H         1 BH8         0.0266
     38 H         -11.1853   44.6589  -45.4103 H         1 BH8         0.0265
     39 H         -11.5787   42.9592  -45.8381 H         1 BH8         0.0265
     40 H         -13.7414   43.1727  -44.5981 H         1 BH8         0.0265
     41 H         -13.2867   44.8456  -44.1278 H         1 BH8         0.0265
     42 H         -11.2912   44.0188  -42.9496 H         1 BH8         0.0265
     43 H         -11.6121   42.3443  -43.5151 H         1 BH8         0.0265
     44 H         -13.9096   43.6675  -42.1462 H         1 BH8         0.0265
     45 H         -12.4763   43.3803  -41.1022 H         1 BH8         0.0265
     46 H         -13.0652   41.0535  -42.8101 H         1 BH8         0.0265
     47 H         -14.4655   41.4969  -41.7760 H         1 BH8         0.0265
     48 H         -11.5716   41.0871  -40.8233 H         1 BH8         0.0263
     49 H         -12.9406   39.9548  -40.5579 H         1 BH8         0.0263
     50 H         -12.5645   41.3939  -38.5561 H         1 BH8         0.0230
     51 H         -14.1637   41.7276  -39.3029 H         1 BH8         0.0230
     52 H         -12.7947   42.8599  -39.5682 H         1 BH8         0.0230
@<TRIPOS>BOND
     1    1    2 ar 
     2    2    3 ar 
     3    2    4 ar 
     4    2    5 1  
     5    5    6 1  
     6    5   10 1  
     7    6    7 ar 
     8    6    8 ar 
     9    6    9 ar 
    10   10   11 1  
    11   11   12 2  
    12   11   13 1  
    13   12   15 1  
    14   13   14 2  
    15   14   15 1  
    16   15   16 1  
    17   16   17 1  
    18   17   18 1  
    19   18   19 1  
    20   19   20 1  
    21   20   21 1  
    22   21   22 1  
    23   22   23 1  
    24   23   24 1  
    25   24   25 1  
    26    5   26 1  
    27   10   27 1  
    28   10   28 1  
    29   12   29 1  
    30   13   30 1  
    31   14   31 1  
    32   16   32 1  
    33   16   33 1  
    34   17   34 1  
    35   17   35 1  
    36   18   36 1  
    37   18   37 1  
    38   19   38 1  
    39   19   39 1  
    40   20   40 1  
    41   20   41 1  
    42   21   42 1  
    43   21   43 1  
    44   22   44 1  
    45   22   45 1  
    46   23   46 1  
    47   23   47 1  
    48   24   48 1  
    49   24   49 1  
    50   25   50 1  
    51   25   51 1  
    52   25   52 1  
@<TRIPOS>SUBSTRUCTURE
     1 BH8         1

