3wcf_ligand
  -I-interpret- 

 56 56  0  0  0  0  0  0  0  0999 V2000
  -16.4000   50.8790  -48.4570 O   0  0  0  0  0
  -15.6240   50.3950  -49.7820 P   0  0  0  0  0
  -14.4020   51.4200  -49.9960 O   0  0  0  0  0
  -16.5110   50.3120  -50.9630 O   0  0  0  0  0
  -14.8620   48.7770  -49.3670 C   0  0  0  0  0
  -13.8820   48.9520  -47.8210 P   0  0  0  0  0
  -14.9430   48.8940  -46.6120 O   0  0  0  0  0
  -12.9880   47.6190  -47.6910 O   0  0  0  0  0
  -13.0650   50.1850  -47.7970 O   0  0  0  0  0
  -13.9630   48.3550  -50.5300 C   0  0  0  0  0
  -13.8990   46.8810  -50.6250 N   0  3  0  0  0
  -12.8740   46.1320  -50.2190 C   0  0  0  0  0
  -14.9710   46.1000  -50.7100 C   0  0  0  0  0
  -14.6320   44.8820  -50.2980 C   0  0  0  0  0
  -13.3420   44.9160  -49.9670 N   0  0  0  0  0
  -12.5910   43.8400  -49.2830 C   0  0  0  0  0
  -11.8490   44.3460  -48.0450 C   0  0  0  0  0
  -12.7870   44.4400  -46.8390 C   0  0  0  0  0
  -12.0010   43.9510  -45.6190 C   0  0  0  0  0
  -12.9000   43.8490  -44.3870 C   0  0  0  0  0
  -12.0760   43.2970  -43.2200 C   0  0  0  0  0
  -12.9960   43.0680  -42.0200 C   0  0  0  0  0
  -13.3770   41.5920  -41.9030 C   0  0  0  0  0
  -12.6600   41.0110  -40.6830 C   0  0  0  0  0
  -13.0750   41.8040  -39.4400 C   0  0  0  0  0
  -15.7834   50.9164  -47.7221 H   0  0  0  0  0
  -13.8583   51.4376  -49.2050 H   0  0  0  0  0
  -15.6274   48.0173  -49.2089 H   0  0  0  0  0
  -15.4477   48.0794  -46.6694 H   0  0  0  0  0
  -13.5599   46.8482  -47.7114 H   0  0  0  0  0
  -12.9587   48.7433  -50.3608 H   0  0  0  0  0
  -14.3738   48.7526  -51.4580 H   0  0  0  0  0
  -11.8395   46.4588  -50.1132 H   0  0  0  0  0
  -15.9580   46.4053  -51.0575 H   0  0  0  0  0
  -15.2894   44.0144  -50.2414 H   0  0  0  0  0
  -11.8531   43.4460  -49.9818 H   0  0  0  0  0
  -13.3045   43.0808  -48.9626 H   0  0  0  0  0
  -11.4540   45.3395  -48.2574 H   0  0  0  0  0
  -11.0473   43.6462  -47.8091 H   0  0  0  0  0
  -13.6762   43.8291  -46.9943 H   0  0  0  0  0
  -13.1251   45.4659  -46.6933 H   0  0  0  0  0
  -11.2038   44.6643  -45.4099 H   0  0  0  0  0
  -11.5977   42.9624  -45.8383 H   0  0  0  0  0
  -13.7381   43.1838  -44.5950 H   0  0  0  0  0
  -13.2895   44.8343  -44.1310 H   0  0  0  0  0
  -11.2963   44.0102  -42.9527 H   0  0  0  0  0
  -11.6136   42.3541  -43.5120 H   0  0  0  0  0
  -13.9038   43.6560  -42.1554 H   0  0  0  0  0
  -12.4723   43.3691  -41.1127 H   0  0  0  0  0
  -13.0804   41.0550  -42.8040 H   0  0  0  0  0
  -14.4562   41.4907  -41.7879 H   0  0  0  0  0
  -11.5811   41.0808  -40.8216 H   0  0  0  0  0
  -12.9327   39.9629  -40.5596 H   0  0  0  0  0
  -12.7968   42.8501  -39.5683 H   0  0  0  0  0
  -14.1539   41.7275  -39.3053 H   0  0  0  0  0
  -12.5685   41.3967  -38.5649 H   0  0  0  0  0
  1  2  1  0  0  0
  2  3  1  0  0  0
  2  4  2  0  0  0
  2  5  1  0  0  0
  5  6  1  0  0  0
  5 10  1  0  0  0
  6  7  1  0  0  0
  6  8  1  0  0  0
  6  9  2  0  0  0
 10 11  1  0  0  0
 11 12  4  0  0  0
 11 13  4  0  0  0
 12 15  4  0  0  0
 13 14  4  0  0  0
 14 15  4  0  0  0
 15 16  1  0  0  0
 16 17  1  0  0  0
 17 18  1  0  0  0
 18 19  1  0  0  0
 19 20  1  0  0  0
 20 21  1  0  0  0
 21 22  1  0  0  0
 22 23  1  0  0  0
 23 24  1  0  0  0
 24 25  1  0  0  0
  1 26  1  0  0  0
  3 27  1  0  0  0
  5 28  1  0  0  0
  7 29  1  0  0  0
  8 30  1  0  0  0
 10 31  1  0  0  0
 10 32  1  0  0  0
 12 33  1  0  0  0
 13 34  1  0  0  0
 14 35  1  0  0  0
 16 36  1  0  0  0
 16 37  1  0  0  0
 17 38  1  0  0  0
 17 39  1  0  0  0
 18 40  1  0  0  0
 18 41  1  0  0  0
 19 42  1  0  0  0
 19 43  1  0  0  0
 20 44  1  0  0  0
 20 45  1  0  0  0
 21 46  1  0  0  0
 21 47  1  0  0  0
 22 48  1  0  0  0
 22 49  1  0  0  0
 23 50  1  0  0  0
 23 51  1  0  0  0
 24 52  1  0  0  0
 24 53  1  0  0  0
 25 54  1  0  0  0
 25 55  1  0  0  0
 25 56  1  0  0  0
M  END
$$$$
