6e83_ligand
  -I-interpret- 

191190  0  0  0  0  0  0  0  0999 V2000
   16.8160   -3.5170    4.0750 N   0  3  0  0  0
   15.5080   -4.1820    4.0580 C   0  0  0  0  0
   14.6180   -3.6240    5.1480 C   0  0  0  0  0
   14.9630   -3.7490    6.3180 O   0  0  0  0  0
   15.6360   -5.7030    4.1690 C   0  0  0  0  0
   13.4530   -3.0580    4.8120 N   0  0  0  0  0
   12.4450   -2.7030    5.8290 C   0  0  0  0  0
   11.8940   -3.9540    6.5290 C   0  0  0  0  0
   11.5390   -4.9320    5.8700 O   0  0  0  0  0
   11.2860   -1.9160    5.1940 C   0  0  0  0  0
   11.6970   -0.4740    4.8550 C   0  0  0  0  0
   10.4960    0.3870    4.4480 C   0  0  0  0  0
    9.5450    0.5290    5.5740 N   0  0  0  0  0
    8.3250    1.0320    5.5250 C   0  0  0  0  0
    7.5420    0.9350    6.5550 N   0  0  0  0  0
    7.8500    1.6300    4.4700 N   0  0  0  0  0
   11.7840   -3.8910    7.8550 N   0  0  0  0  0
   11.1550   -4.9170    8.7140 C   0  0  0  0  0
   10.0240   -4.3540    9.5890 C   0  0  0  0  0
    9.1370   -5.1090    9.9920 O   0  0  0  0  0
   12.2090   -5.6240    9.5830 C   0  0  0  0  0
   12.8870   -4.6870   10.3810 O   0  0  0  0  0
   13.2810   -6.3340    8.7540 C   0  0  0  0  0
    9.9970   -3.0300    9.8370 N   0  0  0  0  0
    8.9010   -2.3140   10.5220 C   0  0  0  0  0
    7.8610   -1.7670    9.5270 C   0  0  0  0  0
    8.2140   -1.1120    8.5420 O   0  0  0  0  0
    9.5200   -1.2290   11.4270 C   0  0  0  0  0
    8.4910   -0.3340   12.1280 C   0  0  0  0  0
    9.1190    0.6950   13.0820 C   0  0  0  0  0
    9.6570    0.0550   14.3730 C   0  0  0  0  0
   10.1730    1.0880   15.3180 N   0  3  0  0  0
    6.5780   -2.0010    9.8120 N   0  0  0  0  0
    5.4410   -1.5040    9.0150 C   0  0  0  0  0
    5.2670    0.0250    9.1060 C   0  0  0  0  0
    5.6500    0.6580   10.0910 O   0  0  0  0  0
    4.1370   -2.2100    9.4370 C   0  0  0  0  0
    4.1630   -3.7290    9.1850 C   0  0  0  0  0
    2.7960   -4.4070    9.3480 C   0  0  0  0  0
    1.7560   -3.7920    9.5540 O   0  0  0  0  0
    2.7410   -5.7190    9.2510 N   0  0  0  0  0
    4.6750    0.6230    8.0670 N   0  0  0  0  0
    4.3690    2.0700    7.9940 C   0  0  0  0  0
    3.2760    2.4650    9.0040 C   0  0  0  0  0
    2.4160    1.6500    9.3410 O   0  0  0  0  0
    3.9670    2.4380    6.5530 C   0  0  0  0  0
    4.9810    1.9890    5.6740 O   0  0  0  0  0
    3.8100    3.9330    6.2920 C   0  0  0  0  0
    3.2760    3.7210    9.4700 N   0  0  0  0  0
    2.3130    4.2800   10.4330 C   0  0  0  0  0
    0.9000    4.5240    9.8330 C   0  0  0  0  0
    0.3990    5.6520    9.7960 O   0  0  0  0  0
    2.9440    5.5410   11.0470 C   0  0  0  0  0
    0.2620    3.4540    9.3310 N   0  0  0  0  0
   -1.0350    3.4660    8.6150 C   0  0  0  0  0
   -2.2440    3.8660    9.4720 C   0  0  0  0  0
   -3.2080    4.4100    8.9330 O   0  0  0  0  0
   -1.2500    2.1030    7.9180 C   0  0  0  0  0
   -1.1850    0.8750    8.8480 C   0  0  0  0  0
   -1.3460   -0.4330    8.0590 C   0  0  0  0  0
   -0.8520   -1.5940    8.8260 N   0  0  0  0  0
   -1.5400   -2.3840    9.6310 C   0  0  0  0  0
   -2.7880   -2.2090    9.9290 N   0  0  0  0  0
   -0.9900   -3.4130   10.1910 N   0  0  0  0  0
   -2.1980    3.5920   10.7860 N   0  0  0  0  0
   -3.2280    3.9390   11.7990 C   0  0  0  0  0
   -4.6580    3.4980   11.4070 C   0  0  0  0  0
   -5.6430    4.1930   11.6660 O   0  0  0  0  0
   -3.0810    5.4340   12.1630 C   0  0  0  0  0
   -3.6240    5.7720   13.5650 C   0  0  0  0  0
   -3.3930    7.2380   13.9670 C   0  0  0  0  0
   -4.2000    8.2150   13.0980 C   0  0  0  0  0
   -4.0110    9.6290   13.5360 N   0  3  0  0  0
   -4.7630    2.3450   10.7370 N   0  0  0  0  0
   -6.0120    1.7910   10.1860 C   0  0  0  0  0
   -5.9110    0.2750    9.9620 C   0  0  0  0  0
   -4.8480   -0.2340    9.5870 O   0  0  0  0  0
   -6.3520    2.4980    8.8640 C   0  0  0  0  0
   -7.5520    1.9810    8.3050 O   0  0  0  0  0
   -7.0200   -0.4420   10.1940 N   0  0  0  0  0
   -7.1900   -1.8950    9.9580 C   0  0  0  0  0
   -6.0340   -2.7120   10.5710 C   0  0  0  0  0
   -5.3560   -3.4770    9.8830 O   0  0  0  0  0
   -7.4390   -2.1850    8.4590 C   0  0  0  0  0
   -8.4260   -1.3080    7.9400 O   0  0  0  0  0
   -7.9840   -3.5930    8.1910 C   0  0  0  0  0
   -5.7590   -2.4610   11.8630 N   0  0  0  0  0
   -4.5920   -2.9290   12.6420 C   0  0  0  0  0
   -4.1200   -4.3550   12.3490 C   0  0  0  0  0
   -4.7880   -5.3120   12.7990 O   0  0  0  0  0
   -3.0680   -4.4850   11.6830 O   0  0  0  0  0
   16.6843   -2.5084    3.9991 H   0  0  0  0  0
   17.2949   -3.7338    4.9491 H   0  0  0  0  0
   17.3747   -3.8482    3.2885 H   0  0  0  0  0
   15.0438   -3.9756    3.0936 H   0  0  0  0  0
   16.0681   -5.9604    5.1360 H   0  0  0  0  0
   14.6492   -6.1570    4.0781 H   0  0  0  0  0
   16.2815   -6.0712    3.3716 H   0  0  0  0  0
   13.2572   -2.8675    3.8293 H   0  0  0  0  0
   12.9386   -2.0776    6.5728 H   0  0  0  0  0
   10.4633   -1.8799    5.9081 H   0  0  0  0  0
   10.9960   -2.4168    4.2703 H   0  0  0  0  0
   12.3919   -0.5068    4.0159 H   0  0  0  0  0
   12.1476   -0.0311    5.7432 H   0  0  0  0  0
    9.9845   -0.0947    3.6147 H   0  0  0  0  0
   10.8535    1.3765    4.1630 H   0  0  0  0  0
    9.8668    0.2033    6.4855 H   0  0  0  0  0
    7.8689    0.4704    7.4022 H   0  0  0  0  0
    6.8989    1.9985    4.4775 H   0  0  0  0  0
    8.4291    1.7299    3.6363 H   0  0  0  0  0
   12.1658   -3.0655    8.3167 H   0  0  0  0  0
   10.7005   -5.6456    8.0427 H   0  0  0  0  0
   11.6599   -6.3544   10.1772 H   0  0  0  0  0
   13.5413   -5.1397   10.9181 H   0  0  0  0  0
   12.8102   -7.0869    8.1218 H   0  0  0  0  0
   13.7977   -5.6051    8.1297 H   0  0  0  0  0
   13.9962   -6.8141    9.4219 H   0  0  0  0  0
   10.7968   -2.4780    9.5272 H   0  0  0  0  0
    8.3387   -3.0042   11.1510 H   0  0  0  0  0
   10.1254   -0.5849   10.7893 H   0  0  0  0  0
   10.0835   -1.7426   12.2059 H   0  0  0  0  0
    7.8467   -0.9810   12.7233 H   0  0  0  0  0
    7.9586    0.2196   11.3546 H   0  0  0  0  0
    8.3449    1.4102   13.3600 H   0  0  0  0  0
    9.9571    1.1629   12.5655 H   0  0  0  0  0
   10.4758   -0.6155   14.1120 H   0  0  0  0  0
    8.8426   -0.4826   14.8585 H   0  0  0  0  0
   10.5213    0.6320   16.1613 H   0  0  0  0  0
   10.9303    1.6064   14.8728 H   0  0  0  0  0
    9.4189    1.7294   15.5637 H   0  0  0  0  0
    6.3697   -2.5622   10.6379 H   0  0  0  0  0
    5.6647   -1.7387    7.9743 H   0  0  0  0  0
    3.3257   -1.7897    8.8426 H   0  0  0  0  0
    4.0080   -2.0543   10.5081 H   0  0  0  0  0
    4.8344   -4.1695    9.9221 H   0  0  0  0  0
    4.4810   -3.8821    8.1537 H   0  0  0  0  0
    1.8469   -6.2005    9.3470 H   0  0  0  0  0
    3.5925   -6.2539    9.0798 H   0  0  0  0  0
    4.4162    0.0423    7.2694 H   0  0  0  0  0
    5.2625    2.6333    8.2630 H   0  0  0  0  0
    2.9965    1.9678    6.3942 H   0  0  0  0  0
    4.7425    2.2124    4.7713 H   0  0  0  0  0
    3.0366    4.3355    6.9462 H   0  0  0  0  0
    4.7556    4.4368    6.4925 H   0  0  0  0  0
    3.5261    4.0910    5.2516 H   0  0  0  0  0
    4.0071    4.3445    9.1277 H   0  0  0  0  0
    2.1226    3.5484   11.2182 H   0  0  0  0  0
    3.8725    5.2726   11.5510 H   0  0  0  0  0
    3.1533    6.2624   10.2572 H   0  0  0  0  0
    2.2519    5.9786   11.7665 H   0  0  0  0  0
    0.7130    2.5475    9.4544 H   0  0  0  0  0
   -0.9703    4.2593    7.8702 H   0  0  0  0  0
   -0.4437    1.9906    7.1932 H   0  0  0  0  0
   -2.2539    2.1225    7.4938 H   0  0  0  0  0
   -1.9967    0.9452    9.5721 H   0  0  0  0  0
   -0.2131    0.8648    9.3413 H   0  0  0  0  0
   -0.7652   -0.3548    7.1399 H   0  0  0  0  0
   -2.4057   -0.5824    7.8520 H   0  0  0  0  0
    0.1389   -1.8122    8.7219 H   0  0  0  0  0
   -3.2575   -2.8581   10.5604 H   0  0  0  0  0
   -3.3015   -1.4220    9.5324 H   0  0  0  0  0
   -0.0084   -3.6262   10.0139 H   0  0  0  0  0
   -1.3728    3.0957   11.1224 H   0  0  0  0  0
   -3.0519    3.3584   12.7046 H   0  0  0  0  0
   -3.6565    6.0093   11.4377 H   0  0  0  0  0
   -2.0178    5.6739   12.1533 H   0  0  0  0  0
   -3.0958    5.1454   14.2836 H   0  0  0  0  0
   -4.7000    5.5985   13.5531 H   0  0  0  0  0
   -2.3346    7.4623   13.8343 H   0  0  0  0  0
   -3.7151    7.3599   15.0012 H   0  0  0  0  0
   -5.2568    7.9650   13.1912 H   0  0  0  0  0
   -3.8537    8.1253   12.0684 H   0  0  0  0  0
   -4.5605   10.2455   12.9373 H   0  0  0  0  0
   -4.3199    9.7283   14.5030 H   0  0  0  0  0
   -3.0239    9.8763   13.4660 H   0  0  0  0  0
   -3.9089    1.8055   10.5961 H   0  0  0  0  0
   -6.8069    1.9646   10.9114 H   0  0  0  0  0
   -5.5375    2.3322    8.1588 H   0  0  0  0  0
   -6.4872    3.5616    9.0605 H   0  0  0  0  0
   -7.7428    2.4371    7.4821 H   0  0  0  0  0
   -7.8241    0.0612   10.5691 H   0  0  0  0  0
   -8.0847   -2.2302   10.4827 H   0  0  0  0  0
   -6.4631   -2.0616    7.9894 H   0  0  0  0  0
   -8.5676   -1.5017    7.0105 H   0  0  0  0  0
   -7.2699   -4.3326    8.5530 H   0  0  0  0  0
   -8.9339   -3.7185    8.7106 H   0  0  0  0  0
   -8.1343   -3.7252    7.1195 H   0  0  0  0  0
   -6.4326   -1.8812   12.3635 H   0  0  0  0  0
   -4.8966   -2.9157   13.6885 H   0  0  0  0  0
   -3.7636   -2.2715   12.3783 H   0  0  0  0  0
   -2.7313   -3.6177   11.4462 H   0  0  0  0  0
  1  2  1  0  0  0
  2  3  1  0  0  0
  2  5  1  0  0  0
  3  4  2  0  0  0
  3  6  1  0  0  0
  6  7  1  0  0  0
  7  8  1  0  0  0
  7 10  1  0  0  0
  8  9  2  0  0  0
  8 17  1  0  0  0
 10 11  1  0  0  0
 11 12  1  0  0  0
 12 13  1  0  0  0
 13 14  1  0  0  0
 14 15  2  0  0  0
 14 16  1  0  0  0
 17 18  1  0  0  0
 18 19  1  0  0  0
 18 21  1  0  0  0
 19 20  2  0  0  0
 19 24  1  0  0  0
 21 22  1  0  0  0
 21 23  1  0  0  0
 24 25  1  0  0  0
 25 26  1  0  0  0
 25 28  1  0  0  0
 26 27  2  0  0  0
 26 33  1  0  0  0
 28 29  1  0  0  0
 29 30  1  0  0  0
 30 31  1  0  0  0
 31 32  1  0  0  0
 33 34  1  0  0  0
 34 35  1  0  0  0
 34 37  1  0  0  0
 35 36  2  0  0  0
 35 42  1  0  0  0
 37 38  1  0  0  0
 38 39  1  0  0  0
 39 40  2  0  0  0
 39 41  1  0  0  0
 42 43  1  0  0  0
 43 44  1  0  0  0
 43 46  1  0  0  0
 44 45  2  0  0  0
 44 49  1  0  0  0
 46 47  1  0  0  0
 46 48  1  0  0  0
 49 50  1  0  0  0
 50 51  1  0  0  0
 50 53  1  0  0  0
 51 52  2  0  0  0
 51 54  1  0  0  0
 54 55  1  0  0  0
 55 56  1  0  0  0
 55 58  1  0  0  0
 56 57  2  0  0  0
 56 65  1  0  0  0
 58 59  1  0  0  0
 59 60  1  0  0  0
 60 61  1  0  0  0
 61 62  1  0  0  0
 62 63  1  0  0  0
 62 64  2  0  0  0
 65 66  1  0  0  0
 66 67  1  0  0  0
 66 69  1  0  0  0
 67 68  2  0  0  0
 67 74  1  0  0  0
 69 70  1  0  0  0
 70 71  1  0  0  0
 71 72  1  0  0  0
 72 73  1  0  0  0
 74 75  1  0  0  0
 75 76  1  0  0  0
 75 78  1  0  0  0
 76 77  2  0  0  0
 76 80  1  0  0  0
 78 79  1  0  0  0
 80 81  1  0  0  0
 81 82  1  0  0  0
 81 84  1  0  0  0
 82 83  2  0  0  0
 82 87  1  0  0  0
 84 85  1  0  0  0
 84 86  1  0  0  0
 87 88  1  0  0  0
 88 89  1  0  0  0
 89 90  2  0  0  0
 89 91  1  0  0  0
  1 92  1  0  0  0
  1 93  1  0  0  0
  1 94  1  0  0  0
  2 95  1  0  0  0
  5 96  1  0  0  0
  5 97  1  0  0  0
  5 98  1  0  0  0
  6 99  1  0  0  0
  7100  1  0  0  0
 10101  1  0  0  0
 10102  1  0  0  0
 11103  1  0  0  0
 11104  1  0  0  0
 12105  1  0  0  0
 12106  1  0  0  0
 13107  1  0  0  0
 15108  1  0  0  0
 16109  1  0  0  0
 16110  1  0  0  0
 17111  1  0  0  0
 18112  1  0  0  0
 21113  1  0  0  0
 22114  1  0  0  0
 23115  1  0  0  0
 23116  1  0  0  0
 23117  1  0  0  0
 24118  1  0  0  0
 25119  1  0  0  0
 28120  1  0  0  0
 28121  1  0  0  0
 29122  1  0  0  0
 29123  1  0  0  0
 30124  1  0  0  0
 30125  1  0  0  0
 31126  1  0  0  0
 31127  1  0  0  0
 32128  1  0  0  0
 32129  1  0  0  0
 32130  1  0  0  0
 33131  1  0  0  0
 34132  1  0  0  0
 37133  1  0  0  0
 37134  1  0  0  0
 38135  1  0  0  0
 38136  1  0  0  0
 41137  1  0  0  0
 41138  1  0  0  0
 42139  1  0  0  0
 43140  1  0  0  0
 46141  1  0  0  0
 47142  1  0  0  0
 48143  1  0  0  0
 48144  1  0  0  0
 48145  1  0  0  0
 49146  1  0  0  0
 50147  1  0  0  0
 53148  1  0  0  0
 53149  1  0  0  0
 53150  1  0  0  0
 54151  1  0  0  0
 55152  1  0  0  0
 58153  1  0  0  0
 58154  1  0  0  0
 59155  1  0  0  0
 59156  1  0  0  0
 60157  1  0  0  0
 60158  1  0  0  0
 61159  1  0  0  0
 63160  1  0  0  0
 63161  1  0  0  0
 64162  1  0  0  0
 65163  1  0  0  0
 66164  1  0  0  0
 69165  1  0  0  0
 69166  1  0  0  0
 70167  1  0  0  0
 70168  1  0  0  0
 71169  1  0  0  0
 71170  1  0  0  0
 72171  1  0  0  0
 72172  1  0  0  0
 73173  1  0  0  0
 73174  1  0  0  0
 73175  1  0  0  0
 74176  1  0  0  0
 75177  1  0  0  0
 78178  1  0  0  0
 78179  1  0  0  0
 79180  1  0  0  0
 80181  1  0  0  0
 81182  1  0  0  0
 84183  1  0  0  0
 85184  1  0  0  0
 86185  1  0  0  0
 86186  1  0  0  0
 86187  1  0  0  0
 87188  1  0  0  0
 88189  1  0  0  0
 88190  1  0  0  0
 91191  1  0  0  0
M  END
$$$$
