### 
### Created by X-TOOL on Wed Jan  1 15:39:38 2020
### 

@<TRIPOS>MOLECULE
6e83_ligand
  192   191     1     0     0
SMALL
GAST_HUCK


@<TRIPOS>ATOM
      1 N          16.8160   -3.5170    4.0750 N.4       1 ALA         0.2377
      2 CA         15.5080   -4.1820    4.0580 C.3       1 ALA         0.0621
      3 C          14.6180   -3.6240    5.1480 C.2       1 ALA         0.2264
      4 O          14.9630   -3.7490    6.3180 O.2       1 ALA        -0.3907
      5 CB         15.6360   -5.7030    4.1690 C.3       1 ALA        -0.0040
      6 N          13.4530   -3.0580    4.8120 N.am      1 ARG        -0.2610
      7 CA         12.4450   -2.7030    5.8290 C.3       1 ARG         0.1312
      8 C          11.8940   -3.9540    6.5290 C.2       1 ARG         0.2040
      9 O          11.5390   -4.9320    5.8700 O.2       1 ARG        -0.3944
     10 CB         11.2860   -1.9160    5.1940 C.3       1 ARG        -0.0092
     11 CG         11.6970   -0.4740    4.8550 C.3       1 ARG        -0.0156
     12 CD         10.4960    0.3870    4.4480 C.3       1 ARG         0.0627
     13 NE          9.5450    0.5290    5.5740 N.pl3     1 ARG        -0.2723
     14 CZ          8.3250    1.0320    5.5250 C.cat     1 ARG         0.2882
     15 NH1         7.5420    0.9350    6.5550 N.pl3     1 ARG        -0.2849
     16 NH2         7.8500    1.6300    4.4700 N.pl3     1 ARG        -0.2849
     17 N          11.7840   -3.8910    7.8550 N.am      1 THR        -0.2613
     18 CA         11.1550   -4.9170    8.7140 C.3       1 THR         0.1565
     19 C          10.0240   -4.3540    9.5890 C.2       1 THR         0.2065
     20 O           9.1370   -5.1090    9.9920 O.2       1 THR        -0.3943
     21 CB         12.2090   -5.6240    9.5830 C.3       1 THR         0.0924
     22 OG1        12.8870   -4.6870   10.3810 O.3       1 THR        -0.3874
     23 CG2        13.2810   -6.3340    8.7540 C.3       1 THR        -0.0346
     24 N           9.9970   -3.0300    9.8370 N.am      1 LYS        -0.2637
     25 CA          8.9010   -2.3140   10.5220 C.3       1 LYS         0.1310
     26 C           7.8610   -1.7670    9.5270 C.2       1 LYS         0.2039
     27 O           8.2140   -1.1120    8.5420 O.2       1 LYS        -0.3944
     28 CB          9.5200   -1.2290   11.4270 C.3       1 LYS        -0.0122
     29 CG          8.4910   -0.3340   12.1280 C.3       1 LYS        -0.0440
     30 CD          9.1190    0.6950   13.0820 C.3       1 LYS        -0.0124
     31 CE          9.6570    0.0550   14.3730 C.3       1 LYS        -0.0354
     32 NZ         10.1730    1.0880   15.3180 N.4       1 LYS         0.2185
     33 N           6.5780   -2.0010    9.8120 N.am      1 GLN        -0.2636
     34 CA          5.4410   -1.5040    9.0150 C.3       1 GLN         0.1330
     35 C           5.2670    0.0250    9.1060 C.2       1 GLN         0.2041
     36 O           5.6500    0.6580   10.0910 O.2       1 GLN        -0.3944
     37 CB          4.1370   -2.2100    9.4370 C.3       1 GLN         0.0045
     38 CG          4.1630   -3.7290    9.1850 C.3       1 GLN         0.0412
     39 CD          2.7960   -4.4070    9.3480 C.2       1 GLN         0.1737
     40 OE1         1.7560   -3.7920    9.5540 O.2       1 GLN        -0.3973
     41 NE2         2.7410   -5.7190    9.2510 N.am      1 GLN        -0.3009
     42 N           4.6750    0.6230    8.0670 N.am      1 THR        -0.2613
     43 CA          4.3690    2.0700    7.9940 C.3       1 THR         0.1565
     44 C           3.2760    2.4650    9.0040 C.2       1 THR         0.2065
     45 O           2.4160    1.6500    9.3410 O.2       1 THR        -0.3943
     46 CB          3.9670    2.4380    6.5530 C.3       1 THR         0.0924
     47 OG1         4.9810    1.9890    5.6740 O.3       1 THR        -0.3874
     48 CG2         3.8100    3.9330    6.2920 C.3       1 THR        -0.0346
     49 N           3.2760    3.7210    9.4700 N.am      1 ALA        -0.2639
     50 CA          2.3130    4.2800   10.4330 C.3       1 ALA         0.1282
     51 C           0.9000    4.5240    9.8330 C.2       1 ALA         0.2036
     52 O           0.3990    5.6520    9.7960 O.2       1 ALA        -0.3944
     53 CB          2.9440    5.5410   11.0470 C.3       1 ALA        -0.0244
     54 N           0.2620    3.4540    9.3310 N.am      1 ARG        -0.2637
     55 CA         -1.0350    3.4660    8.6150 C.3       1 ARG         0.1311
     56 C          -2.2440    3.8660    9.4720 C.2       1 ARG         0.2039
     57 O          -3.2080    4.4100    8.9330 O.2       1 ARG        -0.3944
     58 CB         -1.2500    2.1030    7.9180 C.3       1 ARG        -0.0092
     59 CG         -1.1850    0.8750    8.8480 C.3       1 ARG        -0.0156
     60 CD         -1.3460   -0.4330    8.0590 C.3       1 ARG         0.0627
     61 NE         -0.8520   -1.5940    8.8260 N.pl3     1 ARG        -0.2723
     62 CZ         -1.5400   -2.3840    9.6310 C.cat     1 ARG         0.2882
     63 NH1        -2.7880   -2.2090    9.9290 N.pl3     1 ARG        -0.2849
     64 NH2        -0.9900   -3.4130   10.1910 N.pl3     1 ARG        -0.2849
     65 N          -2.1980    3.5920   10.7860 N.am      1 LYS        -0.2637
     66 CA         -3.2280    3.9390   11.7990 C.3       1 LYS         0.1310
     67 C          -4.6580    3.4980   11.4070 C.2       1 LYS         0.2040
     68 O          -5.6430    4.1930   11.6660 O.2       1 LYS        -0.3944
     69 CB         -3.0810    5.4340   12.1630 C.3       1 LYS        -0.0122
     70 CG         -3.6240    5.7720   13.5650 C.3       1 LYS        -0.0440
     71 CD         -3.3930    7.2380   13.9670 C.3       1 LYS        -0.0124
     72 CE         -4.2000    8.2150   13.0980 C.3       1 LYS        -0.0354
     73 NZ         -4.0110    9.6290   13.5360 N.4       1 LYS         0.2185
     74 N          -4.7630    2.3450   10.7370 N.am      1 SER        -0.2616
     75 CA         -6.0120    1.7910   10.1860 C.3       1 SER         0.1539
     76 C          -5.9110    0.2750    9.9620 C.2       1 SER         0.2063
     77 O          -4.8480   -0.2340    9.5870 O.2       1 SER        -0.3943
     78 CB         -6.3520    2.4980    8.8640 C.3       1 SER         0.0843
     79 OG         -7.5520    1.9810    8.3050 O.3       1 SER        -0.3903
     80 N          -7.0200   -0.4420   10.1940 N.am      1 THR        -0.2613
     81 CA         -7.1900   -1.8950    9.9580 C.3       1 THR         0.1564
     82 C          -6.0340   -2.7120   10.5710 C.2       1 THR         0.2057
     83 O          -5.3560   -3.4770    9.8830 O.2       1 THR        -0.3943
     84 CB         -7.4390   -2.1850    8.4590 C.3       1 THR         0.0924
     85 OG1        -8.4260   -1.3080    7.9400 O.3       1 THR        -0.3874
     86 CG2        -7.9840   -3.5930    8.1910 C.3       1 THR        -0.0346
     87 N          -5.7590   -2.4610   11.8630 N.am      1 GLY        -0.2721
     88 CA         -4.5920   -2.9290   12.6420 C.3       1 GLY         0.0833
     89 C          -4.1200   -4.3550   12.3490 C.2       1 GLY         0.0570
     90 O          -4.7880   -5.3120   12.7990 O.co2     1 GLY        -0.5669
     91 OXT        -3.0680   -4.4850   11.6830 O.co2     1 GLY        -0.5669
     92 H1         17.3965   -3.8987    3.3447 H         1 ALA         0.2015
     93 H2         17.2578   -3.6673    4.9684 H         1 ALA         0.2015
     94 H3         16.6922   -2.5282    3.9235 H         1 ALA         0.2015
     95 H4         15.0338   -3.9603    3.0906 H         1 ALA         0.1095
     96 H5         14.6344   -6.1574    4.1522 H         1 ALA         0.0310
     97 H6         16.1397   -5.9607    5.1123 H         1 ALA         0.0310
     98 H7         16.2257   -6.0841    3.3223 H         1 ALA         0.0310
     99 H8         13.2610   -2.8712    3.8485 H         1 ARG         0.1884
    100 H9         12.9283   -2.0660    6.5844 H         1 ARG         0.0800
    101 H10        10.4434   -1.8898    5.9006 H         1 ARG         0.0313
    102 H11        10.9739   -2.4244    4.2698 H         1 ARG         0.0313
    103 H12        12.4157   -0.4963    4.0226 H         1 ARG         0.0301
    104 H13        12.1730   -0.0238    5.7385 H         1 ARG         0.0301
    105 H14         9.9821   -0.0888    3.5998 H         1 ARG         0.0689
    106 H15        10.8518    1.3839    4.1487 H         1 ARG         0.0689
    107 H16         9.8700    0.2001    6.4944 H         1 ARG         0.2642
    108 H17         6.5903    1.3272    6.5172 H         1 ARG         0.2615
    109 H18         7.8721    0.4658    7.4105 H         1 ARG         0.2615
    110 H19         8.4348    1.7309    3.6281 H         1 ARG         0.2615
    111 H20         6.8896    2.0021    4.4775 H         1 ARG         0.2615
    112 H21        12.1583   -3.0817    8.3076 H         1 THR         0.1884
    113 H22        10.7094   -5.6710    8.0485 H         1 THR         0.0826
    114 H23        11.6984   -6.3589   10.2227 H         1 THR         0.0639
    115 H24        13.3189   -4.0510    9.8229 H         1 THR         0.2101
    116 H25        14.0034   -6.8190    9.4270 H         1 THR         0.0257
    117 H26        13.8033   -5.5994    8.1235 H         1 THR         0.0257
    118 H27        12.8071   -7.0942    8.1156 H         1 THR         0.0257
    119 H28        10.7811   -2.4888    9.5333 H         1 LYS         0.1883
    120 H29         8.3785   -3.0322   11.1709 H         1 LYS         0.0800
    121 H30        10.1672   -0.5908   10.8075 H         1 LYS         0.0312
    122 H31        10.1261   -1.7272   12.1980 H         1 LYS         0.0312
    123 H32         7.8099   -0.9748   12.7072 H         1 LYS         0.0269
    124 H33         7.9201    0.2075   11.3594 H         1 LYS         0.0269
    125 H34         8.3545    1.4391   13.3500 H         1 LYS         0.0317
    126 H35         9.9508    1.1942   12.5634 H         1 LYS         0.0317
    127 H36        10.4739   -0.6357   14.1167 H         1 LYS         0.0813
    128 H37         8.8446   -0.5031   14.8614 H         1 LYS         0.0813
    129 H38        10.5175    0.6384   16.1518 H         1 LYS         0.1994
    130 H39         9.4285    1.7224   15.5615 H         1 LYS         0.1994
    131 H40        10.9216    1.6009   14.8791 H         1 LYS         0.1994
    132 H41         6.3738   -2.5512   10.6217 H         1 GLN         0.1883
    133 H42         5.6398   -1.7543    7.9625 H         1 GLN         0.0801
    134 H43         3.3031   -1.7749    8.8667 H         1 GLN         0.0337
    135 H44         3.9767   -2.0362   10.5113 H         1 GLN         0.0337
    136 H45         4.8645   -4.1869    9.8979 H         1 GLN         0.0504
    137 H46         4.5169   -3.9043    8.1583 H         1 GLN         0.0504
    138 H47         1.8656   -6.1916    9.3523 H         1 GLN         0.1814
    139 H48         3.5747   -6.2428    9.0760 H         1 GLN         0.1814
    140 H49         4.4213    0.0537    7.2850 H         1 THR         0.1884
    141 H50         5.2816    2.6283    8.2496 H         1 THR         0.0826
    142 H51         3.0162    1.9362    6.3204 H         1 THR         0.0639
    143 H52         4.7449    2.2101    4.7808 H         1 THR         0.2101
    144 H53         3.5235    4.0938    5.2422 H         1 THR         0.0257
    145 H54         4.7637    4.4426    6.4939 H         1 THR         0.0257
    146 H55         3.0296    4.3404    6.9516 H         1 THR         0.0257
    147 H56         3.9928    4.3322    9.1344 H         1 ALA         0.1883
    148 H57         2.1858    3.5443   11.2408 H         1 ALA         0.0797
    149 H58         2.2464    5.9835   11.7733 H         1 ALA         0.0277
    150 H59         3.1556    6.2700   10.2509 H         1 ALA         0.0277
    151 H60         3.8811    5.2714   11.5560 H         1 ALA         0.0277
    152 H61         0.7042    2.5653    9.4519 H         1 ARG         0.1883
    153 H62        -0.9527    4.2276    7.8256 H         1 ARG         0.0800
    154 H63        -0.4735    1.9882    7.1474 H         1 ARG         0.0313
    155 H64        -2.2410    2.1169    7.4409 H         1 ARG         0.0313
    156 H65        -1.9921    0.9461    9.5920 H         1 ARG         0.0301
    157 H66        -0.2124    0.8659    9.3618 H         1 ARG         0.0301
    158 H67        -0.7768   -0.3565    7.1208 H         1 ARG         0.0689
    159 H68        -2.4114   -0.5833    7.8303 H         1 ARG         0.0689
    160 H69         0.1487   -1.8143    8.7209 H         1 ARG         0.2642
    161 H70        -3.2626   -2.8656   10.5650 H         1 ARG         0.2615
    162 H71        -3.3061   -1.4132    9.5300 H         1 ARG         0.2615
    163 H72         0.0007   -3.6293   10.0106 H         1 ARG         0.2615
    164 H73        -1.5430   -4.0156   10.8170 H         1 ARG         0.2615
    165 H74        -1.3890    3.1054   11.1158 H         1 LYS         0.1883
    166 H75        -2.9831    3.3706   12.7084 H         1 LYS         0.0800
    167 H76        -3.6321    6.0306   11.4212 H         1 LYS         0.0312
    168 H77        -2.0141    5.6995   12.1277 H         1 LYS         0.0312
    169 H78        -3.1223    5.1249   14.2996 H         1 LYS         0.0269
    170 H79        -4.7056    5.5721   13.5785 H         1 LYS         0.0269
    171 H80        -2.3231    7.4699   13.8596 H         1 LYS         0.0317
    172 H81        -3.6928    7.3683   15.0173 H         1 LYS         0.0317
    173 H82        -5.2673    7.9589   13.1709 H         1 LYS         0.0813
    174 H83        -3.8703    8.1185   12.0530 H         1 LYS         0.0813
    175 H84        -4.5536   10.2392   12.9450 H         1 LYS         0.1994
    176 H85        -3.0358    9.8746   13.4672 H         1 LYS         0.1994
    177 H86        -4.3159    9.7284   14.4916 H         1 LYS         0.1994
    178 H87        -3.9256    1.8161   10.5989 H         1 SER         0.1884
    179 H88        -6.8222    1.9803   10.9055 H         1 SER         0.0823
    180 H89        -5.5280    2.3448    8.1516 H         1 SER         0.0606
    181 H90        -6.4777    3.5742    9.0534 H         1 SER         0.0606
    182 H91        -7.4469    1.0520    8.1364 H         1 SER         0.2097
    183 H92        -7.8083    0.0513   10.5617 H         1 THR         0.1884
    184 H93        -8.1021   -2.2017   10.4910 H         1 THR         0.0826
    185 H94        -6.4911   -2.0497    7.9176 H         1 THR         0.0639
    186 H95        -8.1321   -0.4098    8.0363 H         1 THR         0.2101
    187 H96        -8.1361   -3.7276    7.1099 H         1 THR         0.0257
    188 H97        -8.9427   -3.7210    8.7148 H         1 THR         0.0257
    189 H98        -7.2641   -4.3404    8.5559 H         1 THR         0.0257
    190 H99        -6.4194   -1.8925   12.3536 H         1 GLY         0.1873
    191 H100       -4.8549   -2.8737   13.7087 H         1 GLY         0.0689
    192 H101       -3.7537   -2.2475   12.4351 H         1 GLY         0.0689
@<TRIPOS>BOND
     1    1    2 1  
     2    2    3 1  
     3    2    5 1  
     4    3    4 2  
     5    3    6 am 
     6    6    7 1  
     7    7    8 1  
     8    7   10 1  
     9    8    9 2  
    10    8   17 am 
    11   10   11 1  
    12   11   12 1  
    13   12   13 1  
    14   13   14 ar 
    15   14   15 ar 
    16   14   16 ar 
    17   17   18 1  
    18   18   19 1  
    19   18   21 1  
    20   19   20 2  
    21   19   24 am 
    22   21   22 1  
    23   21   23 1  
    24   24   25 1  
    25   25   26 1  
    26   25   28 1  
    27   26   27 2  
    28   26   33 am 
    29   28   29 1  
    30   29   30 1  
    31   30   31 1  
    32   31   32 1  
    33   33   34 1  
    34   34   35 1  
    35   34   37 1  
    36   35   36 2  
    37   35   42 am 
    38   37   38 1  
    39   38   39 1  
    40   39   40 2  
    41   39   41 am 
    42   42   43 1  
    43   43   44 1  
    44   43   46 1  
    45   44   45 2  
    46   44   49 am 
    47   46   47 1  
    48   46   48 1  
    49   49   50 1  
    50   50   51 1  
    51   50   53 1  
    52   51   52 2  
    53   51   54 am 
    54   54   55 1  
    55   55   56 1  
    56   55   58 1  
    57   56   57 2  
    58   56   65 am 
    59   58   59 1  
    60   59   60 1  
    61   60   61 1  
    62   61   62 ar 
    63   62   63 ar 
    64   62   64 ar 
    65   65   66 1  
    66   66   67 1  
    67   66   69 1  
    68   67   68 2  
    69   67   74 am 
    70   69   70 1  
    71   70   71 1  
    72   71   72 1  
    73   72   73 1  
    74   74   75 1  
    75   75   76 1  
    76   75   78 1  
    77   76   77 2  
    78   76   80 am 
    79   78   79 1  
    80   80   81 1  
    81   81   82 1  
    82   81   84 1  
    83   82   83 2  
    84   82   87 am 
    85   84   85 1  
    86   84   86 1  
    87   87   88 1  
    88   88   89 1  
    89   89   90 ar 
    90   89   91 ar 
    91    1   92 1  
    92    1   93 1  
    93    1   94 1  
    94    2   95 1  
    95    5   96 1  
    96    5   97 1  
    97    5   98 1  
    98    6   99 1  
    99    7  100 1  
   100   10  101 1  
   101   10  102 1  
   102   11  103 1  
   103   11  104 1  
   104   12  105 1  
   105   12  106 1  
   106   13  107 1  
   107   15  108 1  
   108   15  109 1  
   109   16  110 1  
   110   16  111 1  
   111   17  112 1  
   112   18  113 1  
   113   21  114 1  
   114   22  115 1  
   115   23  116 1  
   116   23  117 1  
   117   23  118 1  
   118   24  119 1  
   119   25  120 1  
   120   28  121 1  
   121   28  122 1  
   122   29  123 1  
   123   29  124 1  
   124   30  125 1  
   125   30  126 1  
   126   31  127 1  
   127   31  128 1  
   128   32  129 1  
   129   32  130 1  
   130   32  131 1  
   131   33  132 1  
   132   34  133 1  
   133   37  134 1  
   134   37  135 1  
   135   38  136 1  
   136   38  137 1  
   137   41  138 1  
   138   41  139 1  
   139   42  140 1  
   140   43  141 1  
   141   46  142 1  
   142   47  143 1  
   143   48  144 1  
   144   48  145 1  
   145   48  146 1  
   146   49  147 1  
   147   50  148 1  
   148   53  149 1  
   149   53  150 1  
   150   53  151 1  
   151   54  152 1  
   152   55  153 1  
   153   58  154 1  
   154   58  155 1  
   155   59  156 1  
   156   59  157 1  
   157   60  158 1  
   158   60  159 1  
   159   61  160 1  
   160   63  161 1  
   161   63  162 1  
   162   64  163 1  
   163   64  164 1  
   164   65  165 1  
   165   66  166 1  
   166   69  167 1  
   167   69  168 1  
   168   70  169 1  
   169   70  170 1  
   170   71  171 1  
   171   71  172 1  
   172   72  173 1  
   173   72  174 1  
   174   73  175 1  
   175   73  176 1  
   176   73  177 1  
   177   74  178 1  
   178   75  179 1  
   179   78  180 1  
   180   78  181 1  
   181   79  182 1  
   182   80  183 1  
   183   81  184 1  
   184   84  185 1  
   185   85  186 1  
   186   86  187 1  
   187   86  188 1  
   188   86  189 1  
   189   87  190 1  
   190   88  191 1  
   191   88  192 1  
@<TRIPOS>SUBSTRUCTURE
     1 ALA         1

