4p0a_ligand
  -I-interpret- 

 64 64  0  0  0  0  0  0  0  0999 V2000
   13.2430  -11.9290   -1.1980 N   0  3  0  0  0
   12.6190  -11.3200   -2.3730 C   0  0  0  0  0
   11.2590  -10.6960   -2.0280 C   0  0  0  0  0
   10.5570  -11.1750   -1.1420 O   0  0  0  0  0
   12.4540  -12.3360   -3.5000 C   0  0  0  0  0
   12.0670  -11.6790   -4.8130 C   0  0  0  0  0
   12.9690  -11.1910   -5.5410 O   0  0  0  0  0
   10.8490  -11.6020   -5.0870 O   0  0  0  0  0
   10.9000   -9.6210   -2.7300 N   0  0  0  0  0
    9.7360   -8.8010   -2.3730 C   0  0  0  0  0
    8.4150   -9.1420   -3.1100 C   0  0  0  0  0
    7.3520   -8.6270   -2.7480 O   0  0  0  0  0
   10.0750   -7.3110   -2.5810 C   0  0  0  0  0
   11.3580   -6.7690   -1.9320 C   0  0  0  0  0
   11.4810   -5.2470   -2.0700 C   0  0  0  0  0
   11.4100   -7.1680   -0.4830 C   0  0  0  0  0
    8.4670  -10.0040   -4.1210 N   0  0  0  0  0
    7.2780  -10.2460   -4.9320 C   0  0  0  0  0
    6.7450  -11.6910   -4.8770 C   0  0  0  0  0
    5.7840  -12.0300   -5.5730 O   0  0  0  0  0
    7.5410   -9.8280   -6.3820 C   0  0  0  0  0
    8.0090   -8.3960   -6.5190 C   0  0  0  0  0
    9.3660   -8.0800   -6.4850 C   0  0  0  0  0
    7.0980   -7.3570   -6.6370 C   0  0  0  0  0
    9.7970   -6.7610   -6.5920 C   0  0  0  0  0
    7.5170   -6.0350   -6.7500 C   0  0  0  0  0
    8.8640   -5.7490   -6.7240 C   0  0  0  0  0
    9.2680   -4.4560   -6.8330 O   0  0  0  0  0
    7.3220  -12.5240   -4.0170 N   0  0  0  0  0
    6.9120  -13.9180   -3.9340 C   0  0  0  0  0
    5.4660  -14.2020   -3.5330 C   0  0  0  0  0
    5.1350  -14.4440   -2.3690 O   0  0  0  0  0
    4.5720  -14.2260   -4.3830 O   0  0  0  0  0
   13.3397  -11.2275   -0.4639 H   0  0  0  0  0
   12.6589  -12.6951   -0.8630 H   0  0  0  0  0
   14.1639  -12.2874   -1.4509 H   0  0  0  0  0
   13.2851  -10.5269   -2.7127 H   0  0  0  0  0
   11.6592  -13.0272   -3.2196 H   0  0  0  0  0
   13.4088  -12.8420   -3.6427 H   0  0  0  0  0
   13.8264  -11.3639   -5.1454 H   0  0  0  0  0
   11.4544   -9.3587   -3.5450 H   0  0  0  0  0
    9.5386   -9.0312   -1.3260 H   0  0  0  0  0
    9.2585   -6.7597   -2.1146 H   0  0  0  0  0
   10.2210   -7.1937   -3.6548 H   0  0  0  0  0
   12.2032   -7.2087   -2.4615 H   0  0  0  0  0
   11.4971   -4.9794   -3.1265 H   0  0  0  0  0
   10.6291   -4.7695   -1.5859 H   0  0  0  0  0
   12.4040   -4.9138   -1.5954 H   0  0  0  0  0
   10.5439   -6.7582    0.0367 H   0  0  0  0  0
   11.4004   -8.2553   -0.4063 H   0  0  0  0  0
   12.3232   -6.7787   -0.0328 H   0  0  0  0  0
    9.3363  -10.4952   -4.3294 H   0  0  0  0  0
    6.4902   -9.6324   -4.4951 H   0  0  0  0  0
    6.6010   -9.9199   -6.9261 H   0  0  0  0  0
    8.3310  -10.4705   -6.7710 H   0  0  0  0  0
   10.1005   -8.8776   -6.3730 H   0  0  0  0  0
    6.0312   -7.5808   -6.6413 H   0  0  0  0  0
   10.8615   -6.5276   -6.5719 H   0  0  0  0  0
    6.7863   -5.2335   -6.8581 H   0  0  0  0  0
    8.4989   -3.8876   -6.9163 H   0  0  0  0  0
    8.0633  -12.1812   -3.4060 H   0  0  0  0  0
    7.5271  -14.3596   -3.1499 H   0  0  0  0  0
    7.0219  -14.3177   -4.9421 H   0  0  0  0  0
    5.9078  -14.3969   -1.8014 H   0  0  0  0  0
  1  2  1  0  0  0
  2  3  1  0  0  0
  2  5  1  0  0  0
  3  4  2  0  0  0
  3  9  1  0  0  0
  5  6  1  0  0  0
  6  7  1  0  0  0
  6  8  2  0  0  0
  9 10  1  0  0  0
 10 11  1  0  0  0
 10 13  1  0  0  0
 11 12  2  0  0  0
 11 17  1  0  0  0
 13 14  1  0  0  0
 14 15  1  0  0  0
 14 16  1  0  0  0
 17 18  1  0  0  0
 18 19  1  0  0  0
 18 21  1  0  0  0
 19 20  2  0  0  0
 19 29  1  0  0  0
 21 22  1  0  0  0
 22 23  4  0  0  0
 22 24  4  0  0  0
 23 25  4  0  0  0
 24 26  4  0  0  0
 25 27  4  0  0  0
 26 27  4  0  0  0
 27 28  1  0  0  0
 29 30  1  0  0  0
 30 31  1  0  0  0
 31 32  1  0  0  0
 31 33  2  0  0  0
  1 34  1  0  0  0
  1 35  1  0  0  0
  1 36  1  0  0  0
  2 37  1  0  0  0
  5 38  1  0  0  0
  5 39  1  0  0  0
  7 40  1  0  0  0
  9 41  1  0  0  0
 10 42  1  0  0  0
 13 43  1  0  0  0
 13 44  1  0  0  0
 14 45  1  0  0  0
 15 46  1  0  0  0
 15 47  1  0  0  0
 15 48  1  0  0  0
 16 49  1  0  0  0
 16 50  1  0  0  0
 16 51  1  0  0  0
 17 52  1  0  0  0
 18 53  1  0  0  0
 21 54  1  0  0  0
 21 55  1  0  0  0
 23 56  1  0  0  0
 24 57  1  0  0  0
 25 58  1  0  0  0
 26 59  1  0  0  0
 28 60  1  0  0  0
 29 61  1  0  0  0
 30 62  1  0  0  0
 30 63  1  0  0  0
 32 64  1  0  0  0
M  END
$$$$
