4erk_ligand
  -I-interpret- 

 40 42  0  0  0  0  0  0  0  0999 V2000
  -16.1700   11.5950   40.3310 N   0  0  0  0  0
  -17.3070   10.9990   40.8410 C   0  0  0  0  0
  -18.2010   11.6870   41.6460 N   0  0  0  0  0
  -17.5580   12.9100   41.6680 C   0  0  0  0  0
  -16.3480   12.8600   40.8850 C   0  0  0  0  0
  -17.9310   14.1240   42.3390 C   0  0  0  0  0
  -17.0780   15.2450   42.2000 N   0  0  0  0  0
  -15.8920   15.2120   41.4290 C   0  0  0  0  0
  -15.5210   14.0210   40.7700 N   0  0  0  0  0
  -15.1040   11.0360   39.4660 C   0  0  0  0  0
  -15.0640   16.3990   41.3210 N   0  0  0  0  0
  -15.4540   17.8110   41.4880 C   0  0  0  0  0
  -14.3390   18.6630   42.1060 C   0  0  0  0  0
  -14.3720   18.5960   43.5260 O   0  0  0  0  0
  -19.1570   14.1480   43.1310 N   0  0  0  0  0
  -19.7900   15.1930   43.9790 C   0  0  0  0  0
  -17.9580   16.5340   45.1360 C   0  0  0  0  0
  -17.2480   17.7320   45.3730 C   0  0  0  0  0
  -17.6120   18.9170   44.6800 C   0  0  0  0  0
  -18.6880   18.8980   43.7490 C   0  0  0  0  0
  -19.4050   17.6950   43.5070 C   0  0  0  0  0
  -19.0450   16.5060   44.1970 C   0  0  0  0  0
  -17.5074    9.9544   40.6027 H   0  0  0  0  0
  -15.0552   11.6054   38.5378 H   0  0  0  0  0
  -14.1469   11.0999   39.9837 H   0  0  0  0  0
  -15.3287    9.9931   39.2426 H   0  0  0  0  0
  -14.0818   16.2346   41.1003 H   0  0  0  0  0
  -16.3121   17.8443   42.1593 H   0  0  0  0  0
  -15.6768   18.2159   40.5008 H   0  0  0  0  0
  -14.4827   19.6998   41.8020 H   0  0  0  0  0
  -13.3774   18.2832   41.7608 H   0  0  0  0  0
  -13.6657   19.1366   43.8872 H   0  0  0  0  0
  -19.6838   13.2753   43.0958 H   0  0  0  0  0
  -19.8715   14.7446   44.9692 H   0  0  0  0  0
  -20.7048   15.4690   43.4546 H   0  0  0  0  0
  -17.6793   15.6249   45.6690 H   0  0  0  0  0
  -16.4233   17.7469   46.0856 H   0  0  0  0  0
  -17.0661   19.8428   44.8616 H   0  0  0  0  0
  -18.9635   19.8099   43.2192 H   0  0  0  0  0
  -20.2292   17.6844   42.7938 H   0  0  0  0  0
  1 10  1  0  0  0
  1  5  4  0  0  0
  1  2  4  0  0  0
  2  3  4  0  0  0
  3  4  4  0  0  0
  4  6  4  0  0  0
  4  5  4  0  0  0
  5  9  4  0  0  0
  9  8  4  0  0  0
  8 11  1  0  0  0
  8  7  4  0  0  0
  7  6  4  0  0  0
  6 15  1  0  0  0
 15 16  1  0  0  0
 16 22  1  0  0  0
 22 21  4  0  0  0
 22 17  4  0  0  0
 17 18  4  0  0  0
 18 19  4  0  0  0
 19 20  4  0  0  0
 20 21  4  0  0  0
 11 12  1  0  0  0
 12 13  1  0  0  0
 13 14  1  0  0  0
  2 23  1  0  0  0
 10 24  1  0  0  0
 10 25  1  0  0  0
 10 26  1  0  0  0
 11 27  1  0  0  0
 12 28  1  0  0  0
 12 29  1  0  0  0
 13 30  1  0  0  0
 13 31  1  0  0  0
 14 32  1  0  0  0
 15 33  1  0  0  0
 16 34  1  0  0  0
 16 35  1  0  0  0
 17 36  1  0  0  0
 18 37  1  0  0  0
 19 38  1  0  0  0
 20 39  1  0  0  0
 21 40  1  0  0  0
M  END
$$$$
