### 
### Created by X-TOOL on Mon Sep 10 21:13:04 2018
### 

@<TRIPOS>MOLECULE
3lqj_ligand
  113   112     1     0     0
SMALL
GAST_HUCK


@<TRIPOS>ATOM
      1 N          58.1090   34.7850   25.2510 N.4       1 ALA         0.2377
      2 CA         59.0110   33.8290   24.5420 C.3       1 ALA         0.0621
      3 C          58.3640   33.3950   23.2350 C.2       1 ALA         0.2264
      4 O          57.2990   32.7850   23.2400 O.2       1 ALA        -0.3907
      5 CB         59.2700   32.6140   25.4240 C.3       1 ALA        -0.0040
      6 N          59.0060   33.7040   22.1140 N.am      1 ARG        -0.2610
      7 CA         58.4560   33.3380   20.8090 C.3       1 ARG         0.1312
      8 C          58.8820   31.9340   20.3850 C.2       1 ARG         0.2040
      9 O          60.0480   31.5830   20.4870 O.2       1 ARG        -0.3944
     10 CB         58.9060   34.3430   19.7460 C.3       1 ARG        -0.0092
     11 CG         58.4540   35.7760   19.9860 C.3       1 ARG        -0.0156
     12 CD         58.7880   36.6370   18.7760 C.3       1 ARG         0.0627
     13 NE         59.8980   37.5570   19.0120 N.pl3     1 ARG        -0.2723
     14 CZ         59.7720   38.7510   19.5840 C.cat     1 ARG         0.2882
     15 NH1        58.5790   39.1750   19.9800 N.pl3     1 ARG        -0.2849
     16 NH2        60.8350   39.5280   19.7520 N.pl3     1 ARG        -0.2849
     17 N          57.9330   31.1320   19.9070 N.am      1 THR        -0.2613
     18 CA         58.2410   29.7730   19.4640 C.3       1 THR         0.1565
     19 C          57.5610   29.5540   18.1260 C.2       1 THR         0.2065
     20 O          56.7630   30.3820   17.6970 O.2       1 THR        -0.3943
     21 CB         57.6970   28.7130   20.4350 C.3       1 THR         0.0924
     22 OG1        56.2670   28.7820   20.4530 O.3       1 THR        -0.3874
     23 CG2        58.2180   28.9490   21.8400 C.3       1 THR        -0.0346
     24 N          57.8690   28.4420   17.4670 N.am      1 M3L        -0.2637
     25 CA         57.2390   28.1500   16.1850 C.3       1 M3L         0.1310
     26 CB         57.7470   26.8190   15.6270 C.3       1 M3L        -0.0122
     27 CG         59.1500   26.8920   15.0490 C.3       1 M3L        -0.0440
     28 CD         59.1800   27.7560   13.7930 C.3       1 M3L        -0.0123
     29 CE         60.5940   27.8880   13.2520 C.3       1 M3L        -0.0309
     30 NZ         60.6460   28.4880   11.9170 N.4       1 M3L         0.2369
     31 C          55.7370   28.0720   16.4010 C.2       1 M3L         0.2039
     32 O          54.9430   28.4230   15.5290 O.2       1 M3L        -0.3944
     33 CM1        62.0810   28.6130   11.5970 C.3       1 M3L        -0.0418
     34 CM2        60.0020   29.8170   11.8200 C.3       1 M3L        -0.0418
     35 CM3        60.0050   27.6080   10.9300 C.3       1 M3L        -0.0418
     36 N          55.3550   27.6160   17.5850 N.am      1 GLN        -0.2636
     37 CA         53.9520   27.4790   17.9270 C.3       1 GLN         0.1330
     38 C          53.2450   28.8220   18.0840 C.2       1 GLN         0.2036
     39 O          52.1290   28.9830   17.6010 O.2       1 GLN        -0.3944
     40 CB         53.8100   26.6670   19.2120 C.3       1 GLN         0.0045
     41 CG         52.4110   26.1470   19.4560 C.3       1 GLN         0.0412
     42 CD         52.3350   25.2780   20.6870 C.2       1 GLN         0.1737
     43 OE1        53.1130   24.3350   20.8420 O.2       1 GLN        -0.3973
     44 NE2        51.3930   25.5850   21.5720 N.am      1 GLN        -0.3009
     45 N          53.8780   29.7840   18.7530 N.am      1 THR        -0.2670
     46 CA         53.2470   31.0840   18.9380 C.3       1 THR         0.1198
     47 C          53.1970   31.8510   17.6230 C.2       1 THR         0.0626
     48 O          52.1033   31.8530   16.9974 O.co2     1 THR        -0.5665
     49 CB         53.9870   31.9450   19.9870 C.3       1 THR         0.0869
     50 OG1        55.3080   32.2430   19.5270 O.3       1 THR        -0.3880
     51 CG2        54.0690   31.2110   21.3190 C.3       1 THR        -0.0352
     52 O          54.2077   32.4584   17.1791 O.co2     1 THR        -0.5665
     53 H1         58.5378   35.0723   26.1168 H         1 ALA         0.2015
     54 H2         57.2284   34.3348   25.4455 H         1 ALA         0.2015
     55 H3         57.9520   35.5932   24.6694 H         1 ALA         0.2015
     56 H4         59.9674   34.3268   24.3242 H         1 ALA         0.1095
     57 H5         59.9346   31.9135   24.8971 H         1 ALA         0.0310
     58 H6         58.3162   32.1149   25.6499 H         1 ALA         0.0310
     59 H7         59.7463   32.9364   26.3617 H         1 ALA         0.0310
     60 H8         59.8768   34.1933   22.1629 H         1 ARG         0.1884
     61 H9         57.3585   33.3629   20.8782 H         1 ARG         0.0800
     62 H10        58.5046   34.0163   18.7754 H         1 ARG         0.0313
     63 H11        60.0054   34.3331   19.7102 H         1 ARG         0.0313
     64 H12        58.9689   36.1769   20.8715 H         1 ARG         0.0301
     65 H13        57.3672   35.7916   20.1553 H         1 ARG         0.0301
     66 H14        57.8975   37.2250   18.5090 H         1 ARG         0.0689
     67 H15        59.0548   35.9750   17.9390 H         1 ARG         0.0689
     68 H16        60.8394   37.2617   18.7162 H         1 ARG         0.2642
     69 H17        58.4821   40.0998   20.4229 H         1 ARG         0.2615
     70 H18        57.7497   38.5794   19.8445 H         1 ARG         0.2615
     71 H19        61.7635   39.2036   19.4463 H         1 ARG         0.2615
     72 H20        60.7313   40.4554   20.1881 H         1 ARG         0.2615
     73 H21        56.9919   31.4652   19.8498 H         1 THR         0.1884
     74 H22        59.3304   29.6574   19.3645 H         1 THR         0.0826
     75 H23        58.0131   27.7159   20.0947 H         1 THR         0.0639
     76 H24        55.9270   28.1280   21.0523 H         1 THR         0.2101
     77 H25        57.8153   28.1790   22.5145 H         1 THR         0.0257
     78 H26        57.8998   29.9432   22.1869 H         1 THR         0.0257
     79 H27        59.3167   28.8958   21.8374 H         1 THR         0.0257
     80 H28        58.5353   27.8032   17.8517 H         1 M3L         0.1883
     81 H29        57.4697   28.9541   15.4707 H         1 M3L         0.0800
     82 H30        57.0610   26.4918   14.8318 H         1 M3L         0.0312
     83 H31        57.7452   26.0786   16.4405 H         1 M3L         0.0312
     84 H32        59.4876   25.8764   14.7949 H         1 M3L         0.0269
     85 H33        59.8263   27.3260   15.8002 H         1 M3L         0.0269
     86 H34        58.7938   28.7568   14.0363 H         1 M3L         0.0317
     87 H35        58.5431   27.2942   13.0242 H         1 M3L         0.0317
     88 H36        61.0448   26.8858   13.2029 H         1 M3L         0.0815
     89 H37        61.1750   28.5180   13.9415 H         1 M3L         0.0815
     90 H38        62.1964   29.0606   10.5988 H         1 M3L         0.0778
     91 H39        62.5473   27.6168   11.6082 H         1 M3L         0.0778
     92 H40        62.5690   29.2548   12.3453 H         1 M3L         0.0778
     93 H41        58.9322   29.7243   12.0585 H         1 M3L         0.0778
     94 H42        60.1173   30.2066   10.7978 H         1 M3L         0.0778
     95 H43        60.4777   30.5078   12.5316 H         1 M3L         0.0778
     96 H44        60.4631   26.6090   10.9773 H         1 M3L         0.0778
     97 H45        60.1417   28.0266    9.9220 H         1 M3L         0.0778
     98 H46        58.9305   27.5295   11.1519 H         1 M3L         0.0778
     99 H47        56.0494   27.3606   18.2578 H         1 GLN         0.1883
    100 H48        53.4578   26.9307   17.1115 H         1 GLN         0.0801
    101 H49        54.0943   27.3076   20.0599 H         1 GLN         0.0337
    102 H50        54.4942   25.8075   19.1562 H         1 GLN         0.0337
    103 H51        52.0955   25.5552   18.5841 H         1 GLN         0.0504
    104 H52        51.7318   27.0028   19.5836 H         1 GLN         0.0504
    105 H53        51.2959   25.0434   22.4070 H         1 GLN         0.1814
    106 H54        50.7811   26.3577   21.4032 H         1 GLN         0.1814
    107 H55        54.7887   29.6136   19.1293 H         1 THR         0.1876
    108 H56        52.2178   30.9167   19.2885 H         1 THR         0.0752
    109 H57        53.4345   32.8853   20.1299 H         1 THR         0.0632
    110 H58        55.2565   32.7214   18.7079 H         1 THR         0.2100
    111 H59        54.5980   31.8385   22.0514 H         1 THR         0.0256
    112 H60        54.6150   30.2657   21.1838 H         1 THR         0.0256
    113 H61        53.0532   30.9988   21.6839 H         1 THR         0.0256
@<TRIPOS>BOND
     1    1    2 1  
     2    2    3 1  
     3    2    5 1  
     4    3    4 2  
     5    3    6 am 
     6    6    7 1  
     7    7    8 1  
     8    7   10 1  
     9    8    9 2  
    10    8   17 am 
    11   10   11 1  
    12   11   12 1  
    13   12   13 1  
    14   13   14 ar 
    15   14   15 ar 
    16   14   16 ar 
    17   17   18 1  
    18   18   19 1  
    19   18   21 1  
    20   19   20 2  
    21   19   24 am 
    22   21   22 1  
    23   21   23 1  
    24   24   25 1  
    25   25   26 1  
    26   25   31 1  
    27   26   27 1  
    28   27   28 1  
    29   28   29 1  
    30   29   30 1  
    31   30   33 1  
    32   30   34 1  
    33   30   35 1  
    34   31   32 2  
    35   31   36 am 
    36   36   37 1  
    37   37   38 1  
    38   37   40 1  
    39   38   39 2  
    40   38   45 am 
    41   40   41 1  
    42   41   42 1  
    43   42   43 2  
    44   42   44 am 
    45   45   46 1  
    46   46   47 1  
    47   46   49 1  
    48   47   48 ar 
    49   49   50 1  
    50   49   51 1  
    51   47   52 ar 
    52    1   53 1  
    53    1   54 1  
    54    1   55 1  
    55    2   56 1  
    56    5   57 1  
    57    5   58 1  
    58    5   59 1  
    59    6   60 1  
    60    7   61 1  
    61   10   62 1  
    62   10   63 1  
    63   11   64 1  
    64   11   65 1  
    65   12   66 1  
    66   12   67 1  
    67   13   68 1  
    68   15   69 1  
    69   15   70 1  
    70   16   71 1  
    71   16   72 1  
    72   17   73 1  
    73   18   74 1  
    74   21   75 1  
    75   22   76 1  
    76   23   77 1  
    77   23   78 1  
    78   23   79 1  
    79   24   80 1  
    80   25   81 1  
    81   26   82 1  
    82   26   83 1  
    83   27   84 1  
    84   27   85 1  
    85   28   86 1  
    86   28   87 1  
    87   29   88 1  
    88   29   89 1  
    89   33   90 1  
    90   33   91 1  
    91   33   92 1  
    92   34   93 1  
    93   34   94 1  
    94   34   95 1  
    95   35   96 1  
    96   35   97 1  
    97   35   98 1  
    98   36   99 1  
    99   37  100 1  
   100   40  101 1  
   101   40  102 1  
   102   41  103 1  
   103   41  104 1  
   104   44  105 1  
   105   44  106 1  
   106   45  107 1  
   107   46  108 1  
   108   49  109 1  
   109   50  110 1  
   110   51  111 1  
   111   51  112 1  
   112   51  113 1  
@<TRIPOS>SUBSTRUCTURE
     1 ALA         1

