3lqj_ligand
  -I-interpret- 

113112  0  0  0  0  0  0  0  0999 V2000
   58.1090   34.7850   25.2510 N   0  3  0  0  0
   59.0110   33.8290   24.5420 C   0  0  0  0  0
   58.3640   33.3950   23.2350 C   0  0  0  0  0
   57.2990   32.7850   23.2400 O   0  0  0  0  0
   59.2700   32.6140   25.4240 C   0  0  0  0  0
   59.0060   33.7040   22.1140 N   0  0  0  0  0
   58.4560   33.3380   20.8090 C   0  0  0  0  0
   58.8820   31.9340   20.3850 C   0  0  0  0  0
   60.0480   31.5830   20.4870 O   0  0  0  0  0
   58.9060   34.3430   19.7460 C   0  0  0  0  0
   58.4540   35.7760   19.9860 C   0  0  0  0  0
   58.7880   36.6370   18.7760 C   0  0  0  0  0
   59.8980   37.5570   19.0120 N   0  0  0  0  0
   59.7720   38.7510   19.5840 C   0  0  0  0  0
   58.5790   39.1750   19.9800 N   0  0  0  0  0
   60.8350   39.5280   19.7520 N   0  0  0  0  0
   57.9330   31.1320   19.9070 N   0  0  0  0  0
   58.2410   29.7730   19.4640 C   0  0  0  0  0
   57.5610   29.5540   18.1260 C   0  0  0  0  0
   56.7630   30.3820   17.6970 O   0  0  0  0  0
   57.6970   28.7130   20.4350 C   0  0  0  0  0
   56.2670   28.7820   20.4530 O   0  0  0  0  0
   58.2180   28.9490   21.8400 C   0  0  0  0  0
   57.8690   28.4420   17.4670 N   0  0  0  0  0
   57.2390   28.1500   16.1850 C   0  0  0  0  0
   57.7470   26.8190   15.6270 C   0  0  0  0  0
   59.1500   26.8920   15.0490 C   0  0  0  0  0
   59.1800   27.7560   13.7930 C   0  0  0  0  0
   60.5940   27.8880   13.2520 C   0  0  0  0  0
   60.6460   28.4880   11.9170 N   0  3  0  0  0
   55.7370   28.0720   16.4010 C   0  0  0  0  0
   54.9430   28.4230   15.5290 O   0  0  0  0  0
   62.0810   28.6130   11.5970 C   0  0  0  0  0
   60.0020   29.8170   11.8200 C   0  0  0  0  0
   60.0050   27.6080   10.9300 C   0  0  0  0  0
   55.3550   27.6160   17.5850 N   0  0  0  0  0
   53.9520   27.4790   17.9270 C   0  0  0  0  0
   53.2450   28.8220   18.0840 C   0  0  0  0  0
   52.1290   28.9830   17.6010 O   0  0  0  0  0
   53.8100   26.6670   19.2120 C   0  0  0  0  0
   52.4110   26.1470   19.4560 C   0  0  0  0  0
   52.3350   25.2780   20.6870 C   0  0  0  0  0
   53.1130   24.3350   20.8420 O   0  0  0  0  0
   51.3930   25.5850   21.5720 N   0  0  0  0  0
   53.8780   29.7840   18.7530 N   0  0  0  0  0
   53.2470   31.0840   18.9380 C   0  0  0  0  0
   53.1970   31.8510   17.6230 C   0  0  0  0  0
   52.1033   31.8530   16.9974 O   0  0  0  0  0
   53.9870   31.9450   19.9870 C   0  0  0  0  0
   55.3080   32.2430   19.5270 O   0  0  0  0  0
   54.0690   31.2110   21.3190 C   0  0  0  0  0
   54.2077   32.4584   17.1791 O   0  0  0  0  0
   57.9395   35.5958   24.6558 H   0  0  0  0  0
   57.2235   34.3239   25.4598 H   0  0  0  0  0
   58.5501   35.0860   26.1200 H   0  0  0  0  0
   59.9609   34.3183   24.3268 H   0  0  0  0  0
   58.3252   32.1149   25.6393 H   0  0  0  0  0
   59.9363   31.9251   24.9048 H   0  0  0  0  0
   59.7332   32.9358   26.3567 H   0  0  0  0  0
   59.8942   34.2031   22.1638 H   0  0  0  0  0
   57.3699   33.3522   20.9005 H   0  0  0  0  0
   58.4604   34.0255   18.8033 H   0  0  0  0  0
   59.9959   34.3497   19.7598 H   0  0  0  0  0
   58.9687   36.1725   20.8612 H   0  0  0  0  0
   57.3764   35.7895   20.1492 H   0  0  0  0  0
   57.9071   37.2354   18.5436 H   0  0  0  0  0
   59.0799   35.9687   17.9659 H   0  0  0  0  0
   60.8302   37.2646   18.7190 H   0  0  0  0  0
   57.7577   38.5852   19.8458 H   0  0  0  0  0
   60.7323   40.4464   20.1838 H   0  0  0  0  0
   61.7545   39.2067   19.4493 H   0  0  0  0  0
   56.9731   31.4719   19.8487 H   0  0  0  0  0
   59.3248   29.6709   19.4077 H   0  0  0  0  0
   58.0283   27.7309   20.0975 H   0  0  0  0  0
   55.9235   28.1211   21.0586 H   0  0  0  0  0
   59.3067   28.8961   21.8361 H   0  0  0  0  0
   57.9021   29.9344   22.1825 H   0  0  0  0  0
   57.8183   28.1855   22.5074 H   0  0  0  0  0
   58.5486   27.7904   17.8594 H   0  0  0  0  0
   57.4834   28.9353   15.4697 H   0  0  0  0  0
   57.0768   26.5288   14.8179 H   0  0  0  0  0
   57.7724   26.1086   16.4533 H   0  0  0  0  0
   59.4732   25.8843   14.7878 H   0  0  0  0  0
   59.8120   27.3344   15.7934 H   0  0  0  0  0
   58.8091   28.7496   14.0447 H   0  0  0  0  0
   58.5581   27.2854   13.0315 H   0  0  0  0  0
   61.0158   26.8854   13.1807 H   0  0  0  0  0
   61.1477   28.5387   13.9289 H   0  0  0  0  0
   62.5634   29.2491   12.3391 H   0  0  0  0  0
   62.5419   27.6253   11.6085 H   0  0  0  0  0
   62.1941   29.0566   10.6078 H   0  0  0  0  0
   58.9496   29.7299   12.0900 H   0  0  0  0  0
   60.4969   30.5097   12.5007 H   0  0  0  0  0
   60.0869   30.1868   10.7982 H   0  0  0  0  0
   60.5242   26.6499   10.9080 H   0  0  0  0  0
   58.9626   27.4515   11.2075 H   0  0  0  0  0
   60.0544   28.0722    9.9450 H   0  0  0  0  0
   56.0633   27.3555   18.2712 H   0  0  0  0  0
   53.4711   26.9608   17.0974 H   0  0  0  0  0
   54.0601   27.3274   20.0424 H   0  0  0  0  0
   54.4669   25.8017   19.1232 H   0  0  0  0  0
   52.1174   25.5448   18.5962 H   0  0  0  0  0
   51.7512   27.0022   19.6023 H   0  0  0  0  0
   51.2917   25.0305   22.4221 H   0  0  0  0  0
   50.7710   26.3752   21.4014 H   0  0  0  0  0
   54.8069   29.6102   19.1368 H   0  0  0  0  0
   52.2360   30.8905   19.2965 H   0  0  0  0  0
   51.4550   31.3414   17.4869 H   0  0  0  0  0
   53.4305   32.8717   20.1273 H   0  0  0  0  0
   55.7611   32.7776   20.1831 H   0  0  0  0  0
   53.0619   31.0013   21.6794 H   0  0  0  0  0
   54.6102   30.2746   21.1837 H   0  0  0  0  0
   54.5934   31.8337   22.0438 H   0  0  0  0  0
  1  2  1  0  0  0
  2  3  1  0  0  0
  2  5  1  0  0  0
  3  4  2  0  0  0
  3  6  1  0  0  0
  6  7  1  0  0  0
  7  8  1  0  0  0
  7 10  1  0  0  0
  8  9  2  0  0  0
  8 17  1  0  0  0
 10 11  1  0  0  0
 11 12  1  0  0  0
 12 13  1  0  0  0
 13 14  1  0  0  0
 14 15  2  0  0  0
 14 16  1  0  0  0
 17 18  1  0  0  0
 18 19  1  0  0  0
 18 21  1  0  0  0
 19 20  2  0  0  0
 19 24  1  0  0  0
 21 22  1  0  0  0
 21 23  1  0  0  0
 24 25  1  0  0  0
 25 26  1  0  0  0
 25 31  1  0  0  0
 26 27  1  0  0  0
 27 28  1  0  0  0
 28 29  1  0  0  0
 29 30  1  0  0  0
 30 33  1  0  0  0
 30 34  1  0  0  0
 30 35  1  0  0  0
 31 32  2  0  0  0
 31 36  1  0  0  0
 36 37  1  0  0  0
 37 38  1  0  0  0
 37 40  1  0  0  0
 38 39  2  0  0  0
 38 45  1  0  0  0
 40 41  1  0  0  0
 41 42  1  0  0  0
 42 43  2  0  0  0
 42 44  1  0  0  0
 45 46  1  0  0  0
 46 47  1  0  0  0
 46 49  1  0  0  0
 47 48  1  0  0  0
 49 50  1  0  0  0
 49 51  1  0  0  0
 47 52  2  0  0  0
  1 53  1  0  0  0
  1 54  1  0  0  0
  1 55  1  0  0  0
  2 56  1  0  0  0
  5 57  1  0  0  0
  5 58  1  0  0  0
  5 59  1  0  0  0
  6 60  1  0  0  0
  7 61  1  0  0  0
 10 62  1  0  0  0
 10 63  1  0  0  0
 11 64  1  0  0  0
 11 65  1  0  0  0
 12 66  1  0  0  0
 12 67  1  0  0  0
 13 68  1  0  0  0
 15 69  1  0  0  0
 16 70  1  0  0  0
 16 71  1  0  0  0
 17 72  1  0  0  0
 18 73  1  0  0  0
 21 74  1  0  0  0
 22 75  1  0  0  0
 23 76  1  0  0  0
 23 77  1  0  0  0
 23 78  1  0  0  0
 24 79  1  0  0  0
 25 80  1  0  0  0
 26 81  1  0  0  0
 26 82  1  0  0  0
 27 83  1  0  0  0
 27 84  1  0  0  0
 28 85  1  0  0  0
 28 86  1  0  0  0
 29 87  1  0  0  0
 29 88  1  0  0  0
 33 89  1  0  0  0
 33 90  1  0  0  0
 33 91  1  0  0  0
 34 92  1  0  0  0
 34 93  1  0  0  0
 34 94  1  0  0  0
 35 95  1  0  0  0
 35 96  1  0  0  0
 35 97  1  0  0  0
 36 98  1  0  0  0
 37 99  1  0  0  0
 40100  1  0  0  0
 40101  1  0  0  0
 41102  1  0  0  0
 41103  1  0  0  0
 44104  1  0  0  0
 44105  1  0  0  0
 45106  1  0  0  0
 46107  1  0  0  0
 48108  1  0  0  0
 49109  1  0  0  0
 50110  1  0  0  0
 51111  1  0  0  0
 51112  1  0  0  0
 51113  1  0  0  0
M  END
$$$$
