3vi7_ligand
  -I-interpret- 

 73 78  0  0  0  0  0  0  0  0999 V2000
   10.4760    2.3430   74.0600 C   0  0  0  0  0
   11.0280    2.0690   72.5560 S   0  0  0  0  0
   10.3580    3.0120   71.6350 O   0  0  0  0  0
   10.6100    0.6640   72.2320 O   0  0  0  0  0
   12.5180    2.2300   72.4290 O   0  0  0  0  0
    9.1270    2.1510   74.3780 C   0  0  0  0  0
    8.2910    1.7330   73.3890 N   0  0  0  0  0
    8.6570    2.3810   75.7020 C   0  0  0  0  0
    7.3120    2.1900   76.0590 C   0  0  0  0  0
    6.4920    1.8140   75.1960 O   0  0  0  0  0
    6.8720    2.4180   77.3680 C   0  0  0  0  0
    5.5430    2.2270   77.7190 C   0  0  0  0  0
    5.0930    2.4580   79.0260 C   0  0  0  0  0
    5.9570    2.8940   80.0070 C   0  0  0  0  0
    7.2850    3.0790   79.6350 C   0  0  0  0  0
    7.7600    2.8450   78.3410 C   0  0  0  0  0
    9.1030    3.0420   78.0070 C   0  0  0  0  0
    9.9980    3.4610   78.9430 O   0  0  0  0  0
    9.5460    2.8040   76.7010 C   0  0  0  0  0
   10.8810    2.9910   76.3820 C   0  0  0  0  0
   11.3340    2.7630   75.0810 C   0  0  0  0  0
   11.7280    3.4080   77.3370 N   0  0  0  0  0
   14.9580    2.4430   76.0500 C   0  0  0  0  0
   15.5270    1.2870   75.0840 S   0  0  0  0  0
   14.9150   -0.0080   75.4680 O   0  0  0  0  0
   15.1370    1.6430   73.6880 O   0  0  0  0  0
   17.0040    1.1100   75.1940 O   0  0  0  0  0
   15.7590    3.4170   76.6460 C   0  0  0  0  0
   15.2090    4.3890   77.4800 C   0  0  0  0  0
   13.8390    4.3940   77.7080 C   0  0  0  0  0
   13.0430    3.4230   77.1170 C   0  0  0  0  0
   13.5950    2.4590   76.2930 C   0  0  0  0  0
   17.0850    3.3790   76.4210 N   0  0  0  0  0
   18.1890    4.9530   75.1260 N   0  0  0  0  0
   19.0330    6.0030   75.0430 C   0  0  0  0  0
   19.3970    6.6900   73.4270 Cl  0  0  0  0  0
   19.5910    6.5300   76.1660 N   0  0  0  0  0
   19.3110    6.0010   77.3900 C   0  0  0  0  0
   18.4610    4.9450   77.4700 N   0  0  0  0  0
   17.9040    4.4380   76.3430 C   0  0  0  0  0
   19.8760    6.5240   78.5130 N   0  0  0  0  0
   18.6050    6.8660   80.5350 C   0  0  0  0  0
   17.9620    8.2600   79.9910 S   0  0  0  0  0
   17.0770    7.9810   78.8270 O   0  0  0  0  0
   19.0410    9.1790   79.5330 O   0  0  0  0  0
   17.1680    8.9570   81.0400 O   0  0  0  0  0
   19.5130    6.1100   79.7580 C   0  0  0  0  0
   20.0630    4.9100   80.2510 C   0  0  0  0  0
   19.7160    4.4400   81.5170 C   0  0  0  0  0
   18.8200    5.1820   82.2920 C   0  0  0  0  0
   18.2680    6.3780   81.8100 C   0  0  0  0  0
   12.9567    1.6192   73.0257 H   0  0  0  0  0
    8.6537    1.5694   72.4498 H   0  0  0  0  0
    7.3016    1.5833   73.5869 H   0  0  0  0  0
    4.8343    1.8903   76.9623 H   0  0  0  0  0
    4.0440    2.2903   79.2702 H   0  0  0  0  0
    5.6167    3.0847   81.0248 H   0  0  0  0  0
    7.9908    3.4238   80.3907 H   0  0  0  0  0
    8.1477    3.2685   78.4804 H   0  0  0  0  0
   10.8658    3.5420   78.5406 H   0  0  0  0  0
   12.3890    2.9172   74.8544 H   0  0  0  0  0
   11.3624    3.7158   78.2381 H   0  0  0  0  0
   15.5378    2.4820   73.4491 H   0  0  0  0  0
   15.8477    5.1377   77.9486 H   0  0  0  0  0
   13.3920    5.1556   78.3469 H   0  0  0  0  0
   12.9535    1.7077   75.8324 H   0  0  0  0  0
   17.5068    2.4584   76.2983 H   0  0  0  0  0
   20.5907    7.2456   78.4189 H   0  0  0  0  0
   19.6267    9.3745   80.2681 H   0  0  0  0  0
   20.7651    4.3449   79.6380 H   0  0  0  0  0
   20.1367    3.5088   81.8964 H   0  0  0  0  0
   18.5463    4.8260   83.2852 H   0  0  0  0  0
   17.5685    6.9365   82.4320 H   0  0  0  0  0
  1  2  1  0  0  0
  1  6  4  0  0  0
 21  1  4  0  0  0
  2  3  2  0  0  0
  2  4  2  0  0  0
  2  5  1  0  0  0
  6  7  1  0  0  0
  8  6  4  0  0  0
  8  9  1  0  0  0
 19  8  4  0  0  0
  9 10  2  0  0  0
  9 11  1  0  0  0
 11 12  4  0  0  0
 16 11  4  0  0  0
 12 13  4  0  0  0
 14 13  4  0  0  0
 15 14  4  0  0  0
 16 15  4  0  0  0
 17 16  1  0  0  0
 17 18  1  0  0  0
 19 17  1  0  0  0
 20 19  4  0  0  0
 20 21  4  0  0  0
 22 20  1  0  0  0
 31 22  1  0  0  0
 23 24  1  0  0  0
 28 23  4  0  0  0
 23 32  4  0  0  0
 24 25  2  0  0  0
 24 26  1  0  0  0
 24 27  2  0  0  0
 28 29  4  0  0  0
 33 28  1  0  0  0
 29 30  4  0  0  0
 30 31  4  0  0  0
 32 31  4  0  0  0
 40 33  1  0  0  0
 35 34  4  0  0  0
 40 34  4  0  0  0
 35 36  1  0  0  0
 37 35  4  0  0  0
 38 37  4  0  0  0
 38 39  4  0  0  0
 41 38  1  0  0  0
 39 40  4  0  0  0
 47 41  1  0  0  0
 42 43  1  0  0  0
 42 47  4  0  0  0
 42 51  4  0  0  0
 43 44  2  0  0  0
 43 45  1  0  0  0
 43 46  2  0  0  0
 47 48  4  0  0  0
 48 49  4  0  0  0
 49 50  4  0  0  0
 50 51  4  0  0  0
  5 52  1  0  0  0
  7 53  1  0  0  0
  7 54  1  0  0  0
 12 55  1  0  0  0
 13 56  1  0  0  0
 14 57  1  0  0  0
 15 58  1  0  0  0
 17 59  1  0  0  0
 18 60  1  0  0  0
 21 61  1  0  0  0
 22 62  1  0  0  0
 26 63  1  0  0  0
 29 64  1  0  0  0
 30 65  1  0  0  0
 32 66  1  0  0  0
 33 67  1  0  0  0
 41 68  1  0  0  0
 45 69  1  0  0  0
 48 70  1  0  0  0
 49 71  1  0  0  0
 50 72  1  0  0  0
 51 73  1  0  0  0
M  END
$$$$
