6pgb_ligand
  -I-interpret- 

 41 42  0  0  0  0  0  0  0  0999 V2000
   23.3090   72.9410    3.8560 C   0  0  0  0  0
   22.4240   74.9410    4.9410 N   0  0  0  0  0
   21.3790   75.2220    5.8820 C   0  0  0  0  0
   21.1960   77.6330    6.2960 C   0  0  0  0  0
   22.8120   79.3970    6.1470 C   0  0  0  0  0
   20.8800   78.0020    7.5940 C   0  0  0  0  0
   16.0910   68.6460    5.0680 O   0  0  0  0  0
   17.2020   69.0310    5.8570 C   0  0  0  0  0
   18.3540   69.5910    5.0130 C   0  0  0  0  0
   18.4900   69.5980    3.6180 C   0  0  0  0  0
   19.6550   70.2080    3.3320 N   0  0  0  0  0
   20.2060   70.5590    4.5170 C   0  0  0  0  0
   19.4220   70.1960    5.5000 N   0  0  0  0  0
   21.5590   71.2640    4.7440 C   0  0  0  0  0
   21.9930   72.1800    3.6090 C   0  0  0  0  0
   23.3170   73.8270    5.0980 C   0  0  0  0  0
   20.5120   76.4500    5.6450 C   0  0  0  0  0
   22.1660   78.3080    5.5880 C   0  0  0  0  0
   22.5020   79.7610    7.4400 C   0  0  0  0  0
   21.5360   79.0860    8.1530 C   0  0  0  0  0
   21.1830   74.5380    6.8180 O   0  0  0  0  0
   23.4585   73.5981    2.9993 H   0  0  0  0  0
   24.0852   72.1895    4.0002 H   0  0  0  0  0
   22.5370   75.5530    4.1328 H   0  0  0  0  0
   23.5523   79.9566    5.5753 H   0  0  0  0  0
   20.1311   77.4508    8.1627 H   0  0  0  0  0
   15.3986   68.3034    5.6379 H   0  0  0  0  0
   17.5664   68.1468    6.3799 H   0  0  0  0  0
   16.8742   69.8137    6.5412 H   0  0  0  0  0
   17.7830   69.1857    2.8981 H   0  0  0  0  0
   22.3146   70.4831    4.8298 H   0  0  0  0  0
   21.4486   71.8869    5.6316 H   0  0  0  0  0
   22.1540   71.5466    2.7367 H   0  0  0  0  0
   21.2114   72.9310    3.4935 H   0  0  0  0  0
   24.3272   74.2072    5.2500 H   0  0  0  0  0
   22.9902   73.2344    5.9525 H   0  0  0  0  0
   19.5214   76.3022    6.0752 H   0  0  0  0  0
   20.3890   76.6255    4.5763 H   0  0  0  0  0
   22.4265   77.9823    4.5809 H   0  0  0  0  0
   23.0287   80.5946    7.9046 H   0  0  0  0  0
   21.2861   79.4072    9.1642 H   0  0  0  0  0
 15  1  1  0  0  0
  1 16  1  0  0  0
  2  3  1  0  0  0
 16  2  1  0  0  0
  3 17  1  0  0  0
  3 21  2  0  0  0
  4  6  4  0  0  0
 17  4  1  0  0  0
  4 18  4  0  0  0
 18  5  4  0  0  0
  5 19  4  0  0  0
  6 20  4  0  0  0
  8  7  1  0  0  0
  9  8  1  0  0  0
  9 10  4  0  0  0
 13  9  4  0  0  0
 11 10  4  0  0  0
 12 11  4  0  0  0
 12 13  4  0  0  0
 14 12  1  0  0  0
 14 15  1  0  0  0
 19 20  4  0  0  0
  1 22  1  0  0  0
  1 23  1  0  0  0
  2 24  1  0  0  0
  5 25  1  0  0  0
  6 26  1  0  0  0
  7 27  1  0  0  0
  8 28  1  0  0  0
  8 29  1  0  0  0
 10 30  1  0  0  0
 14 31  1  0  0  0
 14 32  1  0  0  0
 15 33  1  0  0  0
 15 34  1  0  0  0
 16 35  1  0  0  0
 16 36  1  0  0  0
 17 37  1  0  0  0
 17 38  1  0  0  0
 18 39  1  0  0  0
 19 40  1  0  0  0
 20 41  1  0  0  0
M  END
$$$$
