6g9u_ligand
  -I-interpret- 

 61 63  0  0  0  0  0  0  0  0999 V2000
    8.8430  -29.8400  -59.9440 F   0  0  0  0  0
    9.5970  -28.9010  -59.3550 C   0  0  0  0  0
   10.8070  -28.3960  -59.9720 C   0  0  0  0  0
   11.2670  -29.0210  -61.4800 S   0  0  0  0  0
   12.0070  -30.5880  -61.0030 C   0  0  0  0  0
   13.3520  -30.4870  -60.2590 C   0  0  0  0  0
   14.4270  -30.1130  -61.2400 C   0  0  0  0  0
   14.7480  -31.0370  -62.2420 C   0  0  0  0  0
   15.7190  -30.7160  -63.1780 C   0  0  0  0  0
   16.3730  -29.4810  -63.1390 C   0  0  0  0  0
   17.3960  -29.1840  -64.2070 C   0  0  0  0  0
   17.8570  -28.0340  -64.3420 O   0  0  0  0  0
   17.7120  -30.0890  -64.9960 O   0  0  0  0  0
   16.0520  -28.5480  -62.1360 C   0  0  0  0  0
   15.0790  -28.8710  -61.1820 C   0  0  0  0  0
    9.1850  -28.3960  -58.0390 C   0  0  0  0  0
    8.0790  -28.9010  -57.5250 F   0  0  0  0  0
    9.9080  -27.3480  -57.2970 C   0  0  0  0  0
    9.2740  -26.8930  -55.8470 S   0  0  0  0  0
    9.5620  -27.9170  -54.8580 O   0  0  0  0  0
    7.7040  -26.7330  -56.0450 N   0  0  0  0  0
    9.8720  -25.6490  -55.4580 O   0  0  0  0  0
   11.1420  -26.8240  -57.9400 C   0  0  0  0  0
   11.5800  -27.3640  -59.2660 C   0  0  0  0  0
   12.6700  -26.8910  -59.8580 F   0  0  0  0  0
   11.9170  -25.9860  -57.2300 N   0  0  0  0  0
   13.3650  -26.1330  -57.1150 C   0  0  0  0  0
   13.5920  -27.4380  -56.3270 C   0  0  0  0  0
   15.0090  -28.0100  -56.3580 C   0  0  0  0  0
   15.8090  -27.8220  -55.0680 C   0  0  0  0  0
   15.5500  -26.5260  -54.2770 C   0  0  0  0  0
   16.0310  -25.2480  -54.9550 C   0  0  0  0  0
   15.4520  -24.8540  -56.3210 C   0  0  0  0  0
   13.9250  -24.9340  -56.3700 C   0  0  0  0  0
   12.2033  -31.1324  -61.9266 H   0  0  0  0  0
   11.3077  -31.0653  -60.3166 H   0  0  0  0  0
   13.5910  -31.4463  -59.7999 H   0  0  0  0  0
   13.2850  -29.7275  -59.4800 H   0  0  0  0  0
   14.2391  -31.9999  -62.2857 H   0  0  0  0  0
   15.9760  -31.4362  -63.9548 H   0  0  0  0  0
   17.5087  -27.4675  -63.6496 H   0  0  0  0  0
   16.5562  -27.5822  -62.1018 H   0  0  0  0  0
   14.8282  -28.1591  -60.3956 H   0  0  0  0  0
    7.0604  -27.3135  -55.5073 H   0  0  0  0  0
    7.3408  -26.0499  -56.7097 H   0  0  0  0  0
   11.4702  -25.2069  -56.7465 H   0  0  0  0  0
   13.8639  -26.1786  -58.0830 H   0  0  0  0  0
   12.9516  -28.1881  -56.7911 H   0  0  0  0  0
   13.3823  -27.2029  -55.2835 H   0  0  0  0  0
   15.5466  -27.4776  -57.1426 H   0  0  0  0  0
   14.9118  -29.0843  -56.5148 H   0  0  0  0  0
   16.8568  -27.7876  -55.3665 H   0  0  0  0  0
   15.5146  -28.6396  -54.4100 H   0  0  0  0  0
   16.1035  -26.6129  -53.3420 H   0  0  0  0  0
   14.4693  -26.4357  -54.1675 H   0  0  0  0  0
   17.0917  -25.4160  -55.1418 H   0  0  0  0  0
   15.7254  -24.4461  -54.2830 H   0  0  0  0  0
   15.8445  -25.5513  -57.0611 H   0  0  0  0  0
   15.7363  -23.8199  -56.5159 H   0  0  0  0  0
   13.5824  -25.0179  -55.3387 H   0  0  0  0  0
   13.5816  -24.0465  -56.9015 H   0  0  0  0  0
  1  2  1  0  0  0
  2  3  4  0  0  0
  2 16  4  0  0  0
  3  4  1  0  0  0
  3 24  4  0  0  0
  4  5  1  0  0  0
  5  6  1  0  0  0
  6  7  1  0  0  0
  7  8  4  0  0  0
  7 15  4  0  0  0
  8  9  4  0  0  0
  9 10  4  0  0  0
 10 11  1  0  0  0
 10 14  4  0  0  0
 11 12  1  0  0  0
 11 13  2  0  0  0
 14 15  4  0  0  0
 16 17  1  0  0  0
 16 18  4  0  0  0
 18 19  1  0  0  0
 18 23  4  0  0  0
 19 20  2  0  0  0
 19 21  1  0  0  0
 19 22  2  0  0  0
 23 24  4  0  0  0
 23 26  1  0  0  0
 24 25  1  0  0  0
 26 27  1  0  0  0
 27 28  1  0  0  0
 27 34  1  0  0  0
 28 29  1  0  0  0
 29 30  1  0  0  0
 30 31  1  0  0  0
 31 32  1  0  0  0
 32 33  1  0  0  0
 33 34  1  0  0  0
  5 35  1  0  0  0
  5 36  1  0  0  0
  6 37  1  0  0  0
  6 38  1  0  0  0
  8 39  1  0  0  0
  9 40  1  0  0  0
 12 41  1  0  0  0
 14 42  1  0  0  0
 15 43  1  0  0  0
 21 44  1  0  0  0
 21 45  1  0  0  0
 26 46  1  0  0  0
 27 47  1  0  0  0
 28 48  1  0  0  0
 28 49  1  0  0  0
 29 50  1  0  0  0
 29 51  1  0  0  0
 30 52  1  0  0  0
 30 53  1  0  0  0
 31 54  1  0  0  0
 31 55  1  0  0  0
 32 56  1  0  0  0
 32 57  1  0  0  0
 33 58  1  0  0  0
 33 59  1  0  0  0
 34 60  1  0  0  0
 34 61  1  0  0  0
M  END
$$$$
