4xx3_ligand
  -I-interpret- 

 57 59  0  0  0  0  0  0  0  0999 V2000
   33.8880   62.7380   50.5650 C   0  0  0  0  0
   34.8920   63.3220   49.8190 C   0  0  0  0  0
   35.7640   62.5310   49.0810 C   0  0  0  0  0
   33.7860   61.3630   50.5570 C   0  0  0  0  0
   34.6610   60.5810   49.8230 C   0  0  0  0  0
   35.6720   61.1490   49.0620 C   0  0  0  0  0
   36.6510   60.2890   48.2840 C   0  0  0  0  0
   36.4030   61.6600   42.7850 C   0  0  0  0  0
   36.4760   61.1530   44.0770 C   0  0  0  0  0
   37.6880   61.0870   44.7410 C   0  0  0  0  0
   38.8260   61.5540   44.1130 C   0  0  0  0  0
   38.7610   62.0510   42.8220 C   0  0  0  0  0
   37.5490   62.0960   42.1560 C   0  0  0  0  0
   37.8210   60.5610   46.1160 C   0  0  0  0  0
   32.1910   60.1450   43.5780 N   0  0  0  0  0
   32.6440   58.7770   43.6650 C   0  0  0  0  0
   33.3840   58.4590   42.3790 C   0  0  0  0  0
   34.3730   59.4930   41.9030 C   0  0  0  0  0
   34.1270   60.7760   42.3340 N   0  0  0  0  0
   32.8920   61.1170   42.8950 C   0  0  0  0  0
   32.4130   62.3090   42.7640 N   0  0  0  0  0
   35.3070   59.1670   41.1840 O   0  0  0  0  0
   35.1230   61.7780   42.0270 C   0  0  0  0  0
   33.5340   58.5500   44.9060 C   0  0  0  0  0
   31.3820   57.9320   43.6460 C   0  0  0  0  0
   32.9740   59.0560   46.2200 C   0  0  0  0  0
   34.0260   57.1100   45.0730 C   0  0  0  0  0
   38.9380   60.2670   46.5250 O   0  0  0  0  0
   36.6530   60.4840   46.8480 N   0  0  0  0  0
   33.1946   63.3474   51.1447 H   0  0  0  0  0
   35.0010   64.4065   49.8089 H   0  0  0  0  0
   36.5472   63.0145   48.4971 H   0  0  0  0  0
   33.0007   60.8822   51.1403 H   0  0  0  0  0
   34.5533   59.4965   49.8434 H   0  0  0  0  0
   36.3567   59.2535   48.4550 H   0  0  0  0  0
   37.6469   60.5602   48.6343 H   0  0  0  0  0
   35.5697   60.8040   44.5719 H   0  0  0  0  0
   39.7816   61.5312   44.6369 H   0  0  0  0  0
   39.6660   62.4073   42.3298 H   0  0  0  0  0
   37.5008   62.4757   41.1354 H   0  0  0  0  0
   31.3187   60.4028   44.0395 H   0  0  0  0  0
   32.6235   58.3864   41.6016 H   0  0  0  0  0
   33.9612   57.5558   42.5767 H   0  0  0  0  0
   32.9365   63.0150   42.2464 H   0  0  0  0  0
   35.3727   61.6565   40.9730 H   0  0  0  0  0
   34.6893   62.7411   42.2959 H   0  0  0  0  0
   34.3910   59.1807   44.6694 H   0  0  0  0  0
   30.7542   58.1996   44.4959 H   0  0  0  0  0
   30.8381   58.1144   42.7192 H   0  0  0  0  0
   31.6512   56.8777   43.7093 H   0  0  0  0  0
   32.8108   60.1317   46.1538 H   0  0  0  0  0
   32.0279   58.5558   46.4270 H   0  0  0  0  0
   33.6818   58.8432   47.0211 H   0  0  0  0  0
   33.1689   56.4433   45.1680 H   0  0  0  0  0
   34.6147   56.8251   44.2010 H   0  0  0  0  0
   34.6435   57.0399   45.9685 H   0  0  0  0  0
   35.7605   60.5672   46.3612 H   0  0  0  0  0
  2  1  4  0  0  0
  4  1  4  0  0  0
  3  2  4  0  0  0
  6  3  4  0  0  0
  5  4  4  0  0  0
  6  5  4  0  0  0
  7  6  1  0  0  0
 29  7  1  0  0  0
  8  9  4  0  0  0
  8 13  4  0  0  0
 23  8  1  0  0  0
  9 10  4  0  0  0
 10 11  4  0  0  0
 10 14  1  0  0  0
 12 11  4  0  0  0
 13 12  4  0  0  0
 14 28  2  0  0  0
 14 29  1  0  0  0
 15 16  1  0  0  0
 20 15  1  0  0  0
 17 16  1  0  0  0
 16 24  1  0  0  0
 16 25  1  0  0  0
 18 17  1  0  0  0
 19 18  1  0  0  0
 18 22  2  0  0  0
 19 20  4  0  0  0
 19 23  1  0  0  0
 20 21  2  0  0  0
 24 26  1  0  0  0
 24 27  1  0  0  0
  1 30  1  0  0  0
  2 31  1  0  0  0
  3 32  1  0  0  0
  4 33  1  0  0  0
  5 34  1  0  0  0
  7 35  1  0  0  0
  7 36  1  0  0  0
  9 37  1  0  0  0
 11 38  1  0  0  0
 12 39  1  0  0  0
 13 40  1  0  0  0
 15 41  1  0  0  0
 17 42  1  0  0  0
 17 43  1  0  0  0
 21 44  1  0  0  0
 23 45  1  0  0  0
 23 46  1  0  0  0
 24 47  1  0  0  0
 25 48  1  0  0  0
 25 49  1  0  0  0
 25 50  1  0  0  0
 26 51  1  0  0  0
 26 52  1  0  0  0
 26 53  1  0  0  0
 27 54  1  0  0  0
 27 55  1  0  0  0
 27 56  1  0  0  0
 29 57  1  0  0  0
M  END
$$$$
