3l38_ligand
  -I-interpret- 

 53 57  0  0  0  0  0  0  0  0999 V2000
   17.9670  -11.5500   18.8840 C   0  0  0  0  0
    9.5500   -2.6170   13.6260 N   0  0  0  0  0
    8.9010   -5.8380   15.2770 O   0  0  0  0  0
   14.9330  -12.1630   15.6050 Cl  0  0  0  0  0
   18.2990  -12.2610   17.7330 C   0  0  0  0  0
    9.1510   -2.2870   15.9810 N   0  0  0  0  0
   15.7650   -6.2060   18.2340 C   0  0  0  0  0
   15.4440   -6.9370   15.5770 N   0  0  0  0  0
   16.6890  -11.0150   19.0400 C   0  0  0  0  0
   13.8380   -9.6860   17.3480 N   0  0  0  0  0
   12.0910   -7.1410   16.6490 C   0  0  0  0  0
   16.3060   -4.8580   14.8630 N   0  0  0  0  0
   10.3130   -8.7400   16.9510 C   0  0  0  0  0
   11.2010   -6.2550   16.0280 C   0  0  0  0  0
    9.4210   -7.8640   16.3340 C   0  0  0  0  0
   17.3520  -12.4440   16.7270 C   0  0  0  0  0
   12.3000  -10.1120   18.9000 C   0  0  0  0  0
   13.4370  -10.9050   19.1700 C   0  0  0  0  0
   15.2440   -7.4540   17.9170 C   0  0  0  0  0
   16.1270   -5.3260   17.2190 C   0  0  0  0  0
    9.3800   -3.9420   13.8190 C   0  0  0  0  0
    8.9930   -3.6200   16.1070 C   0  0  0  0  0
    9.4260   -1.8600   14.7340 C   0  0  0  0  0
   11.6550   -8.3930   17.1190 C   0  0  0  0  0
   15.7260  -11.1920   18.0360 C   0  0  0  0  0
    9.8620   -6.6260   15.8730 C   0  0  0  0  0
    9.0950   -4.5030   15.0500 C   0  0  0  0  0
   16.0710  -11.9090   16.8800 C   0  0  0  0  0
   12.5530   -9.3550   17.7670 C   0  0  0  0  0
   14.3850  -10.6300   18.1990 C   0  0  0  0  0
   15.0960   -7.7830   16.5760 C   0  0  0  0  0
   15.9510   -5.7220   15.8940 C   0  0  0  0  0
   14.5350   -9.1240   16.1930 C   0  0  0  0  0
   18.7114  -11.4110   19.6680 H   0  0  0  0  0
   19.3009  -12.6748   17.6190 H   0  0  0  0  0
   15.8902   -5.9163   19.2773 H   0  0  0  0  0
   16.4381  -10.4587   19.9431 H   0  0  0  0  0
   13.1362   -6.8561   16.7697 H   0  0  0  0  0
   16.1824   -5.1447   13.8920 H   0  0  0  0  0
   16.6899   -3.9378   15.0781 H   0  0  0  0  0
    9.9585   -9.7075   17.3065 H   0  0  0  0  0
   11.5490   -5.2863   15.6693 H   0  0  0  0  0
    8.3759   -8.1487   16.2121 H   0  0  0  0  0
   17.6095  -13.0013   15.8263 H   0  0  0  0  0
   11.3796  -10.0977   19.4837 H   0  0  0  0  0
   13.5484  -11.6081   19.9955 H   0  0  0  0  0
   14.9589   -8.1565   18.7001 H   0  0  0  0  0
   16.5404   -4.3455   17.4553 H   0  0  0  0  0
    9.4723   -4.6049   12.9587 H   0  0  0  0  0
    8.7730   -4.0223   17.0959 H   0  0  0  0  0
    9.5631   -0.7861   14.6070 H   0  0  0  0  0
   13.8411   -9.0114   15.3599 H   0  0  0  0  0
   15.3419   -9.7898   15.8869 H   0  0  0  0  0
  1  5  4  0  0  0
  9  1  4  0  0  0
 21  2  4  0  0  0
  2 23  4  0  0  0
 26  3  1  0  0  0
  3 27  1  0  0  0
 28  4  1  0  0  0
 16  5  4  0  0  0
 22  6  4  0  0  0
  6 23  4  0  0  0
 19  7  4  0  0  0
  7 20  4  0  0  0
 31  8  4  0  0  0
  8 32  4  0  0  0
 25  9  4  0  0  0
 10 29  4  0  0  0
 10 30  4  0  0  0
 33 10  1  0  0  0
 11 14  4  0  0  0
 24 11  4  0  0  0
 32 12  1  0  0  0
 13 15  4  0  0  0
 24 13  4  0  0  0
 14 26  4  0  0  0
 15 26  4  0  0  0
 28 16  4  0  0  0
 18 17  4  0  0  0
 29 17  4  0  0  0
 30 18  4  0  0  0
 31 19  4  0  0  0
 32 20  4  0  0  0
 27 21  4  0  0  0
 27 22  4  0  0  0
 29 24  1  0  0  0
 25 28  4  0  0  0
 30 25  1  0  0  0
 31 33  1  0  0  0
  1 34  1  0  0  0
  5 35  1  0  0  0
  7 36  1  0  0  0
  9 37  1  0  0  0
 11 38  1  0  0  0
 12 39  1  0  0  0
 12 40  1  0  0  0
 13 41  1  0  0  0
 14 42  1  0  0  0
 15 43  1  0  0  0
 16 44  1  0  0  0
 17 45  1  0  0  0
 18 46  1  0  0  0
 19 47  1  0  0  0
 20 48  1  0  0  0
 21 49  1  0  0  0
 22 50  1  0  0  0
 23 51  1  0  0  0
 33 52  1  0  0  0
 33 53  1  0  0  0
M  END
$$$$
