3djp_ligand
  -I-interpret- 

 34 35  0  0  0  0  0  0  0  0999 V2000
   29.8500   39.5820    6.6920 N   0  0  0  0  0
   29.5960   38.5630    5.7440 C   0  0  0  0  0
   29.4950   37.3800    6.1200 O   0  0  0  0  0
   29.4910   38.8800    4.4460 N   0  0  0  0  0
   29.6270   40.1420    4.0100 C   0  0  0  0  0
   29.5410   40.3830    2.7830 O   0  0  0  0  0
   29.8570   41.1750    4.9190 C   0  0  0  0  0
   29.9470   40.8560    6.2740 C   0  0  0  0  0
   30.7980   42.6090    9.0280 O   0  0  0  0  0
   30.6840   41.9340   10.2880 C   0  0  0  0  0
   30.2010   40.4960   10.1070 C   0  0  0  0  0
   29.4660   40.4010    8.8850 O   0  0  0  0  0
   31.3140   39.4540   10.0530 C   0  0  0  0  0
   31.1090   38.4530   11.0250 O   0  0  0  0  0
   31.1200   38.6360    8.7970 C   0  0  0  0  0
   32.3370   38.5620    8.0840 O   0  0  0  0  0
   29.8890   39.2580    8.1270 C   0  0  0  0  0
   32.2810   39.8300   12.9660 O   0  0  0  0  0
   32.2010   38.2390   12.1790 P   0  0  0  0  0
   33.6240   37.8620   11.5530 O   0  0  0  0  0
   31.7100   36.9470   13.2920 O   0  0  0  0  0
   29.3022   38.1403    3.7696 H   0  0  0  0  0
   29.9637   42.2051    4.5791 H   0  0  0  0  0
   30.0981   41.6510    7.0042 H   0  0  0  0  0
   31.1026   43.5076    9.1741 H   0  0  0  0  0
   29.9597   42.4681   10.9030 H   0  0  0  0  0
   31.6663   41.9128   10.7599 H   0  0  0  0  0
   29.5955   40.2775   10.9866 H   0  0  0  0  0
   32.2585   39.9887   10.1532 H   0  0  0  0  0
   30.8984   37.5769    8.9281 H   0  0  0  0  0
   32.2088   38.0417    7.2875 H   0  0  0  0  0
   29.2142   38.4021    8.1410 H   0  0  0  0  0
   31.4225   40.0455   13.3376 H   0  0  0  0  0
   30.8562   37.1627   13.6742 H   0  0  0  0  0
  1  2  1  0  0  0
  1  8  1  0  0  0
 17  1  1  0  0  0
  2  3  2  0  0  0
  2  4  1  0  0  0
  4  5  1  0  0  0
  5  6  2  0  0  0
  7  5  1  0  0  0
  8  7  2  0  0  0
 10  9  1  0  0  0
 11 10  1  0  0  0
 12 11  1  0  0  0
 11 13  1  0  0  0
 12 17  1  0  0  0
 13 14  1  0  0  0
 13 15  1  0  0  0
 14 19  1  0  0  0
 15 16  1  0  0  0
 15 17  1  0  0  0
 19 18  1  0  0  0
 19 20  2  0  0  0
 19 21  1  0  0  0
  4 22  1  0  0  0
  7 23  1  0  0  0
  8 24  1  0  0  0
  9 25  1  0  0  0
 10 26  1  0  0  0
 10 27  1  0  0  0
 11 28  1  0  0  0
 13 29  1  0  0  0
 15 30  1  0  0  0
 16 31  1  0  0  0
 17 32  1  0  0  0
 18 33  1  0  0  0
 21 34  1  0  0  0
M  END
$$$$
