3qkk_ligand
  -I-interpret- 

 77 80  0  0  0  0  0  0  0  0999 V2000
   24.7570    6.2360    7.7600 C   0  0  0  0  0
   24.3380    4.9520    8.1740 C   0  0  0  0  0
   25.1200    4.2430    9.1050 C   0  0  0  0  0
   26.2970    4.8260    9.6130 C   0  0  0  0  0
   26.7170    6.1140    9.1930 C   0  0  0  0  0
   25.9470    6.8290    8.2470 C   0  0  0  0  0
   27.0350    4.1350   10.5320 O   0  0  0  0  0
   27.7460    4.8610   11.5220 C   0  0  0  0  0
   28.7060    5.8210   10.7800 C   0  0  0  0  0
   27.9650    6.6790    9.7610 C   0  0  0  0  0
   28.6050    3.8830   12.3530 C   0  0  0  0  0
   27.8180    3.0240   13.2980 N   0  3  0  0  0
   26.8650    3.7760   14.1620 C   0  0  0  0  0
   25.9260    4.7360   13.3740 C   0  0  0  0  0
   26.7200    5.6300   12.4060 C   0  0  0  0  0
   23.9560    6.9010    6.8730 O   0  0  0  0  0
   28.4820    7.7300    9.4160 O   0  0  0  0  0
   28.6990    2.1160   14.0680 C   0  0  0  0  0
   29.4430    1.0710   13.2160 C   0  0  0  0  0
   28.5690    0.5520   12.2220 O   0  0  0  0  0
   29.9590   -0.0870   14.0930 C   0  0  0  0  0
   31.1240   -0.7900   13.4820 N   0  0  0  0  0
   30.8000   -2.0240   12.7110 C   0  0  0  0  0
   30.4220   -3.1840   13.6670 C   0  0  0  0  0
   32.5740    1.5190   12.6520 C   0  0  0  0  0
   32.6510    2.6960   13.4420 C   0  0  0  0  0
   32.5150    3.9600   12.8400 C   0  0  0  0  0
   32.3000    4.0450   11.4480 C   0  0  0  0  0
   32.2160    2.8830   10.6490 C   0  0  0  0  0
   32.3480    1.6190   11.2540 C   0  0  0  0  0
   32.2530    0.3860   10.3620 C   0  0  0  0  0
   32.8650    2.6340   14.9490 C   0  0  0  0  0
   32.7350   -0.1170   13.4810 S   0  0  0  0  0
   33.1400    0.1300   14.8650 O   0  0  0  0  0
   33.5950   -1.0000   12.6950 O   0  0  0  0  0
   30.3860   -4.4050   12.9410 O   0  0  0  0  0
   30.3510   -6.7710   12.9130 C   0  0  0  0  0
   30.5770   -5.5280   13.7770 C   0  0  0  0  0
   23.4210    4.5160    7.7776 H   0  0  0  0  0
   24.8163    3.2482    9.4310 H   0  0  0  0  0
   26.2620    7.8134    7.9008 H   0  0  0  0  0
   29.4495    5.2241   10.2518 H   0  0  0  0  0
   29.1686    6.4807   11.5141 H   0  0  0  0  0
   29.2852    4.4847   12.9558 H   0  0  0  0  0
   29.1030    3.2152   11.6501 H   0  0  0  0  0
   27.2184    2.4440   12.7111 H   0  0  0  0  0
   27.4568    4.3870   14.8436 H   0  0  0  0  0
   26.2335    3.0431   14.6641 H   0  0  0  0  0
   25.4068    5.3752   14.0881 H   0  0  0  0  0
   25.2252    4.1354   12.7941 H   0  0  0  0  0
   25.9994    6.0938   11.7324 H   0  0  0  0  0
   27.2851    6.3378   13.0124 H   0  0  0  0  0
   24.3449    7.7550    6.6704 H   0  0  0  0  0
   28.0621    1.5666   14.7612 H   0  0  0  0  0
   29.4577    2.7369   14.5445 H   0  0  0  0  0
   30.2952    1.5597   12.7436 H   0  0  0  0  0
   29.0373   -0.0986   11.6939 H   0  0  0  0  0
   29.1510   -0.8098   14.2056 H   0  0  0  0  0
   30.2805    0.3308   15.0470 H   0  0  0  0  0
   31.6749   -2.3167   12.1306 H   0  0  0  0  0
   29.9540   -1.8179   12.0554 H   0  0  0  0  0
   29.4412   -2.9911   14.1016 H   0  0  0  0  0
   31.1646   -3.2560   14.4616 H   0  0  0  0  0
   32.5752    4.8658   13.4434 H   0  0  0  0  0
   32.1969    5.0245   10.9810 H   0  0  0  0  0
   32.0506    2.9645    9.5747 H   0  0  0  0  0
   33.1856   -0.1752   10.4196 H   0  0  0  0  0
   31.4282   -0.2419   10.6989 H   0  0  0  0  0
   32.0775    0.6968    9.3321 H   0  0  0  0  0
   32.0463    2.0802   15.4085 H   0  0  0  0  0
   33.8089    2.1315   15.1603 H   0  0  0  0  0
   32.8924    3.6461   15.3527 H   0  0  0  0  0
   29.3369   -6.7549   12.5137 H   0  0  0  0  0
   31.0666   -6.7754   12.0908 H   0  0  0  0  0
   30.4891   -7.6648   13.5214 H   0  0  0  0  0
   29.8803   -5.5084   14.6151 H   0  0  0  0  0
   31.5819   -5.5287   14.1991 H   0  0  0  0  0
  2  1  4  0  0  0
  6  1  4  0  0  0
  1 16  1  0  0  0
  3  2  4  0  0  0
  4  3  4  0  0  0
  4  5  4  0  0  0
  7  4  1  0  0  0
  5  6  4  0  0  0
 10  5  1  0  0  0
  8  7  1  0  0  0
  8  9  1  0  0  0
 11  8  1  0  0  0
  8 15  1  0  0  0
  9 10  1  0  0  0
 10 17  2  0  0  0
 12 11  1  0  0  0
 12 13  1  0  0  0
 18 12  1  0  0  0
 13 14  1  0  0  0
 14 15  1  0  0  0
 19 18  1  0  0  0
 19 20  1  0  0  0
 21 19  1  0  0  0
 22 21  1  0  0  0
 22 23  1  0  0  0
 33 22  1  0  0  0
 23 24  1  0  0  0
 24 36  1  0  0  0
 25 26  4  0  0  0
 25 30  4  0  0  0
 25 33  1  0  0  0
 26 27  4  0  0  0
 26 32  1  0  0  0
 27 28  4  0  0  0
 28 29  4  0  0  0
 29 30  4  0  0  0
 30 31  1  0  0  0
 33 34  2  0  0  0
 33 35  2  0  0  0
 36 38  1  0  0  0
 38 37  1  0  0  0
  2 39  1  0  0  0
  3 40  1  0  0  0
  6 41  1  0  0  0
  9 42  1  0  0  0
  9 43  1  0  0  0
 11 44  1  0  0  0
 11 45  1  0  0  0
 12 46  1  0  0  0
 13 47  1  0  0  0
 13 48  1  0  0  0
 14 49  1  0  0  0
 14 50  1  0  0  0
 15 51  1  0  0  0
 15 52  1  0  0  0
 16 53  1  0  0  0
 18 54  1  0  0  0
 18 55  1  0  0  0
 19 56  1  0  0  0
 20 57  1  0  0  0
 21 58  1  0  0  0
 21 59  1  0  0  0
 23 60  1  0  0  0
 23 61  1  0  0  0
 24 62  1  0  0  0
 24 63  1  0  0  0
 27 64  1  0  0  0
 28 65  1  0  0  0
 29 66  1  0  0  0
 31 67  1  0  0  0
 31 68  1  0  0  0
 31 69  1  0  0  0
 32 70  1  0  0  0
 32 71  1  0  0  0
 32 72  1  0  0  0
 37 73  1  0  0  0
 37 74  1  0  0  0
 37 75  1  0  0  0
 38 76  1  0  0  0
 38 77  1  0  0  0
M  END
$$$$
