### 
### Created by X-TOOL on Mon Sep 10 21:13:07 2018
### 

@<TRIPOS>MOLECULE
3qkk_ligand
   76    79     1     0     0
SMALL
GAST_HUCK


@<TRIPOS>ATOM
      1 C1         24.7570    6.2360    7.7600 C.ar      1 SMH         0.0820
      2 C2         24.3380    4.9520    8.1740 C.ar      1 SMH        -0.0366
      3 C3         25.1200    4.2430    9.1050 C.ar      1 SMH        -0.0343
      4 C4         26.2970    4.8260    9.6130 C.ar      1 SMH         0.1015
      5 C5         26.7170    6.1140    9.1930 C.ar      1 SMH         0.0530
      6 C6         25.9470    6.8290    8.2470 C.ar      1 SMH        -0.0229
      7 O7         27.0350    4.1350   10.5320 O.3       1 SMH        -0.3126
      8 C8         27.7460    4.8610   11.5220 C.3       1 SMH         0.0878
      9 C9         28.7060    5.8210   10.7800 C.3       1 SMH         0.0518
     10 C10        27.9650    6.6790    9.7610 C.2       1 SMH         0.1279
     11 C11        28.6050    3.8830   12.3530 C.3       1 SMH        -0.0765
     12 N12        27.8180    3.0240   13.2980 N.4       1 SMH         0.4069
     13 C13        26.8650    3.7760   14.1620 C.3       1 SMH        -0.1126
     14 C14        25.9260    4.7360   13.3740 C.3       1 SMH        -0.0687
     15 C15        26.7200    5.6300   12.4060 C.3       1 SMH        -0.0211
     16 O16        23.9560    6.9010    6.8730 O.3       1 SMH        -0.3392
     17 O17        28.4820    7.7300    9.4160 O.2       1 SMH        -0.3851
     18 C18        28.6990    2.1160   14.0680 C.3       1 SMH        -0.0847
     19 C19        29.4430    1.0710   13.2160 C.3       1 SMH         0.0539
     20 O20        28.5690    0.5520   12.2220 O.3       1 SMH        -0.3922
     21 C21        29.9590   -0.0870   14.0930 C.3       1 SMH         0.0536
     22 N22        31.1240   -0.7900   13.4820 N.am      1 SMH        -0.2313
     23 C23        30.8000   -2.0240   12.7110 C.3       1 SMH         0.0529
     24 C24        30.4220   -3.1840   13.6670 C.3       1 SMH         0.0646
     25 C25        32.5740    1.5190   12.6520 C.ar      1 SMH         0.1099
     26 C26        32.6510    2.6960   13.4420 C.ar      1 SMH        -0.0263
     27 C27        32.5150    3.9600   12.8400 C.ar      1 SMH        -0.0657
     28 C28        32.3000    4.0450   11.4480 C.ar      1 SMH        -0.0751
     29 C29        32.2160    2.8830   10.6490 C.ar      1 SMH        -0.0657
     30 C30        32.3480    1.6190   11.2540 C.ar      1 SMH        -0.0263
     31 C31        32.2530    0.3860   10.3620 C.3       1 SMH        -0.0309
     32 C32        32.8650    2.6340   14.9490 C.3       1 SMH        -0.0309
     33 S33        32.7350   -0.1170   13.4810 S.o2      1 SMH         0.0655
     34 O34        33.1400    0.1300   14.8650 O.2       1 SMH        -0.1523
     35 O35        33.5950   -1.0000   12.6950 O.2       1 SMH        -0.1523
     36 O36        30.3860   -4.4050   12.9410 O.3       1 SMH        -0.3784
     37 C37        30.3510   -6.7710   12.9130 C.3       1 SMH        -0.0416
     38 C38        30.5770   -5.5280   13.7770 C.3       1 SMH         0.0449
     39 H          23.4210    4.5160    7.7776 H         1 SMH         0.0558
     40 H          24.8163    3.2482    9.4310 H         1 SMH         0.0531
     41 H          26.2620    7.8134    7.9008 H         1 SMH         0.0565
     42 H          29.4495    5.2241   10.2518 H         1 SMH         0.0514
     43 H          29.1686    6.4807   11.5141 H         1 SMH         0.0514
     44 H          29.2852    4.4847   12.9558 H         1 SMH         0.0051
     45 H          29.1030    3.2152   11.6501 H         1 SMH         0.0051
     46 H          27.4568    4.3870   14.8436 H         1 SMH         0.0017
     47 H          26.2335    3.0431   14.6641 H         1 SMH         0.0017
     48 H          25.4068    5.3752   14.0881 H         1 SMH         0.0247
     49 H          25.2252    4.1354   12.7941 H         1 SMH         0.0247
     50 H          25.9994    6.0938   11.7324 H         1 SMH         0.0297
     51 H          27.2851    6.3378   13.0124 H         1 SMH         0.0297
     52 H          23.1993    6.3525    6.6534 H         1 SMH         0.2444
     53 H          28.0621    1.5666   14.7612 H         1 SMH         0.0043
     54 H          29.4577    2.7369   14.5445 H         1 SMH         0.0043
     55 H          30.2952    1.5597   12.7436 H         1 SMH         0.0589
     56 H          27.8139    0.1380   12.6461 H         1 SMH         0.2098
     57 H          29.1510   -0.8098   14.2056 H         1 SMH         0.0503
     58 H          30.2805    0.3308   15.0470 H         1 SMH         0.0503
     59 H          31.6749   -2.3167   12.1306 H         1 SMH         0.0501
     60 H          29.9540   -1.8179   12.0554 H         1 SMH         0.0501
     61 H          29.4412   -2.9911   14.1016 H         1 SMH         0.0576
     62 H          31.1646   -3.2560   14.4616 H         1 SMH         0.0576
     63 H          32.5752    4.8658   13.4434 H         1 SMH         0.0500
     64 H          32.1969    5.0245   10.9810 H         1 SMH         0.0582
     65 H          32.0506    2.9645    9.5747 H         1 SMH         0.0500
     66 H          31.2789    0.3669    9.8732 H         1 SMH         0.0390
     67 H          33.0388    0.4235    9.6075 H         1 SMH         0.0390
     68 H          32.3736   -0.5107   10.9698 H         1 SMH         0.0390
     69 H          32.0463    2.0802   15.4085 H         1 SMH         0.0390
     70 H          33.8089    2.1315   15.1603 H         1 SMH         0.0390
     71 H          32.8924    3.6461   15.3527 H         1 SMH         0.0390
     72 H          29.3369   -6.7549   12.5137 H         1 SMH         0.0252
     73 H          31.0666   -6.7754   12.0908 H         1 SMH         0.0252
     74 H          30.4891   -7.6648   13.5214 H         1 SMH         0.0252
     75 H          29.8803   -5.5084   14.6151 H         1 SMH         0.0557
     76 H          31.5819   -5.5287   14.1991 H         1 SMH         0.0557
@<TRIPOS>BOND
     1    2    1 ar 
     2    6    1 ar 
     3    1   16 1  
     4    3    2 ar 
     5    4    3 ar 
     6    4    5 ar 
     7    7    4 1  
     8    5    6 ar 
     9   10    5 1  
    10    8    7 1  
    11    8    9 1  
    12   11    8 1  
    13    8   15 1  
    14    9   10 1  
    15   10   17 2  
    16   12   11 1  
    17   12   13 1  
    18   18   12 1  
    19   13   14 1  
    20   14   15 1  
    21   19   18 1  
    22   19   20 1  
    23   21   19 1  
    24   22   21 1  
    25   22   23 1  
    26   33   22 am 
    27   23   24 1  
    28   24   36 1  
    29   25   26 ar 
    30   25   30 ar 
    31   25   33 1  
    32   26   27 ar 
    33   26   32 1  
    34   27   28 ar 
    35   28   29 ar 
    36   29   30 ar 
    37   30   31 1  
    38   33   34 2  
    39   33   35 2  
    40   36   38 1  
    41   38   37 1  
    42    2   39 1  
    43    3   40 1  
    44    6   41 1  
    45    9   42 1  
    46    9   43 1  
    47   11   44 1  
    48   11   45 1  
    49   13   46 1  
    50   13   47 1  
    51   14   48 1  
    52   14   49 1  
    53   15   50 1  
    54   15   51 1  
    55   16   52 1  
    56   18   53 1  
    57   18   54 1  
    58   19   55 1  
    59   20   56 1  
    60   21   57 1  
    61   21   58 1  
    62   23   59 1  
    63   23   60 1  
    64   24   61 1  
    65   24   62 1  
    66   27   63 1  
    67   28   64 1  
    68   29   65 1  
    69   31   66 1  
    70   31   67 1  
    71   31   68 1  
    72   32   69 1  
    73   32   70 1  
    74   32   71 1  
    75   37   72 1  
    76   37   73 1  
    77   37   74 1  
    78   38   75 1  
    79   38   76 1  
@<TRIPOS>SUBSTRUCTURE
     1 SMH         1

