4nni_ligand
  -I-interpret- 

 13 13  0  0  0  0  0  0  0  0999 V2000
   15.4570    6.5040   22.1390 C   0  0  0  0  0
   15.3250    4.6860   23.5590 C   0  0  0  0  0
   16.6700    4.3810   23.2690 C   0  0  0  0  0
   14.8030    7.6740   21.4980 C   0  0  0  0  0
   16.7960    6.2030   21.8350 C   0  0  0  0  0
   13.7130    8.0630   21.9990 O   0  0  0  0  0
   15.3670    8.1940   20.4870 O   0  0  0  0  0
   14.7120    5.7490   22.9890 N   0  0  0  0  0
   17.3840    5.1380   22.3930 N   0  0  0  0  0
   14.7698    4.0555   24.2535 H   0  0  0  0  0
   17.1443    3.5273   23.7530 H   0  0  0  0  0
   17.3547    6.8361   21.1457 H   0  0  0  0  0
   16.1824    7.7233   20.2995 H   0  0  0  0  0
  1  4  1  0  0  0
  1  5  4  0  0  0
  8  1  4  0  0  0
  2  3  4  0  0  0
  2  8  4  0  0  0
  3  9  4  0  0  0
  4  6  2  0  0  0
  4  7  1  0  0  0
  5  9  4  0  0  0
  2 10  1  0  0  0
  3 11  1  0  0  0
  5 12  1  0  0  0
  7 13  1  0  0  0
M  END
$$$$
