5kq5_ligand
  -I-interpret- 

 62 69  0  0  0  0  0  0  0  0999 V2000
   42.4750  -86.5290  -26.5930 O   0  0  0  0  0
   43.0260  -87.5250  -25.7190 C   0  0  0  0  0
   42.0430  -88.0860  -24.6900 C   0  0  0  0  0
   40.6240  -87.6170  -24.9520 C   0  0  0  0  0
   40.6320  -86.0990  -24.9830 C   0  0  0  0  0
   41.5770  -85.5510  -26.0560 C   0  0  0  0  0
   40.7320  -85.0910  -27.2410 C   0  0  0  0  0
   42.3420  -84.3910  -25.4990 N   0  0  0  0  0
   43.5660  -84.4950  -24.9230 C   0  0  0  0  0
   44.4450  -85.6830  -24.7150 C   0  0  0  0  0
   45.7430  -85.5110  -24.0630 C   0  0  0  0  0
   46.1280  -84.1400  -23.6380 C   0  0  0  0  0
   45.3030  -82.9500  -23.8220 C   0  0  0  0  0
   43.9810  -83.1480  -24.4890 C   0  0  0  0  0
   42.8720  -82.2680  -24.8630 C   0  0  0  0  0
   41.8370  -83.1180  -25.5050 C   0  0  0  0  0
   40.6790  -82.5010  -25.9510 C   0  0  0  0  0
   40.5440  -81.1220  -25.7730 C   0  0  0  0  0
   41.5340  -80.3420  -25.1630 C   0  0  0  0  0
   42.7200  -80.9040  -24.6950 C   0  0  0  0  0
   45.9790  -81.7750  -23.2930 C   0  0  0  0  0
   47.2760  -82.2870  -22.7640 N   0  0  0  0  0
   47.3380  -83.6290  -22.9700 C   0  0  0  0  0
   48.3340  -84.3640  -22.6240 O   0  0  0  0  0
   46.3160  -86.8460  -24.0260 C   0  0  0  0  0
   45.3140  -87.7370  -24.6610 C   0  0  0  0  0
   45.6380  -89.0840  -24.7440 C   0  0  0  0  0
   46.8630  -89.5210  -24.2350 C   0  0  0  0  0
   47.7860  -88.6530  -23.6420 C   0  0  0  0  0
   47.5270  -87.2900  -23.5250 C   0  0  0  0  0
   44.2290  -86.9820  -25.0420 N   0  0  0  0  0
   40.9890  -85.6220  -23.6840 O   0  0  0  0  0
   39.9680  -84.7980  -23.1250 C   0  0  0  0  0
   39.7350  -88.0970  -23.9130 N   0  3  0  0  0
   38.2990  -87.9690  -24.0730 C   0  0  0  0  0
   43.2891  -88.3712  -26.3537 H   0  0  0  0  0
   42.3430  -87.7348  -23.7027 H   0  0  0  0  0
   42.0619  -89.1738  -24.7558 H   0  0  0  0  0
   40.2660  -88.0105  -25.9034 H   0  0  0  0  0
   39.6362  -85.7429  -25.2472 H   0  0  0  0  0
   40.0332  -84.3225  -26.9107 H   0  0  0  0  0
   41.3837  -84.6834  -28.0138 H   0  0  0  0  0
   40.1778  -85.9398  -27.6417 H   0  0  0  0  0
   39.8898  -83.0798  -26.4308 H   0  0  0  0  0
   39.6336  -80.6348  -26.1222 H   0  0  0  0  0
   41.3731  -79.2697  -25.0516 H   0  0  0  0  0
   43.4908  -80.2976  -24.2194 H   0  0  0  0  0
   45.3908  -81.2831  -22.5183 H   0  0  0  0  0
   46.1256  -81.0126  -24.0581 H   0  0  0  0  0
   47.9994  -81.7216  -22.3196 H   0  0  0  0  0
   44.9456  -89.7914  -25.2004 H   0  0  0  0  0
   47.1097  -90.5806  -24.3025 H   0  0  0  0  0
   48.7272  -89.0519  -23.2638 H   0  0  0  0  0
   48.2410  -86.6083  -23.0628 H   0  0  0  0  0
   39.8018  -83.9375  -23.7732 H   0  0  0  0  0
   39.0459  -85.3727  -23.0384 H   0  0  0  0  0
   40.2787  -84.4562  -22.1377 H   0  0  0  0  0
   39.9543  -87.5188  -23.1018 H   0  0  0  0  0
   39.8998  -89.1031  -23.8804 H   0  0  0  0  0
   38.0389  -86.9157  -24.1784 H   0  0  0  0  0
   37.9840  -88.5132  -24.9633 H   0  0  0  0  0
   37.7989  -88.3822  -23.1971 H   0  0  0  0  0
  1  2  1  0  0  0
  1  6  1  0  0  0
  2  3  1  0  0  0
  2 31  1  0  0  0
  3  4  1  0  0  0
  4  5  1  0  0  0
  4 34  1  0  0  0
  5  6  1  0  0  0
  5 32  1  0  0  0
  6  7  1  0  0  0
  6  8  1  0  0  0
  8  9  4  0  0  0
  8 16  4  0  0  0
  9 10  4  0  0  0
  9 14  4  0  0  0
 10 11  4  0  0  0
 10 31  4  0  0  0
 11 12  4  0  0  0
 11 25  4  0  0  0
 12 13  4  0  0  0
 12 23  1  0  0  0
 13 14  4  0  0  0
 13 21  1  0  0  0
 14 15  4  0  0  0
 15 16  4  0  0  0
 15 20  4  0  0  0
 16 17  4  0  0  0
 17 18  4  0  0  0
 18 19  4  0  0  0
 19 20  4  0  0  0
 21 22  1  0  0  0
 22 23  1  0  0  0
 23 24  2  0  0  0
 25 26  4  0  0  0
 25 30  4  0  0  0
 26 27  4  0  0  0
 26 31  4  0  0  0
 27 28  4  0  0  0
 28 29  4  0  0  0
 29 30  4  0  0  0
 32 33  1  0  0  0
 34 35  1  0  0  0
  2 36  1  0  0  0
  3 37  1  0  0  0
  3 38  1  0  0  0
  4 39  1  0  0  0
  5 40  1  0  0  0
  7 41  1  0  0  0
  7 42  1  0  0  0
  7 43  1  0  0  0
 17 44  1  0  0  0
 18 45  1  0  0  0
 19 46  1  0  0  0
 20 47  1  0  0  0
 21 48  1  0  0  0
 21 49  1  0  0  0
 22 50  1  0  0  0
 27 51  1  0  0  0
 28 52  1  0  0  0
 29 53  1  0  0  0
 30 54  1  0  0  0
 33 55  1  0  0  0
 33 56  1  0  0  0
 33 57  1  0  0  0
 34 58  1  0  0  0
 34 59  1  0  0  0
 35 60  1  0  0  0
 35 61  1  0  0  0
 35 62  1  0  0  0
M  END
$$$$
