### 
### Created by X-TOOL on Mon Sep 10 21:13:02 2018
### 

@<TRIPOS>MOLECULE
3gpe_ligand
   33    33     1     0     0
SMALL
GAST_HUCK


@<TRIPOS>ATOM
      1 O12        31.0180  -20.4850   20.6360 O.co2     1 PT5        -0.5537
      2 P1         29.9050  -21.4880   20.4500 P.3       1 PT5         0.2013
      3 O13        28.6940  -21.4480   21.3500 O.co2     1 PT5        -0.5537
      4 O11        29.4000  -21.3990   18.9260 O.co2     1 PT5        -0.5537
      5 O6         31.2800  -21.9360   17.9480 O.3       1 PT5        -0.3858
      6 O1         30.5370  -22.9660   20.5230 O.3       1 PT5        -0.2676
      7 C1         31.4900  -23.3970   19.5530 C.3       1 PT5         0.1460
      8 C6         32.1520  -22.1810   18.9150 C.3       1 PT5         0.1215
      9 C2         32.5180  -24.2990   20.2260 C.3       1 PT5         0.1168
     10 O2         33.0220  -23.6570   21.4030 O.3       1 PT5        -0.3861
     11 C3         33.6760  -24.6160   19.2860 C.3       1 PT5         0.1172
     12 O3         34.8760  -24.0150   19.7860 O.3       1 PT5        -0.3861
     13 C4         33.3980  -24.1050   17.8770 C.3       1 PT5         0.1503
     14 O4         32.2380  -24.7520   17.3560 O.3       1 PT5        -0.2672
     15 P4         31.4920  -24.1620   16.0560 P.3       1 PT5         0.2013
     16 O41        31.7040  -22.6700   16.1600 O.co2     1 PT5        -0.5537
     17 O42        32.2100  -24.8150   14.8970 O.co2     1 PT5        -0.5537
     18 O43        30.0570  -24.6020   16.2260 O.co2     1 PT5        -0.5537
     19 C5         33.1800  -22.5960   17.8690 C.3       1 PT5         0.1506
     20 O5         34.4140  -21.9290   18.1240 O.3       1 PT5        -0.2672
     21 P5         34.6640  -20.4400   17.5640 P.3       1 PT5         0.2013
     22 O52        36.0000  -20.0490   18.1500 O.co2     1 PT5        -0.5537
     23 O51        34.6680  -20.6120   16.0630 O.co2     1 PT5        -0.5537
     24 O53        33.4940  -19.6470   18.0970 O.co2     1 PT5        -0.5537
     25 H1         31.2223  -22.6923   17.3760 H         1 PT5         0.2100
     26 H2         30.9738  -23.9707   18.7692 H         1 PT5         0.0703
     27 H3         32.4390  -21.3810   19.6133 H         1 PT5         0.0654
     28 H4         32.0273  -25.2409   20.5123 H         1 PT5         0.0650
     29 H5         33.4319  -22.8343   21.1628 H         1 PT5         0.2100
     30 H6         33.8102  -25.7070   19.2459 H         1 PT5         0.0650
     31 H7         34.7592  -23.0737   19.8388 H         1 PT5         0.2100
     32 H8         34.2613  -24.3419   17.2378 H         1 PT5         0.0706
     33 H9         32.8117  -22.2994   16.8758 H         1 PT5         0.0706
@<TRIPOS>BOND
     1    2    1 ar 
     2    2    3 ar 
     3    2    4 ar 
     4    6    2 1  
     5    8    5 1  
     6    7    6 1  
     7    7    8 1  
     8    7    9 1  
     9    8   19 1  
    10    9   10 1  
    11    9   11 1  
    12   11   12 1  
    13   11   13 1  
    14   13   14 1  
    15   13   19 1  
    16   14   15 1  
    17   15   16 ar 
    18   15   17 ar 
    19   15   18 ar 
    20   19   20 1  
    21   20   21 1  
    22   21   22 ar 
    23   21   23 ar 
    24   21   24 ar 
    25    5   25 1  
    26    7   26 1  
    27    8   27 1  
    28    9   28 1  
    29   10   29 1  
    30   11   30 1  
    31   12   31 1  
    32   13   32 1  
    33   19   33 1  
@<TRIPOS>SUBSTRUCTURE
     1 PT5         1

