3gpe_ligand
  -I-interpret- 

 39 39  0  0  0  0  0  0  0  0999 V2000
   31.0180  -20.4850   20.6360 O   0  0  0  0  0
   29.9050  -21.4880   20.4500 P   0  0  0  0  0
   28.6940  -21.4480   21.3500 O   0  0  0  0  0
   29.4000  -21.3990   18.9260 O   0  0  0  0  0
   31.2800  -21.9360   17.9480 O   0  0  0  0  0
   30.5370  -22.9660   20.5230 O   0  0  0  0  0
   31.4900  -23.3970   19.5530 C   0  0  0  0  0
   32.1520  -22.1810   18.9150 C   0  0  0  0  0
   32.5180  -24.2990   20.2260 C   0  0  0  0  0
   33.0220  -23.6570   21.4030 O   0  0  0  0  0
   33.6760  -24.6160   19.2860 C   0  0  0  0  0
   34.8760  -24.0150   19.7860 O   0  0  0  0  0
   33.3980  -24.1050   17.8770 C   0  0  0  0  0
   32.2380  -24.7520   17.3560 O   0  0  0  0  0
   31.4920  -24.1620   16.0560 P   0  0  0  0  0
   31.7040  -22.6700   16.1600 O   0  0  0  0  0
   32.2100  -24.8150   14.8970 O   0  0  0  0  0
   30.0570  -24.6020   16.2260 O   0  0  0  0  0
   33.1800  -22.5960   17.8690 C   0  0  0  0  0
   34.4140  -21.9290   18.1240 O   0  0  0  0  0
   34.6640  -20.4400   17.5640 P   0  0  0  0  0
   36.0000  -20.0490   18.1500 O   0  0  0  0  0
   34.6680  -20.6120   16.0630 O   0  0  0  0  0
   33.4940  -19.6470   18.0970 O   0  0  0  0  0
   31.7064  -20.6486   19.9872 H   0  0  0  0  0
   30.1577  -21.4230   18.3371 H   0  0  0  0  0
   31.5700  -21.1728   17.4429 H   0  0  0  0  0
   30.9963  -23.9662   18.7653 H   0  0  0  0  0
   32.4780  -21.4907   19.6931 H   0  0  0  0  0
   32.0266  -25.2350   20.4917 H   0  0  0  0  0
   33.6691  -24.2270   21.8249 H   0  0  0  0  0
   33.7929  -25.6987   19.2396 H   0  0  0  0  0
   35.6040  -24.2155   19.1932 H   0  0  0  0  0
   34.2651  -24.3303   17.2562 H   0  0  0  0  0
   32.6357  -22.4713   16.0417 H   0  0  0  0  0
   33.1111  -24.4866   14.8543 H   0  0  0  0  0
   32.8027  -22.3141   16.8860 H   0  0  0  0  0
   33.7885  -20.8589   15.7680 H   0  0  0  0  0
   32.6853  -19.9520   17.6793 H   0  0  0  0  0
  2  1  1  0  0  0
  2  3  2  0  0  0
  2  4  1  0  0  0
  6  2  1  0  0  0
  8  5  1  0  0  0
  7  6  1  0  0  0
  7  8  1  0  0  0
  7  9  1  0  0  0
  8 19  1  0  0  0
  9 10  1  0  0  0
  9 11  1  0  0  0
 11 12  1  0  0  0
 11 13  1  0  0  0
 13 14  1  0  0  0
 13 19  1  0  0  0
 14 15  1  0  0  0
 15 16  1  0  0  0
 15 17  1  0  0  0
 15 18  2  0  0  0
 19 20  1  0  0  0
 20 21  1  0  0  0
 21 22  2  0  0  0
 21 23  1  0  0  0
 21 24  1  0  0  0
  1 25  1  0  0  0
  4 26  1  0  0  0
  5 27  1  0  0  0
  7 28  1  0  0  0
  8 29  1  0  0  0
  9 30  1  0  0  0
 10 31  1  0  0  0
 11 32  1  0  0  0
 12 33  1  0  0  0
 13 34  1  0  0  0
 16 35  1  0  0  0
 17 36  1  0  0  0
 19 37  1  0  0  0
 23 38  1  0  0  0
 24 39  1  0  0  0
M  END
$$$$
