5h9q_ligand
  -I-interpret- 

 75 80  0  0  0  0  0  0  0  0999 V2000
   24.0940  -26.6750   36.0750 C   0  0  0  0  0
   24.8240  -27.5310   35.0620 C   0  0  0  0  0
   24.9510  -28.9400   35.4830 C   0  0  0  0  0
   25.4730  -29.1130   36.8510 C   0  0  0  0  0
   24.7100  -28.2930   37.8730 C   0  0  0  0  0
   25.3660  -28.3410   39.1900 C   0  0  0  0  0
   27.2570  -30.1090   32.9860 N   0  0  0  0  0
   21.5110  -17.2460   35.5720 C   0  0  0  0  0
   22.6450  -16.9440   34.8660 C   0  0  0  0  0
   22.8680  -15.6090   34.4440 C   0  0  0  0  0
   22.7290  -24.2700   36.1470 C   0  0  0  0  0
   24.2820  -24.9750   35.6910 S   0  0  0  0  0
   24.4530  -26.8940   37.4880 O   0  0  0  0  0
   21.6670  -24.9880   35.3820 O   0  0  0  0  0
   20.3280  -24.4750   35.7040 C   0  0  0  0  0
   19.3450  -25.1820   34.8210 C   0  0  0  0  0
   24.9540  -29.4960   39.8270 O   0  0  0  0  0
   19.4430  -26.5570   35.0930 O   0  0  0  0  0
   20.2860  -22.9830   35.5050 C   0  0  0  0  0
   26.8300  -28.7050   36.8760 O   0  0  0  0  0
   20.5600  -22.6760   34.0920 O   0  0  0  0  0
   21.3240  -22.3300   36.3390 C   0  0  0  0  0
   22.6860  -22.7890   35.9640 C   0  0  0  0  0
   23.6620  -22.1850   36.8710 O   0  0  0  0  0
   24.1880  -27.4550   33.7930 O   0  0  0  0  0
   21.1510  -20.8500   36.3800 N   0  0  0  0  0
   21.7510  -19.8890   35.5830 C   0  0  0  0  0
   21.2290  -18.6610   36.0480 C   0  0  0  0  0
   20.3760  -18.9690   37.0650 N   0  0  0  0  0
   20.3620  -20.2720   37.2200 N   0  0  0  0  0
   25.7350  -29.6970   34.4930 N   0  0  0  0  0
   26.7700  -29.2000   33.7810 N   0  0  0  0  0
   26.5470  -31.2560   33.1460 C   0  0  0  0  0
   25.5330  -30.9670   34.1520 C   0  0  0  0  0
   21.9230  -14.5830   34.7540 C   0  0  0  0  0
   20.8070  -14.8800   35.4550 C   0  0  0  0  0
   20.5790  -16.2280   35.8820 C   0  0  0  0  0
   26.7770  -32.5620   32.4170 C   0  0  0  0  0
   26.3640  -33.7850   32.9940 C   0  0  0  0  0
   26.5850  -34.9940   32.3090 C   0  0  0  0  0
   27.2050  -34.9830   31.0770 C   0  0  0  0  0
   27.6120  -33.7780   30.5120 C   0  0  0  0  0
   27.3860  -32.5520   31.2070 C   0  0  0  0  0
   23.9750  -15.3030   33.7470 F   0  0  0  0  0
   28.2210  -33.7610   29.3040 F   0  0  0  0  0
   23.0554  -26.9940   35.9874 H   0  0  0  0  0
   25.8344  -27.1289   34.9882 H   0  0  0  0  0
   23.9408  -29.3477   35.5206 H   0  0  0  0  0
   25.3615  -30.1650   37.1136 H   0  0  0  0  0
   23.7305  -28.7685   37.9244 H   0  0  0  0  0
   25.0931  -27.4662   39.7801 H   0  0  0  0  0
   26.4497  -28.3403   39.0726 H   0  0  0  0  0
   23.3698  -17.7233   34.6306 H   0  0  0  0  0
   22.5621  -24.4037   37.2158 H   0  0  0  0  0
   20.0758  -24.6636   36.7475 H   0  0  0  0  0
   19.5656  -24.9850   33.7719 H   0  0  0  0  0
   18.3334  -24.8266   35.0169 H   0  0  0  0  0
   25.3699  -29.5496   40.6906 H   0  0  0  0  0
   18.8222  -27.0366   34.5396 H   0  0  0  0  0
   19.3009  -22.6145   35.7913 H   0  0  0  0  0
   27.3283  -29.2153   36.2334 H   0  0  0  0  0
   20.5340  -21.7253   33.9614 H   0  0  0  0  0
   21.1914  -22.6497   37.3726 H   0  0  0  0  0
   22.9144  -22.5098   34.9354 H   0  0  0  0  0
   23.6472  -21.2309   36.7659 H   0  0  0  0  0
   24.1109  -26.5351   33.5296 H   0  0  0  0  0
   22.4670  -20.0454   34.7761 H   0  0  0  0  0
   24.7732  -31.6449   34.5410 H   0  0  0  0  0
   22.1028  -13.5597   34.4245 H   0  0  0  0  0
   20.0850  -14.0991   35.6940 H   0  0  0  0  0
   19.6810  -16.4712   36.4499 H   0  0  0  0  0
   25.8751  -33.7912   33.9682 H   0  0  0  0  0
   26.2667  -35.9380   32.7514 H   0  0  0  0  0
   27.3764  -35.9190   30.5454 H   0  0  0  0  0
   27.7034  -31.6079   30.7642 H   0  0  0  0  0
  2  1  1  0  0  0
  1 12  1  0  0  0
  1 13  1  0  0  0
  3  2  1  0  0  0
  2 25  1  0  0  0
  3  4  1  0  0  0
 31  3  1  0  0  0
  4  5  1  0  0  0
  4 20  1  0  0  0
  5  6  1  0  0  0
  5 13  1  0  0  0
  6 17  1  0  0  0
 32  7  4  0  0  0
  7 33  4  0  0  0
  8  9  4  0  0  0
 28  8  1  0  0  0
  8 37  4  0  0  0
  9 10  4  0  0  0
 10 35  4  0  0  0
 10 44  1  0  0  0
 12 11  1  0  0  0
 11 14  1  0  0  0
 11 23  1  0  0  0
 14 15  1  0  0  0
 15 16  1  0  0  0
 15 19  1  0  0  0
 16 18  1  0  0  0
 19 21  1  0  0  0
 22 19  1  0  0  0
 23 22  1  0  0  0
 22 26  1  0  0  0
 23 24  1  0  0  0
 26 27  4  0  0  0
 26 30  4  0  0  0
 27 28  4  0  0  0
 29 28  4  0  0  0
 30 29  4  0  0  0
 31 32  4  0  0  0
 31 34  4  0  0  0
 33 34  4  0  0  0
 33 38  1  0  0  0
 35 36  4  0  0  0
 36 37  4  0  0  0
 38 39  4  0  0  0
 38 43  4  0  0  0
 39 40  4  0  0  0
 40 41  4  0  0  0
 41 42  4  0  0  0
 42 43  4  0  0  0
 42 45  1  0  0  0
  1 46  1  0  0  0
  2 47  1  0  0  0
  3 48  1  0  0  0
  4 49  1  0  0  0
  5 50  1  0  0  0
  6 51  1  0  0  0
  6 52  1  0  0  0
  9 53  1  0  0  0
 11 54  1  0  0  0
 15 55  1  0  0  0
 16 56  1  0  0  0
 16 57  1  0  0  0
 17 58  1  0  0  0
 18 59  1  0  0  0
 19 60  1  0  0  0
 20 61  1  0  0  0
 21 62  1  0  0  0
 22 63  1  0  0  0
 23 64  1  0  0  0
 24 65  1  0  0  0
 25 66  1  0  0  0
 27 67  1  0  0  0
 34 68  1  0  0  0
 35 69  1  0  0  0
 36 70  1  0  0  0
 37 71  1  0  0  0
 39 72  1  0  0  0
 40 73  1  0  0  0
 41 74  1  0  0  0
 43 75  1  0  0  0
M  END
$$$$
