5dp9_ligand
  -I-interpret- 

 75 77  0  0  0  0  0  0  0  0999 V2000
   -4.0190   -9.0760    4.1520 C   0  0  0  0  0
   -5.9190   -6.9640    1.8950 C   0  0  0  0  0
   -4.1380   -8.4650    2.7680 C   0  0  0  0  0
   -6.1820   -7.4620    0.5070 C   0  0  0  0  0
   -3.8380  -10.5920    4.1800 C   0  0  0  0  0
   -3.3830   -7.4590   -3.0320 C   0  0  0  0  0
   -5.1780  -10.7650    4.8740 C   0  0  0  0  0
   -6.5290   -3.1810   -5.9550 C   0  0  0  0  0
   -6.0520   -7.9290   -4.5220 C   0  0  0  0  0
  -12.5830   -7.0830    1.0500 C   0  0  0  0  0
  -10.7890   -7.9960   -0.2880 C   0  0  0  0  0
  -11.8960   -8.1790    0.5410 C   0  0  0  0  0
   -7.9250   -7.2900   -1.2790 C   0  0  0  0  0
   -9.1790   -6.4480   -1.5220 C   0  0  0  0  0
  -10.3650   -6.7080   -0.6140 C   0  0  0  0  0
   -4.8700   -8.9010   -4.5480 C   0  0  0  0  0
   -4.0300   -8.8200   -3.2690 C   0  0  0  0  0
   -2.8690   -9.7510   -3.3330 C   0  0  0  0  0
   -6.9780   -8.1360   -5.7470 C   0  0  0  0  0
   -7.7460   -6.8320   -5.9430 C   0  0  0  0  0
   -6.9610   -5.6090   -6.3560 C   0  0  0  0  0
   -7.0440   -6.9930   -2.4530 C   0  0  0  0  0
   -2.9940  -10.8970   -3.7040 O   0  0  0  0  0
  -12.1690   -5.7970    0.7230 C   0  0  0  0  0
   -7.3380   -4.3400   -5.7710 O   0  0  0  0  0
  -11.0730   -5.6120   -0.1100 C   0  0  0  0  0
   -1.7540   -9.1430   -2.9340 N   0  0  0  0  0
   -7.4060   -1.9510   -6.0160 C   0  0  0  0  0
   -6.0360   -5.6200   -7.1570 O   0  0  0  0  0
   -7.3410   -7.0100    0.0300 N   0  0  0  0  0
   -1.9630   -7.7630   -2.5600 C   0  0  0  0  0
   -6.8560   -8.0100   -3.3100 N   0  0  0  0  0
   -6.5500   -5.8840   -2.5600 O   0  0  0  0  0
   -5.4260   -8.1760   -0.1650 O   0  0  0  0  0
   -6.5850   -6.0120    2.2610 O   0  0  0  0  0
   -5.0700   -7.3780    2.8280 N   0  0  0  0  0
   -5.3440   -9.2530    4.8770 C   0  0  0  0  0
   -3.2432   -8.4166    4.5411 H   0  0  0  0  0
   -4.4877   -9.2156    2.0592 H   0  0  0  0  0
   -3.1649   -8.1023    2.4370 H   0  0  0  0  0
   -2.9416  -11.0163    4.6323 H   0  0  0  0  0
   -3.6436  -11.1257    3.2497 H   0  0  0  0  0
   -3.9344   -6.8763   -2.2941 H   0  0  0  0  0
   -3.3830   -6.8522   -3.9375 H   0  0  0  0  0
   -5.2519  -11.3320    5.8020 H   0  0  0  0  0
   -5.9468  -11.4056    4.4419 H   0  0  0  0  0
   -5.9719   -3.2738   -6.8873 H   0  0  0  0  0
   -5.8351   -3.0886   -5.1195 H   0  0  0  0  0
   -5.5985   -6.9382   -4.5514 H   0  0  0  0  0
  -13.4430   -7.2314    1.7030 H   0  0  0  0  0
  -10.2548   -8.8608   -0.6814 H   0  0  0  0  0
  -12.2243   -9.1878    0.7912 H   0  0  0  0  0
   -8.1170   -8.3616   -1.2260 H   0  0  0  0  0
   -9.5141   -6.6949   -2.5294 H   0  0  0  0  0
   -8.8847   -5.4143   -1.3405 H   0  0  0  0  0
   -4.2317   -8.6381   -5.3915 H   0  0  0  0  0
   -5.2640   -9.9137   -4.6328 H   0  0  0  0  0
   -4.7454   -9.0539   -2.4806 H   0  0  0  0  0
   -7.6622   -8.9679   -5.5799 H   0  0  0  0  0
   -6.3966   -8.3812   -6.6358 H   0  0  0  0  0
   -8.1668   -6.5921   -4.9666 H   0  0  0  0  0
   -8.4401   -7.0228   -6.7615 H   0  0  0  0  0
  -12.7041   -4.9343    1.1200 H   0  0  0  0  0
  -10.7612   -4.6014   -0.3739 H   0  0  0  0  0
   -0.8450   -9.6042   -2.8961 H   0  0  0  0  0
   -8.1012   -2.0430   -6.8505 H   0  0  0  0  0
   -7.9646   -1.8581   -5.0846 H   0  0  0  0  0
   -6.7823   -1.0682   -6.1567 H   0  0  0  0  0
   -7.8795   -6.4017    0.6467 H   0  0  0  0  0
   -1.8425   -7.6041   -1.4884 H   0  0  0  0  0
   -1.2275   -7.0979   -3.0126 H   0  0  0  0  0
   -7.3070   -8.8999   -3.0976 H   0  0  0  0  0
   -5.0828   -6.8533    3.7026 H   0  0  0  0  0
   -6.2474   -8.8139    4.4538 H   0  0  0  0  0
   -5.5093   -8.7355    5.8220 H   0  0  0  0  0
  3  1  1  0  0  0
  1  5  1  0  0  0
  1 37  1  0  0  0
  4  2  1  0  0  0
  2 35  2  0  0  0
  2 36  1  0  0  0
 36  3  1  0  0  0
 30  4  1  0  0  0
  4 34  2  0  0  0
  5  7  1  0  0  0
 17  6  1  0  0  0
  6 31  1  0  0  0
 37  7  1  0  0  0
 25  8  1  0  0  0
  8 28  1  0  0  0
  9 16  1  0  0  0
  9 19  1  0  0  0
 32  9  1  0  0  0
 12 10  4  0  0  0
 10 24  4  0  0  0
 11 12  4  0  0  0
 15 11  4  0  0  0
 13 14  1  0  0  0
 22 13  1  0  0  0
 13 30  1  0  0  0
 14 15  1  0  0  0
 15 26  4  0  0  0
 16 17  1  0  0  0
 17 18  1  0  0  0
 18 23  2  0  0  0
 18 27  1  0  0  0
 19 20  1  0  0  0
 20 21  1  0  0  0
 21 25  1  0  0  0
 21 29  2  0  0  0
 22 32  1  0  0  0
 22 33  2  0  0  0
 24 26  4  0  0  0
 27 31  1  0  0  0
  1 38  1  0  0  0
  3 39  1  0  0  0
  3 40  1  0  0  0
  5 41  1  0  0  0
  5 42  1  0  0  0
  6 43  1  0  0  0
  6 44  1  0  0  0
  7 45  1  0  0  0
  7 46  1  0  0  0
  8 47  1  0  0  0
  8 48  1  0  0  0
  9 49  1  0  0  0
 10 50  1  0  0  0
 11 51  1  0  0  0
 12 52  1  0  0  0
 13 53  1  0  0  0
 14 54  1  0  0  0
 14 55  1  0  0  0
 16 56  1  0  0  0
 16 57  1  0  0  0
 17 58  1  0  0  0
 19 59  1  0  0  0
 19 60  1  0  0  0
 20 61  1  0  0  0
 20 62  1  0  0  0
 24 63  1  0  0  0
 26 64  1  0  0  0
 27 65  1  0  0  0
 28 66  1  0  0  0
 28 67  1  0  0  0
 28 68  1  0  0  0
 30 69  1  0  0  0
 31 70  1  0  0  0
 31 71  1  0  0  0
 32 72  1  0  0  0
 36 73  1  0  0  0
 37 74  1  0  0  0
 37 75  1  0  0  0
M  END
$$$$
