### 
### Created by X-TOOL on Mon Sep 10 21:12:56 2018
### 

@<TRIPOS>MOLECULE
2jmj_ligand
  169   168     1     0     0
SMALL
GAST_HUCK


@<TRIPOS>ATOM
      1 N          -0.3500   -3.8860    9.6440 N.4       1 ALA         0.2377
      2 CA          0.2810   -2.7090    8.9800 C.3       1 ALA         0.0621
      3 C          -0.4950   -1.4440    9.3350 C.2       1 ALA         0.2264
      4 O          -1.7220   -1.4680    9.4320 O.2       1 ALA        -0.3907
      5 CB          0.2680   -2.9170    7.4620 C.3       1 ALA        -0.0040
      6 N           0.2260   -0.3340    9.5110 N.am      1 ARG        -0.2610
      7 CA         -0.4170    0.9420    9.8340 C.3       1 ARG         0.1312
      8 C          -1.3540    1.3190    8.6930 C.2       1 ARG         0.2040
      9 O          -0.9110    1.4850    7.5560 O.2       1 ARG        -0.3944
     10 CB          0.6300    2.0540   10.0320 C.3       1 ARG        -0.0092
     11 CG          2.0170    1.4530   10.3160 C.3       1 ARG        -0.0156
     12 CD          2.7810    1.2720    8.9980 C.3       1 ARG         0.0627
     13 NE          4.1540    0.8380    9.2560 N.pl3     1 ARG        -0.2723
     14 CZ          5.1820    1.6870    9.1990 C.cat     1 ARG         0.2882
     15 NH1         4.9850    2.9520    8.9410 N.pl3     1 ARG        -0.2849
     16 NH2         6.3930    1.2500    9.4090 N.pl3     1 ARG        -0.2849
     17 N          -2.6530    1.4150    8.9800 N.am      1 THR        -0.2613
     18 CA         -3.6160    1.7270    7.9290 C.3       1 THR         0.1565
     19 C          -4.4890    2.9340    8.2470 C.2       1 THR         0.2065
     20 O          -4.7570    3.2560    9.4060 O.2       1 THR        -0.3943
     21 CB         -4.5340    0.5230    7.6840 C.3       1 THR         0.0924
     22 OG1        -5.4030    0.3650    8.7970 O.3       1 THR        -0.3874
     23 CG2        -3.7040   -0.7500    7.5000 C.3       1 THR        -0.0346
     24 N          -4.9660    3.5470    7.1720 N.am      1 M3L        -0.2637
     25 CA         -5.8710    4.6840    7.2390 C.3       1 M3L         0.1310
     26 CB         -5.1050    6.0130    7.0100 C.3       1 M3L        -0.0122
     27 CG         -5.4400    6.6280    5.6380 C.3       1 M3L        -0.0440
     28 CD         -5.0930    8.1260    5.6060 C.3       1 M3L        -0.0123
     29 CE         -3.6310    8.3720    6.0300 C.3       1 M3L        -0.0309
     30 NZ         -2.7430    8.5100    4.8260 N.4       1 M3L         0.2369
     31 C          -6.9400    4.4430    6.1770 C.2       1 M3L         0.2039
     32 O          -6.6410    4.4300    4.9830 O.2       1 M3L        -0.3944
     33 CM1        -3.1890    9.6590    3.9710 C.3       1 M3L        -0.0418
     34 CM2        -2.7840    7.2480    4.0290 C.3       1 M3L        -0.0418
     35 CM3        -1.3420    8.7560    5.2820 C.3       1 M3L        -0.0418
     36 N          -8.1690    4.1810    6.6110 N.am      1 GLN        -0.2636
     37 CA         -9.2330    3.8760    5.6600 C.3       1 GLN         0.1330
     38 C         -10.4230    4.8230    5.7880 C.2       1 GLN         0.2041
     39 O         -10.5580    5.5510    6.7720 O.2       1 GLN        -0.3944
     40 CB         -9.6990    2.4270    5.8530 C.3       1 GLN         0.0045
     41 CG        -10.4900    2.2990    7.1610 C.3       1 GLN         0.0412
     42 CD        -11.9880    2.3680    6.8750 C.2       1 GLN         0.1737
     43 OE1       -12.5710    1.4030    6.3820 O.2       1 GLN        -0.3973
     44 NE2       -12.6470    3.4580    7.1550 N.am      1 GLN        -0.3009
     45 N         -11.2860    4.7880    4.7710 N.am      1 THR        -0.2613
     46 CA        -12.4820    5.6260    4.7380 C.3       1 THR         0.1565
     47 C         -13.5140    5.0260    3.7810 C.2       1 THR         0.2065
     48 O         -14.2650    5.7520    3.1280 O.2       1 THR        -0.3943
     49 CB        -12.1270    7.0470    4.2790 C.3       1 THR         0.0924
     50 OG1       -10.8400    7.4040    4.7670 O.3       1 THR        -0.3874
     51 CG2       -13.1680    8.0380    4.8080 C.3       1 THR        -0.0346
     52 N         -13.5380    3.6940    3.7030 N.am      1 ALA        -0.2639
     53 CA        -14.4760    2.9950    2.8200 C.3       1 ALA         0.1282
     54 C         -14.1960    3.3280    1.3540 C.2       1 ALA         0.2036
     55 O         -13.3570    4.1740    1.0510 O.2       1 ALA        -0.3944
     56 CB        -15.9160    3.3760    3.1700 C.3       1 ALA        -0.0244
     57 N         -14.9050    2.6510    0.4480 N.am      1 ARG        -0.2637
     58 CA        -14.7240    2.8770   -0.9870 C.3       1 ARG         0.1310
     59 C         -16.0490    3.2470   -1.6520 C.2       1 ARG         0.2033
     60 O         -17.1100    2.7580   -1.2610 O.2       1 ARG        -0.3944
     61 CB        -14.1640    1.6120   -1.6420 C.3       1 ARG        -0.0092
     62 CG        -13.4200    1.9840   -2.9290 C.3       1 ARG        -0.0156
     63 CD        -13.2690    0.7470   -3.8200 C.3       1 ARG         0.0627
     64 NE        -12.8960   -0.4190   -3.0190 N.pl3     1 ARG        -0.2723
     65 CZ        -13.7880   -1.3470   -2.6740 C.cat     1 ARG         0.2882
     66 NH1       -15.0380   -1.2360   -3.0400 N.pl3     1 ARG        -0.2849
     67 NH2       -13.4130   -2.3730   -1.9630 N.pl3     1 ARG        -0.2849
     68 N         -15.9740    4.1100   -2.6660 N.am      1 LYS        -0.2695
     69 CA        -17.1670    4.5400   -3.3920 C.3       1 LYS         0.0944
     70 C         -17.5820    3.4900   -4.4250 C.2       1 LYS         0.0601
     71 O         -18.7090    3.5550   -4.8860 O.co2     1 LYS        -0.5666
     72 CB        -16.9030    5.8790   -4.0940 C.3       1 LYS        -0.0177
     73 CG        -15.7680    5.7170   -5.1150 C.3       1 LYS        -0.0446
     74 CD        -15.5130    7.0530   -5.8250 C.3       1 LYS        -0.0125
     75 CE        -15.0290    8.1020   -4.8160 C.3       1 LYS        -0.0354
     76 NZ        -13.9900    7.5050   -3.9290 N.4       1 LYS         0.2185
     77 H1          0.1641   -4.7204    9.4082 H         1 ALA         0.2015
     78 H2         -1.3031   -3.9784    9.3292 H         1 ALA         0.2015
     79 H3         -0.3374   -3.7548   10.6433 H         1 ALA         0.2015
     80 H4          1.3203   -2.6076    9.3257 H         1 ALA         0.1095
     81 H5          0.7328   -2.0504    6.9692 H         1 ALA         0.0310
     82 H6         -0.7705   -3.0225    7.1152 H         1 ALA         0.0310
     83 H7          0.8324   -3.8274    7.2118 H         1 ALA         0.0310
     84 H8          1.2211   -0.3744    9.4208 H         1 ARG         0.1884
     85 H9         -0.9974    0.8287   10.7615 H         1 ARG         0.0800
     86 H10         0.3296    2.6853   10.8813 H         1 ARG         0.0313
     87 H11         0.6823    2.6668    9.1200 H         1 ARG         0.0313
     88 H12         1.8987    0.4760   10.8073 H         1 ARG         0.0301
     89 H13         2.5806    2.1292   10.9755 H         1 ARG         0.0301
     90 H14         2.7999    2.2292    8.4563 H         1 ARG         0.0689
     91 H15         2.2711    0.5140    8.3853 H         1 ARG         0.0689
     92 H16         4.3321   -0.1496    9.4879 H         1 ARG         0.2642
     93 H17         5.7848    3.5997    8.8991 H         1 ARG         0.2615
     94 H18         4.0298    3.3020    8.7794 H         1 ARG         0.2615
     95 H19         6.5526    0.2531    9.6128 H         1 ARG         0.2615
     96 H20         7.1896    1.9019    9.3710 H         1 ARG         0.2615
     97 H21        -2.9680    1.2727    9.9184 H         1 THR         0.1884
     98 H22        -3.0541    1.9410    7.0079 H         1 THR         0.0826
     99 H23        -5.1301    0.7001    6.7767 H         1 THR         0.0639
    100 H24        -5.9271    1.1504    8.9022 H         1 THR         0.2101
    101 H25        -4.3756   -1.6035    7.3255 H         1 THR         0.0257
    102 H26        -3.1069   -0.9325    8.4056 H         1 THR         0.0257
    103 H27        -3.0332   -0.6288    6.6367 H         1 THR         0.0257
    104 H28        -4.6901    3.2112    6.2714 H         1 M3L         0.1883
    105 H29        -6.3448    4.7215    8.2310 H         1 M3L         0.0800
    106 H30        -4.0240    5.8156    7.0589 H         1 M3L         0.0312
    107 H31        -5.3835    6.7268    7.7993 H         1 M3L         0.0312
    108 H32        -6.5150    6.5035    5.4408 H         1 M3L         0.0269
    109 H33        -4.8618    6.1082    4.8599 H         1 M3L         0.0269
    110 H34        -5.7611    8.6633    6.2952 H         1 M3L         0.0317
    111 H35        -5.2383    8.5057    4.5839 H         1 M3L         0.0317
    112 H36        -3.2843    7.5238    6.6386 H         1 M3L         0.0815
    113 H37        -3.5784    9.2958    6.6248 H         1 M3L         0.0815
    114 H38        -2.5275    9.7434    3.0962 H         1 M3L         0.0778
    115 H39        -3.1446   10.5898    4.5554 H         1 M3L         0.0778
    116 H40        -4.2219    9.4863    3.6344 H         1 M3L         0.0778
    117 H41        -2.4567    6.4067    4.6575 H         1 M3L         0.0778
    118 H42        -2.1138    7.3401    3.1616 H         1 M3L         0.0778
    119 H43        -3.8117    7.0674    3.6808 H         1 M3L         0.0778
    120 H44        -1.3056    9.6849    5.8700 H         1 M3L         0.0778
    121 H45        -0.6826    8.8501    4.4066 H         1 M3L         0.0778
    122 H46        -1.0061    7.9142    5.9053 H         1 M3L         0.0778
    123 H47        -8.3648    4.1930    7.5916 H         1 GLN         0.1883
    124 H48        -8.8227    3.9803    4.6447 H         1 GLN         0.0801
    125 H49        -8.8217    1.7645    5.8918 H         1 GLN         0.0337
    126 H50       -10.3415    2.1357    5.0090 H         1 GLN         0.0337
    127 H51       -10.2103    3.1200    7.8375 H         1 GLN         0.0504
    128 H52       -10.2541    1.3355    7.6364 H         1 GLN         0.0504
    129 H53       -13.6284    3.5103    6.9703 H         1 GLN         0.1814
    130 H54       -12.1709    4.2415    7.5544 H         1 GLN         0.1814
    131 H55       -11.1083    4.1681    4.0067 H         1 THR         0.1884
    132 H56       -12.9127    5.6728    5.7491 H         1 THR         0.0826
    133 H57       -12.1201    7.0808    3.1796 H         1 THR         0.0639
    134 H58       -10.8424    7.3716    5.7165 H         1 THR         0.2101
    135 H59       -12.9087    9.0542    4.4762 H         1 THR         0.0257
    136 H60       -13.1816    8.0036    5.9074 H         1 THR         0.0257
    137 H61       -14.1614    7.7681    4.4204 H         1 THR         0.0257
    138 H62       -12.9013    3.1605    4.2598 H         1 ALA         0.1883
    139 H63       -14.3514    1.9117    2.9645 H         1 ALA         0.0797
    140 H64       -16.6088    2.8450    2.5006 H         1 ALA         0.0277
    141 H65       -16.0481    4.4612    3.0483 H         1 ALA         0.0277
    142 H66       -16.1264    3.0956    4.2126 H         1 ALA         0.0277
    143 H67       -15.5742    1.9749    0.7562 H         1 ARG         0.1883
    144 H68       -14.0111    3.7026   -1.1293 H         1 ARG         0.0800
    145 H69       -14.9910    0.9277   -1.8824 H         1 ARG         0.0313
    146 H70       -13.4689    1.1175   -0.9476 H         1 ARG         0.0313
    147 H71       -12.4234    2.3740   -2.6745 H         1 ARG         0.0301
    148 H72       -13.9887    2.7553   -3.4691 H         1 ARG         0.0301
    149 H73       -12.4877    0.9351   -4.5711 H         1 ARG         0.0689
    150 H74       -14.2245    0.5472   -4.3269 H         1 ARG         0.0689
    151 H75       -11.9181   -0.5255   -2.7136 H         1 ARG         0.2642
    152 H76       -15.7202   -1.9584   -2.7685 H         1 ARG         0.2615
    153 H77       -15.3407   -0.4262   -3.5998 H         1 ARG         0.2615
    154 H78       -12.4294   -2.4659   -1.6717 H         1 ARG         0.2615
    155 H79       -14.1002   -3.0909   -1.6925 H         1 ARG         0.2615
    156 H80       -15.0812    4.4710   -2.9356 H         1 LYS         0.1875
    157 H81       -17.9884    4.6715   -2.6723 H         1 LYS         0.0726
    158 O1        -16.7833    2.5857   -4.7882 O.co2     1 LYS        -0.5666
    159 H83       -16.6163    6.6330   -3.3461 H         1 LYS         0.0305
    160 H84       -17.8165    6.2057   -4.6125 H         1 LYS         0.0305
    161 H85       -16.0509    4.9568   -5.8580 H         1 LYS         0.0269
    162 H86       -14.8521    5.3990   -4.5955 H         1 LYS         0.0269
    163 H87       -16.4462    7.4008   -6.2920 H         1 LYS         0.0317
    164 H88       -14.7453    6.9124   -6.6001 H         1 LYS         0.0317
    165 H89       -15.8789    8.4419   -4.2060 H         1 LYS         0.0813
    166 H90       -14.5998    8.9585   -5.3566 H         1 LYS         0.0813
    167 H91       -13.6747    8.1973   -3.2677 H         1 LYS         0.1994
    168 H92       -13.2104    7.1937   -4.4870 H         1 LYS         0.1994
    169 H93       -14.3824    6.7204   -3.4326 H         1 LYS         0.1994
@<TRIPOS>BOND
     1    1    2 1  
     2    2    3 1  
     3    2    5 1  
     4    3    4 2  
     5    3    6 am 
     6    6    7 1  
     7    7    8 1  
     8    7   10 1  
     9    8    9 2  
    10    8   17 am 
    11   10   11 1  
    12   11   12 1  
    13   12   13 1  
    14   13   14 ar 
    15   14   15 ar 
    16   14   16 ar 
    17   17   18 1  
    18   18   19 1  
    19   18   21 1  
    20   19   20 2  
    21   19   24 am 
    22   21   22 1  
    23   21   23 1  
    24   24   25 1  
    25   25   26 1  
    26   25   31 1  
    27   26   27 1  
    28   27   28 1  
    29   28   29 1  
    30   29   30 1  
    31   30   33 1  
    32   30   34 1  
    33   30   35 1  
    34   31   32 2  
    35   31   36 am 
    36   36   37 1  
    37   37   38 1  
    38   37   40 1  
    39   38   39 2  
    40   38   45 am 
    41   40   41 1  
    42   41   42 1  
    43   42   43 2  
    44   42   44 am 
    45   45   46 1  
    46   46   47 1  
    47   46   49 1  
    48   47   48 2  
    49   47   52 am 
    50   49   50 1  
    51   49   51 1  
    52   52   53 1  
    53   53   54 1  
    54   53   56 1  
    55   54   55 2  
    56   54   57 am 
    57   57   58 1  
    58   58   59 1  
    59   58   61 1  
    60   59   60 2  
    61   59   68 am 
    62   61   62 1  
    63   62   63 1  
    64   63   64 1  
    65   64   65 ar 
    66   65   66 ar 
    67   65   67 ar 
    68   68   69 1  
    69   69   70 1  
    70   69   72 1  
    71   70   71 ar 
    72   72   73 1  
    73   73   74 1  
    74   74   75 1  
    75   75   76 1  
    76    1   77 1  
    77    1   78 1  
    78    1   79 1  
    79    2   80 1  
    80    5   81 1  
    81    5   82 1  
    82    5   83 1  
    83    6   84 1  
    84    7   85 1  
    85   10   86 1  
    86   10   87 1  
    87   11   88 1  
    88   11   89 1  
    89   12   90 1  
    90   12   91 1  
    91   13   92 1  
    92   15   93 1  
    93   15   94 1  
    94   16   95 1  
    95   16   96 1  
    96   17   97 1  
    97   18   98 1  
    98   21   99 1  
    99   22  100 1  
   100   23  101 1  
   101   23  102 1  
   102   23  103 1  
   103   24  104 1  
   104   25  105 1  
   105   26  106 1  
   106   26  107 1  
   107   27  108 1  
   108   27  109 1  
   109   28  110 1  
   110   28  111 1  
   111   29  112 1  
   112   29  113 1  
   113   33  114 1  
   114   33  115 1  
   115   33  116 1  
   116   34  117 1  
   117   34  118 1  
   118   34  119 1  
   119   35  120 1  
   120   35  121 1  
   121   35  122 1  
   122   36  123 1  
   123   37  124 1  
   124   40  125 1  
   125   40  126 1  
   126   41  127 1  
   127   41  128 1  
   128   44  129 1  
   129   44  130 1  
   130   45  131 1  
   131   46  132 1  
   132   49  133 1  
   133   50  134 1  
   134   51  135 1  
   135   51  136 1  
   136   51  137 1  
   137   52  138 1  
   138   53  139 1  
   139   56  140 1  
   140   56  141 1  
   141   56  142 1  
   142   57  143 1  
   143   58  144 1  
   144   61  145 1  
   145   61  146 1  
   146   62  147 1  
   147   62  148 1  
   148   63  149 1  
   149   63  150 1  
   150   64  151 1  
   151   66  152 1  
   152   66  153 1  
   153   67  154 1  
   154   67  155 1  
   155   68  156 1  
   156   69  157 1  
   157   70  158 ar 
   158   72  159 1  
   159   72  160 1  
   160   73  161 1  
   161   73  162 1  
   162   74  163 1  
   163   74  164 1  
   164   75  165 1  
   165   75  166 1  
   166   76  167 1  
   167   76  168 1  
   168   76  169 1  
@<TRIPOS>SUBSTRUCTURE
     1 ALA         1

