2jmj_ligand
  -I-interpret- 

168167  0  0  0  0  0  0  0  0999 V2000
   -0.3500   -3.8860    9.6440 N   0  3  0  0  0
    0.2810   -2.7090    8.9800 C   0  0  0  0  0
   -0.4950   -1.4440    9.3350 C   0  0  0  0  0
   -1.7220   -1.4680    9.4320 O   0  0  0  0  0
    0.2680   -2.9170    7.4620 C   0  0  0  0  0
    0.2260   -0.3340    9.5110 N   0  0  0  0  0
   -0.4170    0.9420    9.8340 C   0  0  0  0  0
   -1.3540    1.3190    8.6930 C   0  0  0  0  0
   -0.9110    1.4850    7.5560 O   0  0  0  0  0
    0.6300    2.0540   10.0320 C   0  0  0  0  0
    2.0170    1.4530   10.3160 C   0  0  0  0  0
    2.7810    1.2720    8.9980 C   0  0  0  0  0
    4.1540    0.8380    9.2560 N   0  0  0  0  0
    5.1820    1.6870    9.1990 C   0  0  0  0  0
    4.9850    2.9520    8.9410 N   0  0  0  0  0
    6.3930    1.2500    9.4090 N   0  0  0  0  0
   -2.6530    1.4150    8.9800 N   0  0  0  0  0
   -3.6160    1.7270    7.9290 C   0  0  0  0  0
   -4.4890    2.9340    8.2470 C   0  0  0  0  0
   -4.7570    3.2560    9.4060 O   0  0  0  0  0
   -4.5340    0.5230    7.6840 C   0  0  0  0  0
   -5.4030    0.3650    8.7970 O   0  0  0  0  0
   -3.7040   -0.7500    7.5000 C   0  0  0  0  0
   -4.9660    3.5470    7.1720 N   0  0  0  0  0
   -5.8710    4.6840    7.2390 C   0  0  0  0  0
   -5.1050    6.0130    7.0100 C   0  0  0  0  0
   -5.4400    6.6280    5.6380 C   0  0  0  0  0
   -5.0930    8.1260    5.6060 C   0  0  0  0  0
   -3.6310    8.3720    6.0300 C   0  0  0  0  0
   -2.7430    8.5100    4.8260 N   0  3  0  0  0
   -6.9400    4.4430    6.1770 C   0  0  0  0  0
   -6.6410    4.4300    4.9830 O   0  0  0  0  0
   -3.1890    9.6590    3.9710 C   0  0  0  0  0
   -2.7840    7.2480    4.0290 C   0  0  0  0  0
   -1.3420    8.7560    5.2820 C   0  0  0  0  0
   -8.1690    4.1810    6.6110 N   0  0  0  0  0
   -9.2330    3.8760    5.6600 C   0  0  0  0  0
  -10.4230    4.8230    5.7880 C   0  0  0  0  0
  -10.5580    5.5510    6.7720 O   0  0  0  0  0
   -9.6990    2.4270    5.8530 C   0  0  0  0  0
  -10.4900    2.2990    7.1610 C   0  0  0  0  0
  -11.9880    2.3680    6.8750 C   0  0  0  0  0
  -12.5710    1.4030    6.3820 O   0  0  0  0  0
  -12.6470    3.4580    7.1550 N   0  0  0  0  0
  -11.2860    4.7880    4.7710 N   0  0  0  0  0
  -12.4820    5.6260    4.7380 C   0  0  0  0  0
  -13.5140    5.0260    3.7810 C   0  0  0  0  0
  -14.2650    5.7520    3.1280 O   0  0  0  0  0
  -12.1270    7.0470    4.2790 C   0  0  0  0  0
  -10.8400    7.4040    4.7670 O   0  0  0  0  0
  -13.1680    8.0380    4.8080 C   0  0  0  0  0
  -13.5380    3.6940    3.7030 N   0  0  0  0  0
  -14.4760    2.9950    2.8200 C   0  0  0  0  0
  -14.1960    3.3280    1.3540 C   0  0  0  0  0
  -13.3570    4.1740    1.0510 O   0  0  0  0  0
  -15.9160    3.3760    3.1700 C   0  0  0  0  0
  -14.9050    2.6510    0.4480 N   0  0  0  0  0
  -14.7240    2.8770   -0.9870 C   0  0  0  0  0
  -16.0490    3.2470   -1.6520 C   0  0  0  0  0
  -17.1100    2.7580   -1.2610 O   0  0  0  0  0
  -14.1640    1.6120   -1.6420 C   0  0  0  0  0
  -13.4200    1.9840   -2.9290 C   0  0  0  0  0
  -13.2690    0.7470   -3.8200 C   0  0  0  0  0
  -12.8960   -0.4190   -3.0190 N   0  0  0  0  0
  -13.7880   -1.3470   -2.6740 C   0  0  0  0  0
  -15.0380   -1.2360   -3.0400 N   0  0  0  0  0
  -13.4130   -2.3730   -1.9630 N   0  0  0  0  0
  -15.9740    4.1100   -2.6660 N   0  0  0  0  0
  -17.1670    4.5400   -3.3920 C   0  0  0  0  0
  -17.5820    3.4900   -4.4250 C   0  0  0  0  0
  -18.7090    3.5550   -4.8860 O   0  0  0  0  0
  -16.9030    5.8790   -4.0940 C   0  0  0  0  0
  -15.7680    5.7170   -5.1150 C   0  0  0  0  0
  -15.5130    7.0530   -5.8250 C   0  0  0  0  0
  -15.0290    8.1020   -4.8160 C   0  0  0  0  0
  -13.9900    7.5050   -3.9290 N   0  3  0  0  0
  -16.7833    2.5857   -4.7882 O   0  0  0  0  0
   -0.3422   -3.7493   10.6548 H   0  0  0  0  0
   -1.3124   -3.9821    9.3201 H   0  0  0  0  0
    0.1746   -4.7288    9.4097 H   0  0  0  0  0
    1.3104   -2.6040    9.3226 H   0  0  0  0  0
   -0.7618   -3.0170    7.1191 H   0  0  0  0  0
    0.7328   -2.0597    6.9751 H   0  0  0  0  0
    0.8238   -3.8218    7.2158 H   0  0  0  0  0
    1.2410   -0.3752    9.4190 H   0  0  0  0  0
   -0.9745    0.8331   10.7643 H   0  0  0  0  0
    0.3329    2.6697   10.8810 H   0  0  0  0  0
    0.6851    2.6513    9.1219 H   0  0  0  0  0
    1.8988    0.4842   10.8014 H   0  0  0  0  0
    2.5753    2.1245   10.9683 H   0  0  0  0  0
    2.8046    2.2248    8.4691 H   0  0  0  0  0
    2.2772    0.5140    8.3983 H   0  0  0  0  0
    4.3304   -0.1400    9.4857 H   0  0  0  0  0
    5.7765    3.5943    8.9043 H   0  0  0  0  0
    4.0396    3.2977    8.7762 H   0  0  0  0  0
    6.5506    0.2636    9.6156 H   0  0  0  0  0
   -2.9743    1.2699    9.9371 H   0  0  0  0  0
   -3.0268    1.9646    7.0433 H   0  0  0  0  0
   -5.1160    0.6966    6.7789 H   0  0  0  0  0
   -5.9793   -0.3880    8.6472 H   0  0  0  0  0
   -3.0397   -0.6286    6.6444 H   0  0  0  0  0
   -3.1128   -0.9297    8.3979 H   0  0  0  0  0
   -4.3705   -1.5950    7.3271 H   0  0  0  0  0
   -4.6846    3.2045    6.2534 H   0  0  0  0  0
   -6.3306    4.7754    8.2231 H   0  0  0  0  0
   -4.0355    5.8054    7.0436 H   0  0  0  0  0
   -5.3991    6.7194    7.7863 H   0  0  0  0  0
   -6.5082    6.5125    5.4544 H   0  0  0  0  0
   -4.8548    6.1171    4.8734 H   0  0  0  0  0
   -5.7487    8.6489    6.3022 H   0  0  0  0  0
   -5.2248    8.4909    4.5874 H   0  0  0  0  0
   -3.2895    7.5239    6.6235 H   0  0  0  0  0
   -3.5833    9.2938    6.6097 H   0  0  0  0  0
   -4.2125    9.4867    3.6381 H   0  0  0  0  0
   -3.1446   10.5807    4.5512 H   0  0  0  0  0
   -2.5329    9.7416    3.1045 H   0  0  0  0  0
   -2.4352    6.4192    4.6451 H   0  0  0  0  0
   -3.8074    7.0568    3.7061 H   0  0  0  0  0
   -2.1393    7.3500    3.1561 H   0  0  0  0  0
   -1.3087    9.6723    5.8715 H   0  0  0  0  0
   -1.0074    7.9173    5.8925 H   0  0  0  0  0
   -0.6911    8.8573    4.4136 H   0  0  0  0  0
   -8.3687    4.1932    7.6112 H   0  0  0  0  0
   -8.8215    4.0095    4.6595 H   0  0  0  0  0
   -8.8279    1.7732    5.8957 H   0  0  0  0  0
  -10.3391    2.1423    5.0179 H   0  0  0  0  0
  -10.2145    3.1160    7.8278 H   0  0  0  0  0
  -10.2580    1.3417    7.6278 H   0  0  0  0  0
  -13.6478    3.5119    6.9654 H   0  0  0  0  0
  -12.1616    4.2567    7.5636 H   0  0  0  0  0
  -11.1047    4.1557    3.9914 H   0  0  0  0  0
  -12.9006    5.6707    5.7434 H   0  0  0  0  0
  -12.1205    7.0775    3.1894 H   0  0  0  0  0
  -10.6242    8.2932    4.4766 H   0  0  0  0  0
  -14.1518    7.7694    4.4233 H   0  0  0  0  0
  -13.1805    8.0029    5.8974 H   0  0  0  0  0
  -12.9100    9.0445    4.4785 H   0  0  0  0  0
  -12.8886    3.1498    4.2710 H   0  0  0  0  0
  -14.3419    1.9230    2.9648 H   0  0  0  0  0
  -16.1232    3.0977    4.2033 H   0  0  0  0  0
  -16.0455    4.4515    3.0491 H   0  0  0  0  0
  -16.6015    2.8493    2.5061 H   0  0  0  0  0
  -15.5876    1.9613    0.7623 H   0  0  0  0  0
  -14.0251    3.7031   -1.1180 H   0  0  0  0  0
  -14.9842    0.9351   -1.8812 H   0  0  0  0  0
  -13.4742    1.1234   -0.9538 H   0  0  0  0  0
  -12.4316    2.3670   -2.6750 H   0  0  0  0  0
  -13.9866    2.7458   -3.4645 H   0  0  0  0  0
  -12.4883    0.9347   -4.5571 H   0  0  0  0  0
  -14.2202    0.5479   -4.3136 H   0  0  0  0  0
  -11.9276   -0.5244   -2.7166 H   0  0  0  0  0
  -15.7141   -1.9501   -2.7691 H   0  0  0  0  0
  -15.3373   -0.4353   -3.5965 H   0  0  0  0  0
  -12.4395   -2.4637   -1.6725 H   0  0  0  0  0
  -15.0634    4.4782   -2.9410 H   0  0  0  0  0
  -17.9777    4.6620   -2.6736 H   0  0  0  0  0
  -16.6162    6.6242   -3.3520 H   0  0  0  0  0
  -17.8081    6.1998   -4.6097 H   0  0  0  0  0
  -16.0508    4.9654   -5.8520 H   0  0  0  0  0
  -14.8605    5.4044   -4.5985 H   0  0  0  0  0
  -16.4403    7.3978   -6.2825 H   0  0  0  0  0
  -14.7484    6.9119   -6.5890 H   0  0  0  0  0
  -15.8715    8.4366   -4.2108 H   0  0  0  0  0
  -14.6022    8.9493   -5.3527 H   0  0  0  0  0
  -13.6717    8.2064   -3.2603 H   0  0  0  0  0
  -14.3882    6.7112   -3.4273 H   0  0  0  0  0
  -13.2017    7.1904   -4.4947 H   0  0  0  0  0
  -15.9497    2.6911   -4.3238 H   0  0  0  0  0
  1  2  1  0  0  0
  2  3  1  0  0  0
  2  5  1  0  0  0
  3  4  2  0  0  0
  3  6  1  0  0  0
  6  7  1  0  0  0
  7  8  1  0  0  0
  7 10  1  0  0  0
  8  9  2  0  0  0
  8 17  1  0  0  0
 10 11  1  0  0  0
 11 12  1  0  0  0
 12 13  1  0  0  0
 13 14  1  0  0  0
 14 15  1  0  0  0
 14 16  2  0  0  0
 17 18  1  0  0  0
 18 19  1  0  0  0
 18 21  1  0  0  0
 19 20  2  0  0  0
 19 24  1  0  0  0
 21 22  1  0  0  0
 21 23  1  0  0  0
 24 25  1  0  0  0
 25 26  1  0  0  0
 25 31  1  0  0  0
 26 27  1  0  0  0
 27 28  1  0  0  0
 28 29  1  0  0  0
 29 30  1  0  0  0
 30 33  1  0  0  0
 30 34  1  0  0  0
 30 35  1  0  0  0
 31 32  2  0  0  0
 31 36  1  0  0  0
 36 37  1  0  0  0
 37 38  1  0  0  0
 37 40  1  0  0  0
 38 39  2  0  0  0
 38 45  1  0  0  0
 40 41  1  0  0  0
 41 42  1  0  0  0
 42 43  2  0  0  0
 42 44  1  0  0  0
 45 46  1  0  0  0
 46 47  1  0  0  0
 46 49  1  0  0  0
 47 48  2  0  0  0
 47 52  1  0  0  0
 49 50  1  0  0  0
 49 51  1  0  0  0
 52 53  1  0  0  0
 53 54  1  0  0  0
 53 56  1  0  0  0
 54 55  2  0  0  0
 54 57  1  0  0  0
 57 58  1  0  0  0
 58 59  1  0  0  0
 58 61  1  0  0  0
 59 60  2  0  0  0
 59 68  1  0  0  0
 61 62  1  0  0  0
 62 63  1  0  0  0
 63 64  1  0  0  0
 64 65  1  0  0  0
 65 66  1  0  0  0
 65 67  2  0  0  0
 68 69  1  0  0  0
 69 70  1  0  0  0
 69 72  1  0  0  0
 70 71  2  0  0  0
 72 73  1  0  0  0
 73 74  1  0  0  0
 74 75  1  0  0  0
 75 76  1  0  0  0
 70 77  1  0  0  0
  1 78  1  0  0  0
  1 79  1  0  0  0
  1 80  1  0  0  0
  2 81  1  0  0  0
  5 82  1  0  0  0
  5 83  1  0  0  0
  5 84  1  0  0  0
  6 85  1  0  0  0
  7 86  1  0  0  0
 10 87  1  0  0  0
 10 88  1  0  0  0
 11 89  1  0  0  0
 11 90  1  0  0  0
 12 91  1  0  0  0
 12 92  1  0  0  0
 13 93  1  0  0  0
 15 94  1  0  0  0
 15 95  1  0  0  0
 16 96  1  0  0  0
 17 97  1  0  0  0
 18 98  1  0  0  0
 21 99  1  0  0  0
 22100  1  0  0  0
 23101  1  0  0  0
 23102  1  0  0  0
 23103  1  0  0  0
 24104  1  0  0  0
 25105  1  0  0  0
 26106  1  0  0  0
 26107  1  0  0  0
 27108  1  0  0  0
 27109  1  0  0  0
 28110  1  0  0  0
 28111  1  0  0  0
 29112  1  0  0  0
 29113  1  0  0  0
 33114  1  0  0  0
 33115  1  0  0  0
 33116  1  0  0  0
 34117  1  0  0  0
 34118  1  0  0  0
 34119  1  0  0  0
 35120  1  0  0  0
 35121  1  0  0  0
 35122  1  0  0  0
 36123  1  0  0  0
 37124  1  0  0  0
 40125  1  0  0  0
 40126  1  0  0  0
 41127  1  0  0  0
 41128  1  0  0  0
 44129  1  0  0  0
 44130  1  0  0  0
 45131  1  0  0  0
 46132  1  0  0  0
 49133  1  0  0  0
 50134  1  0  0  0
 51135  1  0  0  0
 51136  1  0  0  0
 51137  1  0  0  0
 52138  1  0  0  0
 53139  1  0  0  0
 56140  1  0  0  0
 56141  1  0  0  0
 56142  1  0  0  0
 57143  1  0  0  0
 58144  1  0  0  0
 61145  1  0  0  0
 61146  1  0  0  0
 62147  1  0  0  0
 62148  1  0  0  0
 63149  1  0  0  0
 63150  1  0  0  0
 64151  1  0  0  0
 66152  1  0  0  0
 66153  1  0  0  0
 67154  1  0  0  0
 68155  1  0  0  0
 69156  1  0  0  0
 72157  1  0  0  0
 72158  1  0  0  0
 73159  1  0  0  0
 73160  1  0  0  0
 74161  1  0  0  0
 74162  1  0  0  0
 75163  1  0  0  0
 75164  1  0  0  0
 76165  1  0  0  0
 76166  1  0  0  0
 76167  1  0  0  0
 77168  1  0  0  0
M  END
$$$$
