5fat_ligand
  -I-interpret- 

 45 46  0  0  0  0  0  0  0  0999 V2000
   10.3910   20.3140   -0.9340 O   0  0  0  0  0
   10.6880   19.1960   -0.0800 S   0  0  0  0  0
   10.0740   19.4200    1.2060 O   0  0  0  0  0
   12.0670   18.7540   -0.1120 O   0  0  0  0  0
    9.8280   17.7960   -0.7130 O   0  0  0  0  0
    8.5840   18.0120   -1.0920 N   0  3  0  0  0
    7.8540   17.0180   -1.8570 C   0  0  0  0  0
    8.1750   17.1440   -3.3340 C   0  0  0  0  0
    8.0560   18.5930   -3.8090 C   0  0  0  0  0
    6.4150   17.4670   -1.6600 C   0  0  0  0  0
    6.3880   18.8710   -2.0860 N   0  0  0  0  0
    6.4280   19.9010   -1.1470 C   0  0  0  0  0
    6.4220   21.0590   -1.4320 O   0  0  0  0  0
    6.6770   19.1360   -3.5030 C   0  0  0  0  0
    5.6020   18.6350   -4.4700 C   0  0  0  0  0
    4.6750   17.9580   -4.0490 O   0  0  0  0  0
    5.7100   18.9050   -5.7720 N   0  0  0  0  0
    4.8600   18.4510   -6.7750 N   0  0  0  0  0
    3.7850   17.6550   -6.7360 C   0  0  0  0  0
    3.3730   17.1390   -5.7020 O   0  0  0  0  0
    3.1220   17.3880   -8.0680 C   0  0  0  0  0
    3.7430   16.1790   -8.8100 C   0  0  0  0  0
    4.4070   17.1710   -9.7290 N   0  3  0  0  0
    3.4140   18.2320   -9.3320 C   0  0  0  0  0
   12.1769   18.0087    0.4831 H   0  0  0  0  0
    8.6523   18.8099   -1.7237 H   0  0  0  0  0
    8.0662   18.0799   -0.2158 H   0  0  0  0  0
    8.0770   15.9955   -1.5521 H   0  0  0  0  0
    7.4656   16.5361   -3.8956 H   0  0  0  0  0
    9.1999   16.8098   -3.4953 H   0  0  0  0  0
    8.2210   18.6286   -4.8859 H   0  0  0  0  0
    8.7994   19.1989   -3.2911 H   0  0  0  0  0
    6.0974   17.3553   -0.6233 H   0  0  0  0  0
    5.7209   16.8578   -2.2390 H   0  0  0  0  0
    6.4670   19.6322   -0.0914 H   0  0  0  0  0
    6.6618   20.2139   -3.6643 H   0  0  0  0  0
    6.4879   19.4994   -6.0584 H   0  0  0  0  0
    5.0992   18.7850   -7.7086 H   0  0  0  0  0
    2.1125   17.4457   -7.6609 H   0  0  0  0  0
    3.1244   15.3694   -9.1972 H   0  0  0  0  0
    4.3183   15.4198   -8.2801 H   0  0  0  0  0
    4.5302   16.9401  -10.7149 H   0  0  0  0  0
    5.4057   17.3552   -9.6342 H   0  0  0  0  0
    3.6998   19.2816   -9.2622 H   0  0  0  0  0
    2.6154   18.5446  -10.0048 H   0  0  0  0  0
  1  2  2  0  0  0
  2  3  2  0  0  0
  2  4  1  0  0  0
  2  5  1  0  0  0
  5  6  1  0  0  0
  6  7  1  0  0  0
  7  8  1  0  0  0
  7 10  1  0  0  0
  8  9  1  0  0  0
  9 14  1  0  0  0
 10 11  1  0  0  0
 11 12  1  0  0  0
 11 14  1  0  0  0
 12 13  2  0  0  0
 14 15  1  0  0  0
 15 16  2  0  0  0
 15 17  1  0  0  0
 17 18  1  0  0  0
 18 19  1  0  0  0
 19 20  2  0  0  0
 19 21  1  0  0  0
 21 22  1  0  0  0
 21 24  1  0  0  0
 22 23  1  0  0  0
 23 24  1  0  0  0
  4 25  1  0  0  0
  6 26  1  0  0  0
  6 27  1  0  0  0
  7 28  1  0  0  0
  8 29  1  0  0  0
  8 30  1  0  0  0
  9 31  1  0  0  0
  9 32  1  0  0  0
 10 33  1  0  0  0
 10 34  1  0  0  0
 12 35  1  0  0  0
 14 36  1  0  0  0
 17 37  1  0  0  0
 18 38  1  0  0  0
 21 39  1  0  0  0
 22 40  1  0  0  0
 22 41  1  0  0  0
 23 42  1  0  0  0
 23 43  1  0  0  0
 24 44  1  0  0  0
 24 45  1  0  0  0
M  END
$$$$
