4kqq_ligand
  -I-interpret- 

 67 69  0  0  0  0  0  0  0  0999 V2000
   -7.2970    5.6360   24.0520 S   0  0  0  0  0
   -4.4890    3.6200   23.4160 O   0  0  0  0  0
   -7.9230    4.7890   19.6780 O   0  0  0  0  0
   -9.7910    5.8570   19.9400 O   0  0  0  0  0
   -2.4190    6.8960   24.6070 O   0  0  0  0  0
    0.4060    9.6860   21.8630 O   0  0  0  0  0
    1.1590    7.6740   25.2710 O   0  0  0  0  0
    3.5230    7.8610   26.5110 O   0  0  0  0  0
   -6.6220    6.1930   21.6300 N   0  3  0  0  0
   -3.8360    6.9310   22.7270 N   0  0  0  0  0
   -0.5170    8.3770   23.5150 N   0  0  0  0  0
    1.8830    9.0260   23.5330 N   0  0  0  0  0
    4.5340    8.6400   24.5810 N   0  0  0  0  0
   -6.1440    6.4420   22.9640 C   0  0  0  0  0
   -8.6410    5.5310   22.9100 C   0  0  0  0  0
   -8.1070    6.1760   21.6320 C   0  0  0  0  0
   -4.7370    5.9590   23.2400 C   0  0  0  0  0
   -4.4410    4.6160   22.6500 C   0  0  0  0  0
   -9.0230    4.1100   22.7080 C   0  0  0  0  0
   -9.8330    6.3520   23.4540 C   0  0  0  0  0
   -8.6270    5.5780   20.3510 C   0  0  0  0  0
   -2.6880    7.3440   23.5020 C   0  0  0  0  0
   -1.8210    8.3960   22.8930 C   0  0  0  0  0
   -2.5360    9.7140   23.0020 C   0  0  0  0  0
    0.5820    9.0700   22.9010 C   0  0  0  0  0
   -3.1500   10.2470   21.8410 C   0  0  0  0  0
   -2.6040   10.4020   24.2210 C   0  0  0  0  0
    3.0060    9.7640   22.9020 C   0  0  0  0  0
    4.3870    9.0730   23.1750 C   0  0  0  0  0
    2.0850    8.2880   24.7460 C   0  0  0  0  0
   -3.8380   11.4740   21.9210 C   0  0  0  0  0
   -3.2820   11.6360   24.2850 C   0  0  0  0  0
    3.4000    8.2480   25.3540 C   0  0  0  0  0
    5.8870    8.6060   25.1510 C   0  0  0  0  0
   -3.9030   12.1720   23.1350 C   0  0  0  0  0
    6.5600    7.3270   24.7090 C   0  0  0  0  0
   -4.1330    4.4720   21.4190 O   0  0  0  0  0
  -10.2075    6.4679   20.5523 H   0  0  0  0  0
   -6.2719    5.2915   21.3059 H   0  0  0  0  0
   -6.2910    6.9297   21.0070 H   0  0  0  0  0
   -4.0004    7.3394   21.8069 H   0  0  0  0  0
   -0.3765    7.8717   24.3899 H   0  0  0  0  0
   -6.0863    7.5199   23.1156 H   0  0  0  0  0
   -8.4922    7.1955   21.6513 H   0  0  0  0  0
   -4.6242    5.8375   24.3173 H   0  0  0  0  0
   -9.8018    4.0490   21.9478 H   0  0  0  0  0
   -8.1506    3.5433   22.3825 H   0  0  0  0  0
   -9.3960    3.6985   23.6459 H   0  0  0  0  0
   -9.5032    7.3675   23.6733 H   0  0  0  0  0
  -10.6252    6.3795   22.7058 H   0  0  0  0  0
  -10.2080    5.8857   24.3651 H   0  0  0  0  0
   -1.6422    8.2112   21.8338 H   0  0  0  0  0
   -3.0904    9.7117   20.8934 H   0  0  0  0  0
   -2.1360    9.9858   25.1131 H   0  0  0  0  0
    3.0364   10.7676   23.3261 H   0  0  0  0  0
    2.8402    9.7825   21.8248 H   0  0  0  0  0
    4.4519    8.1883   22.5417 H   0  0  0  0  0
    5.1737    9.7967   22.9615 H   0  0  0  0  0
   -4.3223   11.8827   21.0342 H   0  0  0  0  0
   -3.3275   12.1804   25.2282 H   0  0  0  0  0
    5.8339    8.6423   26.2391 H   0  0  0  0  0
    6.4589    9.4669   24.8047 H   0  0  0  0  0
   -4.4305   13.1242   23.1913 H   0  0  0  0  0
    5.9837    6.4730   25.0648 H   0  0  0  0  0
    6.6130    7.3032   23.6205 H   0  0  0  0  0
    7.5670    7.2856   25.1240 H   0  0  0  0  0
   -4.1445    5.3283   20.9851 H   0  0  0  0  0
 14  1  1  0  0  0
  1 15  1  0  0  0
 18  2  2  0  0  0
 21  3  2  0  0  0
 21  4  1  0  0  0
 22  5  2  0  0  0
 25  6  2  0  0  0
 30  7  2  0  0  0
 33  8  2  0  0  0
 14  9  1  0  0  0
  9 16  1  0  0  0
 10 17  1  0  0  0
 22 10  1  0  0  0
 11 23  1  0  0  0
 25 11  1  0  0  0
 12 25  1  0  0  0
 28 12  1  0  0  0
 12 30  1  0  0  0
 29 13  1  0  0  0
 13 33  1  0  0  0
 13 34  1  0  0  0
 17 14  1  0  0  0
 16 15  1  0  0  0
 15 19  1  0  0  0
 15 20  1  0  0  0
 16 21  1  0  0  0
 17 18  1  0  0  0
 18 37  1  0  0  0
 23 22  1  0  0  0
 23 24  1  0  0  0
 24 26  4  0  0  0
 24 27  4  0  0  0
 26 31  4  0  0  0
 27 32  4  0  0  0
 28 29  1  0  0  0
 30 33  1  0  0  0
 31 35  4  0  0  0
 32 35  4  0  0  0
 34 36  1  0  0  0
  4 38  1  0  0  0
  9 39  1  0  0  0
  9 40  1  0  0  0
 10 41  1  0  0  0
 11 42  1  0  0  0
 14 43  1  0  0  0
 16 44  1  0  0  0
 17 45  1  0  0  0
 19 46  1  0  0  0
 19 47  1  0  0  0
 19 48  1  0  0  0
 20 49  1  0  0  0
 20 50  1  0  0  0
 20 51  1  0  0  0
 23 52  1  0  0  0
 26 53  1  0  0  0
 27 54  1  0  0  0
 28 55  1  0  0  0
 28 56  1  0  0  0
 29 57  1  0  0  0
 29 58  1  0  0  0
 31 59  1  0  0  0
 32 60  1  0  0  0
 34 61  1  0  0  0
 34 62  1  0  0  0
 35 63  1  0  0  0
 36 64  1  0  0  0
 36 65  1  0  0  0
 36 66  1  0  0  0
 37 67  1  0  0  0
M  END
$$$$
