3rxb_ligand
  -I-interpret- 

 21 20  0  0  0  0  0  0  0  0999 V2000
   -1.5150  -16.7930   14.4380 C   0  0  0  0  0
   -1.8670  -17.0730   15.5740 O   0  0  0  0  0
   -0.6160  -15.6130   14.1430 C   0  0  0  0  0
   -0.5470  -14.6440   15.3190 C   0  0  0  0  0
   -1.8630  -13.9040   15.5130 C   0  0  0  0  0
   -1.9700  -13.2890   16.8210 N   0  0  0  0  0
   -2.2600  -13.9520   17.9490 C   0  0  0  0  0
   -2.4110  -15.2070   17.9950 N   0  0  0  0  0
   -2.4090  -13.2670   19.0760 N   0  0  0  0  0
   -1.9460  -17.5560   13.4450 O   0  0  0  0  0
   -1.0223  -15.0797   13.2836 H   0  0  0  0  0
    0.3889  -15.9883   13.9495 H   0  0  0  0  0
    0.2337  -13.9109   15.1159 H   0  0  0  0  0
   -0.3360  -15.2145   16.2235 H   0  0  0  0  0
   -2.6720  -14.6280   15.4159 H   0  0  0  0  0
   -1.9159  -13.1127   14.7653 H   0  0  0  0  0
   -1.8140  -12.2832   16.8875 H   0  0  0  0  0
   -2.6399  -15.6611   18.8792 H   0  0  0  0  0
   -2.6381  -13.7541   19.9424 H   0  0  0  0  0
   -2.2945  -12.2535   19.0757 H   0  0  0  0  0
   -1.5965  -17.2256   12.6142 H   0  0  0  0  0
  1  2  2  0  0  0
  1  3  1  0  0  0
  1 10  1  0  0  0
  3  4  1  0  0  0
  4  5  1  0  0  0
  5  6  1  0  0  0
  6  7  1  0  0  0
  7  8  2  0  0  0
  7  9  1  0  0  0
  3 11  1  0  0  0
  3 12  1  0  0  0
  4 13  1  0  0  0
  4 14  1  0  0  0
  5 15  1  0  0  0
  5 16  1  0  0  0
  6 17  1  0  0  0
  8 18  1  0  0  0
  9 19  1  0  0  0
  9 20  1  0  0  0
 10 21  1  0  0  0
M  END
$$$$
