1pig_ligand
  -I-interpret- 

131136  0  0  0  0  0  0  0  0999 V2000
   31.1640   19.4360   62.9480 C   0  0  0  0  0
   31.3900   20.3290   64.1530 C   0  0  0  0  0
   32.5680   19.8100   64.9590 C   0  0  0  0  0
   32.3190   18.3690   65.3990 C   0  0  0  0  0
   32.0610   17.5350   64.1340 C   0  0  0  0  0
   31.6980   16.0910   64.4340 C   0  0  0  0  0
   31.6570   21.6510   63.7300 O   0  0  0  0  0
   32.7570   20.6270   66.0980 O   0  0  0  0  0
   33.2190   17.8640   66.2420 N   0  3  0  0  0
   30.9640   18.0940   63.3800 O   0  0  0  0  0
   32.3980   20.6640   57.9240 C   0  0  0  0  0
   32.5430   21.7770   58.9870 C   0  0  0  0  0
   32.9040   21.2340   60.3780 C   0  0  0  0  0
   31.9360   20.1060   60.7530 C   0  0  0  0  0
   32.0600   19.0340   59.6860 C   0  0  0  0  0
   31.2400   17.7890   59.9710 C   0  0  0  0  0
   33.5450   22.6940   58.5730 O   0  0  0  0  0
   32.8340   22.2850   61.3330 O   0  0  0  0  0
   32.2470   19.5580   62.0570 O   0  0  0  0  0
   31.6290   19.5680   58.4120 O   0  0  0  0  0
   29.8870   18.1100   60.2460 O   0  0  0  0  0
   35.9770   20.0930   54.2750 C   0  0  0  0  0
   34.6580   20.7910   53.8760 C   0  0  0  0  0
   34.8680   21.8980   53.0220 O   0  0  0  0  0
   33.9720   21.1780   55.2030 C   0  0  0  0  0
   32.7250   21.8060   54.9510 O   0  0  0  0  0
   33.7920   19.8860   56.1020 C   0  0  0  0  0
   33.6630   20.2740   57.4410 O   0  0  0  0  0
   34.8690   18.7750   56.0490 C   0  0  0  0  0
   35.9030   18.8840   55.1900 C   0  0  0  0  0
   34.7570   17.5630   56.9690 C   0  0  0  0  0
   33.8750   16.6550   56.3670 O   0  0  0  0  0
   40.2830   21.1060   57.3990 C   0  0  0  0  0
   40.1680   19.9470   56.4110 C   0  0  0  0  0
   39.2120   20.2560   55.2510 C   0  0  0  0  0
   37.8550   20.7480   55.7780 C   0  0  0  0  0
   38.1450   21.9800   56.6640 C   0  0  0  0  0
   36.9090   22.6060   57.2950 C   0  0  0  0  0
   41.4500   19.6520   55.8880 O   0  0  0  0  0
   39.0350   19.0830   54.4700 O   0  0  0  0  0
   36.9680   21.1080   54.6700 N   0  3  0  0  0
   39.0050   21.6110   57.7590 O   0  0  0  0  0
   44.4520   24.2080   58.4510 C   0  0  0  0  0
   44.7270   22.8750   57.7670 C   0  0  0  0  0
   43.5410   22.4230   56.9180 C   0  0  0  0  0
   42.2580   22.4670   57.7330 C   0  0  0  0  0
   42.0850   23.8800   58.2810 C   0  0  0  0  0
   40.8480   24.0610   59.1320 C   0  0  0  0  0
   45.8710   23.0060   56.9400 O   0  0  0  0  0
   43.7590   21.1000   56.4610 O   0  0  0  0  0
   41.1340   22.1000   56.8960 O   0  0  0  0  0
   43.2020   24.2000   59.1180 O   0  0  0  0  0
   40.9880   23.3720   60.3650 O   0  0  0  0  0
   46.5630   28.9230   57.4410 C   0  0  0  0  0
   47.3930   27.6390   57.3160 C   0  0  0  0  0
   46.4980   26.5100   56.8430 C   0  0  0  0  0
   45.4270   26.3210   57.8970 C   0  0  0  0  0
   44.6500   27.6270   58.0810 C   0  0  0  0  0
   43.6400   27.5170   59.2070 C   0  0  0  0  0
   47.3840   29.9010   57.9900 O   0  0  0  0  0
   48.4660   27.8100   56.4090 O   0  0  0  0  0
   47.2660   25.3240   56.6900 O   0  0  0  0  0
   44.5420   25.2470   57.5180 O   0  0  0  0  0
   45.5550   28.6970   58.4340 O   0  0  0  0  0
   44.2230   26.8900   60.3420 O   0  0  0  0  0
   30.2665   19.7441   62.4116 H   0  0  0  0  0
   30.4930   20.3237   64.7723 H   0  0  0  0  0
   33.4611   19.8369   64.3347 H   0  0  0  0  0
   31.4321   18.3399   66.0319 H   0  0  0  0  0
   32.9956   17.5585   63.5736 H   0  0  0  0  0
   30.7755   16.0626   65.0138 H   0  0  0  0  0
   31.5569   15.5511   63.4977 H   0  0  0  0  0
   32.5020   15.6267   65.0050 H   0  0  0  0  0
   30.9125   21.9793   63.2205 H   0  0  0  0  0
   32.9133   21.5321   65.8188 H   0  0  0  0  0
   33.3185   18.4862   67.0441 H   0  0  0  0  0
   32.9084   16.9456   66.5591 H   0  0  0  0  0
   34.1166   17.7749   65.7659 H   0  0  0  0  0
   31.8413   21.0655   57.0773 H   0  0  0  0  0
   31.5729   22.2669   59.0715 H   0  0  0  0  0
   33.9195   20.8382   60.3660 H   0  0  0  0  0
   30.9169   20.4892   60.8050 H   0  0  0  0  0
   33.1103   18.7427   59.6741 H   0  0  0  0  0
   31.6610   17.2906   60.8442 H   0  0  0  0  0
   31.2705   17.1465   59.0910 H   0  0  0  0  0
   33.6361   23.3858   59.2323 H   0  0  0  0  0
   33.0600   21.9427   62.2010 H   0  0  0  0  0
   29.3972   17.3032   60.4214 H   0  0  0  0  0
   36.3154   19.5849   53.3720 H   0  0  0  0  0
   34.0220   20.1276   53.2898 H   0  0  0  0  0
   34.0226   22.2967   52.8030 H   0  0  0  0  0
   34.5981   21.8905   55.7401 H   0  0  0  0  0
   32.3116   22.0402   55.7852 H   0  0  0  0  0
   32.9074   19.4233   55.6644 H   0  0  0  0  0
   36.6746   18.1149   55.1533 H   0  0  0  0  0
   34.3849   17.8622   57.9489 H   0  0  0  0  0
   35.7349   17.1041   57.1145 H   0  0  0  0  0
   33.7850   15.8796   56.9259 H   0  0  0  0  0
   40.7328   20.7322   58.3188 H   0  0  0  0  0
   39.7618   19.0937   56.9540 H   0  0  0  0  0
   39.6424   21.0470   54.6369 H   0  0  0  0  0
   37.3521   19.9660   56.3470 H   0  0  0  0  0
   38.5985   22.7037   55.9867 H   0  0  0  0  0
   36.2271   22.9319   56.5096 H   0  0  0  0  0
   36.4123   21.8693   57.9265 H   0  0  0  0  0
   37.2057   23.4633   57.8992 H   0  0  0  0  0
   41.3809   18.9236   55.2664 H   0  0  0  0  0
   38.4374   19.2713   53.7427 H   0  0  0  0  0
   37.5692   21.2504   53.8584 H   0  0  0  0  0
   36.4354   21.9195   54.9834 H   0  0  0  0  0
   45.2094   24.3723   59.2175 H   0  0  0  0  0
   44.8951   22.1241   58.5390 H   0  0  0  0  0
   43.4449   23.0969   56.0667 H   0  0  0  0  0
   42.3080   21.7601   58.5612 H   0  0  0  0  0
   42.0013   24.5265   57.4074 H   0  0  0  0  0
   39.9879   23.6584   58.5969 H   0  0  0  0  0
   40.7090   25.1231   59.3335 H   0  0  0  0  0
   46.0487   22.1681   56.5064 H   0  0  0  0  0
   43.0115   20.8196   55.9279 H   0  0  0  0  0
   40.1954   23.4972   60.8920 H   0  0  0  0  0
   46.1506   29.2033   56.4718 H   0  0  0  0  0
   47.8117   27.3997   58.2935 H   0  0  0  0  0
   46.0445   26.7400   55.8789 H   0  0  0  0  0
   45.8952   26.0571   58.8453 H   0  0  0  0  0
   44.1411   27.8286   57.1384 H   0  0  0  0  0
   42.7956   26.9175   58.8669 H   0  0  0  0  0
   43.3116   28.5182   59.4861 H   0  0  0  0  0
   48.0910   30.1065   57.3739 H   0  0  0  0  0
   48.9672   26.9933   56.3504 H   0  0  0  0  0
   46.6964   24.6116   56.3906 H   0  0  0  0  0
   43.5701   26.8292   61.0432 H   0  0  0  0  0
  1 10  1  0  0  0
  1  2  1  0  0  0
  2  7  1  0  0  0
  2  3  1  0  0  0
  3  8  1  0  0  0
  3  4  1  0  0  0
  4  9  1  0  0  0
  5  4  1  0  0  0
 10  5  1  0  0  0
  5  6  1  0  0  0
 11 20  1  0  0  0
 11 12  1  0  0  0
 12 17  1  0  0  0
 12 13  1  0  0  0
 13 18  1  0  0  0
 13 14  1  0  0  0
 14 19  1  0  0  0
 15 14  1  0  0  0
 20 15  1  0  0  0
 15 16  1  0  0  0
 16 21  1  0  0  0
 22 30  1  0  0  0
 22 23  1  0  0  0
 23 25  1  0  0  0
 23 24  1  0  0  0
 25 27  1  0  0  0
 25 26  1  0  0  0
 29 27  1  0  0  0
 27 28  1  0  0  0
 29 31  1  0  0  0
 30 29  2  0  0  0
 31 32  1  0  0  0
 33 42  1  0  0  0
 33 34  1  0  0  0
 34 39  1  0  0  0
 34 35  1  0  0  0
 35 40  1  0  0  0
 35 36  1  0  0  0
 36 41  1  0  0  0
 37 36  1  0  0  0
 42 37  1  0  0  0
 37 38  1  0  0  0
 43 52  1  0  0  0
 43 44  1  0  0  0
 44 49  1  0  0  0
 44 45  1  0  0  0
 45 50  1  0  0  0
 45 46  1  0  0  0
 46 51  1  0  0  0
 47 46  1  0  0  0
 52 47  1  0  0  0
 47 48  1  0  0  0
 48 53  1  0  0  0
 64 54  1  0  0  0
 54 60  1  0  0  0
 55 54  1  0  0  0
 55 61  1  0  0  0
 56 55  1  0  0  0
 56 62  1  0  0  0
 57 56  1  0  0  0
 63 57  1  0  0  0
 57 58  1  0  0  0
 58 64  1  0  0  0
 58 59  1  0  0  0
 59 65  1  0  0  0
 19  1  1  0  0  0
 28 11  1  0  0  0
 41 22  1  0  0  0
 51 33  1  0  0  0
 63 43  1  0  0  0
  1 66  1  0  0  0
  2 67  1  0  0  0
  3 68  1  0  0  0
  4 69  1  0  0  0
  5 70  1  0  0  0
  6 71  1  0  0  0
  6 72  1  0  0  0
  6 73  1  0  0  0
  7 74  1  0  0  0
  8 75  1  0  0  0
  9 76  1  0  0  0
  9 77  1  0  0  0
  9 78  1  0  0  0
 11 79  1  0  0  0
 12 80  1  0  0  0
 13 81  1  0  0  0
 14 82  1  0  0  0
 15 83  1  0  0  0
 16 84  1  0  0  0
 16 85  1  0  0  0
 17 86  1  0  0  0
 18 87  1  0  0  0
 21 88  1  0  0  0
 22 89  1  0  0  0
 23 90  1  0  0  0
 24 91  1  0  0  0
 25 92  1  0  0  0
 26 93  1  0  0  0
 27 94  1  0  0  0
 30 95  1  0  0  0
 31 96  1  0  0  0
 31 97  1  0  0  0
 32 98  1  0  0  0
 33 99  1  0  0  0
 34100  1  0  0  0
 35101  1  0  0  0
 36102  1  0  0  0
 37103  1  0  0  0
 38104  1  0  0  0
 38105  1  0  0  0
 38106  1  0  0  0
 39107  1  0  0  0
 40108  1  0  0  0
 41109  1  0  0  0
 41110  1  0  0  0
 43111  1  0  0  0
 44112  1  0  0  0
 45113  1  0  0  0
 46114  1  0  0  0
 47115  1  0  0  0
 48116  1  0  0  0
 48117  1  0  0  0
 49118  1  0  0  0
 50119  1  0  0  0
 53120  1  0  0  0
 54121  1  0  0  0
 55122  1  0  0  0
 56123  1  0  0  0
 57124  1  0  0  0
 58125  1  0  0  0
 59126  1  0  0  0
 59127  1  0  0  0
 60128  1  0  0  0
 61129  1  0  0  0
 62130  1  0  0  0
 65131  1  0  0  0
M  END
$$$$
