5j5d_ligand
  -I-interpret- 

 23 22  0  0  0  0  0  0  0  0999 V2000
   88.1060   95.0960  113.0810 O   0  0  0  0  0
   88.5190   96.2520  112.8640 C   0  0  0  0  0
   88.1570   97.2260  113.5530 O   0  0  0  0  0
   89.4930   96.4860  111.7310 C   0  0  0  0  0
   90.4960   97.5620  112.1410 C   0  0  0  0  0
   91.8290   97.4040  111.4140 C   0  0  0  0  0
   91.9150   98.1860  110.1040 C   0  0  0  0  0
   92.5110   97.2760  109.0620 C   0  0  0  0  0
   91.8520   96.8940  107.9620 C   0  0  0  0  0
   92.4250   96.1270  107.1610 O   0  0  0  0  0
   90.6880   97.3050  107.7390 O   0  0  0  0  0
   88.5839   98.0223  113.2286 H   0  0  0  0  0
   88.9495   96.8129  110.8445 H   0  0  0  0  0
   90.0226   95.5597  111.5082 H   0  0  0  0  0
   90.6776   97.4699  113.2118 H   0  0  0  0  0
   90.0785   98.5350  111.8819 H   0  0  0  0  0
   91.9422   96.3478  111.1696 H   0  0  0  0  0
   92.6062   97.7896  112.0738 H   0  0  0  0  0
   92.5368   99.0720  110.2326 H   0  0  0  0  0
   90.9233   98.5163  109.7950 H   0  0  0  0  0
   92.6527   96.3403  109.6028 H   0  0  0  0  0
   93.3374   97.8644  108.6633 H   0  0  0  0  0
   90.4102   97.8803  108.4555 H   0  0  0  0  0
  1  2  2  0  0  0
  2  3  1  0  0  0
  2  4  1  0  0  0
  4  5  1  0  0  0
  5  6  1  0  0  0
  6  7  1  0  0  0
  7  8  1  0  0  0
  8  9  1  0  0  0
  9 10  2  0  0  0
  9 11  1  0  0  0
  3 12  1  0  0  0
  4 13  1  0  0  0
  4 14  1  0  0  0
  5 15  1  0  0  0
  5 16  1  0  0  0
  6 17  1  0  0  0
  6 18  1  0  0  0
  7 19  1  0  0  0
  7 20  1  0  0  0
  8 21  1  0  0  0
  8 22  1  0  0  0
 11 23  1  0  0  0
M  END
$$$$
