3nes_ligand
  -I-interpret- 

 48 49  0  0  0  0  0  0  0  0999 V2000
    3.4620   -1.5490    2.4280 O   0  0  0  0  0
    2.2880   -1.1400    2.2930 C   0  0  0  0  0
    1.2850   -1.8710    2.4360 O   0  0  0  0  0
    2.0650    0.3420    1.9420 C   0  0  0  0  0
    0.8060    0.8410    1.3820 O   0  0  0  0  0
    0.4620    0.4830    0.0960 C   0  0  0  0  0
    1.2160   -0.4380   -0.6190 C   0  0  0  0  0
    0.8480   -0.7650   -1.9180 C   0  0  0  0  0
    1.6990   -1.7870   -2.6900 C   0  0  0  0  0
   -0.2810   -0.1830   -2.5130 C   0  0  0  0  0
   -1.0450    0.7160   -1.7840 C   0  0  0  0  0
   -0.6670    1.0520   -0.4900 C   0  0  0  0  0
   -2.3000    1.3570   -2.4030 C   0  0  0  0  0
   -0.7220   -0.5950   -3.9120 C   0  0  0  0  0
    0.0290    0.0960   -5.0030 C   0  0  0  0  0
   -0.1750   -0.3030   -6.3290 C   0  0  0  0  0
    0.5050    0.3500   -7.3270 C   0  0  0  0  0
    0.3770   -0.0220   -8.8150 C   0  0  0  0  0
   -0.7460   -1.0360   -9.0110 C   0  0  0  0  0
    0.0970    1.2460   -9.6070 C   0  0  0  0  0
    1.3420    1.3840   -6.9630 C   0  0  0  0  0
    2.0020    2.0110   -7.9540 O   0  0  0  0  0
    1.5230    1.7870   -5.6400 C   0  0  0  0  0
    0.8480    1.1360   -4.6350 C   0  0  0  0  0
    4.0720   -0.8239    2.2740 H   0  0  0  0  0
    2.7839    0.5215    1.1426 H   0  0  0  0  0
    2.1246    0.8408    2.9094 H   0  0  0  0  0
    2.0912   -0.9015   -0.1638 H   0  0  0  0  0
    2.7205   -1.4164   -2.7758 H   0  0  0  0  0
    1.6993   -2.7362   -2.1542 H   0  0  0  0  0
    1.2783   -1.9302   -3.6853 H   0  0  0  0  0
   -1.2616    1.7704    0.0744 H   0  0  0  0  0
   -2.0179    1.9191   -3.2933 H   0  0  0  0  0
   -3.0092    0.5752   -2.6750 H   0  0  0  0  0
   -2.7586    2.0290   -1.6776 H   0  0  0  0  0
   -1.7728   -0.3248   -4.0165 H   0  0  0  0  0
   -0.5346   -1.6641   -4.0124 H   0  0  0  0  0
   -0.8608   -1.1168   -6.5648 H   0  0  0  0  0
    1.3033   -0.4765   -9.1665 H   0  0  0  0  0
   -0.5262   -1.9354   -8.4358 H   0  0  0  0  0
   -1.6868   -0.6050   -8.6685 H   0  0  0  0  0
   -0.8245   -1.2895  -10.0682 H   0  0  0  0  0
   -0.8311    1.6958   -9.2541 H   0  0  0  0  0
    0.9186    1.9486   -9.4679 H   0  0  0  0  0
    0.0035    0.9991  -10.6645 H   0  0  0  0  0
    2.5492    2.7067   -7.5824 H   0  0  0  0  0
    2.1950    2.6123   -5.4047 H   0  0  0  0  0
    0.9577    1.4319   -3.5917 H   0  0  0  0  0
  1  2  1  0  0  0
  2  3  2  0  0  0
  2  4  1  0  0  0
  4  5  1  0  0  0
  5  6  1  0  0  0
  6  7  4  0  0  0
  6 12  4  0  0  0
  7  8  4  0  0  0
  8  9  1  0  0  0
  8 10  4  0  0  0
 10 11  4  0  0  0
 10 14  1  0  0  0
 11 12  4  0  0  0
 11 13  1  0  0  0
 14 15  1  0  0  0
 15 16  4  0  0  0
 15 24  4  0  0  0
 16 17  4  0  0  0
 17 18  1  0  0  0
 17 21  4  0  0  0
 18 19  1  0  0  0
 18 20  1  0  0  0
 21 22  1  0  0  0
 21 23  4  0  0  0
 23 24  4  0  0  0
  1 25  1  0  0  0
  4 26  1  0  0  0
  4 27  1  0  0  0
  7 28  1  0  0  0
  9 29  1  0  0  0
  9 30  1  0  0  0
  9 31  1  0  0  0
 12 32  1  0  0  0
 13 33  1  0  0  0
 13 34  1  0  0  0
 13 35  1  0  0  0
 14 36  1  0  0  0
 14 37  1  0  0  0
 16 38  1  0  0  0
 18 39  1  0  0  0
 19 40  1  0  0  0
 19 41  1  0  0  0
 19 42  1  0  0  0
 20 43  1  0  0  0
 20 44  1  0  0  0
 20 45  1  0  0  0
 22 46  1  0  0  0
 23 47  1  0  0  0
 24 48  1  0  0  0
M  END
$$$$
