### 
### Created by X-TOOL on Mon Sep 10 21:13:06 2018
### 

@<TRIPOS>MOLECULE
2y2i_ligand
   25    25     1     0     0
SMALL
GAST_HUCK


@<TRIPOS>ATOM
      1 O6          8.2790    7.1650   40.9630 O.2       1 ZA3        -0.3851
      2 C5          9.1320    8.0470   40.9080 C.2       1 ZA3         0.1825
      3 N4          9.5510    8.6600   39.7470 N.am      1 ZA3        -0.4397
      4 C3          8.9960    8.7140   38.5040 C.3       1 ZA3        -0.2413
      5 B           9.1870   10.1100   37.8100 B         1 ZA3         3.0000
      6 O2          8.3420   10.1410   36.5260 O.3       1 ZA3        -0.8710
      7 O1          8.8180   11.2640   38.7570 O.3       1 ZA3        -0.8710
      8 C7          9.9560    8.3360   42.1700 C.ar      1 ZA3         0.0895
      9 C14        10.2770    7.3180   43.0730 C.ar      1 ZA3         0.2185
     10 N15        10.1800    5.9180   42.6890 N.2       1 ZA3         0.3185
     11 O16        10.1750    5.1900   41.4280 O.2       1 ZA3         0.1796
     12 O17        10.0740    4.8030   43.6410 O.2       1 ZA3         0.1796
     13 C8          9.9600    9.6520   42.6310 C.ar      1 ZA3        -0.0343
     14 C11        10.6130    9.9750   43.8210 C.ar      1 ZA3        -0.0512
     15 C12        11.1040    8.9630   44.6470 C.ar      1 ZA3        -0.0496
     16 C13        10.9420    7.6370   44.2560 C.ar      1 ZA3        -0.0136
     17 H          10.4341    9.1630   39.8338 H         1 ZA3         0.1453
     18 H           7.9255    8.5381   38.6093 H         1 ZA3        -0.1856
     19 H           9.4899    7.9643   37.8858 H         1 ZA3        -0.1856
     20 H           8.5969    9.4096   35.9588 H         1 ZA3        -0.1290
     21 H           7.8922   11.1930   39.0006 H         1 ZA3        -0.1290
     22 H           9.4521   10.4298   42.0607 H         1 ZA3         0.0684
     23 H          10.7398   11.0194   44.1059 H         1 ZA3         0.0670
     24 H          11.6062    9.2070   45.5831 H         1 ZA3         0.0666
     25 H          11.3398    6.8385   44.8823 H         1 ZA3         0.0704
@<TRIPOS>BOND
     1    1    2 2  
     2    2    3 am 
     3    2    8 1  
     4    3    4 1  
     5    4    5 1  
     6    5    6 1  
     7    5    7 1  
     8    8    9 ar 
     9    8   13 ar 
    10    9   10 1  
    11    9   16 ar 
    12   10   11 2  
    13   10   12 2  
    14   13   14 ar 
    15   14   15 ar 
    16   15   16 ar 
    17    3   17 1  
    18    4   18 1  
    19    4   19 1  
    20    6   20 1  
    21    7   21 1  
    22   13   22 1  
    23   14   23 1  
    24   15   24 1  
    25   16   25 1  
@<TRIPOS>SUBSTRUCTURE
     1 ZA3         1

