3rtm_ligand
  -I-interpret- 

 48 50  0  0  0  0  0  0  0  0999 V2000
   67.2290   50.0380    7.4130 N   0  0  0  0  0
   70.2560   46.5410    8.2130 N   0  0  0  0  0
   68.1130   49.8320   10.9440 C   0  0  0  0  0
   67.7430   49.4420    9.6500 C   0  0  0  0  0
   67.5850   50.4050    8.6490 C   0  0  0  0  0
   67.0030   48.7500    7.0910 C   0  0  0  0  0
   67.1430   47.7100    8.0530 C   0  0  0  0  0
   66.9080   46.1720    7.8280 C   0  0  0  0  0
   70.3640   45.7820    9.4850 C   0  0  0  0  0
   71.1300   48.7910    8.8520 C   0  0  0  0  0
   72.4840   50.0120    7.0390 C   0  0  0  0  0
   71.3550   50.1140    8.1030 C   0  0  0  0  0
   72.6270   48.6580    6.2850 C   0  0  0  0  0
   72.4290   47.4350    7.1920 C   0  0  0  0  0
   71.0660   47.6920    7.7870 C   0  0  0  0  0
   69.2630   46.2750    7.3670 C   0  0  0  0  0
   69.1000   46.9130    6.3200 O   0  0  0  0  0
   68.1970   45.3010    7.7860 C   0  0  0  0  0
   67.5210   48.1000    9.3470 C   0  0  0  0  0
   68.3300   51.1910   11.2220 C   0  0  0  0  0
   68.1740   52.1510   10.2210 C   0  0  0  0  0
   67.8070   51.7450    8.9400 C   0  0  0  0  0
   66.6510   48.5160    5.8250 N   0  0  0  0  0
   68.2315   49.0855   11.7293 H   0  0  0  0  0
   66.4298   46.0687    6.8539 H   0  0  0  0  0
   66.3204   45.8189    8.6755 H   0  0  0  0  0
   71.3615   45.3498    9.5652 H   0  0  0  0  0
   70.1898   46.4553   10.3243 H   0  0  0  0  0
   69.6197   44.9857    9.4958 H   0  0  0  0  0
   70.2087   48.8242    9.4336 H   0  0  0  0  0
   71.9372   48.6015    9.5595 H   0  0  0  0  0
   73.4183   50.1486    7.5835 H   0  0  0  0  0
   72.2411   50.7521    6.2766 H   0  0  0  0  0
   71.6487   50.8679    8.8334 H   0  0  0  0  0
   70.4294   50.3699    7.5874 H   0  0  0  0  0
   73.6389   48.6098    5.8827 H   0  0  0  0  0
   71.8558   48.6261    5.5154 H   0  0  0  0  0
   73.2113   47.3276    7.9434 H   0  0  0  0  0
   72.4905   46.4886    6.6548 H   0  0  0  0  0
   70.4919   48.0351    6.9263 H   0  0  0  0  0
   68.1094   44.4567    7.1022 H   0  0  0  0  0
   68.4146   44.8291    8.7442 H   0  0  0  0  0
   67.6423   47.3449   10.1237 H   0  0  0  0  0
   68.6222   51.4983   12.2261 H   0  0  0  0  0
   68.3375   53.2064   10.4391 H   0  0  0  0  0
   67.6922   52.4908    8.1534 H   0  0  0  0  0
   66.5677   49.2911    5.1672 H   0  0  0  0  0
   66.4653   47.5621    5.5153 H   0  0  0  0  0
  1  5  4  0  0  0
  6  1  4  0  0  0
  2  9  1  0  0  0
  2 15  1  0  0  0
 16  2  1  0  0  0
  4  3  4  0  0  0
  3 20  4  0  0  0
  4  5  4  0  0  0
 19  4  4  0  0  0
  5 22  4  0  0  0
  7  6  4  0  0  0
  6 23  1  0  0  0
  8  7  1  0  0  0
  7 19  4  0  0  0
 18  8  1  0  0  0
 10 12  1  0  0  0
 15 10  1  0  0  0
 12 11  1  0  0  0
 13 11  1  0  0  0
 14 13  1  0  0  0
 15 14  1  0  0  0
 16 17  2  0  0  0
 16 18  1  0  0  0
 20 21  4  0  0  0
 21 22  4  0  0  0
  3 24  1  0  0  0
  8 25  1  0  0  0
  8 26  1  0  0  0
  9 27  1  0  0  0
  9 28  1  0  0  0
  9 29  1  0  0  0
 10 30  1  0  0  0
 10 31  1  0  0  0
 11 32  1  0  0  0
 11 33  1  0  0  0
 12 34  1  0  0  0
 12 35  1  0  0  0
 13 36  1  0  0  0
 13 37  1  0  0  0
 14 38  1  0  0  0
 14 39  1  0  0  0
 15 40  1  0  0  0
 18 41  1  0  0  0
 18 42  1  0  0  0
 19 43  1  0  0  0
 20 44  1  0  0  0
 21 45  1  0  0  0
 22 46  1  0  0  0
 23 47  1  0  0  0
 23 48  1  0  0  0
M  END
$$$$
