5ty8_ligand
  -I-interpret- 

 20 21  0  0  0  0  0  0  0  0999 V2000
   -4.7510    5.7200   13.9560 C   0  0  0  0  0
   -5.7550    5.0520   14.5680 C   0  0  0  0  0
   -5.5550    3.8500   15.1830 C   0  0  0  0  0
   -4.2480    3.2820   15.1610 C   0  0  0  0  0
   -3.2260    3.9660   14.5430 C   0  0  0  0  0
   -3.4620    5.1900   13.9120 C   0  0  0  0  0
   -3.9990    1.9570   15.8110 C   0  0  0  0  0
   -4.7120    0.8600   15.0260 C   0  0  0  0  0
   -4.4440    0.5460   13.8570 O   0  0  0  0  0
   -5.6750    0.2410   15.7580 N   0  0  0  0  0
   -5.6460    0.7900   16.9670 C   0  0  0  0  0
   -6.2370    0.6160   17.9840 O   0  0  0  0  0
   -4.6410    1.7850   17.1000 O   0  0  0  0  0
   -4.9520    6.6852   13.4911 H   0  0  0  0  0
   -6.7545    5.4868   14.5702 H   0  0  0  0  0
   -6.3772    3.3355   15.6803 H   0  0  0  0  0
   -2.2196    3.5474   14.5459 H   0  0  0  0  0
   -2.6584    5.7175   13.3981 H   0  0  0  0  0
   -2.9118    1.9088   15.8716 H   0  0  0  0  0
   -6.2988   -0.5010   15.4407 H   0  0  0  0  0
  1  2  4  0  0  0
  1  6  4  0  0  0
  2  3  4  0  0  0
  3  4  4  0  0  0
  4  5  4  0  0  0
  4  7  1  0  0  0
  5  6  4  0  0  0
  7  8  1  0  0  0
  7 13  1  0  0  0
  8  9  2  0  0  0
  8 10  1  0  0  0
 10 11  1  0  0  0
 11 12  2  0  0  0
 11 13  1  0  0  0
  1 14  1  0  0  0
  2 15  1  0  0  0
  3 16  1  0  0  0
  5 17  1  0  0  0
  6 18  1  0  0  0
  7 19  1  0  0  0
 10 20  1  0  0  0
M  END
$$$$
