4o45_ligand
  -I-interpret- 

 71 70  0  0  0  0  0  0  0  0999 V2000
   10.9210  116.3680   -5.0630 N   0  3  0  0  0
   10.7790  115.8920   -3.6550 C   0  0  0  0  0
   10.9070  114.3560   -3.5550 C   0  0  0  0  0
   11.0320  113.6390   -4.5520 O   0  0  0  0  0
    9.4400  116.3670   -3.0530 C   0  0  0  0  0
   10.8750  113.8710   -2.3280 N   0  0  0  0  0
   10.8970  112.4220   -2.0380 C   0  0  0  0  0
    9.7640  111.6500   -2.7640 C   0  0  0  0  0
    9.9030  110.4620   -3.0810 O   0  0  0  0  0
   10.7900  112.2350   -0.5270 C   0  0  0  0  0
   10.7110  110.8360   -0.0540 C   0  0  0  0  0
   10.6220  110.7590    1.4370 C   0  0  0  0  0
   11.6720  111.4950    2.1540 N   0  0  0  0  0
   12.8130  110.9700    2.6100 C   0  0  0  0  0
   13.1150  109.6960    2.3890 N   0  0  0  0  0
   13.6680  111.7470    3.2930 N   0  0  0  0  0
    8.6610  112.3430   -3.0240 N   0  0  0  0  0
    7.4750  111.7080   -3.5630 C   0  0  0  0  0
    7.4790  111.6370   -5.0610 C   0  0  0  0  0
    6.6780  110.8760   -5.6320 O   0  0  0  0  0
    6.2320  112.4690   -3.1110 C   0  0  0  0  0
    6.3250  113.8360   -3.5280 O   0  0  0  0  0
    6.1420  112.4080   -1.5940 C   0  0  0  0  0
    8.3930  112.4020   -5.6830 N   0  0  0  0  0
    8.4160  112.6390   -7.1450 C   0  0  0  0  0
    8.2690  111.3640   -7.9430 C   0  0  0  0  0
    9.1690  110.4870   -7.9160 O   0  0  0  0  0
    9.6860  113.3720   -7.5640 C   0  0  0  0  0
    7.1250  111.2900   -8.6490 N   0  0  0  0  0
    6.7180  110.1440   -9.4520 C   0  0  0  0  0
    6.9370  110.4630  -10.9290 C   0  0  0  0  0
    8.0840  110.6030  -11.3760 O   0  0  0  0  0
    5.2450  109.8050   -9.1860 C   0  0  0  0  0
    5.9459  110.5845  -11.6974 O   0  0  0  0  0
   11.8108  116.0441   -5.4420 H   0  0  0  0  0
   10.1552  115.9965   -5.6251 H   0  0  0  0  0
   10.8936  117.3875   -5.0804 H   0  0  0  0  0
   11.5948  116.3270   -3.0777 H   0  0  0  0  0
    8.6150  115.9076   -3.5974 H   0  0  0  0  0
    9.3913  116.0760   -2.0037 H   0  0  0  0  0
    9.3711  117.4518   -3.1341 H   0  0  0  0  0
   10.8333  114.5245   -1.5460 H   0  0  0  0  0
   11.8334  112.0082   -2.4122 H   0  0  0  0  0
    9.8598  112.7150   -0.2231 H   0  0  0  0  0
   11.7020  112.6525   -0.1004 H   0  0  0  0  0
   11.6146  110.3153   -0.3710 H   0  0  0  0  0
    9.8141  110.3818   -0.4750 H   0  0  0  0  0
   10.7301  109.7086    1.7073 H   0  0  0  0  0
    9.6700  111.2072    1.7214 H   0  0  0  0  0
   11.5171  112.4898    2.3174 H   0  0  0  0  0
   12.4719  109.1030    1.8644 H   0  0  0  0  0
   14.5450  111.3582    3.6396 H   0  0  0  0  0
   13.4408  112.7263    3.4655 H   0  0  0  0  0
    8.6484  113.3462   -2.8399 H   0  0  0  0  0
    7.4676  110.6864   -3.1831 H   0  0  0  0  0
    5.3440  112.0191   -3.5549 H   0  0  0  0  0
    5.5413  114.3108   -3.2417 H   0  0  0  0  0
    6.0735  111.3674   -1.2769 H   0  0  0  0  0
    7.0320  112.8636   -1.1599 H   0  0  0  0  0
    5.2563  112.9495   -1.2618 H   0  0  0  0  0
    9.1139  112.8458   -5.1140 H   0  0  0  0  0
    7.5524  113.2663   -7.3660 H   0  0  0  0  0
    9.7337  114.3341   -7.0540 H   0  0  0  0  0
   10.5556  112.7728   -7.2942 H   0  0  0  0  0
    9.6732  113.5311   -8.6422 H   0  0  0  0  0
    6.4980  112.0940   -8.6197 H   0  0  0  0  0
    7.3195  109.2767   -9.1798 H   0  0  0  0  0
    5.1133  109.5662   -8.1307 H   0  0  0  0  0
    4.6236  110.6619   -9.4462 H   0  0  0  0  0
    4.9556  108.9471   -9.7929 H   0  0  0  0  0
    5.1371  110.4473  -11.1988 H   0  0  0  0  0
  1  2  1  0  0  0
  2  3  1  0  0  0
  2  5  1  0  0  0
  3  4  2  0  0  0
  3  6  1  0  0  0
  6  7  1  0  0  0
  7  8  1  0  0  0
  7 10  1  0  0  0
  8  9  2  0  0  0
  8 17  1  0  0  0
 10 11  1  0  0  0
 11 12  1  0  0  0
 12 13  1  0  0  0
 13 14  1  0  0  0
 14 15  2  0  0  0
 14 16  1  0  0  0
 17 18  1  0  0  0
 18 19  1  0  0  0
 18 21  1  0  0  0
 19 20  2  0  0  0
 19 24  1  0  0  0
 21 22  1  0  0  0
 21 23  1  0  0  0
 24 25  1  0  0  0
 25 26  1  0  0  0
 25 28  1  0  0  0
 26 27  2  0  0  0
 26 29  1  0  0  0
 29 30  1  0  0  0
 30 31  1  0  0  0
 30 33  1  0  0  0
 31 32  2  0  0  0
 31 34  1  0  0  0
  1 35  1  0  0  0
  1 36  1  0  0  0
  1 37  1  0  0  0
  2 38  1  0  0  0
  5 39  1  0  0  0
  5 40  1  0  0  0
  5 41  1  0  0  0
  6 42  1  0  0  0
  7 43  1  0  0  0
 10 44  1  0  0  0
 10 45  1  0  0  0
 11 46  1  0  0  0
 11 47  1  0  0  0
 12 48  1  0  0  0
 12 49  1  0  0  0
 13 50  1  0  0  0
 15 51  1  0  0  0
 16 52  1  0  0  0
 16 53  1  0  0  0
 17 54  1  0  0  0
 18 55  1  0  0  0
 21 56  1  0  0  0
 22 57  1  0  0  0
 23 58  1  0  0  0
 23 59  1  0  0  0
 23 60  1  0  0  0
 24 61  1  0  0  0
 25 62  1  0  0  0
 28 63  1  0  0  0
 28 64  1  0  0  0
 28 65  1  0  0  0
 29 66  1  0  0  0
 30 67  1  0  0  0
 33 68  1  0  0  0
 33 69  1  0  0  0
 33 70  1  0  0  0
 34 71  1  0  0  0
M  END
$$$$
