1x9d_ligand
  -I-interpret- 

 48 49  0  0  0  0  0  0  0  0999 V2000
   -0.0040   -3.4490   -0.6700 O   0  0  0  0  0
    1.4250   -3.4720   -0.7620 C   0  0  0  0  0
    1.9150   -2.0550   -0.6930 C   0  0  0  0  0
    1.2670   -1.3420    0.3980 O   0  0  0  0  0
    3.4070   -1.9860   -0.4680 C   0  0  0  0  0
    4.0930   -2.5180   -1.6270 O   0  0  0  0  0
    3.7570   -2.6860    0.8380 C   0  0  0  0  0
    3.8430   -1.6440    1.9530 C   0  0  0  0  0
    4.0940   -2.2420    3.2060 O   0  0  0  0  0
    2.7790   -3.6500    1.2770 O   0  0  0  0  0
    1.9670   -4.3660    0.3140 C   0  0  0  0  0
    2.7590   -5.8030   -0.4960 S   0  0  0  0  0
    2.9180   -7.0770    0.7840 C   0  0  0  0  0
    3.9930   -8.0690    0.4110 C   0  0  0  0  0
    4.2090   -8.8930    1.5570 O   0  0  0  0  0
    5.3770   -9.7280    1.4660 C   0  0  0  0  0
    3.5920   -8.8310   -0.7200 O   0  0  0  0  0
    1.6110   -7.8440    1.0500 C   0  0  0  0  0
    0.5890   -6.8980    1.3390 O   0  0  0  0  0
    1.2250   -8.7560   -0.1260 C   0  0  0  0  0
    0.1580   -9.6460    0.2780 O   0  0  0  0  0
    2.3930   -9.6210   -0.5540 C   0  0  0  0  0
    2.0710  -10.2620   -1.8850 C   0  0  0  0  0
    3.0330  -11.2850   -2.1610 O   0  0  0  0  0
   -0.3586   -2.8785   -1.3559 H   0  0  0  0  0
    1.7786   -3.8874   -1.7057 H   0  0  0  0  0
    1.6721   -1.5958   -1.6512 H   0  0  0  0  0
    0.3151   -1.3717    0.2774 H   0  0  0  0  0
    3.7428   -0.9547   -0.3598 H   0  0  0  0  0
    3.8239   -2.0300   -2.4087 H   0  0  0  0  0
    4.6949   -3.2065    0.6441 H   0  0  0  0  0
    2.8894   -1.1189    2.0073 H   0  0  0  0  0
    4.6640   -0.9640    1.7257 H   0  0  0  0  0
    4.1416   -1.5607    3.8807 H   0  0  0  0  0
    1.1649   -4.7528    0.9426 H   0  0  0  0  0
    3.1818   -6.5461    1.6987 H   0  0  0  0  0
    4.9197   -7.5677    0.1317 H   0  0  0  0  0
    5.2821  -10.3908    0.6059 H   0  0  0  0  0
    6.2614   -9.1019    1.3480 H   0  0  0  0  0
    5.4693  -10.3218    2.3754 H   0  0  0  0  0
    1.7507   -8.5070    1.9038 H   0  0  0  0  0
   -0.2351   -7.3605    1.5078 H   0  0  0  0  0
    0.9167   -8.1139   -0.9511 H   0  0  0  0  0
   -0.0800  -10.2135   -0.4588 H   0  0  0  0  0
    2.5602  -10.3722    0.2179 H   0  0  0  0  0
    2.1040   -9.5078   -2.6712 H   0  0  0  0  0
    1.0732  -10.6992   -1.8481 H   0  0  0  0  0
    2.8306  -11.6935   -3.0058 H   0  0  0  0  0
  1  2  1  0  0  0
  2  3  1  0  0  0
  2 11  1  0  0  0
  3  4  1  0  0  0
  3  5  1  0  0  0
  5  6  1  0  0  0
  5  7  1  0  0  0
  7  8  1  0  0  0
  7 10  1  0  0  0
  8  9  1  0  0  0
 10 11  1  0  0  0
 11 12  1  0  0  0
 12 13  1  0  0  0
 13 14  1  0  0  0
 13 18  1  0  0  0
 14 15  1  0  0  0
 14 17  1  0  0  0
 15 16  1  0  0  0
 17 22  1  0  0  0
 18 19  1  0  0  0
 18 20  1  0  0  0
 20 21  1  0  0  0
 20 22  1  0  0  0
 22 23  1  0  0  0
 23 24  1  0  0  0
  1 25  1  0  0  0
  2 26  1  0  0  0
  3 27  1  0  0  0
  4 28  1  0  0  0
  5 29  1  0  0  0
  6 30  1  0  0  0
  7 31  1  0  0  0
  8 32  1  0  0  0
  8 33  1  0  0  0
  9 34  1  0  0  0
 11 35  1  0  0  0
 13 36  1  0  0  0
 14 37  1  0  0  0
 16 38  1  0  0  0
 16 39  1  0  0  0
 16 40  1  0  0  0
 18 41  1  0  0  0
 19 42  1  0  0  0
 20 43  1  0  0  0
 21 44  1  0  0  0
 22 45  1  0  0  0
 23 46  1  0  0  0
 23 47  1  0  0  0
 24 48  1  0  0  0
M  END
$$$$
