2jaj_ligand
  -I-interpret- 

 37 36  0  0  0  0  0  0  0  0999 V2000
   15.9620    4.3160   67.6130 N   0  3  0  0  0
   16.2440    5.2580   66.5180 C   0  0  0  0  0
   15.0880    6.2120   66.1790 C   0  0  0  0  0
   14.0110    6.0720   66.8110 O   0  0  0  0  0
   16.6850    4.4490   65.2760 C   0  0  0  0  0
   15.6210    3.4160   64.9240 C   0  0  0  0  0
   16.0340    2.6290   63.6390 C   0  0  0  0  0
   16.2270    3.4680   62.4150 N   0  0  0  0  0
   15.2280    3.8010   61.5820 C   0  0  0  0  0
   13.9570    3.3550   61.8710 N   0  0  0  0  0
   15.5390    4.5330   60.4840 N   0  0  0  0  0
   12.7840    3.6540   61.0540 C   0  0  0  0  0
   13.5330    1.7500   58.0590 C   0  0  0  0  0
   15.3170    7.0690   65.2790 O   0  0  0  0  0
   13.5380    2.9150   58.9320 O   0  0  0  0  0
   12.5600    2.6340   59.9500 C   0  0  0  0  0
   15.6695    4.8360   68.4403 H   0  0  0  0  0
   15.2173    3.6795   67.3290 H   0  0  0  0  0
   16.8045    3.7819   67.8259 H   0  0  0  0  0
   17.0436    5.9164   66.8575 H   0  0  0  0  0
   17.6230    3.9384   65.4944 H   0  0  0  0  0
   16.8188    5.1281   64.4340 H   0  0  0  0  0
   14.6758    3.9269   64.7402 H   0  0  0  0  0
   15.5171    2.7154   65.7525 H   0  0  0  0  0
   15.2208    1.9370   63.4200 H   0  0  0  0  0
   16.9948    2.1608   63.8531 H   0  0  0  0  0
   17.1662    3.8044   62.2025 H   0  0  0  0  0
   13.8276    2.7821   62.7049 H   0  0  0  0  0
   16.5053    4.8118   60.3138 H   0  0  0  0  0
   12.9428    4.6248   60.5845 H   0  0  0  0  0
   11.9104    3.6380   61.7056 H   0  0  0  0  0
   13.7998    0.8643   58.6356 H   0  0  0  0  0
   12.5382    1.6214   57.6325 H   0  0  0  0  0
   14.2573    1.8951   57.2575 H   0  0  0  0  0
   16.2156    6.9624   64.9584 H   0  0  0  0  0
   11.5483    2.7058   59.5507 H   0  0  0  0  0
   12.6704    1.6177   60.3283 H   0  0  0  0  0
  2  1  1  0  0  0
  2  3  1  0  0  0
  5  2  1  0  0  0
  3  4  2  0  0  0
  3 14  1  0  0  0
  6  5  1  0  0  0
  7  6  1  0  0  0
  8  7  1  0  0  0
  9  8  1  0  0  0
 10  9  1  0  0  0
  9 11  2  0  0  0
 12 10  1  0  0  0
 16 12  1  0  0  0
 15 13  1  0  0  0
 15 16  1  0  0  0
  1 17  1  0  0  0
  1 18  1  0  0  0
  1 19  1  0  0  0
  2 20  1  0  0  0
  5 21  1  0  0  0
  5 22  1  0  0  0
  6 23  1  0  0  0
  6 24  1  0  0  0
  7 25  1  0  0  0
  7 26  1  0  0  0
  8 27  1  0  0  0
 10 28  1  0  0  0
 11 29  1  0  0  0
 12 30  1  0  0  0
 12 31  1  0  0  0
 13 32  1  0  0  0
 13 33  1  0  0  0
 13 34  1  0  0  0
 14 35  1  0  0  0
 16 36  1  0  0  0
 16 37  1  0  0  0
M  END
$$$$
