1inh_ligand
  -I-interpret- 

 32 32  0  0  0  0  0  0  0  0999 V2000
   49.1590   22.8940  -20.3130 C   0  0  0  0  0
   48.8090   24.0970  -20.3000 O   0  0  0  0  0
   50.1610   22.4630  -19.7150 O   0  0  0  0  0
   48.4220   22.0010  -21.0640 C   0  0  0  0  0
   48.0050   22.3500  -22.3260 C   0  0  0  0  0
   47.1900   21.5240  -23.0560 C   0  0  0  0  0
   46.7040   21.9540  -24.2500 N   0  0  0  0  0
   45.4800   22.4630  -24.2410 C   0  0  0  0  0
   44.6760   22.2600  -23.3220 O   0  0  0  0  0
   45.0710   23.3040  -25.3850 C   0  0  0  0  0
   43.9630   24.1370  -24.8820 N   0  3  0  0  0
   46.7520   20.3250  -22.5170 C   0  0  0  0  0
   45.8800   19.5340  -23.2300 N   0  0  0  0  0
   46.3100   18.6060  -24.0750 C   0  0  0  0  0
   47.5120   18.3860  -24.2480 O   0  0  0  0  0
   45.2900   17.7760  -24.8320 C   0  0  0  0  0
   47.1760   19.9470  -21.2600 C   0  0  0  0  0
   47.9950   20.7870  -20.5260 C   0  0  0  0  0
   48.0125   24.2030  -20.8253 H   0  0  0  0  0
   48.3276   23.2993  -22.7537 H   0  0  0  0  0
   47.2520   21.8886  -25.1078 H   0  0  0  0  0
   44.7618   22.6983  -26.2368 H   0  0  0  0  0
   45.8975   23.9144  -25.7489 H   0  0  0  0  0
   43.6312   24.7467  -25.6294 H   0  0  0  0  0
   43.2013   23.5349  -24.5694 H   0  0  0  0  0
   44.2928   24.7035  -24.1005 H   0  0  0  0  0
   44.8761   19.6648  -23.1054 H   0  0  0  0  0
   45.4396   17.9076  -25.9036 H   0  0  0  0  0
   45.4146   16.7246  -24.5729 H   0  0  0  0  0
   44.2856   18.1016  -24.5614 H   0  0  0  0  0
   46.8663   18.9877  -20.8453 H   0  0  0  0  0
   48.3079   20.4985  -19.5225 H   0  0  0  0  0
  1  2  1  0  0  0
  1  3  2  0  0  0
  1  4  1  0  0  0
  4  5  4  0  0  0
  4 18  4  0  0  0
  5  6  4  0  0  0
  6  7  1  0  0  0
  6 12  4  0  0  0
  7  8  1  0  0  0
  8  9  2  0  0  0
  8 10  1  0  0  0
 10 11  1  0  0  0
 12 13  1  0  0  0
 12 17  4  0  0  0
 13 14  1  0  0  0
 14 15  2  0  0  0
 14 16  1  0  0  0
 17 18  4  0  0  0
  2 19  1  0  0  0
  5 20  1  0  0  0
  7 21  1  0  0  0
 10 22  1  0  0  0
 10 23  1  0  0  0
 11 24  1  0  0  0
 11 25  1  0  0  0
 11 26  1  0  0  0
 13 27  1  0  0  0
 16 28  1  0  0  0
 16 29  1  0  0  0
 16 30  1  0  0  0
 17 31  1  0  0  0
 18 32  1  0  0  0
M  END
$$$$
