3rme_ligand
  -I-interpret- 

 39 40  0  0  0  0  0  0  0  0999 V2000
    0.9820   49.5790   65.7470 C   0  0  0  0  0
    1.3740   48.0200   67.6120 N   0  0  0  0  0
    1.8610   45.7550   67.5550 O   0  0  0  0  0
    1.0000   48.1340   66.2110 C   0  0  0  0  0
    1.7620   47.4580   71.9170 N   0  0  0  0  0
    1.7740   46.8170   68.1680 C   0  0  0  0  0
    0.1110   48.1440   70.3280 N   0  0  0  0  0
    2.1270   46.8570   69.6150 C   0  0  0  0  0
   -2.4260   49.3510   69.9240 N   0  3  0  0  0
    3.3280   46.2230   69.9870 C   0  0  0  0  0
    3.7350   46.2090   71.3160 C   0  0  0  0  0
    2.9230   46.8370   72.2360 C   0  0  0  0  0
    1.3320   47.4850   70.6160 C   0  0  0  0  0
   -1.0000   47.3350   69.8090 C   0  0  0  0  0
   -1.9370   48.2420   69.0120 C   0  0  0  0  0
   -1.2910   50.1550   70.5250 C   0  0  0  0  0
   -0.3050   49.2310   71.2350 C   0  0  0  0  0
   -3.4040   50.2490   69.2190 C   0  0  0  0  0
    0.2610   50.1409   66.3407 H   0  0  0  0  0
    1.9743   50.0121   65.8728 H   0  0  0  0  0
    0.6978   49.6181   64.6954 H   0  0  0  0  0
    1.3405   48.8511   68.2023 H   0  0  0  0  0
    1.7350   47.5925   65.6155 H   0  0  0  0  0
   -0.0023   47.7232   66.0899 H   0  0  0  0  0
   -2.9095   48.8951   70.6978 H   0  0  0  0  0
    3.9428   45.7399   69.2276 H   0  0  0  0  0
    4.6609   45.7201   71.6191 H   0  0  0  0  0
    3.2331   46.8338   73.2810 H   0  0  0  0  0
   -1.5428   46.8777   70.6363 H   0  0  0  0  0
   -0.6133   46.5451   69.1650 H   0  0  0  0  0
   -1.4066   48.6679   68.1603 H   0  0  0  0  0
   -2.7843   47.6660   68.6399 H   0  0  0  0  0
   -1.6993   50.8620   71.2472 H   0  0  0  0  0
   -0.7703   50.6861   69.7282 H   0  0  0  0  0
    0.5726   49.8045   71.5335 H   0  0  0  0  0
   -0.7858   48.8007   72.1135 H   0  0  0  0  0
   -2.9212   50.7004   68.3523 H   0  0  0  0  0
   -4.2637   49.6633   68.8936 H   0  0  0  0  0
   -3.7337   51.0321   69.9018 H   0  0  0  0  0
  4  1  1  0  0  0
  2  4  1  0  0  0
  6  2  1  0  0  0
  6  3  2  0  0  0
  5 12  4  0  0  0
 13  5  4  0  0  0
  8  6  1  0  0  0
  7 13  1  0  0  0
 14  7  1  0  0  0
  7 17  1  0  0  0
  8 10  4  0  0  0
 13  8  4  0  0  0
 15  9  1  0  0  0
  9 16  1  0  0  0
  9 18  1  0  0  0
 10 11  4  0  0  0
 12 11  4  0  0  0
 14 15  1  0  0  0
 16 17  1  0  0  0
  1 19  1  0  0  0
  1 20  1  0  0  0
  1 21  1  0  0  0
  2 22  1  0  0  0
  4 23  1  0  0  0
  4 24  1  0  0  0
  9 25  1  0  0  0
 10 26  1  0  0  0
 11 27  1  0  0  0
 12 28  1  0  0  0
 14 29  1  0  0  0
 14 30  1  0  0  0
 15 31  1  0  0  0
 15 32  1  0  0  0
 16 33  1  0  0  0
 16 34  1  0  0  0
 17 35  1  0  0  0
 17 36  1  0  0  0
 18 37  1  0  0  0
 18 38  1  0  0  0
 18 39  1  0  0  0
M  END
$$$$
