5vd2_ligand
  -I-interpret- 

 59 63  0  0  0  0  0  0  0  0999 V2000
  -14.4270   10.7960    7.2300 C   0  0  0  0  0
  -13.2800   10.4370    8.0860 C   0  0  0  0  0
  -13.5030    9.8290    9.1700 O   0  0  0  0  0
  -12.0090   10.7590    7.6990 N   0  0  0  0  0
  -10.9040   10.8070    8.6070 C   0  0  0  0  0
   -9.6210   10.3030    8.0410 C   0  0  0  0  0
   -9.5840    9.9580    6.8280 O   0  0  0  0  0
   -8.4730   10.2060    8.7970 N   0  0  0  0  0
   -7.1130   10.3410    8.3570 C   0  0  0  0  0
   -6.6650   11.6840    9.0300 C   0  0  0  0  0
   -7.5730   11.7460   10.2890 C   0  0  0  0  0
   -8.3270   10.3800   10.2070 C   0  0  0  0  0
   -7.4270    9.2080   10.3120 C   0  0  0  0  0
   -6.6620    9.1850    9.1440 C   0  0  0  0  0
   -5.6980    8.1980    8.9150 C   0  0  0  0  0
   -5.5260    7.2160    9.9150 C   0  0  0  0  0
   -6.2950    7.2110   11.1090 C   0  0  0  0  0
   -7.2580    8.2330   11.3060 C   0  0  0  0  0
   -6.1040    6.2600   12.0690 N   0  0  0  0  0
   -5.3410    5.1320   12.1730 C   0  0  0  0  0
   -5.4120    4.3480   13.2730 N   0  0  0  0  0
   -4.6880    3.2230   13.4220 C   0  0  0  0  0
   -3.7930    2.8070   12.4240 C   0  0  0  0  0
   -3.7230    3.6330   11.2730 C   0  0  0  0  0
   -4.4890    4.7510   11.1980 N   0  0  0  0  0
   -2.8960    3.3370   10.2370 N   0  0  0  0  0
   -2.5470    4.3040    9.2440 C   0  0  0  0  0
   -3.5400    4.3260    8.0660 C   0  0  0  0  0
   -2.3330    4.4450    7.1290 C   0  0  0  0  0
   -1.4990    3.7820    8.2380 C   0  0  0  0  0
   -3.0100    1.5540   12.6050 C   0  0  0  0  0
   -1.6430    1.7340   12.5750 F   0  0  0  0  0
   -3.3350    0.6850   11.6120 F   0  0  0  0  0
   -3.2860    0.9420   13.7890 F   0  0  0  0  0
  -14.9578    9.8901    6.9372 H   0  0  0  0  0
  -15.1006   11.4506    7.7830 H   0  0  0  0  0
  -14.0670   11.3116    6.3397 H   0  0  0  0  0
  -11.8403   10.9753    6.7166 H   0  0  0  0  0
  -11.1554   10.1653    9.4515 H   0  0  0  0  0
  -10.7494   11.8539    8.8682 H   0  0  0  0  0
   -6.8203   10.3608    7.3072 H   0  0  0  0  0
   -6.7798   12.5490    8.3767 H   0  0  0  0  0
   -5.6016   11.7094    9.2679 H   0  0  0  0  0
   -8.2391   12.6087   10.3010 H   0  0  0  0  0
   -7.0180   11.8797   11.2175 H   0  0  0  0  0
   -9.1472   10.4121   10.9242 H   0  0  0  0  0
   -5.1035    8.1872    8.0015 H   0  0  0  0  0
   -4.7788    6.4366    9.7657 H   0  0  0  0  0
   -7.8576    8.2605   12.2158 H   0  0  0  0  0
   -6.6622    6.4320   12.9052 H   0  0  0  0  0
   -4.7981    2.6279   14.3286 H   0  0  0  0  0
   -2.5119    2.3948   10.1654 H   0  0  0  0  0
   -2.3643    5.1756    9.8726 H   0  0  0  0  0
   -4.3587    5.0446    8.0289 H   0  0  0  0  0
   -4.2821    3.5383    7.9362 H   0  0  0  0  0
   -2.0430    5.3997    6.6902 H   0  0  0  0  0
   -2.3557    4.0448    6.1154 H   0  0  0  0  0
   -1.2293    2.7268    8.1934 H   0  0  0  0  0
   -0.4375    3.9987    8.3583 H   0  0  0  0  0
  1  2  1  0  0  0
  2  3  2  0  0  0
  2  4  1  0  0  0
  4  5  1  0  0  0
  5  6  1  0  0  0
  6  7  2  0  0  0
  6  8  1  0  0  0
  8  9  1  0  0  0
  8 12  1  0  0  0
  9 10  1  0  0  0
  9 14  1  0  0  0
 10 11  1  0  0  0
 11 12  1  0  0  0
 12 13  1  0  0  0
 13 14  4  0  0  0
 13 18  4  0  0  0
 14 15  4  0  0  0
 15 16  4  0  0  0
 16 17  4  0  0  0
 17 18  4  0  0  0
 17 19  1  0  0  0
 19 20  1  0  0  0
 20 21  4  0  0  0
 20 25  4  0  0  0
 21 22  4  0  0  0
 22 23  4  0  0  0
 23 24  4  0  0  0
 23 31  1  0  0  0
 24 25  4  0  0  0
 24 26  1  0  0  0
 26 27  1  0  0  0
 27 28  1  0  0  0
 27 30  1  0  0  0
 28 29  1  0  0  0
 29 30  1  0  0  0
 31 32  1  0  0  0
 31 33  1  0  0  0
 31 34  1  0  0  0
  1 35  1  0  0  0
  1 36  1  0  0  0
  1 37  1  0  0  0
  4 38  1  0  0  0
  5 39  1  0  0  0
  5 40  1  0  0  0
  9 41  1  0  0  0
 10 42  1  0  0  0
 10 43  1  0  0  0
 11 44  1  0  0  0
 11 45  1  0  0  0
 12 46  1  0  0  0
 15 47  1  0  0  0
 16 48  1  0  0  0
 18 49  1  0  0  0
 19 50  1  0  0  0
 22 51  1  0  0  0
 26 52  1  0  0  0
 27 53  1  0  0  0
 28 54  1  0  0  0
 28 55  1  0  0  0
 29 56  1  0  0  0
 29 57  1  0  0  0
 30 58  1  0  0  0
 30 59  1  0  0  0
M  END
$$$$
