6fnf_ligand
  -I-interpret- 

 57 61  0  0  0  0  0  0  0  0999 V2000
  -82.1420  -22.3590   84.3670 C   0  0  0  0  0
  -82.7210  -21.3060   85.2780 C   0  0  0  0  0
  -82.5680  -19.9490   84.9740 C   0  0  0  0  0
  -83.1060  -19.0080   85.7810 C   0  0  0  0  0
  -83.7980  -19.3810   86.8780 C   0  0  0  0  0
  -83.9770  -20.7020   87.1810 C   0  0  0  0  0
  -83.4300  -21.6840   86.3620 C   0  0  0  0  0
  -84.3850  -18.2420   87.7140 C   0  0  0  0  0
  -84.0200  -17.1790   87.6010 O   0  0  0  0  0
  -85.4790  -18.6050   88.6200 N   0  0  0  0  0
  -86.1210  -17.6240   89.3920 C   0  0  0  0  0
  -86.4430  -17.9300   90.6840 C   0  0  0  0  0
  -87.1150  -17.0090   91.4490 C   0  0  0  0  0
  -87.4360  -15.8000   90.9410 C   0  0  0  0  0
  -87.1250  -15.4990   89.6540 C   0  0  0  0  0
  -86.4390  -16.4500   88.8560 C   0  0  0  0  0
  -87.5010  -14.1340   89.1260 C   0  0  0  0  0
  -86.5360  -13.3530   89.5360 F   0  0  0  0  0
  -88.6230  -13.6350   89.6300 F   0  0  0  0  0
  -87.6380  -14.1120   87.8300 F   0  0  0  0  0
  -81.8660  -19.4370   83.8050 N   0  0  0  0  0
  -80.4120  -19.2270   83.7780 C   0  0  0  0  0
  -79.7230  -19.5010   84.8200 N   0  0  0  0  0
  -78.4390  -19.3230   84.8400 C   0  0  0  0  0
  -77.7530  -18.8730   83.8320 N   0  0  0  0  0
  -78.3680  -18.5510   82.7090 C   0  0  0  0  0
  -79.7140  -18.7100   82.6350 C   0  0  0  0  0
  -80.0600  -18.2800   81.3660 C   0  0  0  0  0
  -78.9590  -17.9040   80.7570 N   0  0  0  0  0
  -77.9580  -18.0540   81.5550 N   0  0  0  0  0
  -76.6210  -17.7470   81.2140 C   0  0  0  0  0
  -77.7000  -19.6990   86.1000 C   0  0  0  0  0
  -78.4080  -20.2140   87.1530 C   0  0  0  0  0
  -77.7960  -20.5470   88.2200 N   0  0  0  0  0
  -76.5160  -20.4070   88.3390 C   0  0  0  0  0
  -75.7400  -19.8890   87.3230 C   0  0  0  0  0
  -76.3490  -19.5200   86.1730 C   0  0  0  0  0
  -82.5832  -22.2619   83.3750 H   0  0  0  0  0
  -81.0622  -22.2261   84.3004 H   0  0  0  0  0
  -82.3636  -23.3475   84.7694 H   0  0  0  0  0
  -82.9814  -17.9508   85.5466 H   0  0  0  0  0
  -84.5486  -20.9857   88.0647 H   0  0  0  0  0
  -83.5715  -22.7401   86.5917 H   0  0  0  0  0
  -85.7760  -19.5783   88.6899 H   0  0  0  0  0
  -86.1686  -18.8976   91.1041 H   0  0  0  0  0
  -87.3914  -17.2557   92.4741 H   0  0  0  0  0
  -87.9452  -15.0650   91.5644 H   0  0  0  0  0
  -86.1775  -16.2224   87.8226 H   0  0  0  0  0
  -82.4069  -19.2147   82.9693 H   0  0  0  0  0
  -81.0660  -18.2574   80.9471 H   0  0  0  0  0
  -76.2326  -17.0012   81.9075 H   0  0  0  0  0
  -76.0153  -18.6512   81.2741 H   0  0  0  0  0
  -76.5878  -17.3527   80.1983 H   0  0  0  0  0
  -79.4884  -20.3383   87.0789 H   0  0  0  0  0
  -76.0358  -20.7074   89.2703 H   0  0  0  0  0
  -74.6623  -19.7797   87.4439 H   0  0  0  0  0
  -75.7854  -19.0981   85.3409 H   0  0  0  0  0
  1  2  1  0  0  0
  2  3  4  0  0  0
  2  7  4  0  0  0
  3  4  4  0  0  0
  3 21  1  0  0  0
  4  5  4  0  0  0
  5  6  4  0  0  0
  5  8  1  0  0  0
  6  7  4  0  0  0
  8  9  2  0  0  0
  8 10  1  0  0  0
 10 11  1  0  0  0
 11 12  4  0  0  0
 11 16  4  0  0  0
 12 13  4  0  0  0
 13 14  4  0  0  0
 14 15  4  0  0  0
 15 16  4  0  0  0
 15 17  1  0  0  0
 17 18  1  0  0  0
 17 19  1  0  0  0
 17 20  1  0  0  0
 21 22  1  0  0  0
 22 23  4  0  0  0
 22 27  4  0  0  0
 23 24  4  0  0  0
 24 25  4  0  0  0
 24 32  1  0  0  0
 25 26  4  0  0  0
 26 27  4  0  0  0
 26 30  4  0  0  0
 27 28  4  0  0  0
 28 29  4  0  0  0
 29 30  4  0  0  0
 30 31  1  0  0  0
 32 33  4  0  0  0
 32 37  4  0  0  0
 33 34  4  0  0  0
 34 35  4  0  0  0
 35 36  4  0  0  0
 36 37  4  0  0  0
  1 38  1  0  0  0
  1 39  1  0  0  0
  1 40  1  0  0  0
  4 41  1  0  0  0
  6 42  1  0  0  0
  7 43  1  0  0  0
 10 44  1  0  0  0
 12 45  1  0  0  0
 13 46  1  0  0  0
 14 47  1  0  0  0
 16 48  1  0  0  0
 21 49  1  0  0  0
 28 50  1  0  0  0
 31 51  1  0  0  0
 31 52  1  0  0  0
 31 53  1  0  0  0
 33 54  1  0  0  0
 35 55  1  0  0  0
 36 56  1  0  0  0
 37 57  1  0  0  0
M  END
$$$$
