2ych_ligand
  -I-interpret- 

 47 49  0  0  0  0  0  0  0  0999 V2000
   15.0390    5.6060   22.5330 P   0  0  0  0  0
   15.9450    5.9450   23.7070 O   0  0  0  0  0
   14.7070    6.8620   21.7860 O   0  0  0  0  0
   13.8770    4.7670   22.8810 O   0  0  0  0  0
   15.7620    3.6240   20.4700 P   0  0  0  0  0
   16.1710    4.3160   19.1940 O   0  0  0  0  0
   14.3210    3.2270   20.5410 O   0  0  0  0  0
   16.1210    4.7200   21.6290 O   0  0  0  0  0
   16.6990    0.8940   20.4190 P   0  0  0  0  0
   16.2990    0.9970   18.9450 O   0  0  0  0  0
   15.9060    0.0520   21.3690 O   0  0  0  0  0
   16.7720    2.4520   20.8520 O   0  0  0  0  0
   18.1450    0.4290   20.7230 O   0  0  0  0  0
   19.2010    1.1740   20.1840 C   0  0  0  0  0
   20.3740    1.0690   21.1830 C   0  0  0  0  0
   20.7730   -0.2540   21.5070 O   0  0  0  0  0
   21.5930    1.6960   20.5490 C   0  0  0  0  0
   22.1250    2.4340   21.6120 O   0  0  0  0  0
   22.5430    0.5890   20.2010 C   0  0  0  0  0
   23.8910    1.0020   20.2650 O   0  0  0  0  0
   22.2100   -0.3620   21.3100 C   0  0  0  0  0
   22.4670   -1.7160   20.8390 N   0  0  0  0  0
   21.7930   -2.2590   19.7810 C   0  0  0  0  0
   22.1780   -3.5380   19.6300 N   0  0  0  0  0
   23.1210   -3.8140   20.5090 C   0  0  0  0  0
   23.9680   -4.9860   20.7600 C   0  0  0  0  0
   23.8490   -6.1130   20.0540 N   0  0  0  0  0
   24.8590   -4.9000   21.7430 N   0  0  0  0  0
   24.9870   -3.7460   22.4810 C   0  0  0  0  0
   24.2780   -2.6140   22.2830 N   0  0  0  0  0
   23.3360   -2.6020   21.3070 C   0  0  0  0  0
   16.6734    6.4902   23.4006 H   0  0  0  0  0
   15.5152    7.3457   21.6004 H   0  0  0  0  0
   17.1052    4.5335   19.2345 H   0  0  0  0  0
   16.9141    1.5747   18.4873 H   0  0  0  0  0
   18.9077    2.2135   20.0375 H   0  0  0  0  0
   19.4885    0.7885   19.2058 H   0  0  0  0  0
   20.0180    1.5554   22.0912 H   0  0  0  0  0
   21.3979    2.2871   19.6542 H   0  0  0  0  0
   22.9204    2.8854   21.3202 H   0  0  0  0  0
   22.4441    0.1952   19.1894 H   0  0  0  0  0
   24.4616    0.2648   20.0357 H   0  0  0  0  0
   22.7829   -0.1474   22.2122 H   0  0  0  0  0
   21.0624   -1.7395   19.1609 H   0  0  0  0  0
   23.1519   -6.1790   19.3123 H   0  0  0  0  0
   24.4552   -6.9080   20.2564 H   0  0  0  0  0
   25.7184   -3.7454   23.2892 H   0  0  0  0  0
  1  2  1  0  0  0
  1  3  1  0  0  0
  1  4  2  0  0  0
  8  1  1  0  0  0
  5  6  1  0  0  0
  5  7  2  0  0  0
  5  8  1  0  0  0
 12  5  1  0  0  0
  9 10  1  0  0  0
  9 11  2  0  0  0
  9 12  1  0  0  0
  9 13  1  0  0  0
 13 14  1  0  0  0
 14 15  1  0  0  0
 15 16  1  0  0  0
 15 17  1  0  0  0
 16 21  1  0  0  0
 17 18  1  0  0  0
 17 19  1  0  0  0
 19 20  1  0  0  0
 19 21  1  0  0  0
 21 22  1  0  0  0
 22 23  4  0  0  0
 22 31  4  0  0  0
 23 24  4  0  0  0
 24 25  4  0  0  0
 25 26  4  0  0  0
 25 31  4  0  0  0
 26 27  1  0  0  0
 26 28  4  0  0  0
 28 29  4  0  0  0
 29 30  4  0  0  0
 30 31  4  0  0  0
  2 32  1  0  0  0
  3 33  1  0  0  0
  6 34  1  0  0  0
 10 35  1  0  0  0
 14 36  1  0  0  0
 14 37  1  0  0  0
 15 38  1  0  0  0
 17 39  1  0  0  0
 18 40  1  0  0  0
 19 41  1  0  0  0
 20 42  1  0  0  0
 21 43  1  0  0  0
 23 44  1  0  0  0
 27 45  1  0  0  0
 27 46  1  0  0  0
 29 47  1  0  0  0
M  END
$$$$
