### 
### Created by X-TOOL on Mon Sep 10 21:13:08 2018
### 

@<TRIPOS>MOLECULE
2ych_ligand
   43    45     1     0     0
SMALL
GAST_HUCK


@<TRIPOS>ATOM
      1 PG         15.0390    5.6060   22.5330 P.3       1 ATP         0.1879
      2 O1G        15.9450    5.9450   23.7070 O.co2     1 ATP        -0.6091
      3 O2G        14.7070    6.8620   21.7860 O.co2     1 ATP        -0.6091
      4 O3G        13.8770    4.7670   22.8810 O.co2     1 ATP        -0.6091
      5 PB         15.7620    3.6240   20.4700 P.3       1 ATP         0.3553
      6 O1B        16.1710    4.3160   19.1940 O.co2     1 ATP        -0.5652
      7 O2B        14.3210    3.2270   20.5410 O.co2     1 ATP        -0.5652
      8 O3B        16.1210    4.7200   21.6290 O.3       1 ATP        -0.1546
      9 PA         16.6990    0.8940   20.4190 P.3       1 ATP         0.3266
     10 O1A        16.2990    0.9970   18.9450 O.co2     1 ATP        -0.5692
     11 O2A        15.9060    0.0520   21.3690 O.co2     1 ATP        -0.5692
     12 O3A        16.7720    2.4520   20.8520 O.3       1 ATP        -0.1171
     13 O5'        18.1450    0.4290   20.7230 O.3       1 ATP        -0.2441
     14 C5'        19.2010    1.1740   20.1840 C.3       1 ATP         0.1131
     15 C4'        20.3740    1.0690   21.1830 C.3       1 ATP         0.1189
     16 O4'        20.7730   -0.2540   21.5070 O.3       1 ATP        -0.3364
     17 C3'        21.5930    1.6960   20.5490 C.3       1 ATP         0.1149
     18 O3'        22.1250    2.4340   21.6120 O.3       1 ATP        -0.3864
     19 C2'        22.5430    0.5890   20.2010 C.3       1 ATP         0.1385
     20 O2'        23.8910    1.0020   20.2650 O.3       1 ATP        -0.3836
     21 C1'        22.2100   -0.3620   21.3100 C.3       1 ATP         0.2010
     22 N9         22.4670   -1.7160   20.8390 N.pl3     1 ATP        -0.1919
     23 C8         21.7930   -2.2590   19.7810 C.2       1 ATP         0.1123
     24 N7         22.1780   -3.5380   19.6300 N.2       1 ATP        -0.2958
     25 C5         23.1210   -3.8140   20.5090 C.ar      1 ATP         0.1045
     26 C6         23.9680   -4.9860   20.7600 C.ar      1 ATP         0.1298
     27 N6         23.8490   -6.1130   20.0540 N.pl3     1 ATP        -0.3152
     28 N1         24.8590   -4.9000   21.7430 N.ar      1 ATP        -0.2698
     29 C2         24.9870   -3.7460   22.4810 C.ar      1 ATP         0.0533
     30 N3         24.2780   -2.6140   22.2830 N.ar      1 ATP        -0.2714
     31 C4         23.3360   -2.6020   21.3070 C.ar      1 ATP         0.1613
     32 H          18.9077    2.2135   20.0375 H         1 ATP         0.0648
     33 H          19.4885    0.7885   19.2058 H         1 ATP         0.0648
     34 H          20.0180    1.5554   22.0912 H         1 ATP         0.0651
     35 H          21.3979    2.2871   19.6542 H         1 ATP         0.0648
     36 H          22.9204    2.8854   21.3202 H         1 ATP         0.2100
     37 H          22.4441    0.1952   19.1894 H         1 ATP         0.0676
     38 H          24.0918    1.2985   21.1558 H         1 ATP         0.2101
     39 H          22.7829   -0.1474   22.2122 H         1 ATP         0.0996
     40 H          21.0624   -1.7395   19.1609 H         1 ATP         0.1349
     41 H          23.1519   -6.1790   19.3123 H         1 ATP         0.1820
     42 H          24.4552   -6.9080   20.2564 H         1 ATP         0.1820
     43 H          25.7184   -3.7454   23.2892 H         1 ATP         0.0996
@<TRIPOS>BOND
     1    1    2 ar 
     2    1    3 ar 
     3    1    4 ar 
     4    8    1 1  
     5    5    6 ar 
     6    5    7 ar 
     7    5    8 1  
     8   12    5 1  
     9    9   10 ar 
    10    9   11 ar 
    11    9   12 1  
    12    9   13 1  
    13   13   14 1  
    14   14   15 1  
    15   15   16 1  
    16   15   17 1  
    17   16   21 1  
    18   17   18 1  
    19   17   19 1  
    20   19   20 1  
    21   19   21 1  
    22   21   22 1  
    23   22   23 1  
    24   22   31 1  
    25   23   24 2  
    26   24   25 1  
    27   25   26 ar 
    28   25   31 ar 
    29   26   27 1  
    30   26   28 ar 
    31   28   29 ar 
    32   29   30 ar 
    33   30   31 ar 
    34   14   32 1  
    35   14   33 1  
    36   15   34 1  
    37   17   35 1  
    38   18   36 1  
    39   19   37 1  
    40   20   38 1  
    41   21   39 1  
    42   23   40 1  
    43   27   41 1  
    44   27   42 1  
    45   29   43 1  
@<TRIPOS>SUBSTRUCTURE
     1 ATP         1

