5o1g_ligand
  -I-interpret- 

 41 43  0  0  0  0  0  0  0  0999 V2000
   90.7370   90.1520  -48.8730 C   0  0  0  0  0
   89.0080   89.7970  -51.0360 C   0  0  0  0  0
   90.7650   91.0450  -49.9470 C   0  0  0  0  0
   92.8380   89.7710  -41.7170 C   0  0  0  0  0
   91.3140   93.9090  -45.5630 C   0  0  0  0  0
   91.8160   92.7310  -44.9870 C   0  0  0  0  0
   92.1150   92.7480  -43.6190 C   0  0  0  0  0
   91.9160   93.9180  -42.8590 C   0  0  0  0  0
   91.4140   95.0820  -43.4600 C   0  0  0  0  0
   91.1050   95.0880  -44.8190 C   0  0  0  0  0
   90.5660   96.3140  -45.5050 C   0  0  0  0  0
   91.0250   91.2080  -46.6270 C   0  0  0  0  0
   91.6650   90.3380  -47.7040 C   0  0  0  0  0
   89.8340   89.0810  -48.8920 C   0  0  0  0  0
   88.9750   88.8990  -49.9740 C   0  0  0  0  0
   89.9000   90.8660  -51.0250 C   0  0  0  0  0
   91.9460   90.5830  -42.3810 C   0  0  0  0  0
   94.1220   90.3460  -41.8400 C   0  0  0  0  0
   93.9720   91.5060  -42.5650 C   0  0  0  0  0
   92.3330   93.9970  -40.7750 I   0  0  0  0  0
   92.6400   91.6410  -42.9220 N   0  0  0  0  0
   91.2180   96.2190  -42.7150 O   0  0  0  0  0
   92.0280   91.5590  -45.6720 O   0  0  0  0  0
   90.2710   96.1890  -46.7380 O   0  0  0  0  0
   90.4400   97.3560  -44.7930 O   0  0  0  0  0
   88.3323   89.6631  -51.8807 H   0  0  0  0  0
   91.4634   91.8818  -49.9419 H   0  0  0  0  0
   92.5960   88.8481  -41.1899 H   0  0  0  0  0
   91.0767   93.9120  -46.6268 H   0  0  0  0  0
   90.2198   90.6608  -46.1367 H   0  0  0  0  0
   90.6076   92.1091  -47.0762 H   0  0  0  0  0
   92.5730   90.8287  -48.0544 H   0  0  0  0  0
   91.8868   89.3604  -47.2761 H   0  0  0  0  0
   89.8031   88.3847  -48.0539 H   0  0  0  0  0
   88.2815   88.0582  -49.9882 H   0  0  0  0  0
   89.9219   91.5645  -51.8615 H   0  0  0  0  0
   90.8721   90.4160  -42.4641 H   0  0  0  0  0
   95.0533   89.9474  -41.4378 H   0  0  0  0  0
   94.7702   92.2042  -42.8171 H   0  0  0  0  0
   90.8727   96.9145  -43.2795 H   0  0  0  0  0
   90.4674   95.2938  -47.0237 H   0  0  0  0  0
  1  3  4  0  0  0
 13  1  1  0  0  0
  1 14  4  0  0  0
 15  2  4  0  0  0
 16  2  4  0  0  0
  3 16  4  0  0  0
 17  4  4  0  0  0
  4 18  4  0  0  0
  6  5  4  0  0  0
  5 10  4  0  0  0
  7  6  4  0  0  0
  6 23  1  0  0  0
  7  8  4  0  0  0
 21  7  1  0  0  0
  8  9  4  0  0  0
  8 20  1  0  0  0
  9 10  4  0  0  0
  9 22  1  0  0  0
 10 11  1  0  0  0
 11 24  1  0  0  0
 11 25  2  0  0  0
 12 13  1  0  0  0
 23 12  1  0  0  0
 14 15  4  0  0  0
 17 21  4  0  0  0
 18 19  4  0  0  0
 19 21  4  0  0  0
  2 26  1  0  0  0
  3 27  1  0  0  0
  4 28  1  0  0  0
  5 29  1  0  0  0
 12 30  1  0  0  0
 12 31  1  0  0  0
 13 32  1  0  0  0
 13 33  1  0  0  0
 14 34  1  0  0  0
 15 35  1  0  0  0
 16 36  1  0  0  0
 17 37  1  0  0  0
 18 38  1  0  0  0
 19 39  1  0  0  0
 22 40  1  0  0  0
 24 41  1  0  0  0
M  END
$$$$
