4qjo_ligand
  -I-interpret- 

 51 53  0  0  0  0  0  0  0  0999 V2000
   -5.9800   17.8760   -5.8720 F   0  0  0  0  0
   -4.7100   18.0370   -5.4190 C   0  0  0  0  0
   -3.8580   16.9240   -5.3980 C   0  0  0  0  0
   -4.4640   15.3240   -5.9670 S   0  0  0  0  0
   -4.8030   15.2850   -7.4640 O   0  0  0  0  0
   -3.4220   13.9290   -5.6970 N   0  0  0  0  0
   -5.8080   14.9440   -5.3290 O   0  0  0  0  0
   -2.5430   17.0600   -4.9360 C   0  0  0  0  0
   -1.7090   15.9910   -4.9100 F   0  0  0  0  0
   -2.0780   18.3000   -4.4960 C   0  0  0  0  0
   -0.8010   18.4100   -4.0520 F   0  0  0  0  0
   -4.2470   19.2980   -4.9750 C   0  0  0  0  0
   -2.9200   19.4200   -4.5120 C   0  0  0  0  0
   -2.2860   21.0070   -3.9360 S   0  0  0  0  0
   -3.2800   22.0820   -4.3990 O   0  0  0  0  0
   -1.0920   21.4010   -4.8210 O   0  0  0  0  0
   -1.8640   21.4120   -2.2160 C   0  0  0  0  0
   -2.7300   20.6070   -1.2650 C   0  0  0  0  0
   -4.0950   21.2050   -1.1580 C   0  0  0  0  0
   -4.2760   22.4030   -0.4590 C   0  0  0  0  0
   -5.5510   22.9680   -0.3560 C   0  0  0  0  0
   -5.1900   20.5720   -1.7540 C   0  0  0  0  0
   -6.4690   21.1380   -1.6510 C   0  0  0  0  0
   -6.6470   22.3350   -0.9520 C   0  0  0  0  0
   -5.0870   20.4510   -4.9830 N   0  0  0  0  0
   -6.4550   20.4520   -5.4430 C   0  0  0  0  0
   -7.0240   21.8270   -5.3920 C   0  0  0  0  0
   -7.9090   22.1710   -4.3640 C   0  0  0  0  0
   -8.4490   23.4580   -4.3040 C   0  0  0  0  0
   -8.1050   24.4070   -5.2720 C   0  0  0  0  0
   -7.2210   24.0640   -6.3010 C   0  0  0  0  0
   -6.6800   22.7750   -6.3620 C   0  0  0  0  0
   -3.1818   13.3138   -6.4743 H   0  0  0  0  0
   -3.0590   13.7367   -4.7634 H   0  0  0  0  0
   -2.0366   22.4746   -2.0454 H   0  0  0  0  0
   -0.8161   21.1706   -2.0378 H   0  0  0  0  0
   -2.2662   20.6096   -0.2786 H   0  0  0  0  0
   -2.8201   19.5898   -1.6463 H   0  0  0  0  0
   -3.4225   22.8966    0.0058 H   0  0  0  0  0
   -5.6909   23.9017    0.1887 H   0  0  0  0  0
   -5.0495   19.6384   -2.2988 H   0  0  0  0  0
   -7.3230   20.6450   -2.1155 H   0  0  0  0  0
   -7.6406   22.7758   -0.8711 H   0  0  0  0  0
   -4.6964   21.3295   -4.6424 H   0  0  0  0  0
   -7.0451   19.8014   -4.7976 H   0  0  0  0  0
   -6.4815   20.0968   -6.4732 H   0  0  0  0  0
   -8.1777   21.4329   -3.6082 H   0  0  0  0  0
   -9.1387   23.7226   -3.5025 H   0  0  0  0  0
   -8.5247   25.4119   -5.2250 H   0  0  0  0  0
   -6.9532   24.8025   -7.0567 H   0  0  0  0  0
   -5.9914   22.5097   -7.1642 H   0  0  0  0  0
  1  2  1  0  0  0
  2  3  4  0  0  0
  2 12  4  0  0  0
  3  4  1  0  0  0
  3  8  4  0  0  0
  4  5  2  0  0  0
  4  6  1  0  0  0
  4  7  2  0  0  0
  8  9  1  0  0  0
  8 10  4  0  0  0
 10 11  1  0  0  0
 10 13  4  0  0  0
 12 13  4  0  0  0
 12 25  1  0  0  0
 13 14  1  0  0  0
 14 15  2  0  0  0
 14 16  2  0  0  0
 14 17  1  0  0  0
 17 18  1  0  0  0
 18 19  1  0  0  0
 19 20  4  0  0  0
 19 22  4  0  0  0
 20 21  4  0  0  0
 21 24  4  0  0  0
 22 23  4  0  0  0
 23 24  4  0  0  0
 25 26  1  0  0  0
 26 27  1  0  0  0
 27 28  4  0  0  0
 27 32  4  0  0  0
 28 29  4  0  0  0
 29 30  4  0  0  0
 30 31  4  0  0  0
 31 32  4  0  0  0
  6 33  1  0  0  0
  6 34  1  0  0  0
 17 35  1  0  0  0
 17 36  1  0  0  0
 18 37  1  0  0  0
 18 38  1  0  0  0
 20 39  1  0  0  0
 21 40  1  0  0  0
 22 41  1  0  0  0
 23 42  1  0  0  0
 24 43  1  0  0  0
 25 44  1  0  0  0
 26 45  1  0  0  0
 26 46  1  0  0  0
 28 47  1  0  0  0
 29 48  1  0  0  0
 30 49  1  0  0  0
 31 50  1  0  0  0
 32 51  1  0  0  0
M  END
$$$$
