3zdh_ligand
  -I-interpret- 

 34 34  0  0  0  0  0  0  0  0999 V2000
   54.5300   -4.0710  -53.4570 C   0  0  0  0  0
   53.3550   -4.6400  -53.2060 N   0  0  0  0  0
   53.0420   -4.2550  -51.9180 C   0  0  0  0  0
   54.0570   -3.4620  -51.4380 C   0  0  0  0  0
   54.9980   -3.3530  -52.4440 N   0  0  0  0  0
   55.2700   -4.1340  -54.5800 O   0  0  0  0  0
   54.6820   -4.8500  -55.6570 C   0  0  0  0  0
   55.3980   -4.5080  -56.9800 C   0  0  0  0  0
   56.8640   -4.9910  -57.1220 C   0  0  0  0  0
   57.7320   -4.5380  -55.9850 N   0  3  0  0  0
   57.4160   -4.5710  -58.5030 C   0  0  0  0  0
   57.8920   -3.0650  -55.8480 C   0  0  0  0  0
   59.0300   -5.2540  -55.8990 C   0  0  0  0  0
   56.2460   -2.6180  -52.3960 C   0  0  0  0  0
   52.1403   -4.5334  -51.3725 H   0  0  0  0  0
   54.1097   -3.0051  -50.4498 H   0  0  0  0  0
   53.6313   -4.5717  -55.7383 H   0  0  0  0  0
   54.7757   -5.9193  -55.4673 H   0  0  0  0  0
   55.4339   -3.4197  -57.0298 H   0  0  0  0  0
   54.8371   -5.0150  -57.7651 H   0  0  0  0  0
   56.8764   -6.0796  -57.0676 H   0  0  0  0  0
   57.1893   -4.8150  -55.1670 H   0  0  0  0  0
   56.8079   -5.0207  -59.2880 H   0  0  0  0  0
   57.3813   -3.4852  -58.5918 H   0  0  0  0  0
   58.4468   -4.9120  -58.5998 H   0  0  0  0  0
   58.3405   -2.6635  -56.7567 H   0  0  0  0  0
   56.9151   -2.6078  -55.6907 H   0  0  0  0  0
   58.5372   -2.8485  -54.9966 H   0  0  0  0  0
   58.8472   -6.3198  -55.7623 H   0  0  0  0  0
   59.5925   -5.0956  -56.8191 H   0  0  0  0  0
   59.5997   -4.8703  -55.0527 H   0  0  0  0  0
   57.0778   -3.3070  -52.5427 H   0  0  0  0  0
   56.2531   -1.8648  -53.1839 H   0  0  0  0  0
   56.3425   -2.1313  -51.4255 H   0  0  0  0  0
  1  2  4  0  0  0
  1  5  4  0  0  0
  1  6  1  0  0  0
  2  3  4  0  0  0
  3  4  4  0  0  0
  4  5  4  0  0  0
  5 14  1  0  0  0
  6  7  1  0  0  0
  7  8  1  0  0  0
  8  9  1  0  0  0
  9 10  1  0  0  0
  9 11  1  0  0  0
 10 12  1  0  0  0
 10 13  1  0  0  0
  3 15  1  0  0  0
  4 16  1  0  0  0
  7 17  1  0  0  0
  7 18  1  0  0  0
  8 19  1  0  0  0
  8 20  1  0  0  0
  9 21  1  0  0  0
 10 22  1  0  0  0
 11 23  1  0  0  0
 11 24  1  0  0  0
 11 25  1  0  0  0
 12 26  1  0  0  0
 12 27  1  0  0  0
 12 28  1  0  0  0
 13 29  1  0  0  0
 13 30  1  0  0  0
 13 31  1  0  0  0
 14 32  1  0  0  0
 14 33  1  0  0  0
 14 34  1  0  0  0
M  END
$$$$
