4mhz_ligand
  -I-interpret- 

 42 43  0  0  0  0  0  0  0  0999 V2000
  -22.7200   17.9470   -0.2080 C   0  0  0  0  0
  -25.5050   17.8640   -4.9830 C   0  0  0  0  0
  -21.9850   23.4840   -7.0300 S   0  0  0  0  0
  -15.5870   17.8920   -6.7720 C   0  0  0  0  0
  -22.4730   21.2600   -2.8490 C   0  0  0  0  0
  -22.6080   20.2190   -1.9140 C   0  0  0  0  0
  -16.0970   18.9100   -7.4620 C   0  0  0  0  0
  -16.9400   18.9680   -5.5010 C   0  0  0  0  0
  -23.9220   20.0300   -4.3820 C   0  0  0  0  0
  -19.1160   20.7070   -6.5780 C   0  0  0  0  0
  -19.4570   21.9690   -5.8180 C   0  0  0  0  0
  -17.6860   20.7750   -7.0430 C   0  0  0  0  0
  -16.1140   17.9490   -5.5580 N   0  0  0  0  0
  -20.7910   21.7660   -5.2420 N   0  0  0  0  0
  -23.0870   22.0780   -5.0540 N   0  0  0  0  0
  -23.5820   18.0190   -1.3580 O   0  0  0  0  0
  -24.8140   17.8860   -3.7130 O   0  0  0  0  0
  -21.9350   22.3360   -5.7060 C   0  0  0  0  0
  -23.1410   21.1560   -4.0820 C   0  0  0  0  0
  -23.3990   19.0870   -2.2160 C   0  0  0  0  0
  -24.0570   19.0000   -3.4580 C   0  0  0  0  0
  -16.9340   19.5760   -6.6790 N   0  0  0  0  0
  -21.6826   17.8842   -0.5365 H   0  0  0  0  0
  -22.8557   18.8397    0.4026 H   0  0  0  0  0
  -22.9711   17.0628    0.3779 H   0  0  0  0  0
  -26.1870   18.7125   -5.0389 H   0  0  0  0  0
  -24.7774   17.9271   -5.7922 H   0  0  0  0  0
  -26.0697   16.9359   -5.0719 H   0  0  0  0  0
  -20.7676   23.6118   -7.5501 H   0  0  0  0  0
  -14.8729   17.1534   -7.1361 H   0  0  0  0  0
  -21.8609   22.1329   -2.6221 H   0  0  0  0  0
  -22.1004   20.2850   -0.9517 H   0  0  0  0  0
  -15.8649   19.1551   -8.4984 H   0  0  0  0  0
  -17.5299   19.2635   -4.6334 H   0  0  0  0  0
  -24.4264   19.9622   -5.3459 H   0  0  0  0  0
  -19.7754   20.6121   -7.4407 H   0  0  0  0  0
  -19.2464   19.8430   -5.9264 H   0  0  0  0  0
  -19.4469   22.8355   -6.4791 H   0  0  0  0  0
  -18.7218   22.1630   -5.0370 H   0  0  0  0  0
  -17.2126   21.6324   -6.5646 H   0  0  0  0  0
  -17.6848   20.8611   -8.1296 H   0  0  0  0  0
  -20.8660   21.1506   -4.4320 H   0  0  0  0  0
 16  1  1  0  0  0
 17  2  1  0  0  0
 18  3  1  0  0  0
  7  4  4  0  0  0
 13  4  4  0  0  0
  5  6  4  0  0  0
 19  5  4  0  0  0
  6 20  4  0  0  0
 22  7  4  0  0  0
  8 13  4  0  0  0
 22  8  4  0  0  0
  9 19  4  0  0  0
 21  9  4  0  0  0
 11 10  1  0  0  0
 10 12  1  0  0  0
 14 11  1  0  0  0
 12 22  1  0  0  0
 18 14  1  0  0  0
 15 18  2  0  0  0
 19 15  1  0  0  0
 20 16  1  0  0  0
 17 21  1  0  0  0
 20 21  4  0  0  0
  1 23  1  0  0  0
  1 24  1  0  0  0
  1 25  1  0  0  0
  2 26  1  0  0  0
  2 27  1  0  0  0
  2 28  1  0  0  0
  3 29  1  0  0  0
  4 30  1  0  0  0
  5 31  1  0  0  0
  6 32  1  0  0  0
  7 33  1  0  0  0
  8 34  1  0  0  0
  9 35  1  0  0  0
 10 36  1  0  0  0
 10 37  1  0  0  0
 11 38  1  0  0  0
 11 39  1  0  0  0
 12 40  1  0  0  0
 12 41  1  0  0  0
 14 42  1  0  0  0
M  END
$$$$
