5tdi_ligand
  -I-interpret- 

 66 68  0  0  0  0  0  0  0  0999 V2000
    2.7510   -2.6200  -17.3870 C   0  0  0  0  0
    3.4760    4.0010  -15.9390 C   0  0  0  0  0
    3.8080   -3.4880  -17.1430 C   0  0  0  0  0
    5.1360   -3.0310  -17.3130 C   0  0  0  0  0
    1.5640    4.6330  -14.3490 C   0  0  0  0  0
    2.6740    5.0710  -16.6240 C   0  0  0  0  0
    1.8150   -0.3780  -18.0880 C   0  0  0  0  0
    2.9900   -1.2960  -17.7990 C   0  0  0  0  0
   -2.5320    0.2620  -17.8430 C   0  0  0  0  0
   -2.2540   -0.0410  -16.3630 C   0  0  0  0  0
   -2.0420   -1.5090  -16.1300 C   0  0  0  0  0
   -1.0650    0.7420  -15.8580 C   0  0  0  0  0
    0.2050    0.8770  -16.7120 C   0  0  0  0  0
    1.1940    1.8010  -16.0130 C   0  0  0  0  0
    2.0060    1.3360  -15.2050 O   0  0  0  0  0
    1.1380    3.1080  -16.3010 N   0  0  0  0  0
    1.9970    4.1060  -15.6860 C   0  0  0  0  0
    2.1340    5.6570  -13.7330 N   0  0  0  0  0
    0.7810   -0.4610  -17.0680 N   0  3  0  0  0
    5.3780   -1.7040  -17.7340 C   0  0  0  0  0
    4.3170   -0.8410  -17.9730 C   0  0  0  0  0
    6.2770   -3.9530  -17.0720 C   0  0  0  0  0
    6.1840   -5.0010  -16.1200 C   0  0  0  0  0
    7.2460   -5.8530  -15.9130 C   0  0  0  0  0
    8.4180   -5.6970  -16.6680 C   0  0  0  0  0
    8.5210   -4.6860  -17.6060 C   0  0  0  0  0
    7.4510   -3.8290  -17.8130 C   0  0  0  0  0
    9.7970   -6.7680  -16.4240 S   0  0  0  0  0
   10.5750   -6.7600  -17.6570 O   0  0  0  0  0
    9.3210   -8.0390  -15.9250 O   0  0  0  0  0
   10.7040   -5.9440  -15.1630 C   0  0  0  0  0
    1.2570   -0.6450  -19.4650 C   0  0  0  0  0
    2.2300   -0.6500  -20.3760 F   0  0  0  0  0
    0.3390    0.2160  -19.8010 F   0  0  0  0  0
    0.6890   -1.8860  -19.4910 F   0  0  0  0  0
   -3.3270    0.3570  -15.6330 F   0  0  0  0  0
    1.7262   -2.9682  -17.2580 H   0  0  0  0  0
    4.3983    3.9137  -15.3647 H   0  0  0  0  0
    4.2073    3.2360  -16.1997 H   0  0  0  0  0
    3.6157   -4.5122  -16.8234 H   0  0  0  0  0
    0.7268    4.1413  -13.8536 H   0  0  0  0  0
    2.5327    5.4702  -17.6284 H   0  0  0  0  0
    2.7233    6.1463  -16.7953 H   0  0  0  0  0
    2.1895    0.6453  -18.0626 H   0  0  0  0  0
   -1.6835   -0.0636  -18.4448 H   0  0  0  0  0
   -3.4290   -0.2704  -18.1593 H   0  0  0  0  0
   -2.6800    1.3342  -17.9714 H   0  0  0  0  0
   -1.8590   -1.6846  -15.0699 H   0  0  0  0  0
   -2.9308   -2.0572  -16.4423 H   0  0  0  0  0
   -1.1828   -1.8472  -16.7093 H   0  0  0  0  0
   -0.7368    0.1903  -14.9771 H   0  0  0  0  0
   -1.4363    1.7629  -15.7686 H   0  0  0  0  0
   -0.0491    1.3361  -17.6674 H   0  0  0  0  0
    0.4542    3.4202  -16.9905 H   0  0  0  0  0
    2.9199    6.1405  -14.1678 H   0  0  0  0  0
    1.2039   -0.8524  -16.2264 H   0  0  0  0  0
    0.0249   -1.0379  -17.4366 H   0  0  0  0  0
    6.4019   -1.3565  -17.8717 H   0  0  0  0  0
    4.5065    0.1834  -18.2936 H   0  0  0  0  0
    5.2653   -5.1327  -15.5483 H   0  0  0  0  0
    7.1763   -6.6443  -15.1666 H   0  0  0  0  0
    9.4394   -4.5635  -18.1801 H   0  0  0  0  0
    7.5291   -3.0459  -18.5671 H   0  0  0  0  0
   11.6508   -6.4596  -15.0023 H   0  0  0  0  0
   10.8961   -4.9155  -15.4685 H   0  0  0  0  0
   10.1253   -5.9480  -14.2393 H   0  0  0  0  0
  1  3  4  0  0  0
  8  1  4  0  0  0
  6  2  1  0  0  0
 17  2  1  0  0  0
  3  4  4  0  0  0
  4 20  4  0  0  0
  4 22  1  0  0  0
 17  5  1  0  0  0
  5 18  2  0  0  0
 17  6  1  0  0  0
  7  8  1  0  0  0
 19  7  1  0  0  0
  7 32  1  0  0  0
  8 21  4  0  0  0
 10  9  1  0  0  0
 10 11  1  0  0  0
 12 10  1  0  0  0
 10 36  1  0  0  0
 13 12  1  0  0  0
 14 13  1  0  0  0
 13 19  1  0  0  0
 14 15  2  0  0  0
 16 14  1  0  0  0
 16 17  1  0  0  0
 20 21  4  0  0  0
 22 23  4  0  0  0
 22 27  4  0  0  0
 23 24  4  0  0  0
 24 25  4  0  0  0
 25 26  4  0  0  0
 25 28  1  0  0  0
 26 27  4  0  0  0
 28 29  2  0  0  0
 28 30  2  0  0  0
 28 31  1  0  0  0
 32 33  1  0  0  0
 32 34  1  0  0  0
 32 35  1  0  0  0
  1 37  1  0  0  0
  2 38  1  0  0  0
  2 39  1  0  0  0
  3 40  1  0  0  0
  5 41  1  0  0  0
  6 42  1  0  0  0
  6 43  1  0  0  0
  7 44  1  0  0  0
  9 45  1  0  0  0
  9 46  1  0  0  0
  9 47  1  0  0  0
 11 48  1  0  0  0
 11 49  1  0  0  0
 11 50  1  0  0  0
 12 51  1  0  0  0
 12 52  1  0  0  0
 13 53  1  0  0  0
 16 54  1  0  0  0
 18 55  1  0  0  0
 19 56  1  0  0  0
 19 57  1  0  0  0
 20 58  1  0  0  0
 21 59  1  0  0  0
 23 60  1  0  0  0
 24 61  1  0  0  0
 26 62  1  0  0  0
 27 63  1  0  0  0
 31 64  1  0  0  0
 31 65  1  0  0  0
 31 66  1  0  0  0
M  END
$$$$
