### 
### Created by X-TOOL on Mon Sep 10 21:13:30 2018
### 

@<TRIPOS>MOLECULE
5tdi_ligand
   66    68     1     0     0
SMALL
GAST_HUCK


@<TRIPOS>ATOM
      1 C17         2.7510   -2.6200  -17.3870 C.ar      1 7AS        -0.0533
      2 C10         3.4760    4.0010  -15.9390 C.3       1 7AS        -0.0407
      3 C18         3.8080   -3.4880  -17.1430 C.ar      1 7AS        -0.0598
      4 C19         5.1360   -3.0310  -17.3130 C.ar      1 7AS        -0.0242
      5 C12         1.5640    4.6330  -14.3490 C.2       1 7AS         0.0437
      6 C11         2.6740    5.0710  -16.6240 C.3       1 7AS        -0.0407
      7 C15         1.8150   -0.3780  -18.0880 C.3       1 7AS         0.1110
      8 C16         2.9900   -1.2960  -17.7990 C.ar      1 7AS         0.0141
      9 C01        -2.5320    0.2620  -17.8430 C.3       1 7AS        -0.0309
     10 C02        -2.2540   -0.0410  -16.3630 C.3       1 7AS         0.1134
     11 C03        -2.0420   -1.5090  -16.1300 C.3       1 7AS        -0.0309
     12 C04        -1.0650    0.7420  -15.8580 C.3       1 7AS         0.0413
     13 C05         0.2050    0.8770  -16.7120 C.3       1 7AS         0.0711
     14 C06         1.1940    1.8010  -16.0130 C.2       1 7AS         0.2197
     15 O07         2.0060    1.3360  -15.2050 O.2       1 7AS        -0.3914
     16 N08         1.1380    3.1080  -16.3010 N.am      1 7AS        -0.2928
     17 C09         1.9970    4.1060  -15.6860 C.3       1 7AS         0.0784
     18 N13         2.1340    5.6570  -13.7330 N.2       1 7AS        -0.2686
     19 N14         0.7810   -0.4610  -17.0680 N.4       1 7AS         0.2668
     20 C20         5.3780   -1.7040  -17.7340 C.ar      1 7AS        -0.0598
     21 C21         4.3170   -0.8410  -17.9730 C.ar      1 7AS        -0.0533
     22 C22         6.2770   -3.9530  -17.0720 C.ar      1 7AS        -0.0220
     23 C23         6.1840   -5.0010  -16.1200 C.ar      1 7AS        -0.0539
     24 C24         7.2460   -5.8530  -15.9130 C.ar      1 7AS        -0.0374
     25 C25         8.4180   -5.6970  -16.6680 C.ar      1 7AS         0.0870
     26 C26         8.5210   -4.6860  -17.6060 C.ar      1 7AS        -0.0374
     27 C27         7.4510   -3.8290  -17.8130 C.ar      1 7AS        -0.0539
     28 S28         9.7970   -6.7680  -16.4240 S.o2      1 7AS        -0.0063
     29 O29        10.5750   -6.7600  -17.6570 O.2       1 7AS        -0.1697
     30 O30         9.3210   -8.0390  -15.9250 O.2       1 7AS        -0.1697
     31 C31        10.7040   -5.9440  -15.1630 C.3       1 7AS         0.0595
     32 C32         1.2570   -0.6450  -19.4650 C.3       1 7AS         0.4439
     33 F33         2.2300   -0.6500  -20.3760 F         1 7AS        -0.1634
     34 F34         0.3390    0.2160  -19.8010 F         1 7AS        -0.1634
     35 F35         0.6890   -1.8860  -19.4910 F         1 7AS        -0.1634
     36 F36        -3.3270    0.3570  -15.6330 F         1 7AS        -0.2421
     37 H1          1.7318   -2.9663  -17.2587 H         1 7AS         0.0562
     38 H2          4.1896    4.2713  -15.1468 H         1 7AS         0.0220
     39 H3          3.8756    3.1568  -16.5200 H         1 7AS         0.0220
     40 H4          3.6168   -4.5066  -16.8251 H         1 7AS         0.0609
     41 H5          0.7276    4.1417  -13.8540 H         1 7AS         0.1090
     42 H6          2.4860    5.0097  -17.7061 H         1 7AS         0.0220
     43 H7          2.8000    6.1242  -16.3328 H         1 7AS         0.0220
     44 H8          2.1961    0.6538  -18.0800 H         1 7AS         0.1111
     45 H9         -3.4012   -0.3220  -18.1798 H         1 7AS         0.0260
     46 H10        -1.6522   -0.0101  -18.4446 H         1 7AS         0.0260
     47 H11        -2.7418    1.3349  -17.9645 H         1 7AS         0.0260
     48 H12        -1.8463   -1.6862  -15.0622 H         1 7AS         0.0260
     49 H13        -1.1818   -1.8539  -16.7225 H         1 7AS         0.0260
     50 H14        -2.9425   -2.0624  -16.4345 H         1 7AS         0.0260
     51 H15        -0.7587    0.2727  -14.9115 H         1 7AS         0.0376
     52 H16        -1.4219    1.7639  -15.6620 H         1 7AS         0.0376
     53 H17        -0.0805    1.3614  -17.6574 H         1 7AS         0.1100
     54 H18         0.4677    3.4141  -16.9770 H         1 7AS         0.1776
     55 H19         1.7913    5.9588  -12.8344 H         1 7AS         0.2165
     56 H20         1.1800   -0.8707  -16.2379 H         1 7AS         0.2057
     57 H21         0.0382   -1.0504  -17.4100 H         1 7AS         0.2057
     58 H22         6.3963   -1.3584  -17.8709 H         1 7AS         0.0609
     59 H23         4.5055    0.1778  -18.2918 H         1 7AS         0.0562
     60 H24         5.2704   -5.1320  -15.5515 H         1 7AS         0.0615
     61 H25         7.1767   -6.6399  -15.1707 H         1 7AS         0.0634
     62 H26         9.4344   -4.5641  -18.1769 H         1 7AS         0.0634
     63 H27         7.5287   -3.0502  -18.5630 H         1 7AS         0.0615
     64 H28        11.6048   -6.5263  -14.9192 H         1 7AS         0.0468
     65 H29        10.0767   -5.8457  -14.2648 H         1 7AS         0.0468
     66 H30        10.9980   -4.9446  -15.5162 H         1 7AS         0.0468
@<TRIPOS>BOND
     1    1    3 ar 
     2    8    1 ar 
     3    6    2 1  
     4   17    2 1  
     5    3    4 ar 
     6    4   20 ar 
     7    4   22 1  
     8   17    5 1  
     9    5   18 2  
    10   17    6 1  
    11    7    8 1  
    12   19    7 1  
    13    7   32 1  
    14    8   21 ar 
    15   10    9 1  
    16   10   11 1  
    17   12   10 1  
    18   10   36 1  
    19   13   12 1  
    20   14   13 1  
    21   13   19 1  
    22   14   15 2  
    23   16   14 am 
    24   16   17 1  
    25   20   21 ar 
    26   22   23 ar 
    27   22   27 ar 
    28   23   24 ar 
    29   24   25 ar 
    30   25   26 ar 
    31   25   28 1  
    32   26   27 ar 
    33   28   29 2  
    34   28   30 2  
    35   28   31 1  
    36   32   33 1  
    37   32   34 1  
    38   32   35 1  
    39    1   37 1  
    40    2   38 1  
    41    2   39 1  
    42    3   40 1  
    43    5   41 1  
    44    6   42 1  
    45    6   43 1  
    46    7   44 1  
    47    9   45 1  
    48    9   46 1  
    49    9   47 1  
    50   11   48 1  
    51   11   49 1  
    52   11   50 1  
    53   12   51 1  
    54   12   52 1  
    55   13   53 1  
    56   16   54 1  
    57   18   55 1  
    58   19   56 1  
    59   19   57 1  
    60   20   58 1  
    61   21   59 1  
    62   23   60 1  
    63   24   61 1  
    64   26   62 1  
    65   27   63 1  
    66   31   64 1  
    67   31   65 1  
    68   31   66 1  
@<TRIPOS>SUBSTRUCTURE
     1 7AS         1

