3t1m_ligand
  -I-interpret- 

 58 60  0  0  0  0  0  0  0  0999 V2000
   20.2030   -8.7660   -1.5000 C   0  0  0  0  0
   21.0260   -9.9140   -1.2970 O   0  0  0  0  0
   18.7260   -9.1380   -1.3820 C   0  0  0  0  0
   18.5920   -9.8760   -0.1750 O   0  0  0  0  0
   17.7870   -7.9360   -1.3150 C   0  0  0  0  0
   16.5370   -8.2950   -0.6750 N   0  0  0  0  0
   18.3630   -6.8080   -0.4590 C   0  0  0  0  0
   18.1180   -7.1120    0.9200 O   0  0  0  0  0
   19.8560   -6.5790   -0.6850 C   0  0  0  0  0
   20.5660   -7.8050   -0.5100 O   0  0  0  0  0
   20.4300   -5.5470    0.2810 C   0  0  0  0  0
   21.8210   -5.3590    0.0280 O   0  0  0  0  0
   18.2100  -11.2480   -0.2750 C   0  0  0  0  0
   18.2850  -11.8620   -1.3330 O   0  0  0  0  0
   17.7230  -11.9000    0.9830 C   0  0  0  0  0
   17.4350  -13.2640    1.0300 C   0  0  0  0  0
   16.9860  -13.8340    2.2190 C   0  0  0  0  0
   16.8280  -13.0430    3.3550 C   0  0  0  0  0
   17.1160  -11.6860    3.3050 C   0  0  0  0  0
   17.5650  -11.1150    2.1230 C   0  0  0  0  0
   16.3440  -13.6410    4.6470 C   0  0  0  0  0
   15.3180   -8.2210   -1.2150 C   0  0  0  0  0
   15.1440   -7.9690   -2.3990 O   0  0  0  0  0
   14.1160   -8.3930   -0.3130 C   0  0  0  0  0
   14.2060   -8.0930    1.0510 C   0  0  0  0  0
   13.1040   -8.2380    1.8860 C   0  0  0  0  0
   11.8920   -8.6790    1.3730 C   0  0  0  0  0
   11.7860   -8.9760    0.0150 C   0  0  0  0  0
   12.8920   -8.8310   -0.8250 C   0  0  0  0  0
   10.7100   -8.8250    2.2960 C   0  0  0  0  0
   22.3850   -9.6440   -1.6390 C   0  0  0  0  0
   20.3514   -8.3565   -2.4992 H   0  0  0  0  0
   18.4444   -9.6972   -2.2742 H   0  0  0  0  0
   17.6474   -7.6157   -2.3475 H   0  0  0  0  0
   16.5943   -8.6385    0.2837 H   0  0  0  0  0
   17.8662   -5.8833   -0.7528 H   0  0  0  0  0
   17.1780   -7.2543    1.0530 H   0  0  0  0  0
   19.9730   -6.2050   -1.7021 H   0  0  0  0  0
   20.2971   -5.9012    1.3032 H   0  0  0  0  0
   19.9100   -4.5992    0.1423 H   0  0  0  0  0
   22.1715   -4.7084    0.6408 H   0  0  0  0  0
   17.5607  -13.8811    0.1403 H   0  0  0  0  0
   16.7582  -14.8991    2.2607 H   0  0  0  0  0
   16.9894  -11.0689    4.1946 H   0  0  0  0  0
   17.7946  -10.0501    2.0862 H   0  0  0  0  0
   15.3555  -14.0753    4.4971 H   0  0  0  0  0
   17.0382  -14.4171    4.9692 H   0  0  0  0  0
   16.2887  -12.8626    5.4080 H   0  0  0  0  0
   15.1516   -7.7414    1.4637 H   0  0  0  0  0
   13.1920   -8.0046    2.9471 H   0  0  0  0  0
   10.8363   -9.3227   -0.3925 H   0  0  0  0  0
   12.7999   -9.0609   -1.8865 H   0  0  0  0  0
   10.9497   -9.5429    3.0804 H   0  0  0  0  0
   10.4791   -7.8586    2.7443 H   0  0  0  0  0
    9.8491   -9.1787    1.7287 H   0  0  0  0  0
   22.4438   -9.3553   -2.6884 H   0  0  0  0  0
   22.7607   -8.8323   -1.0160 H   0  0  0  0  0
   22.9848  -10.5388   -1.4729 H   0  0  0  0  0
  1  2  1  0  0  0
  1  3  1  0  0  0
  1 10  1  0  0  0
  2 31  1  0  0  0
  3  4  1  0  0  0
  3  5  1  0  0  0
  4 13  1  0  0  0
  5  6  1  0  0  0
  5  7  1  0  0  0
  6 22  1  0  0  0
  7  8  1  0  0  0
  7  9  1  0  0  0
  9 10  1  0  0  0
  9 11  1  0  0  0
 11 12  1  0  0  0
 13 14  2  0  0  0
 13 15  1  0  0  0
 15 16  4  0  0  0
 15 20  4  0  0  0
 16 17  4  0  0  0
 17 18  4  0  0  0
 18 19  4  0  0  0
 18 21  1  0  0  0
 19 20  4  0  0  0
 22 23  2  0  0  0
 22 24  1  0  0  0
 24 25  4  0  0  0
 24 29  4  0  0  0
 25 26  4  0  0  0
 26 27  4  0  0  0
 27 28  4  0  0  0
 27 30  1  0  0  0
 28 29  4  0  0  0
  1 32  1  0  0  0
  3 33  1  0  0  0
  5 34  1  0  0  0
  6 35  1  0  0  0
  7 36  1  0  0  0
  8 37  1  0  0  0
  9 38  1  0  0  0
 11 39  1  0  0  0
 11 40  1  0  0  0
 12 41  1  0  0  0
 16 42  1  0  0  0
 17 43  1  0  0  0
 19 44  1  0  0  0
 20 45  1  0  0  0
 21 46  1  0  0  0
 21 47  1  0  0  0
 21 48  1  0  0  0
 25 49  1  0  0  0
 26 50  1  0  0  0
 28 51  1  0  0  0
 29 52  1  0  0  0
 30 53  1  0  0  0
 30 54  1  0  0  0
 30 55  1  0  0  0
 31 56  1  0  0  0
 31 57  1  0  0  0
 31 58  1  0  0  0
M  END
$$$$
