3sz1_ligand
  -I-interpret- 

 31 33  0  0  0  0  0  0  0  0999 V2000
   36.8060  -22.3400   41.8430 C   0  0  0  0  0
   34.7180  -21.4410   41.4730 O   0  0  0  0  0
   35.9230  -21.2870   42.0110 C   0  0  0  0  0
   37.8020  -18.8800   44.0150 O   0  0  0  0  0
   36.2520  -20.1270   42.7220 C   0  0  0  0  0
   40.2110  -20.1420   44.3810 O   0  0  0  0  0
   37.5270  -20.0300   43.3170 C   0  0  0  0  0
   38.8410  -23.4110   42.1940 O   0  0  0  0  0
   38.4750  -21.1180   43.1590 C   0  0  0  0  0
   44.4170  -25.6550   42.5200 O   0  0  0  0  0
   38.0640  -22.2850   42.4050 C   0  0  0  0  0
   43.1840  -27.9510   41.8420 O   0  0  0  0  0
   39.7830  -21.1150   43.7220 C   0  0  0  0  0
   40.6000  -22.2620   43.5190 C   0  0  0  0  0
   40.1160  -23.3940   42.7490 C   0  0  0  0  0
   40.9020  -24.5460   42.5120 C   0  0  0  0  0
   42.3250  -24.4880   42.6400 C   0  0  0  0  0
   43.0740  -25.6550   42.4080 C   0  0  0  0  0
   42.4320  -26.8520   42.0460 C   0  0  0  0  0
   41.0360  -26.9200   41.8980 C   0  0  0  0  0
   40.2710  -25.7670   42.1500 C   0  0  0  0  0
   36.5062  -23.2143   41.2653 H   0  0  0  0  0
   34.1890  -20.6589   41.6466 H   0  0  0  0  0
   38.6920  -18.9286   44.3717 H   0  0  0  0  0
   35.5343  -19.3118   42.8143 H   0  0  0  0  0
   44.7531  -26.5332   42.3265 H   0  0  0  0  0
   42.6154  -28.6866   41.6029 H   0  0  0  0  0
   41.6020  -22.2914   43.9470 H   0  0  0  0  0
   42.8201  -23.5559   42.9125 H   0  0  0  0  0
   40.5549  -27.8495   41.5934 H   0  0  0  0  0
   39.1850  -25.8102   42.0670 H   0  0  0  0  0
  1  3  4  0  0  0
 11  1  4  0  0  0
  3  2  1  0  0  0
  3  5  4  0  0  0
  7  4  1  0  0  0
  7  5  4  0  0  0
 13  6  2  0  0  0
  9  7  4  0  0  0
  8 11  1  0  0  0
 15  8  1  0  0  0
 11  9  4  0  0  0
 13  9  1  0  0  0
 18 10  1  0  0  0
 19 12  1  0  0  0
 14 13  1  0  0  0
 15 14  2  0  0  0
 16 15  1  0  0  0
 17 16  4  0  0  0
 16 21  4  0  0  0
 18 17  4  0  0  0
 18 19  4  0  0  0
 19 20  4  0  0  0
 20 21  4  0  0  0
  1 22  1  0  0  0
  2 23  1  0  0  0
  4 24  1  0  0  0
  5 25  1  0  0  0
 10 26  1  0  0  0
 12 27  1  0  0  0
 14 28  1  0  0  0
 17 29  1  0  0  0
 20 30  1  0  0  0
 21 31  1  0  0  0
M  END
$$$$
