5mte_ligand
  -I-interpret- 

 62 62  0  0  0  0  0  0  0  0999 V2000
   -1.2890  -35.5420    9.0370 C   0  0  0  0  0
   -0.8030  -36.0420   10.3850 C   0  0  0  0  0
    0.0340  -36.9440   10.4950 O   0  0  0  0  0
   -1.3620  -35.4460   11.4270 N   0  0  0  0  0
   -0.9720  -35.8740   12.6530 O   0  0  0  0  0
   -2.3520  -36.5120    8.5130 C   0  0  0  0  0
   -2.5640  -36.3800    7.0090 C   0  0  0  0  0
   -2.6030  -35.2850    6.4400 O   0  0  0  0  0
   -3.7080  -36.2350    9.2030 C   0  0  0  0  0
   -4.7180  -37.3460    8.8910 C   0  0  0  0  0
   -6.0370  -37.1500    9.6390 C   0  0  0  0  0
   -7.0510  -38.2760    9.3690 C   0  0  0  0  0
   -7.1410  -38.6040    7.8810 C   0  0  0  0  0
   -2.7180  -37.5640    6.4200 N   0  0  0  0  0
   -3.0330  -37.7150    4.9960 C   0  0  0  0  0
   -1.8620  -38.2590    4.1450 C   0  0  0  0  0
   -0.6090  -37.3840    4.2350 C   0  0  0  0  0
   -1.4890  -39.6920    4.4680 C   0  0  0  0  0
   -4.2850  -38.6280    4.9720 C   0  0  0  0  0
   -4.3600  -39.6370    5.6860 O   0  0  0  0  0
   -5.3370  -38.3290    4.2130 N   0  0  0  0  0
   -6.5550  -39.1560    4.1640 C   0  0  0  0  0
   -5.4310  -37.1470    3.3280 C   0  0  0  0  0
   -6.7450  -37.3440    2.5730 C   0  0  0  0  0
   -7.5830  -38.2420    3.4860 C   0  0  0  0  0
   -6.3030  -40.4220    3.3220 C   0  0  0  0  0
   -7.3660  -41.3530    3.5010 O   0  0  0  0  0
   -0.4552  -35.4902    8.3368 H   0  0  0  0  0
   -1.7153  -34.5443    9.1420 H   0  0  0  0  0
   -2.0511  -34.7026   11.3131 H   0  0  0  0  0
   -1.4384  -35.3755   13.3280 H   0  0  0  0  0
   -1.9924  -37.5168    8.7345 H   0  0  0  0  0
   -4.1026  -35.2887    8.8331 H   0  0  0  0  0
   -3.5513  -36.1964   10.2810 H   0  0  0  0  0
   -4.2865  -38.2962    9.2055 H   0  0  0  0  0
   -4.9271  -37.3252    7.8214 H   0  0  0  0  0
   -6.4788  -36.2145    9.2958 H   0  0  0  0  0
   -5.8175  -37.1484   10.7067 H   0  0  0  0  0
   -8.0323  -37.9454    9.7093 H   0  0  0  0  0
   -6.7235  -39.1698    9.9001 H   0  0  0  0  0
   -7.4568  -37.7163    7.3330 H   0  0  0  0  0
   -6.1637  -38.9259    7.5215 H   0  0  0  0  0
   -7.8666  -39.4032    7.7297 H   0  0  0  0  0
   -2.6118  -38.4058    6.9861 H   0  0  0  0  0
   -3.2223  -36.7487    4.5285 H   0  0  0  0  0
   -2.2435  -38.2315    3.1243 H   0  0  0  0  0
   -0.8421  -36.3802    3.8799 H   0  0  0  0  0
   -0.2748  -37.3357    5.2714 H   0  0  0  0  0
    0.1789  -37.8153    3.6176 H   0  0  0  0  0
   -1.1907  -39.7615    5.5141 H   0  0  0  0  0
   -2.3483  -40.3387    4.2902 H   0  0  0  0  0
   -0.6608  -40.0029    3.8312 H   0  0  0  0  0
   -6.8835  -39.5009    5.1444 H   0  0  0  0  0
   -4.5779  -37.0703    2.6538 H   0  0  0  0  0
   -5.4161  -36.2124    3.8887 H   0  0  0  0  0
   -6.5884  -37.7925    1.5920 H   0  0  0  0  0
   -7.2420  -36.3964    2.3653 H   0  0  0  0  0
   -8.1614  -37.6670    4.2091 H   0  0  0  0  0
   -8.3321  -38.8069    2.9312 H   0  0  0  0  0
   -5.3683  -40.8825    3.6420 H   0  0  0  0  0
   -6.2460  -40.1444    2.2695 H   0  0  0  0  0
   -7.1968  -42.1359    2.9718 H   0  0  0  0  0
  1  2  1  0  0  0
  1  6  1  0  0  0
  2  3  2  0  0  0
  2  4  1  0  0  0
  4  5  1  0  0  0
  6  7  1  0  0  0
  6  9  1  0  0  0
  7  8  2  0  0  0
  7 14  1  0  0  0
  9 10  1  0  0  0
 10 11  1  0  0  0
 11 12  1  0  0  0
 12 13  1  0  0  0
 14 15  1  0  0  0
 15 16  1  0  0  0
 15 19  1  0  0  0
 16 17  1  0  0  0
 16 18  1  0  0  0
 19 20  2  0  0  0
 19 21  1  0  0  0
 21 22  1  0  0  0
 21 23  1  0  0  0
 22 25  1  0  0  0
 22 26  1  0  0  0
 23 24  1  0  0  0
 24 25  1  0  0  0
 26 27  1  0  0  0
  1 28  1  0  0  0
  1 29  1  0  0  0
  4 30  1  0  0  0
  5 31  1  0  0  0
  6 32  1  0  0  0
  9 33  1  0  0  0
  9 34  1  0  0  0
 10 35  1  0  0  0
 10 36  1  0  0  0
 11 37  1  0  0  0
 11 38  1  0  0  0
 12 39  1  0  0  0
 12 40  1  0  0  0
 13 41  1  0  0  0
 13 42  1  0  0  0
 13 43  1  0  0  0
 14 44  1  0  0  0
 15 45  1  0  0  0
 16 46  1  0  0  0
 17 47  1  0  0  0
 17 48  1  0  0  0
 17 49  1  0  0  0
 18 50  1  0  0  0
 18 51  1  0  0  0
 18 52  1  0  0  0
 22 53  1  0  0  0
 23 54  1  0  0  0
 23 55  1  0  0  0
 24 56  1  0  0  0
 24 57  1  0  0  0
 25 58  1  0  0  0
 25 59  1  0  0  0
 26 60  1  0  0  0
 26 61  1  0  0  0
 27 62  1  0  0  0
M  END
$$$$
