4bco_ligand
  -I-interpret- 

 59 62  0  0  0  0  0  0  0  0999 V2000
   -3.8260   21.3860  -18.5080 C   0  0  0  0  0
   -4.4790   20.1420  -18.8970 N   0  0  0  0  0
   -5.5200   20.1830  -19.8550 C   0  0  0  0  0
   -6.3580   19.1690  -20.1870 N   0  0  0  0  0
   -7.2840   19.4350  -21.1270 C   0  0  0  0  0
   -8.2440   18.3370  -21.5560 C   0  0  0  0  0
   -7.2570   20.7510  -21.6580 C   0  0  0  0  0
   -8.0720   21.4290  -22.6080 C   0  0  0  0  0
   -7.5060   22.2710  -23.5060 N   0  0  0  0  0
   -8.2690   22.9720  -24.3970 C   0  0  0  0  0
   -7.6260   23.8510  -25.3730 N   0  0  0  0  0
   -6.3710   24.5370  -25.0890 C   0  0  0  0  0
   -5.7780   24.4750  -23.8180 C   0  0  0  0  0
   -4.5750   25.1400  -23.5760 C   0  0  0  0  0
   -3.9460   25.8860  -24.6180 C   0  0  0  0  0
   -4.5370   25.9400  -25.8810 C   0  0  0  0  0
   -3.8930   26.7090  -26.9640 N   0  0  0  0  0
   -2.6130   26.0890  -27.2040 C   0  0  0  0  0
   -2.3590   25.6900  -28.6120 C   0  0  0  0  0
   -3.4360   24.8510  -29.2120 C   0  0  0  0  0
   -4.5330   25.6200  -29.6940 N   0  0  0  0  0
   -4.9130   25.4170  -31.0840 C   0  0  0  0  0
   -6.0630   26.1990  -31.6780 C   0  0  0  0  0
   -4.2980   24.6120  -31.7800 O   0  0  0  0  0
   -5.3080   26.5860  -28.9710 C   0  0  0  0  0
   -4.4410   27.4320  -28.0790 C   0  0  0  0  0
   -5.7440   25.2760  -26.1190 C   0  0  0  0  0
   -9.6070   22.8660  -24.4000 N   0  0  0  0  0
  -10.2380   22.0530  -23.4970 C   0  0  0  0  0
   -9.4720   21.3340  -22.5780 C   0  0  0  0  0
  -10.1540   20.4780  -21.6020 C   0  0  0  0  0
  -10.6910   19.8120  -20.8480 N   0  0  0  0  0
   -5.9660   21.5400  -20.8360 S   0  0  0  0  0
   -3.3724   21.8466  -19.3856 H   0  0  0  0  0
   -4.5645   22.0644  -18.0808 H   0  0  0  0  0
   -3.0546   21.1739  -17.7677 H   0  0  0  0  0
   -4.1899   19.2550  -18.4847 H   0  0  0  0  0
   -7.6775   17.4991  -21.9624 H   0  0  0  0  0
   -8.8208   18.0030  -20.6935 H   0  0  0  0  0
   -8.9196   18.7244  -22.3186 H   0  0  0  0  0
   -8.0695   23.9886  -26.2812 H   0  0  0  0  0
   -6.2571   23.9075  -23.0202 H   0  0  0  0  0
   -4.1148   25.0896  -22.5892 H   0  0  0  0  0
   -3.0095   26.4104  -24.4282 H   0  0  0  0  0
   -2.5913   25.1750  -26.6105 H   0  0  0  0  0
   -1.8538   26.8272  -26.9456 H   0  0  0  0  0
   -1.4458   25.0948  -28.6184 H   0  0  0  0  0
   -2.2985   26.6056  -29.2003 H   0  0  0  0  0
   -3.8117   24.1854  -28.4348 H   0  0  0  0  0
   -3.0077   24.3146  -30.0587 H   0  0  0  0  0
   -5.7014   26.7939  -32.5167 H   0  0  0  0  0
   -6.8301   25.5070  -32.0257 H   0  0  0  0  0
   -6.4836   26.8578  -30.9182 H   0  0  0  0  0
   -6.0288   26.0550  -28.3492 H   0  0  0  0  0
   -5.8044   27.2382  -29.6895 H   0  0  0  0  0
   -3.6058   27.7933  -28.6790 H   0  0  0  0  0
   -5.0635   28.2319  -27.6782 H   0  0  0  0  0
   -6.2051   25.3282  -27.1053 H   0  0  0  0  0
  -11.3247   21.9683  -23.4958 H   0  0  0  0  0
  1  2  1  0  0  0
  2  3  1  0  0  0
  3  4  4  0  0  0
  3 33  4  0  0  0
  4  5  4  0  0  0
  5  6  1  0  0  0
  5  7  4  0  0  0
  7  8  1  0  0  0
  7 33  4  0  0  0
  8  9  4  0  0  0
  8 30  4  0  0  0
  9 10  4  0  0  0
 10 11  1  0  0  0
 10 28  4  0  0  0
 11 12  1  0  0  0
 12 13  4  0  0  0
 12 27  4  0  0  0
 13 14  4  0  0  0
 14 15  4  0  0  0
 15 16  4  0  0  0
 16 17  1  0  0  0
 16 27  4  0  0  0
 17 18  1  0  0  0
 17 26  1  0  0  0
 18 19  1  0  0  0
 19 20  1  0  0  0
 20 21  1  0  0  0
 21 22  1  0  0  0
 21 25  1  0  0  0
 22 23  1  0  0  0
 22 24  2  0  0  0
 25 26  1  0  0  0
 28 29  4  0  0  0
 29 30  4  0  0  0
 30 31  1  0  0  0
 31 32  3  0  0  0
  1 34  1  0  0  0
  1 35  1  0  0  0
  1 36  1  0  0  0
  2 37  1  0  0  0
  6 38  1  0  0  0
  6 39  1  0  0  0
  6 40  1  0  0  0
 11 41  1  0  0  0
 13 42  1  0  0  0
 14 43  1  0  0  0
 15 44  1  0  0  0
 18 45  1  0  0  0
 18 46  1  0  0  0
 19 47  1  0  0  0
 19 48  1  0  0  0
 20 49  1  0  0  0
 20 50  1  0  0  0
 23 51  1  0  0  0
 23 52  1  0  0  0
 23 53  1  0  0  0
 25 54  1  0  0  0
 25 55  1  0  0  0
 26 56  1  0  0  0
 26 57  1  0  0  0
 27 58  1  0  0  0
 29 59  1  0  0  0
M  END
$$$$
