5a5s_ligand
  -I-interpret- 

 51 54  0  0  0  0  0  0  0  0999 V2000
  -16.6100   -3.8210    8.8630 C   0  0  0  0  0
  -16.2890   -5.2110    8.7690 O   0  0  0  0  0
  -15.9670   -5.7140    7.5350 C   0  0  0  0  0
  -15.6310   -4.9030    6.4640 C   0  0  0  0  0
  -15.3140   -5.3940    5.2620 N   0  0  0  0  0
  -15.3200   -6.7230    5.1080 C   0  0  0  0  0
  -15.6330   -7.6290    6.1160 C   0  0  0  0  0
  -15.9700   -7.0890    7.3550 C   0  0  0  0  0
  -15.6300   -9.0960    5.8440 C   0  0  0  0  0
  -16.3320   -9.5930    4.7560 C   0  0  0  0  0
  -16.3990  -10.8820    4.3880 N   0  0  0  0  0
  -15.7200  -11.8080    5.0890 C   0  0  0  0  0
  -15.8190  -13.0920    4.6800 N   0  0  0  0  0
  -16.3800  -13.5100    3.3960 C   0  0  0  0  0
  -15.4890  -13.0790    2.2450 C   0  0  0  0  0
  -16.0600  -13.5930    0.9400 C   0  0  0  0  0
  -16.1620  -15.0590    0.9800 N   0  3  0  0  0
  -17.0700  -15.5020    2.0470 C   0  0  0  0  0
  -16.5680  -15.0150    3.3860 C   0  0  0  0  0
  -14.9710  -11.3740    6.2120 C   0  0  0  0  0
  -14.2740  -12.3110    6.9570 N   0  0  0  0  0
  -13.5130  -12.0700    8.0470 C   0  0  0  0  0
  -12.9400  -12.9930    8.6250 O   0  0  0  0  0
  -13.4500  -10.6790    8.4490 C   0  0  0  0  0
  -12.6220  -10.3090    9.6480 C   0  0  0  0  0
  -14.0990   -9.7060    7.7750 C   0  0  0  0  0
  -14.8990  -10.0210    6.6130 C   0  0  0  0  0
  -15.7581   -3.2292    8.5281 H   0  0  0  0  0
  -17.4736   -3.6055    8.2338 H   0  0  0  0  0
  -16.8422   -3.5723    9.8985 H   0  0  0  0  0
  -15.6248   -3.8224    6.6068 H   0  0  0  0  0
  -15.0624   -7.1225    4.1271 H   0  0  0  0  0
  -16.2359   -7.7468    8.1825 H   0  0  0  0  0
  -16.8775   -8.8731    4.1458 H   0  0  0  0  0
  -15.4793  -13.8190    5.3097 H   0  0  0  0  0
  -17.3484  -13.0268    3.2664 H   0  0  0  0  0
  -14.4889  -13.4880    2.3886 H   0  0  0  0  0
  -15.4384  -11.9906    2.2143 H   0  0  0  0  0
  -15.4029  -13.3010    0.1208 H   0  0  0  0  0
  -17.0525  -13.1680    0.7902 H   0  0  0  0  0
  -15.2351  -15.4442    1.1616 H   0  0  0  0  0
  -16.5293  -15.3835    0.0855 H   0  0  0  0  0
  -17.1119  -16.5912    2.0537 H   0  0  0  0  0
  -18.0639  -15.0928    1.8657 H   0  0  0  0  0
  -17.3044  -15.2758    4.1462 H   0  0  0  0  0
  -15.6045  -15.4844    3.5848 H   0  0  0  0  0
  -14.3423  -13.2818    6.6515 H   0  0  0  0  0
  -11.8373   -9.6153    9.3460 H   0  0  0  0  0
  -13.2587   -9.8362   10.3958 H   0  0  0  0  0
  -12.1717  -11.2082   10.0685 H   0  0  0  0  0
  -14.0190   -8.6720    8.1105 H   0  0  0  0  0
  1  2  1  0  0  0
  2  3  1  0  0  0
  3  4  4  0  0  0
  3  8  4  0  0  0
  4  5  4  0  0  0
  5  6  4  0  0  0
  6  7  4  0  0  0
  7  8  4  0  0  0
  7  9  1  0  0  0
  9 10  4  0  0  0
  9 27  4  0  0  0
 10 11  4  0  0  0
 11 12  4  0  0  0
 12 13  1  0  0  0
 12 20  4  0  0  0
 13 14  1  0  0  0
 14 15  1  0  0  0
 14 19  1  0  0  0
 15 16  1  0  0  0
 16 17  1  0  0  0
 17 18  1  0  0  0
 18 19  1  0  0  0
 20 21  1  0  0  0
 20 27  4  0  0  0
 21 22  1  0  0  0
 22 23  2  0  0  0
 22 24  1  0  0  0
 24 25  1  0  0  0
 24 26  2  0  0  0
 26 27  1  0  0  0
  1 28  1  0  0  0
  1 29  1  0  0  0
  1 30  1  0  0  0
  4 31  1  0  0  0
  6 32  1  0  0  0
  8 33  1  0  0  0
 10 34  1  0  0  0
 13 35  1  0  0  0
 14 36  1  0  0  0
 15 37  1  0  0  0
 15 38  1  0  0  0
 16 39  1  0  0  0
 16 40  1  0  0  0
 17 41  1  0  0  0
 17 42  1  0  0  0
 18 43  1  0  0  0
 18 44  1  0  0  0
 19 45  1  0  0  0
 19 46  1  0  0  0
 21 47  1  0  0  0
 25 48  1  0  0  0
 25 49  1  0  0  0
 25 50  1  0  0  0
 26 51  1  0  0  0
M  END
$$$$
