4gtm_ligand
  -I-interpret- 

 90 94  0  0  0  0  0  0  0  0999 V2000
   57.4680  -59.6270   -1.2570 C   0  0  0  0  0
   56.7320  -59.0250   -2.4830 C   0  0  0  0  0
   56.4990  -57.5470   -2.2700 C   0  0  0  0  0
   56.0070  -56.7900   -3.5000 C   0  0  0  0  0
   56.2760  -55.2790   -3.3110 C   0  0  0  0  0
   55.9700  -54.8110   -1.8780 C   0  0  0  0  0
   56.4570  -53.4420   -1.6770 N   0  0  0  0  0
   57.7020  -53.0910   -1.2820 C   0  0  0  0  0
   58.6190  -53.8730   -1.0140 O   0  0  0  0  0
   57.9850  -51.7630   -1.1250 O   0  0  0  0  0
   57.2310  -51.3490   -0.0610 C   0  0  0  0  0
   56.4590  -50.1980   -0.1860 C   0  0  0  0  0
   55.6830  -49.7830    0.8920 C   0  0  0  0  0
   57.2150  -52.0940    1.1330 C   0  0  0  0  0
   56.4510  -51.6680    2.2100 C   0  0  0  0  0
   55.6910  -50.5180    2.0710 C   0  0  0  0  0
   54.8440  -50.0530    3.2260 C   0  0  0  0  0
   53.3540  -50.4240    3.0720 C   0  0  0  0  0
   52.7680  -49.9580    4.4000 C   0  0  0  0  0
   51.5290  -50.5700    4.9010 N   0  0  0  0  0
   50.4930  -49.5680    5.0700 C   0  0  0  0  0
   50.8770  -48.7550    6.3270 C   0  0  0  0  0
   51.9550  -48.8830    7.1050 C   0  0  0  0  0
   51.8730  -47.9900    8.1020 N   0  0  0  0  0
   50.7560  -47.2900    7.9460 C   0  0  0  0  0
   50.1580  -47.7750    6.8590 N   0  0  0  0  0
   48.8630  -47.3070    6.3050 C   0  0  0  0  0
   51.4310  -51.8400    5.3270 C   0  0  0  0  0
   50.4720  -52.0890    6.3300 C   0  0  0  0  0
   50.3320  -53.3610    6.8710 C   0  0  0  0  0
   51.1500  -54.4010    6.4260 C   0  0  0  0  0
   51.0500  -55.7410    6.9490 C   0  0  0  0  0
   51.0340  -56.8150    7.3390 N   0  0  0  0  0
   52.0970  -54.1520    5.4390 C   0  0  0  0  0
   52.2500  -52.8800    4.8990 C   0  0  0  0  0
   53.3770  -52.8390    3.8510 C   0  0  0  0  0
   53.2470  -51.8800    2.7300 N   0  0  0  0  0
   52.0590  -52.2290    1.5620 S   0  0  0  0  0
   52.0830  -51.1510    0.5050 O   0  0  0  0  0
   52.4040  -53.5640    0.9360 O   0  0  0  0  0
   50.3920  -52.2850    2.2110 C   0  0  0  0  0
   49.6210  -51.1290    2.2260 C   0  0  0  0  0
   48.3350  -51.1670    2.7570 C   0  0  0  0  0
   47.8020  -52.3460    3.2700 C   0  0  0  0  0
   46.5320  -52.3480    3.7680 O   0  0  0  0  0
   46.5170  -52.6240    5.1730 C   0  0  0  0  0
   48.5600  -53.5090    3.2580 C   0  0  0  0  0
   49.8470  -53.4680    2.7210 C   0  0  0  0  0
   58.4277  -59.1263   -1.1291 H   0  0  0  0  0
   56.8602  -59.4838   -0.3636 H   0  0  0  0  0
   57.6313  -60.6923   -1.4200 H   0  0  0  0  0
   55.7717  -59.5257   -2.6067 H   0  0  0  0  0
   57.3432  -59.1673   -3.3742 H   0  0  0  0  0
   57.4603  -57.1125   -1.9958 H   0  0  0  0  0
   55.7211  -57.4564   -1.5118 H   0  0  0  0  0
   54.9375  -56.9572   -3.6280 H   0  0  0  0  0
   56.5354  -57.1471   -4.3840 H   0  0  0  0  0
   55.6270  -54.7303   -3.9935 H   0  0  0  0  0
   57.3315  -55.0942   -3.5107 H   0  0  0  0  0
   56.4693  -55.4745   -1.1718 H   0  0  0  0  0
   54.8920  -54.8332   -1.7181 H   0  0  0  0  0
   55.7958  -52.6851   -1.8512 H   0  0  0  0  0
   56.4621  -49.6291   -1.1158 H   0  0  0  0  0
   55.0711  -48.8845    0.8117 H   0  0  0  0  0
   57.8041  -53.0077    1.2118 H   0  0  0  0  0
   56.4488  -52.2265    3.1460 H   0  0  0  0  0
   54.9118  -48.9660    3.2699 H   0  0  0  0  0
   55.2155  -50.5414    4.1269 H   0  0  0  0  0
   52.7962  -49.9590    2.2592 H   0  0  0  0  0
   52.5122  -48.9111    4.2366 H   0  0  0  0  0
   53.5236  -50.2179    5.1414 H   0  0  0  0  0
   49.5139  -50.0323    5.1874 H   0  0  0  0  0
   50.4232  -48.9245    4.1930 H   0  0  0  0  0
   52.7665  -49.5950    6.9546 H   0  0  0  0  0
   50.3990  -46.4793    8.5812 H   0  0  0  0  0
   49.0130  -46.9498    5.2862 H   0  0  0  0  0
   48.1514  -48.1327    6.3008 H   0  0  0  0  0
   48.4769  -46.4961    6.9226 H   0  0  0  0  0
   49.8358  -51.2777    6.6836 H   0  0  0  0  0
   49.5843  -53.5467    7.6421 H   0  0  0  0  0
   52.7287  -54.9659    5.0833 H   0  0  0  0  0
   53.3792  -53.8263    3.3890 H   0  0  0  0  0
   54.2684  -52.5286    4.3961 H   0  0  0  0  0
   50.0210  -50.1980    1.8243 H   0  0  0  0  0
   47.7346  -50.2573    2.7714 H   0  0  0  0  0
   46.9598  -53.6034    5.3543 H   0  0  0  0  0
   47.0918  -51.8611    5.6980 H   0  0  0  0  0
   45.4880  -52.6169    5.5324 H   0  0  0  0  0
   48.1567  -54.4379    3.6611 H   0  0  0  0  0
   50.4427  -54.3806    2.6983 H   0  0  0  0  0
  1  2  1  0  0  0
  2  3  1  0  0  0
  3  4  1  0  0  0
  4  5  1  0  0  0
  5  6  1  0  0  0
  6  7  1  0  0  0
  7  8  1  0  0  0
  8  9  2  0  0  0
  8 10  1  0  0  0
 10 11  1  0  0  0
 11 12  4  0  0  0
 11 14  4  0  0  0
 12 13  4  0  0  0
 13 16  4  0  0  0
 14 15  4  0  0  0
 15 16  4  0  0  0
 16 17  1  0  0  0
 17 18  1  0  0  0
 18 19  1  0  0  0
 18 37  1  0  0  0
 19 20  1  0  0  0
 20 21  1  0  0  0
 20 28  1  0  0  0
 21 22  1  0  0  0
 22 23  4  0  0  0
 22 26  4  0  0  0
 23 24  4  0  0  0
 24 25  4  0  0  0
 25 26  4  0  0  0
 26 27  1  0  0  0
 28 29  4  0  0  0
 28 35  4  0  0  0
 29 30  4  0  0  0
 30 31  4  0  0  0
 31 32  1  0  0  0
 31 34  4  0  0  0
 32 33  3  0  0  0
 34 35  4  0  0  0
 35 36  1  0  0  0
 36 37  1  0  0  0
 37 38  1  0  0  0
 38 39  2  0  0  0
 38 40  2  0  0  0
 38 41  1  0  0  0
 41 42  4  0  0  0
 41 48  4  0  0  0
 42 43  4  0  0  0
 43 44  4  0  0  0
 44 45  1  0  0  0
 44 47  4  0  0  0
 45 46  1  0  0  0
 47 48  4  0  0  0
  1 49  1  0  0  0
  1 50  1  0  0  0
  1 51  1  0  0  0
  2 52  1  0  0  0
  2 53  1  0  0  0
  3 54  1  0  0  0
  3 55  1  0  0  0
  4 56  1  0  0  0
  4 57  1  0  0  0
  5 58  1  0  0  0
  5 59  1  0  0  0
  6 60  1  0  0  0
  6 61  1  0  0  0
  7 62  1  0  0  0
 12 63  1  0  0  0
 13 64  1  0  0  0
 14 65  1  0  0  0
 15 66  1  0  0  0
 17 67  1  0  0  0
 17 68  1  0  0  0
 18 69  1  0  0  0
 19 70  1  0  0  0
 19 71  1  0  0  0
 21 72  1  0  0  0
 21 73  1  0  0  0
 23 74  1  0  0  0
 25 75  1  0  0  0
 27 76  1  0  0  0
 27 77  1  0  0  0
 27 78  1  0  0  0
 29 79  1  0  0  0
 30 80  1  0  0  0
 34 81  1  0  0  0
 36 82  1  0  0  0
 36 83  1  0  0  0
 42 84  1  0  0  0
 43 85  1  0  0  0
 46 86  1  0  0  0
 46 87  1  0  0  0
 46 88  1  0  0  0
 47 89  1  0  0  0
 48 90  1  0  0  0
M  END
$$$$
