4xek_ligand
  -I-interpret- 

225224  0  0  0  0  0  0  0  0999 V2000
  -35.8600   -3.7170    5.8230 N   0  3  0  0  0
  -34.5960   -3.6390    5.1040 C   0  0  0  0  0
  -34.3250   -4.8960    4.2680 C   0  0  0  0  0
  -34.3530   -6.0100    4.7890 O   0  0  0  0  0
  -33.4630   -3.4110    6.1070 C   0  0  0  0  0
  -32.1980   -2.8860    5.5120 C   0  0  0  0  0
  -31.2440   -2.4360    6.6140 C   0  0  0  0  0
  -30.5020   -1.1830    6.2050 C   0  0  0  0  0
  -29.6120   -0.6720    7.2850 N   0  3  0  0  0
  -34.0550   -4.7240    2.9750 N   0  0  0  0  0
  -33.6610   -5.8530    2.1370 C   0  0  0  0  0
  -32.1780   -6.1780    2.2880 C   0  0  0  0  0
  -31.3890   -5.3640    2.7750 O   0  0  0  0  0
  -33.9190   -5.5960    0.6420 C   0  0  0  0  0
  -32.9640   -4.6400    0.1610 O   0  0  0  0  0
  -35.3410   -5.0940    0.4010 C   0  0  0  0  0
  -31.8030   -7.3670    1.8400 N   0  0  0  0  0
  -30.4110   -7.8050    1.8720 C   0  0  0  0  0
  -29.4830   -6.8540    1.1040 C   0  0  0  0  0
  -28.3960   -6.4860    1.5850 O   0  0  0  0  0
  -30.3040   -9.2110    1.2940 C   0  0  0  0  0
  -28.9570   -9.6320    1.2010 O   0  0  0  0  0
  -29.9150   -6.4470   -0.0840 N   0  0  0  0  0
  -29.1110   -5.5280   -0.9000 C   0  0  0  0  0
  -28.8920   -4.2010   -0.1810 C   0  0  0  0  0
  -27.7860   -3.6620   -0.1830 O   0  0  0  0  0
  -29.7740   -5.2920   -2.2510 C   0  0  0  0  0
  -29.9400   -3.6800    0.4490 N   0  0  0  0  0
  -29.8370   -2.4060    1.1490 C   0  0  0  0  0
  -28.8970   -2.4970    2.3620 C   0  0  0  0  0
  -28.1060   -1.5860    2.6290 O   0  0  0  0  0
  -31.2110   -1.9300    1.5780 C   0  0  0  0  0
  -28.9740   -3.6130    3.0810 N   0  0  0  0  0
  -28.1170   -3.8300    4.2540 C   0  0  0  0  0
  -26.6480   -3.9710    3.8680 C   0  0  0  0  0
  -25.7580   -3.3920    4.5080 O   0  0  0  0  0
  -28.5840   -5.0640    5.0190 C   0  0  0  0  0
  -26.3980   -4.7560    2.8270 N   0  0  0  0  0
  -25.0540   -4.9320    2.2760 C   0  0  0  0  0
  -24.4290   -3.5910    1.8750 C   0  0  0  0  0
  -23.2440   -3.3370    2.1250 O   0  0  0  0  0
  -25.1170   -5.8860    1.0760 C   0  0  0  0  0
  -23.8090   -6.1240    0.3420 C   0  0  0  0  0
  -24.0130   -6.8610   -0.9780 C   0  0  0  0  0
  -25.1200   -6.8940   -1.5290 O   0  0  0  0  0
  -22.9440   -7.4600   -1.4870 N   0  0  0  0  0
  -25.2320   -2.7300    1.2600 N   0  0  0  0  0
  -24.7620   -1.4180    0.8230 C   0  0  0  0  0
  -24.4990   -0.4820    2.0050 C   0  0  0  0  0
  -23.5380    0.2920    1.9990 O   0  0  0  0  0
  -25.7720   -0.7810   -0.1370 C   0  0  0  0  0
  -25.3960    0.5880   -0.7000 C   0  0  0  0  0
  -23.9850    0.5330   -1.2270 C   0  0  0  0  0
  -26.3330    0.9510   -1.8310 C   0  0  0  0  0
  -25.3530   -0.5400    3.0210 N   0  0  0  0  0
  -25.1630    0.3320    4.1720 C   0  0  0  0  0
  -23.8860   -0.0380    4.9200 C   0  0  0  0  0
  -23.2660    0.8160    5.5510 O   0  0  0  0  0
  -26.3730    0.2840    5.1020 C   0  0  0  0  0
  -27.4950    1.1880    4.6310 C   0  0  0  0  0
  -27.2350    2.0670    3.7820 O   0  0  0  0  0
  -28.6330    1.0270    5.1080 O   0  0  0  0  0
  -23.4980   -1.3080    4.8290 N   0  0  0  0  0
  -22.2540   -1.7870    5.4190 C   0  0  0  0  0
  -21.0590   -1.2090    4.6680 C   0  0  0  0  0
  -20.0110   -0.9320    5.2590 O   0  0  0  0  0
  -22.1990   -3.3160    5.4010 C   0  0  0  0  0
  -21.2230   -1.0220    3.3620 N   0  0  0  0  0
  -20.1650   -0.4460    2.5360 C   0  0  0  0  0
  -20.0260    1.0530    2.7730 C   0  0  0  0  0
  -18.9170    1.5710    2.8910 O   0  0  0  0  0
  -20.4310   -0.7240    1.0530 C   0  0  0  0  0
  -20.2820   -2.1840    0.6360 C   0  0  0  0  0
  -20.7130   -2.3720   -0.8100 C   0  0  0  0  0
  -18.8350   -2.6390    0.8240 C   0  0  0  0  0
  -21.1580    1.7440    2.8530 N   0  0  0  0  0
  -21.1730    3.1830    3.0950 C   0  0  0  0  0
  -20.6920    3.5250    4.5100 C   0  0  0  0  0
  -20.2900    4.6600    4.7870 O   0  0  0  0  0
  -22.5750    3.7360    2.8610 C   0  0  0  0  0
  -23.0610    3.5290    1.4370 C   0  0  0  0  0
  -21.8490    4.1710    0.2650 S   0  0  0  0  0
  -22.0670    5.9290    0.4930 C   0  0  0  0  0
  -20.7440    2.5390    5.4010 N   0  0  0  0  0
  -20.2610    2.7120    6.7640 C   0  0  0  0  0
  -18.7390    2.7660    6.7740 C   0  0  0  0  0
  -18.1400    3.4600    7.5940 O   0  0  0  0  0
  -20.7660    1.5890    7.6610 C   0  0  0  0  0
  -18.1250    2.0370    5.8450 N   0  0  0  0  0
  -16.6720    2.0000    5.7070 C   0  0  0  0  0
  -16.1120    3.3020    5.1330 C   0  0  0  0  0
  -14.9020    3.5250    5.1520 O   0  0  0  0  0
  -16.2520    0.8210    4.8240 C   0  0  0  0  0
  -16.9930    4.1540    4.6180 N   0  0  0  0  0
  -16.5810    5.4510    4.0920 C   0  0  0  0  0
  -16.7460    6.5430    5.1460 C   0  0  0  0  0
  -15.8820    7.4080    5.2960 O   0  0  0  0  0
  -17.3800    5.8090    2.8340 C   0  0  0  0  0
  -17.1800    4.9310    1.5950 C   0  0  0  0  0
  -18.0830    5.3870    0.4530 C   0  0  0  0  0
  -15.7270    4.9410    1.1640 C   0  0  0  0  0
  -17.8570    6.4960    5.8760 N   0  0  0  0  0
  -18.1430    7.4900    6.9080 C   0  0  0  0  0
  -17.1690    7.3710    8.0760 C   0  0  0  0  0
  -16.4400    8.3140    8.3870 O   0  0  0  0  0
  -19.5870    7.3570    7.4380 C   0  0  0  0  0
  -17.0930    6.3300    8.7300 O   0  0  0  0  0
  -36.6189   -3.8690    5.1586 H   0  0  0  0  0
  -35.8259   -4.4921    6.4852 H   0  0  0  0  0
  -36.0175   -2.8443    6.3270 H   0  0  0  0  0
  -34.6527   -2.8031    4.4067 H   0  0  0  0  0
  -33.2283   -4.3807    6.5459 H   0  0  0  0  0
  -33.8141   -2.6621    6.8169 H   0  0  0  0  0
  -32.4311   -2.0346    4.8725 H   0  0  0  0  0
  -31.7232   -3.6757    4.9297 H   0  0  0  0  0
  -30.5192   -3.2294    6.7965 H   0  0  0  0  0
  -31.8218   -2.2240    7.5136 H   0  0  0  0  0
  -31.2394   -0.4118    5.9826 H   0  0  0  0  0
  -29.8810   -1.4251    5.3426 H   0  0  0  0  0
  -29.1361    0.1702    6.9617 H   0  0  0  0  0
  -30.1712   -0.4527    8.1094 H   0  0  0  0  0
  -28.9216   -1.3849    7.5207 H   0  0  0  0  0
  -34.1243   -3.7924    2.5654 H   0  0  0  0  0
  -34.2739   -6.6868    2.4795 H   0  0  0  0  0
  -33.8083   -6.5350    0.0996 H   0  0  0  0  0
  -33.1198   -4.4753   -0.7718 H   0  0  0  0  0
  -36.0530   -5.8407    0.7524 H   0  0  0  0  0
  -35.4927   -4.1614    0.9444 H   0  0  0  0  0
  -35.4887   -4.9228   -0.6653 H   0  0  0  0  0
  -32.5099   -7.9968    1.4604 H   0  0  0  0  0
  -30.0890   -7.8017    2.9134 H   0  0  0  0  0
  -30.7342   -9.2063    0.2925 H   0  0  0  0  0
  -30.8354   -9.8969    1.9538 H   0  0  0  0  0
  -28.9246  -10.5186    0.8344 H   0  0  0  0  0
  -30.8149   -6.7762   -0.4335 H   0  0  0  0  0
  -28.1378   -5.9911   -1.0626 H   0  0  0  0  0
  -29.8702   -6.2414   -2.7778 H   0  0  0  0  0
  -30.7621   -4.8579   -2.0985 H   0  0  0  0  0
  -29.1624   -4.6085   -2.8400 H   0  0  0  0  0
  -30.8294   -4.1792    0.4424 H   0  0  0  0  0
  -29.4092   -1.6810    0.4565 H   0  0  0  0  0
  -31.8415   -1.8036    0.6979 H   0  0  0  0  0
  -31.6582   -2.6680    2.2440 H   0  0  0  0  0
  -31.1177   -0.9774    2.0995 H   0  0  0  0  0
  -29.6431   -4.3344    2.8120 H   0  0  0  0  0
  -28.2024   -2.9522    4.8945 H   0  0  0  0  0
  -29.6130   -4.9184    5.3476 H   0  0  0  0  0
  -28.5293   -5.9361    4.3674 H   0  0  0  0  0
  -27.9423   -5.2163    5.8868 H   0  0  0  0  0
  -27.1740   -5.2566    2.3939 H   0  0  0  0  0
  -24.4160   -5.3636    3.0472 H   0  0  0  0  0
  -25.7921   -5.4251    0.3549 H   0  0  0  0  0
  -25.4255   -6.8538    1.4714 H   0  0  0  0  0
  -23.1710   -6.7381    0.9776 H   0  0  0  0  0
  -23.3624   -5.1541    0.1228 H   0  0  0  0  0
  -23.0167   -7.9727   -2.3658 H   0  0  0  0  0
  -22.0496   -7.4077   -0.9995 H   0  0  0  0  0
  -26.2027   -2.9921    1.0884 H   0  0  0  0  0
  -23.8161   -1.5688    0.3029 H   0  0  0  0  0
  -26.6866   -0.6333    0.4373 H   0  0  0  0  0
  -25.8443   -1.4526   -0.9925 H   0  0  0  0  0
  -25.4724    1.3373    0.0879 H   0  0  0  0  0
  -23.3057    0.2698   -0.4162 H   0  0  0  0  0
  -23.9216   -0.2182   -2.0142 H   0  0  0  0  0
  -23.7109    1.5078   -1.6303 H   0  0  0  0  0
  -26.2558    0.2024   -2.6195 H   0  0  0  0  0
  -27.3564    0.9827   -1.4573 H   0  0  0  0  0
  -26.0595    1.9285   -2.2282 H   0  0  0  0  0
  -26.1373   -1.1916    2.9951 H   0  0  0  0  0
  -25.0624    1.3550    3.8096 H   0  0  0  0  0
  -26.0559    0.6234    6.0881 H   0  0  0  0  0
  -26.7471   -0.7397    5.1185 H   0  0  0  0  0
  -26.3049    2.0201    3.5490 H   0  0  0  0  0
  -24.0920   -1.9693    4.3288 H   0  0  0  0  0
  -22.2153   -1.4541    6.4562 H   0  0  0  0  0
  -23.0368   -3.7152    5.9726 H   0  0  0  0  0
  -22.2593   -3.6684    4.3713 H   0  0  0  0  0
  -21.2618   -3.6498    5.8463 H   0  0  0  0  0
  -22.1070   -1.2866    2.9273 H   0  0  0  0  0
  -19.2266   -0.9204    2.8232 H   0  0  0  0  0
  -19.6906   -0.1575    0.4881 H   0  0  0  0  0
  -21.4670   -0.4452    0.8607 H   0  0  0  0  0
  -20.9267   -2.7945    1.2682 H   0  0  0  0  0
  -21.7568   -2.0772   -0.9179 H   0  0  0  0  0
  -20.0907   -1.7533   -1.4566 H   0  0  0  0  0
  -20.5993   -3.4197   -1.0884 H   0  0  0  0  0
  -18.1788   -2.0222    0.2099 H   0  0  0  0  0
  -18.5563   -2.5357    1.8727 H   0  0  0  0  0
  -18.7416   -3.6824    0.5230 H   0  0  0  0  0
  -22.0450    1.2529    2.7417 H   0  0  0  0  0
  -20.4810    3.6485    2.3932 H   0  0  0  0  0
  -22.5459    4.8090    3.0505 H   0  0  0  0  0
  -23.2573    3.2068    3.5262 H   0  0  0  0  0
  -24.0038    4.0590    1.3013 H   0  0  0  0  0
  -23.1993    2.4626    1.2588 H   0  0  0  0  0
  -23.0950    6.2005    0.2529 H   0  0  0  0  0
  -21.8539    6.1888    1.5299 H   0  0  0  0  0
  -21.3846    6.4668   -0.1652 H   0  0  0  0  0
  -21.1324    1.6379    5.1224 H   0  0  0  0  0
  -20.6468    3.6536    7.1548 H   0  0  0  0  0
  -21.8560    1.5948    7.6695 H   0  0  0  0  0
  -20.4094    0.6324    7.2790 H   0  0  0  0  0
  -20.3927    1.7391    8.6740 H   0  0  0  0  0
  -18.6921    1.4821    5.2040 H   0  0  0  0  0
  -16.2580    1.8750    6.7075 H   0  0  0  0  0
  -16.5908   -0.1102    5.2781 H   0  0  0  0  0
  -16.7012    0.9299    3.8369 H   0  0  0  0  0
  -15.1661    0.8072    4.7309 H   0  0  0  0  0
  -17.9792    3.8951    4.5900 H   0  0  0  0  0
  -15.5263    5.3817    3.8258 H   0  0  0  0  0
  -17.0423    6.8044    2.5456 H   0  0  0  0  0
  -18.4282    5.6930    3.1095 H   0  0  0  0  0
  -17.4548    3.9089    1.8556 H   0  0  0  0  0
  -19.1248    5.3198    0.7663 H   0  0  0  0  0
  -17.8460    6.4189    0.1939 H   0  0  0  0  0
  -17.9211    4.7469   -0.4143 H   0  0  0  0  0
  -15.4267    5.9616    0.9269 H   0  0  0  0  0
  -15.1065    4.5572    1.9738 H   0  0  0  0  0
  -15.6065    4.3113    0.2825 H   0  0  0  0  0
  -18.5277    5.7455    5.7108 H   0  0  0  0  0
  -18.0260    8.4682    6.4416 H   0  0  0  0  0
  -16.6052    9.0529    7.7968 H   0  0  0  0  0
  -20.2889    7.5004    6.6165 H   0  0  0  0  0
  -19.7253    6.3644    7.8667 H   0  0  0  0  0
  -19.7627    8.1126    8.2037 H   0  0  0  0  0
  1  2  1  0  0  0
  2  3  1  0  0  0
  2  5  1  0  0  0
  3  4  2  0  0  0
  3 10  1  0  0  0
  5  6  1  0  0  0
  6  7  1  0  0  0
  7  8  1  0  0  0
  8  9  1  0  0  0
 10 11  1  0  0  0
 11 12  1  0  0  0
 11 14  1  0  0  0
 12 13  2  0  0  0
 12 17  1  0  0  0
 14 15  1  0  0  0
 14 16  1  0  0  0
 17 18  1  0  0  0
 18 19  1  0  0  0
 18 21  1  0  0  0
 19 20  2  0  0  0
 19 23  1  0  0  0
 21 22  1  0  0  0
 23 24  1  0  0  0
 24 25  1  0  0  0
 24 27  1  0  0  0
 25 26  2  0  0  0
 25 28  1  0  0  0
 28 29  1  0  0  0
 29 30  1  0  0  0
 29 32  1  0  0  0
 30 31  2  0  0  0
 30 33  1  0  0  0
 33 34  1  0  0  0
 34 35  1  0  0  0
 34 37  1  0  0  0
 35 36  2  0  0  0
 35 38  1  0  0  0
 38 39  1  0  0  0
 39 40  1  0  0  0
 39 42  1  0  0  0
 40 41  2  0  0  0
 40 47  1  0  0  0
 42 43  1  0  0  0
 43 44  1  0  0  0
 44 45  2  0  0  0
 44 46  1  0  0  0
 47 48  1  0  0  0
 48 49  1  0  0  0
 48 51  1  0  0  0
 49 50  2  0  0  0
 49 55  1  0  0  0
 51 52  1  0  0  0
 52 53  1  0  0  0
 52 54  1  0  0  0
 55 56  1  0  0  0
 56 57  1  0  0  0
 56 59  1  0  0  0
 57 58  2  0  0  0
 57 63  1  0  0  0
 59 60  1  0  0  0
 60 61  1  0  0  0
 60 62  2  0  0  0
 63 64  1  0  0  0
 64 65  1  0  0  0
 64 67  1  0  0  0
 65 66  2  0  0  0
 65 68  1  0  0  0
 68 69  1  0  0  0
 69 70  1  0  0  0
 69 72  1  0  0  0
 70 71  2  0  0  0
 70 76  1  0  0  0
 72 73  1  0  0  0
 73 74  1  0  0  0
 73 75  1  0  0  0
 76 77  1  0  0  0
 77 78  1  0  0  0
 77 80  1  0  0  0
 78 79  2  0  0  0
 78 84  1  0  0  0
 80 81  1  0  0  0
 81 82  1  0  0  0
 82 83  1  0  0  0
 84 85  1  0  0  0
 85 86  1  0  0  0
 85 88  1  0  0  0
 86 87  2  0  0  0
 86 89  1  0  0  0
 89 90  1  0  0  0
 90 91  1  0  0  0
 90 93  1  0  0  0
 91 92  2  0  0  0
 91 94  1  0  0  0
 94 95  1  0  0  0
 95 96  1  0  0  0
 95 98  1  0  0  0
 96 97  2  0  0  0
 96102  1  0  0  0
 98 99  1  0  0  0
 99100  1  0  0  0
 99101  1  0  0  0
102103  1  0  0  0
103104  1  0  0  0
103106  1  0  0  0
104105  1  0  0  0
104107  2  0  0  0
  1108  1  0  0  0
  1109  1  0  0  0
  1110  1  0  0  0
  2111  1  0  0  0
  5112  1  0  0  0
  5113  1  0  0  0
  6114  1  0  0  0
  6115  1  0  0  0
  7116  1  0  0  0
  7117  1  0  0  0
  8118  1  0  0  0
  8119  1  0  0  0
  9120  1  0  0  0
  9121  1  0  0  0
  9122  1  0  0  0
 10123  1  0  0  0
 11124  1  0  0  0
 14125  1  0  0  0
 15126  1  0  0  0
 16127  1  0  0  0
 16128  1  0  0  0
 16129  1  0  0  0
 17130  1  0  0  0
 18131  1  0  0  0
 21132  1  0  0  0
 21133  1  0  0  0
 22134  1  0  0  0
 23135  1  0  0  0
 24136  1  0  0  0
 27137  1  0  0  0
 27138  1  0  0  0
 27139  1  0  0  0
 28140  1  0  0  0
 29141  1  0  0  0
 32142  1  0  0  0
 32143  1  0  0  0
 32144  1  0  0  0
 33145  1  0  0  0
 34146  1  0  0  0
 37147  1  0  0  0
 37148  1  0  0  0
 37149  1  0  0  0
 38150  1  0  0  0
 39151  1  0  0  0
 42152  1  0  0  0
 42153  1  0  0  0
 43154  1  0  0  0
 43155  1  0  0  0
 46156  1  0  0  0
 46157  1  0  0  0
 47158  1  0  0  0
 48159  1  0  0  0
 51160  1  0  0  0
 51161  1  0  0  0
 52162  1  0  0  0
 53163  1  0  0  0
 53164  1  0  0  0
 53165  1  0  0  0
 54166  1  0  0  0
 54167  1  0  0  0
 54168  1  0  0  0
 55169  1  0  0  0
 56170  1  0  0  0
 59171  1  0  0  0
 59172  1  0  0  0
 61173  1  0  0  0
 63174  1  0  0  0
 64175  1  0  0  0
 67176  1  0  0  0
 67177  1  0  0  0
 67178  1  0  0  0
 68179  1  0  0  0
 69180  1  0  0  0
 72181  1  0  0  0
 72182  1  0  0  0
 73183  1  0  0  0
 74184  1  0  0  0
 74185  1  0  0  0
 74186  1  0  0  0
 75187  1  0  0  0
 75188  1  0  0  0
 75189  1  0  0  0
 76190  1  0  0  0
 77191  1  0  0  0
 80192  1  0  0  0
 80193  1  0  0  0
 81194  1  0  0  0
 81195  1  0  0  0
 83196  1  0  0  0
 83197  1  0  0  0
 83198  1  0  0  0
 84199  1  0  0  0
 85200  1  0  0  0
 88201  1  0  0  0
 88202  1  0  0  0
 88203  1  0  0  0
 89204  1  0  0  0
 90205  1  0  0  0
 93206  1  0  0  0
 93207  1  0  0  0
 93208  1  0  0  0
 94209  1  0  0  0
 95210  1  0  0  0
 98211  1  0  0  0
 98212  1  0  0  0
 99213  1  0  0  0
100214  1  0  0  0
100215  1  0  0  0
100216  1  0  0  0
101217  1  0  0  0
101218  1  0  0  0
101219  1  0  0  0
102220  1  0  0  0
103221  1  0  0  0
105222  1  0  0  0
106223  1  0  0  0
106224  1  0  0  0
106225  1  0  0  0
M  END
$$$$
