### 
### Created by X-TOOL on Mon Sep 10 21:13:24 2018
### 

@<TRIPOS>MOLECULE
4xek_ligand
  223   222     1     0     0
SMALL
GAST_HUCK


@<TRIPOS>ATOM
      1 N         -35.8600   -3.7170    5.8230 N.4       1 LYS         0.2379
      2 CA        -34.5960   -3.6390    5.1040 C.3       1 LYS         0.0650
      3 C         -34.3250   -4.8960    4.2680 C.2       1 LYS         0.2268
      4 O         -34.3530   -6.0100    4.7890 O.2       1 LYS        -0.3907
      5 CB        -33.4630   -3.4110    6.1070 C.3       1 LYS         0.0080
      6 CG        -32.1980   -2.8860    5.5120 C.3       1 LYS        -0.0410
      7 CD        -31.2440   -2.4360    6.6140 C.3       1 LYS        -0.0123
      8 CE        -30.5020   -1.1830    6.2050 C.3       1 LYS        -0.0354
      9 NZ        -29.6120   -0.6720    7.2850 N.4       1 LYS         0.2185
     10 N         -34.0550   -4.7240    2.9750 N.am      1 THR        -0.2586
     11 CA        -33.6610   -5.8530    2.1370 C.3       1 THR         0.1566
     12 C         -32.1780   -6.1780    2.2880 C.2       1 THR         0.2065
     13 O         -31.3890   -5.3640    2.7750 O.2       1 THR        -0.3943
     14 CB        -33.9190   -5.5960    0.6420 C.3       1 THR         0.0924
     15 OG1       -32.9640   -4.6400    0.1610 O.3       1 THR        -0.3874
     16 CG2       -35.3410   -5.0940    0.4010 C.3       1 THR        -0.0346
     17 N         -31.8030   -7.3670    1.8400 N.am      1 SER        -0.2615
     18 CA        -30.4110   -7.8050    1.8720 C.3       1 SER         0.1539
     19 C         -29.4830   -6.8540    1.1040 C.2       1 SER         0.2062
     20 O         -28.3960   -6.4860    1.5850 O.2       1 SER        -0.3943
     21 CB        -30.3040   -9.2110    1.2940 C.3       1 SER         0.0843
     22 OG        -28.9570   -9.6320    1.2010 O.3       1 SER        -0.3903
     23 N         -29.9150   -6.4470   -0.0840 N.am      1 ALA        -0.2639
     24 CA        -29.1110   -5.5280   -0.9000 C.3       1 ALA         0.1282
     25 C         -28.8920   -4.2010   -0.1810 C.2       1 ALA         0.2036
     26 O         -27.7860   -3.6620   -0.1830 O.2       1 ALA        -0.3944
     27 CB        -29.7740   -5.2920   -2.2510 C.3       1 ALA        -0.0244
     28 N         -29.9400   -3.6800    0.4490 N.am      1 ALA        -0.2640
     29 CA        -29.8370   -2.4060    1.1490 C.3       1 ALA         0.1282
     30 C         -28.8970   -2.4970    2.3620 C.2       1 ALA         0.2036
     31 O         -28.1060   -1.5860    2.6290 O.2       1 ALA        -0.3944
     32 CB        -31.2110   -1.9300    1.5780 C.3       1 ALA        -0.0244
     33 N         -28.9740   -3.6130    3.0810 N.am      1 ALA        -0.2640
     34 CA        -28.1170   -3.8300    4.2540 C.3       1 ALA         0.1282
     35 C         -26.6480   -3.9710    3.8680 C.2       1 ALA         0.2036
     36 O         -25.7580   -3.3920    4.5080 O.2       1 ALA        -0.3944
     37 CB        -28.5840   -5.0640    5.0190 C.3       1 ALA        -0.0244
     38 N         -26.3980   -4.7560    2.8270 N.am      1 GLN        -0.2636
     39 CA        -25.0540   -4.9320    2.2760 C.3       1 GLN         0.1330
     40 C         -24.4290   -3.5910    1.8750 C.2       1 GLN         0.2040
     41 O         -23.2440   -3.3370    2.1250 O.2       1 GLN        -0.3944
     42 CB        -25.1170   -5.8860    1.0760 C.3       1 GLN         0.0045
     43 CG        -23.8090   -6.1240    0.3420 C.3       1 GLN         0.0412
     44 CD        -24.0130   -6.8610   -0.9780 C.2       1 GLN         0.1737
     45 OE1       -25.1200   -6.8940   -1.5290 O.2       1 GLN        -0.3973
     46 NE2       -22.9440   -7.4600   -1.4870 N.am      1 GLN        -0.3009
     47 N         -25.2320   -2.7300    1.2600 N.am      1 LEU        -0.2637
     48 CA        -24.7620   -1.4180    0.8230 C.3       1 LEU         0.1312
     49 C         -24.4990   -0.4820    2.0050 C.2       1 LEU         0.2040
     50 O         -23.5380    0.2920    1.9990 O.2       1 LEU        -0.3944
     51 CB        -25.7720   -0.7810   -0.1370 C.3       1 LEU        -0.0101
     52 CG        -25.3960    0.5880   -0.7000 C.3       1 LEU        -0.0425
     53 CD1       -23.9850    0.5330   -1.2270 C.3       1 LEU        -0.0625
     54 CD2       -26.3330    0.9510   -1.8310 C.3       1 LEU        -0.0625
     55 N         -25.3530   -0.5400    3.0210 N.am      1 ASP        -0.2622
     56 CA        -25.1630    0.3320    4.1720 C.3       1 ASP         0.1423
     57 C         -23.8860   -0.0380    4.9200 C.2       1 ASP         0.2056
     58 O         -23.2660    0.8160    5.5510 O.2       1 ASP        -0.3943
     59 CB        -26.3730    0.2840    5.1020 C.3       1 ASP         0.0406
     60 CG        -27.4950    1.1880    4.6310 C.2       1 ASP         0.0393
     61 OD1       -27.2350    2.0670    3.7820 O.co2     1 ASP        -0.5688
     62 OD2       -28.6330    1.0270    5.1080 O.co2     1 ASP        -0.5688
     63 N         -23.4980   -1.3080    4.8290 N.am      1 GLU        -0.2639
     64 CA        -22.2540   -1.7870    5.4190 C.3       1 GLU         0.1282
     65 C         -21.0590   -1.2090    4.6680 C.2       1 GLU         0.2036
     66 O         -20.0110   -0.9320    5.2590 O.2       1 GLU        -0.3944
     67 CB        -22.1990   -3.3160    5.4010 C.3       1 GLU        -0.0244
     68 N         -21.2230   -1.0220    3.3620 N.am      1 LEU        -0.2637
     69 CA        -20.1650   -0.4460    2.5360 C.3       1 LEU         0.1312
     70 C         -20.0260    1.0530    2.7730 C.2       1 LEU         0.2039
     71 O         -18.9170    1.5710    2.8910 O.2       1 LEU        -0.3944
     72 CB        -20.4310   -0.7240    1.0530 C.3       1 LEU        -0.0101
     73 CG        -20.2820   -2.1840    0.6360 C.3       1 LEU        -0.0425
     74 CD1       -20.7130   -2.3720   -0.8100 C.3       1 LEU        -0.0625
     75 CD2       -18.8350   -2.6390    0.8240 C.3       1 LEU        -0.0625
     76 N         -21.1580    1.7440    2.8530 N.am      1 MET        -0.2637
     77 CA        -21.1730    3.1830    3.0950 C.3       1 MET         0.1317
     78 C         -20.6920    3.5250    4.5100 C.2       1 MET         0.2039
     79 O         -20.2900    4.6600    4.7870 O.2       1 MET        -0.3944
     80 CB        -22.5750    3.7360    2.8610 C.3       1 MET        -0.0034
     81 CG        -23.0610    3.5290    1.4370 C.3       1 MET        -0.0024
     82 SD        -21.8490    4.1710    0.2650 S.3       1 MET        -0.1639
     83 CE        -22.0670    5.9290    0.4930 C.3       1 MET        -0.0181
     84 N         -20.7440    2.5390    5.4010 N.am      1 ALA        -0.2640
     85 CA        -20.2610    2.7120    6.7640 C.3       1 ALA         0.1282
     86 C         -18.7390    2.7660    6.7740 C.2       1 ALA         0.2036
     87 O         -18.1400    3.4600    7.5940 O.2       1 ALA        -0.3944
     88 CB        -20.7660    1.5890    7.6610 C.3       1 ALA        -0.0244
     89 N         -18.1250    2.0370    5.8450 N.am      1 HIS        -0.2640
     90 CA        -16.6720    2.0000    5.7070 C.3       1 HIS         0.1282
     91 C         -16.1120    3.3020    5.1330 C.2       1 HIS         0.2036
     92 O         -14.9020    3.5250    5.1520 O.2       1 HIS        -0.3944
     93 CB        -16.2520    0.8210    4.8240 C.3       1 HIS        -0.0244
     94 N         -16.9930    4.1540    4.6180 N.am      1 LEU        -0.2637
     95 CA        -16.5810    5.4510    4.0920 C.3       1 LEU         0.1312
     96 C         -16.7460    6.5430    5.1460 C.2       1 LEU         0.2033
     97 O         -15.8820    7.4080    5.2960 O.2       1 LEU        -0.3944
     98 CB        -17.3800    5.8090    2.8340 C.3       1 LEU        -0.0101
     99 CG        -17.1800    4.9310    1.5950 C.3       1 LEU        -0.0425
    100 CD1       -18.0830    5.3870    0.4530 C.3       1 LEU        -0.0625
    101 CD2       -15.7270    4.9410    1.1640 C.3       1 LEU        -0.0625
    102 N         -17.8570    6.4960    5.8760 N.am      1 THR        -0.2698
    103 CA        -18.1430    7.4900    6.9080 C.3       1 THR         0.0916
    104 C         -17.1690    7.3710    8.0760 C.2       1 THR         0.0598
    105 O         -16.4400    8.3140    8.3870 O.co2     1 THR        -0.5666
    106 CB        -19.5870    7.3570    7.4380 C.3       1 THR        -0.0300
    107 OXT       -17.0930    6.3300    8.7300 O.co2     1 THR        -0.5666
    108 H1        -35.9956   -2.8727    6.3566 H         1 LYS         0.2015
    109 H2        -35.8439   -4.5092    6.4460 H         1 LYS         0.2015
    110 H3        -36.6154   -3.8230    5.1641 H         1 LYS         0.2015
    111 H4        -34.6398   -2.7782    4.4206 H         1 LYS         0.1098
    112 H5        -33.2392   -4.3711    6.5950 H         1 LYS         0.0346
    113 H6        -33.8124   -2.6895    6.8602 H         1 LYS         0.0346
    114 H7        -32.4305   -2.0303    4.8610 H         1 LYS         0.0270
    115 H8        -31.7193   -3.6788    4.9185 H         1 LYS         0.0270
    116 H9        -30.5167   -3.2375    6.8107 H         1 LYS         0.0317
    117 H10       -31.8203   -2.2313    7.5283 H         1 LYS         0.0317
    118 H11       -31.2364   -0.4035    5.9541 H         1 LYS         0.0813
    119 H12       -29.8895   -1.4083    5.3196 H         1 LYS         0.0813
    120 H13       -29.1411    0.1604    6.9665 H         1 LYS         0.1994
    121 H14       -28.9292   -1.3757    7.5188 H         1 LYS         0.1994
    122 H15       -30.1635   -0.4549    8.1003 H         1 LYS         0.1994
    123 H16       -34.1229   -3.8107    2.5734 H         1 THR         0.1885
    124 H17       -34.2504   -6.7270    2.4513 H         1 THR         0.0826
    125 H18       -33.7857   -6.5401    0.0935 H         1 THR         0.0639
    126 H19       -33.0573   -3.8290    0.6468 H         1 THR         0.2101
    127 H20       -35.4913   -4.9209   -0.6748 H         1 THR         0.0257
    128 H21       -35.4954   -4.1528    0.9489 H         1 THR         0.0257
    129 H22       -36.0606   -5.8468    0.7552 H         1 THR         0.0257
    130 H23       -32.4960   -7.9844    1.4679 H         1 SER         0.1884
    131 H24       -30.0830   -7.8299    2.9217 H         1 SER         0.0823
    132 H25       -30.7513   -9.2194    0.2891 H         1 SER         0.0606
    133 H26       -30.8521   -9.9078    1.9451 H         1 SER         0.0606
    134 H27       -28.9250  -10.5094    0.8382 H         1 SER         0.2097
    135 H28       -30.7973   -6.7698   -0.4266 H         1 ALA         0.1883
    136 H29       -28.1288   -5.9923   -1.0726 H         1 ALA         0.0797
    137 H30       -29.1577   -4.6023   -2.8464 H         1 ALA         0.0277
    138 H31       -30.7713   -4.8538   -2.0985 H         1 ALA         0.0277
    139 H32       -29.8717   -6.2494   -2.7838 H         1 ALA         0.0277
    140 H33       -30.8120   -4.1695    0.4425 H         1 ALA         0.1883
    141 H34       -29.4187   -1.6667    0.4501 H         1 ALA         0.0797
    142 H35       -31.1181   -0.9686    2.1044 H         1 ALA         0.0277
    143 H36       -31.6634   -2.6739    2.2502 H         1 ALA         0.0277
    144 H37       -31.8483   -1.8020    0.6906 H         1 ALA         0.0277
    145 H38       -29.6299   -4.3202    2.8172 H         1 ALA         0.1883
    146 H39       -28.2131   -2.9552    4.9138 H         1 ALA         0.0797
    147 H40       -27.9371   -5.2188    5.8951 H         1 ALA         0.0277
    148 H41       -28.5292   -5.9449    4.3625 H         1 ALA         0.0277
    149 H42       -29.6225   -4.9183    5.3512 H         1 ALA         0.0277
    150 H43       -27.1588   -5.2468    2.4024 H         1 GLN         0.1883
    151 H44       -24.4187   -5.3866    3.0504 H         1 GLN         0.0801
    152 H45       -25.8365   -5.4715    0.3546 H         1 GLN         0.0337
    153 H46       -25.4805   -6.8587    1.4388 H         1 GLN         0.0337
    154 H47       -23.1471   -6.7240    0.9837 H         1 GLN         0.0504
    155 H48       -23.3371   -5.1521    0.1354 H         1 GLN         0.0504
    156 H49       -23.0144   -7.9594   -2.3505 H         1 GLN         0.1814
    157 H50       -22.0680   -7.4120   -1.0071 H         1 GLN         0.1814
    158 H51       -26.1837   -2.9869    1.0917 H         1 LEU         0.1883
    159 H52       -23.8139   -1.5598    0.2835 H         1 LEU         0.0800
    160 H53       -26.7247   -0.6721    0.4019 H         1 LEU         0.0315
    161 H54       -25.9072   -1.4674   -0.9859 H         1 LEU         0.0315
    162 H55       -25.4663    1.3455    0.0945 H         1 LEU         0.0298
    163 H56       -23.7072    1.5163   -1.6344 H         1 LEU         0.0232
    164 H57       -23.9196   -0.2248   -2.0216 H         1 LEU         0.0232
    165 H58       -23.2984    0.2675   -0.4097 H         1 LEU         0.0232
    166 H59       -27.3651    0.9929   -1.4529 H         1 LEU         0.0232
    167 H60       -26.2633    0.1910   -2.6232 H         1 LEU         0.0232
    168 H61       -26.0520    1.9330   -2.2392 H         1 LEU         0.0232
    169 H62       -26.1220   -1.1788    2.9956 H         1 ASP         0.1884
    170 H63       -25.0572    1.3635    3.8048 H         1 ASP         0.0819
    171 H64       -26.0599    0.6028    6.1071 H         1 ASP         0.0478
    172 H65       -26.7458   -0.7500    5.1448 H         1 ASP         0.0478
    173 H66       -24.0804   -1.9564    4.3386 H         1 GLU         0.1883
    174 H67       -22.2097   -1.4480    6.4645 H         1 GLU         0.0797
    175 H68       -21.2535   -3.6542    5.8502 H         1 GLU         0.0277
    176 H69       -22.2598   -3.6729    4.3623 H         1 GLU         0.0277
    177 H70       -23.0441   -3.7201    5.9776 H         1 GLU         0.0277
    178 H71       -22.0897   -1.2814    2.9358 H         1 LEU         0.1883
    179 H72       -19.2152   -0.9264    2.8134 H         1 LEU         0.0800
    180 H73       -19.7229   -0.1257    0.4609 H         1 LEU         0.0315
    181 H74       -21.4593   -0.4069    0.8250 H         1 LEU         0.0315
    182 H75       -20.9299   -2.7999    1.2770 H         1 LEU         0.0298
    183 H76       -20.5987   -3.4290   -1.0922 H         1 LEU         0.0232
    184 H77       -20.0857   -1.7482   -1.4637 H         1 LEU         0.0232
    185 H78       -21.7664   -2.0749   -0.9203 H         1 LEU         0.0232
    186 H79       -18.5393   -2.4965    1.8739 H         1 LEU         0.0232
    187 H80       -18.1763   -2.0447    0.1737 H         1 LEU         0.0232
    188 H81       -18.7480   -3.7032    0.5598 H         1 LEU         0.0232
    189 H82       -22.0276    1.2625    2.7439 H         1 MET         0.1883
    190 H83       -20.4879    3.6584    2.3776 H         1 MET         0.0800
    191 H84       -22.5674    4.8147    3.0761 H         1 MET         0.0320
    192 H85       -23.2709    3.2303    3.5465 H         1 MET         0.0320
    193 H86       -24.0156    4.0576    1.2985 H         1 MET         0.0378
    194 H87       -23.2075    2.4540    1.2558 H         1 MET         0.0378
    195 H88       -21.3789    6.4729   -0.1708 H         1 MET         0.0340
    196 H89       -21.8522    6.1925    1.5391 H         1 MET         0.0340
    197 H90       -23.1041    6.2043    0.2510 H         1 MET         0.0340
    198 H91       -21.1248    1.6556    5.1279 H         1 ALA         0.1883
    199 H92       -20.6468    3.6660    7.1527 H         1 ALA         0.0797
    200 H93       -20.3899    1.7394    8.6837 H         1 ALA         0.0277
    201 H94       -20.4068    0.6230    7.2766 H         1 ALA         0.0277
    202 H95       -21.8659    1.5938    7.6705 H         1 ALA         0.0277
    203 H96       -18.6810    1.4930    5.2166 H         1 HIS         0.1883
    204 H97       -16.2401    1.8556    6.7083 H         1 HIS         0.0797
    205 H98       -15.1562    0.8060    4.7292 H         1 HIS         0.0277
    206 H99       -16.7047    0.9297    3.8274 H         1 HIS         0.0277
    207 H100      -16.5934   -0.1194    5.2812 H         1 HIS         0.0277
    208 H101      -17.9599    3.9002    4.5905 H         1 LEU         0.1883
    209 H102      -15.5168    5.3894    3.8206 H         1 LEU         0.0800
    210 H103      -17.1113    6.8385    2.5550 H         1 LEU         0.0315
    211 H104      -18.4469    5.7673    3.0984 H         1 LEU         0.0315
    212 H105      -17.4540    3.8986    1.8578 H         1 LEU         0.0298
    213 H106      -17.9205    4.7417   -0.4229 H         1 LEU         0.0232
    214 H107      -17.8447    6.4283    0.1905 H         1 LEU         0.0232
    215 H108      -19.1348    5.3197    0.7679 H         1 LEU         0.0232
    216 H109      -15.0942    4.6096    2.0005 H         1 LEU         0.0232
    217 H110      -15.4393    5.9606    0.8682 H         1 LEU         0.0232
    218 H111      -15.5929    4.2600    0.3106 H         1 LEU         0.0232
    219 H112      -18.5145    5.7602    5.7140 H         1 THR         0.1875
    220 H113      -18.0284    8.4878    6.4594 H         1 THR         0.0723
    221 H114      -19.7655    8.1191    8.2109 H         1 THR         0.0270
    222 H115      -19.7279    6.3557    7.8710 H         1 THR         0.0270
    223 H116      -20.2964    7.5015    6.6098 H         1 THR         0.0270
@<TRIPOS>BOND
     1    1    2 1  
     2    2    3 1  
     3    2    5 1  
     4    3    4 2  
     5    3   10 am 
     6    5    6 1  
     7    6    7 1  
     8    7    8 1  
     9    8    9 1  
    10   10   11 1  
    11   11   12 1  
    12   11   14 1  
    13   12   13 2  
    14   12   17 am 
    15   14   15 1  
    16   14   16 1  
    17   17   18 1  
    18   18   19 1  
    19   18   21 1  
    20   19   20 2  
    21   19   23 am 
    22   21   22 1  
    23   23   24 1  
    24   24   25 1  
    25   24   27 1  
    26   25   26 2  
    27   25   28 am 
    28   28   29 1  
    29   29   30 1  
    30   29   32 1  
    31   30   31 2  
    32   30   33 am 
    33   33   34 1  
    34   34   35 1  
    35   34   37 1  
    36   35   36 2  
    37   35   38 am 
    38   38   39 1  
    39   39   40 1  
    40   39   42 1  
    41   40   41 2  
    42   40   47 am 
    43   42   43 1  
    44   43   44 1  
    45   44   45 2  
    46   44   46 am 
    47   47   48 1  
    48   48   49 1  
    49   48   51 1  
    50   49   50 2  
    51   49   55 am 
    52   51   52 1  
    53   52   53 1  
    54   52   54 1  
    55   55   56 1  
    56   56   57 1  
    57   56   59 1  
    58   57   58 2  
    59   57   63 am 
    60   59   60 1  
    61   60   61 ar 
    62   60   62 ar 
    63   63   64 1  
    64   64   65 1  
    65   64   67 1  
    66   65   66 2  
    67   65   68 am 
    68   68   69 1  
    69   69   70 1  
    70   69   72 1  
    71   70   71 2  
    72   70   76 am 
    73   72   73 1  
    74   73   74 1  
    75   73   75 1  
    76   76   77 1  
    77   77   78 1  
    78   77   80 1  
    79   78   79 2  
    80   78   84 am 
    81   80   81 1  
    82   81   82 1  
    83   82   83 1  
    84   84   85 1  
    85   85   86 1  
    86   85   88 1  
    87   86   87 2  
    88   86   89 am 
    89   89   90 1  
    90   90   91 1  
    91   90   93 1  
    92   91   92 2  
    93   91   94 am 
    94   94   95 1  
    95   95   96 1  
    96   95   98 1  
    97   96   97 2  
    98   96  102 am 
    99   98   99 1  
   100   99  100 1  
   101   99  101 1  
   102  102  103 1  
   103  103  104 1  
   104  103  106 1  
   105  104  105 ar 
   106  104  107 ar 
   107    1  108 1  
   108    1  109 1  
   109    1  110 1  
   110    2  111 1  
   111    5  112 1  
   112    5  113 1  
   113    6  114 1  
   114    6  115 1  
   115    7  116 1  
   116    7  117 1  
   117    8  118 1  
   118    8  119 1  
   119    9  120 1  
   120    9  121 1  
   121    9  122 1  
   122   10  123 1  
   123   11  124 1  
   124   14  125 1  
   125   15  126 1  
   126   16  127 1  
   127   16  128 1  
   128   16  129 1  
   129   17  130 1  
   130   18  131 1  
   131   21  132 1  
   132   21  133 1  
   133   22  134 1  
   134   23  135 1  
   135   24  136 1  
   136   27  137 1  
   137   27  138 1  
   138   27  139 1  
   139   28  140 1  
   140   29  141 1  
   141   32  142 1  
   142   32  143 1  
   143   32  144 1  
   144   33  145 1  
   145   34  146 1  
   146   37  147 1  
   147   37  148 1  
   148   37  149 1  
   149   38  150 1  
   150   39  151 1  
   151   42  152 1  
   152   42  153 1  
   153   43  154 1  
   154   43  155 1  
   155   46  156 1  
   156   46  157 1  
   157   47  158 1  
   158   48  159 1  
   159   51  160 1  
   160   51  161 1  
   161   52  162 1  
   162   53  163 1  
   163   53  164 1  
   164   53  165 1  
   165   54  166 1  
   166   54  167 1  
   167   54  168 1  
   168   55  169 1  
   169   56  170 1  
   170   59  171 1  
   171   59  172 1  
   172   63  173 1  
   173   64  174 1  
   174   67  175 1  
   175   67  176 1  
   176   67  177 1  
   177   68  178 1  
   178   69  179 1  
   179   72  180 1  
   180   72  181 1  
   181   73  182 1  
   182   74  183 1  
   183   74  184 1  
   184   74  185 1  
   185   75  186 1  
   186   75  187 1  
   187   75  188 1  
   188   76  189 1  
   189   77  190 1  
   190   80  191 1  
   191   80  192 1  
   192   81  193 1  
   193   81  194 1  
   194   83  195 1  
   195   83  196 1  
   196   83  197 1  
   197   84  198 1  
   198   85  199 1  
   199   88  200 1  
   200   88  201 1  
   201   88  202 1  
   202   89  203 1  
   203   90  204 1  
   204   93  205 1  
   205   93  206 1  
   206   93  207 1  
   207   94  208 1  
   208   95  209 1  
   209   98  210 1  
   210   98  211 1  
   211   99  212 1  
   212  100  213 1  
   213  100  214 1  
   214  100  215 1  
   215  101  216 1  
   216  101  217 1  
   217  101  218 1  
   218  102  219 1  
   219  103  220 1  
   220  106  221 1  
   221  106  222 1  
   222  106  223 1  
@<TRIPOS>SUBSTRUCTURE
     1 LYS         1

