1wbw_ligand
  -I-interpret- 

 33 35  0  0  0  0  0  0  0  0999 V2000
   23.3150   33.7280   30.2180 C   0  0  0  0  0
   22.5070   32.7670   30.8230 C   0  0  0  0  0
   21.5170   33.1940   31.7160 C   0  0  0  0  0
   21.3980   34.5600   31.9810 C   0  0  0  0  0
   23.1410   35.0690   30.5420 C   0  0  0  0  0
   20.6890   32.3100   32.3530 O   0  0  0  0  0
   20.4400   34.9940   32.8810 N   0  0  0  0  0
   17.7400   32.4630   30.9130 C   0  0  0  0  0
   17.7700   31.3370   31.7630 C   0  0  0  0  0
   16.5410   30.8490   32.3440 C   0  0  0  0  0
   15.3390   31.5100   32.0470 C   0  0  0  0  0
   15.3860   32.5830   31.2150 C   0  0  0  0  0
   16.5610   33.0590   30.6550 C   0  0  0  0  0
   18.9960   30.6800   32.0600 C   0  0  0  0  0
   18.9830   29.5920   32.9000 C   0  0  0  0  0
   17.7840   29.1280   33.4630 C   0  0  0  0  0
   16.5740   29.7330   33.2020 C   0  0  0  0  0
   22.2070   35.4430   31.4040 N   0  0  0  0  0
   20.2950   31.2140   31.4840 C   0  0  0  0  0
   24.0767   33.4310   29.4971 H   0  0  0  0  0
   22.6427   31.7075   30.6059 H   0  0  0  0  0
   23.7808   35.8216   30.0812 H   0  0  0  0  0
   19.8306   34.3186   33.3424 H   0  0  0  0  0
   20.3435   35.9892   33.0828 H   0  0  0  0  0
   18.6600   32.8453   30.4709 H   0  0  0  0  0
   14.3940   31.1718   32.4721 H   0  0  0  0  0
   14.4537   33.0947   30.9761 H   0  0  0  0  0
   16.5300   33.9274   29.9970 H   0  0  0  0  0
   19.9179   29.0820   33.1323 H   0  0  0  0  0
   17.8109   28.2635   34.1263 H   0  0  0  0  0
   15.6568   29.3537   33.6526 H   0  0  0  0  0
   21.0617   30.4401   31.4476 H   0  0  0  0  0
   20.1655   31.5493   30.4550 H   0  0  0  0  0
  2  1  4  0  0  0
  1  5  4  0  0  0
  3  2  4  0  0  0
  3  4  4  0  0  0
  6  3  1  0  0  0
  4  7  1  0  0  0
  4 18  4  0  0  0
 18  5  4  0  0  0
 19  6  1  0  0  0
  9  8  4  0  0  0
  8 13  4  0  0  0
  9 10  4  0  0  0
 14  9  4  0  0  0
 10 11  4  0  0  0
 10 17  4  0  0  0
 11 12  4  0  0  0
 13 12  4  0  0  0
 14 15  4  0  0  0
 14 19  1  0  0  0
 15 16  4  0  0  0
 16 17  4  0  0  0
  1 20  1  0  0  0
  2 21  1  0  0  0
  5 22  1  0  0  0
  7 23  1  0  0  0
  7 24  1  0  0  0
  8 25  1  0  0  0
 11 26  1  0  0  0
 12 27  1  0  0  0
 13 28  1  0  0  0
 15 29  1  0  0  0
 16 30  1  0  0  0
 17 31  1  0  0  0
 19 32  1  0  0  0
 19 33  1  0  0  0
M  END
$$$$
