5ea7_ligand
  -I-interpret- 

 51 55  0  0  0  0  0  0  0  0999 V2000
   16.6060   21.7640   21.8010 C   0  0  0  0  0
   21.4770   20.6180   19.6330 C   0  0  0  0  0
   22.8060   22.4180   19.5840 C   0  0  0  0  0
   23.7070   24.0680   17.4940 C   0  0  0  0  0
   22.8610   22.9800   17.2230 C   0  0  0  0  0
   22.4050   22.1440   18.2890 C   0  0  0  0  0
   20.9510   20.4050   17.1780 C   0  0  0  0  0
   18.8290   20.2150   15.7570 C   0  0  0  0  0
   15.1650   17.5880   20.5270 C   0  0  0  0  0
   15.0340   18.1620   19.1310 C   0  0  0  0  0
   15.6710   18.9920   20.2340 C   0  0  0  0  0
   17.0040   19.4970   20.4490 N   0  0  0  0  0
   17.3490   20.7160   21.1420 C   0  0  0  0  0
   18.7520   20.8450   21.1320 C   0  0  0  0  0
   19.3550   21.9710   21.7550 C   0  0  0  0  0
   18.6150   22.9080   22.3480 N   0  0  0  0  0
   17.2790   22.8400   22.3890 C   0  0  0  0  0
   19.2950   19.7060   20.4280 N   0  0  0  0  0
   18.2110   18.8830   20.0180 C   0  0  0  0  0
   18.3040   17.8360   19.4020 O   0  0  0  0  0
   20.6860   19.4110   20.1770 C   0  0  0  0  0
   22.2170   21.4520   20.3980 N   0  0  0  0  0
   23.6690   23.5270   19.8560 C   0  0  0  0  0
   24.1130   24.3470   18.8100 C   0  0  0  0  0
   21.5760   21.0260   18.3340 N   0  0  0  0  0
   19.4180   20.5520   17.1410 C   0  0  0  0  0
   17.2970   20.1200   15.7700 C   0  0  0  0  0
   16.8340   20.0820   14.4310 O   0  0  0  0  0
   15.5177   21.7165   21.8404 H   0  0  0  0  0
   24.0515   24.7013   16.6765 H   0  0  0  0  0
   22.5518   22.7729   16.1985 H   0  0  0  0  0
   21.1728   19.3388   17.2240 H   0  0  0  0  0
   21.3452   20.9015   16.2913 H   0  0  0  0  0
   19.2212   19.2440   15.4546 H   0  0  0  0  0
   19.1081   21.0151   15.0715 H   0  0  0  0  0
   15.5204   16.6749   21.0045 H   0  0  0  0  0
   14.5412   17.0819   21.2638 H   0  0  0  0  0
   14.2686   18.2746   18.3631 H   0  0  0  0  0
   15.2484   17.8673   18.1037 H   0  0  0  0  0
   15.5133   20.0122   20.5839 H   0  0  0  0  0
   20.4405   22.0702   21.7479 H   0  0  0  0  0
   16.7117   23.6283   22.8838 H   0  0  0  0  0
   21.1378   19.1216   21.1258 H   0  0  0  0  0
   20.7252   18.6246   19.4232 H   0  0  0  0  0
   23.9817   23.7343   20.8794 H   0  0  0  0  0
   24.7677   25.1940   19.0154 H   0  0  0  0  0
   19.1730   21.5895   17.3684 H   0  0  0  0  0
   18.9948   19.8568   17.8661 H   0  0  0  0  0
   16.8763   20.9846   16.2834 H   0  0  0  0  0
   16.9860   19.2172   16.2956 H   0  0  0  0  0
   15.8759   20.0225   14.4265 H   0  0  0  0  0
 13  1  4  0  0  0
  1 17  4  0  0  0
 21  2  1  0  0  0
  2 22  4  0  0  0
  2 25  4  0  0  0
  6  3  4  0  0  0
 22  3  4  0  0  0
  3 23  4  0  0  0
  5  4  4  0  0  0
  4 24  4  0  0  0
  6  5  4  0  0  0
 25  6  4  0  0  0
 25  7  1  0  0  0
  7 26  1  0  0  0
 26  8  1  0  0  0
  8 27  1  0  0  0
 10  9  1  0  0  0
 11  9  1  0  0  0
 11 10  1  0  0  0
 12 11  1  0  0  0
 12 13  1  0  0  0
 19 12  1  0  0  0
 14 13  4  0  0  0
 14 15  4  0  0  0
 18 14  1  0  0  0
 15 16  4  0  0  0
 16 17  4  0  0  0
 18 19  1  0  0  0
 18 21  1  0  0  0
 19 20  2  0  0  0
 23 24  4  0  0  0
 27 28  1  0  0  0
  1 29  1  0  0  0
  4 30  1  0  0  0
  5 31  1  0  0  0
  7 32  1  0  0  0
  7 33  1  0  0  0
  8 34  1  0  0  0
  8 35  1  0  0  0
  9 36  1  0  0  0
  9 37  1  0  0  0
 10 38  1  0  0  0
 10 39  1  0  0  0
 11 40  1  0  0  0
 15 41  1  0  0  0
 17 42  1  0  0  0
 21 43  1  0  0  0
 21 44  1  0  0  0
 23 45  1  0  0  0
 24 46  1  0  0  0
 26 47  1  0  0  0
 26 48  1  0  0  0
 27 49  1  0  0  0
 27 50  1  0  0  0
 28 51  1  0  0  0
M  END
$$$$
