5ll9_ligand
  -I-interpret- 

 35 37  0  0  0  0  0  0  0  0999 V2000
   26.0000    3.2550    7.6100 Cl  0  0  0  0  0
   25.7370    4.1070    9.0800 C   0  0  0  0  0
   24.7000    3.7490   10.0080 C   0  0  0  0  0
   23.6780    2.2950    9.7310 S   0  0  0  0  0
   22.9160    2.4840    8.5010 O   0  0  0  0  0
   22.7620    2.1840   10.9880 N   0  0  0  0  0
   24.6490    1.1140    9.7720 O   0  0  0  0  0
   26.5840    5.2290    9.4160 C   0  0  0  0  0
   26.3880    5.9080   10.5560 C   0  0  0  0  0
   25.3770    5.6060   11.4880 C   0  0  0  0  0
   24.5300    4.4920   11.2430 C   0  0  0  0  0
   27.2950    7.0770   10.7190 C   0  0  0  0  0
   28.2300    7.1590    9.9220 O   0  0  0  0  0
   26.9040    8.1390   11.6940 C   0  0  0  0  0
   27.6690    9.3610   11.5260 N   0  0  0  0  0
   27.6320   10.2970   10.5420 C   0  0  0  0  0
   26.8070   10.4480    9.3980 C   0  0  0  0  0
   27.0040   11.5520    8.5520 C   0  0  0  0  0
   27.9990   12.5100    8.8360 C   0  0  0  0  0
   28.8180   12.3540    9.9750 C   0  0  0  0  0
   28.6200   11.2340   10.8220 C   0  0  0  0  0
   29.3010   10.8960   11.9540 N   0  0  0  0  0
   28.6950    9.7360   12.3810 C   0  0  0  0  0
   21.7488    2.2455   10.8877 H   0  0  0  0  0
   23.1760    2.0499   11.9105 H   0  0  0  0  0
   27.3860    5.5248    8.7396 H   0  0  0  0  0
   25.2464    6.2161   12.3818 H   0  0  0  0  0
   23.7688    4.2016   11.9671 H   0  0  0  0  0
   27.0951    7.7593   12.6977 H   0  0  0  0  0
   25.8531    8.3760   11.5279 H   0  0  0  0  0
   26.0296    9.7163    9.1780 H   0  0  0  0  0
   26.3805   11.6695    7.6657 H   0  0  0  0  0
   28.1352   13.3683    8.1781 H   0  0  0  0  0
   29.5936   13.0858   10.2009 H   0  0  0  0  0
   28.9840    9.1837   13.2752 H   0  0  0  0  0
  1  2  1  0  0  0
  2  3  4  0  0  0
  2  8  4  0  0  0
  3  4  1  0  0  0
  3 11  4  0  0  0
  4  5  2  0  0  0
  4  6  1  0  0  0
  4  7  2  0  0  0
  8  9  4  0  0  0
  9 10  4  0  0  0
  9 12  1  0  0  0
 10 11  4  0  0  0
 12 13  2  0  0  0
 12 14  1  0  0  0
 14 15  1  0  0  0
 15 16  4  0  0  0
 15 23  4  0  0  0
 16 17  4  0  0  0
 16 21  4  0  0  0
 17 18  4  0  0  0
 18 19  4  0  0  0
 19 20  4  0  0  0
 20 21  4  0  0  0
 21 22  4  0  0  0
 22 23  4  0  0  0
  6 24  1  0  0  0
  6 25  1  0  0  0
  8 26  1  0  0  0
 10 27  1  0  0  0
 11 28  1  0  0  0
 14 29  1  0  0  0
 14 30  1  0  0  0
 17 31  1  0  0  0
 18 32  1  0  0  0
 19 33  1  0  0  0
 20 34  1  0  0  0
 23 35  1  0  0  0
M  END
$$$$
