3pch_ligand
  -I-interpret- 

 16 16  0  0  0  0  0  0  0  0999 V2000
   14.8430   12.5980   40.6780 C   0  0  0  0  0
   15.4100   11.5770   39.8710 C   0  0  0  0  0
   14.9130   10.3000   39.9390 C   0  0  0  0  0
   15.6960    9.0590   39.0190 Cl  0  0  0  0  0
   13.8720    9.9890   40.8040 C   0  0  0  0  0
   13.4560    8.6890   40.8550 O   0  0  0  0  0
   13.3100   10.9840   41.6230 C   0  0  0  0  0
   13.7880   12.2920   41.5350 C   0  0  0  0  0
   15.4350   14.0050   40.5530 C   0  0  0  0  0
   16.3830   14.2430   39.7880 O   0  0  0  0  0
   14.9320   14.8710   41.2860 O   0  0  0  0  0
   16.2374   11.8068   39.1996 H   0  0  0  0  0
   12.7371    8.6088   41.4861 H   0  0  0  0  0
   12.5091   10.7362   42.3196 H   0  0  0  0  0
   13.3342   13.0775   42.1392 H   0  0  0  0  0
   16.6190   13.4422   39.3140 H   0  0  0  0  0
  2  1  4  0  0  0
  1  8  4  0  0  0
  1  9  1  0  0  0
  3  2  4  0  0  0
  3  4  1  0  0  0
  5  3  4  0  0  0
  5  6  1  0  0  0
  5  7  4  0  0  0
  7  8  4  0  0  0
  9 10  1  0  0  0
  9 11  2  0  0  0
  2 12  1  0  0  0
  6 13  1  0  0  0
  7 14  1  0  0  0
  8 15  1  0  0  0
 10 16  1  0  0  0
M  END
$$$$
