1ivp_ligand
  -I-interpret- 

117121  0  0  0  0  0  0  0  0999 V2000
    4.3120   13.0860   17.8600 C   0  0  0  0  0
    4.5330   11.6570   18.3720 C   0  0  0  0  0
    5.0990   10.6100   20.5500 C   0  0  0  0  0
    6.4130   10.4110   21.0130 C   0  0  0  0  0
    6.7060    9.3200   21.8500 C   0  0  0  0  0
    5.6940    8.4370   22.2280 C   0  0  0  0  0
    4.3850    8.6450   21.7780 C   0  0  0  0  0
    3.3790    7.7400   22.1650 C   0  0  0  0  0
    2.0670    7.9340   21.7030 C   0  0  0  0  0
    1.7710    9.0280   20.8690 C   0  0  0  0  0
    2.7860    9.9260   20.5040 C   0  0  0  0  0
    4.0980    9.7330   20.9480 C   0  0  0  0  0
    5.1550   13.6790   17.1600 O   0  0  0  0  0
    4.8710   11.6780   19.7530 O   0  0  0  0  0
    3.1570   13.6200   18.2060 N   0  0  0  0  0
    2.7010   14.9680   17.8130 C   0  0  0  0  0
    2.0750   15.5850   19.0560 C   0  0  0  0  0
    0.9020   15.2910   19.3640 O   0  0  0  0  0
    1.6250   14.8200   16.6890 C   0  0  0  0  0
    2.1920   13.9710   15.5850 C   0  0  0  0  0
    2.3200   12.6150   15.6390 N   0  0  0  0  0
    2.7260   14.3230   14.3920 C   0  0  0  0  0
    2.9060   12.1620   14.5430 C   0  0  0  0  0
    3.1610   13.1940   13.7710 N   0  0  0  0  0
    2.8800   16.3830   19.7500 N   0  0  0  0  0
    2.4090   17.0220   20.9960 C   0  0  0  0  0
    2.9640   16.5500   22.1960 C   0  0  0  0  0
    3.3830   15.0800   22.2290 C   0  0  0  0  0
    2.7940   14.3900   23.4790 C   0  0  0  0  0
    4.9300   15.0460   22.2920 C   0  0  0  0  0
    3.2540   12.9110   23.4550 C   0  0  0  0  0
    5.4940   13.6560   22.5120 C   0  0  0  0  0
    4.7900   12.9010   23.6310 C   0  0  0  0  0
    2.3810   18.5440   20.8500 C   0  0  0  0  0
    3.3200   19.3370   20.8870 O   0  0  0  0  0
    1.1930   18.8910   19.9490 C   0  0  0  0  0
    0.4920   20.1180   20.5320 C   0  0  0  0  0
   -0.5930   20.4460   19.5640 C   0  0  0  0  0
   -1.5270   19.3100   19.0940 C   0  0  0  0  0
   -1.4400   21.6370   19.9860 C   0  0  0  0  0
    1.7200   19.1410   18.6310 O   0  0  0  0  0
   -0.1230   19.8000   21.9130 C   0  0  0  0  0
   -0.3070   18.6680   22.4010 O   0  0  0  0  0
   -0.4460   20.9050   22.5470 N   0  0  0  0  0
   -1.1000   21.1330   23.8160 C   0  0  0  0  0
   -1.6790   22.5550   23.7020 C   0  0  0  0  0
   -1.1290   23.5870   24.1010 O   0  0  0  0  0
   -0.4120   20.7010   25.1240 C   0  0  0  0  0
   -0.8880   21.6130   26.2850 C   0  0  0  0  0
    1.1100   20.5030   25.1220 C   0  0  0  0  0
   -2.4300   21.7410   26.3820 C   0  0  0  0  0
   -2.8430   22.5550   23.0740 N   0  0  0  0  0
   -3.6780   23.7070   22.7560 C   0  0  0  0  0
   -5.0570   23.2730   22.3810 C   0  0  0  0  0
   -5.4700   21.9370   22.4920 C   0  0  0  0  0
   -6.7840   21.5870   22.1640 C   0  0  0  0  0
   -7.6630   22.5850   21.7120 C   0  0  0  0  0
   -7.2010   23.9070   21.6250 C   0  0  0  0  0
   -5.9330   24.1960   21.9500 N   0  0  0  0  0
    5.3481   11.1989   17.8117 H   0  0  0  0  0
    3.6159   11.0836   18.2375 H   0  0  0  0  0
    7.2037   11.1028   20.7226 H   0  0  0  0  0
    7.7250    9.1638   22.2040 H   0  0  0  0  0
    5.9221    7.5876   22.8719 H   0  0  0  0  0
    3.6154    6.8982   22.8158 H   0  0  0  0  0
    1.2789    7.2379   21.9902 H   0  0  0  0  0
    0.7540    9.1780   20.5066 H   0  0  0  0  0
    2.5499   10.7804   19.8696 H   0  0  0  0  0
    2.5330   13.0608   18.7877 H   0  0  0  0  0
    3.5153   15.5884   17.4386 H   0  0  0  0  0
    1.3593   15.8029   16.3000 H   0  0  0  0  0
    0.7294   14.3493   17.0944 H   0  0  0  0  0
    2.7954   15.3366   13.9971 H   0  0  0  0  0
    3.1359   11.1200   14.3204 H   0  0  0  0  0
    3.8296   16.5555   19.4200 H   0  0  0  0  0
    1.3793   16.6868   21.1204 H   0  0  0  0  0
    2.1835   16.6562   22.9494 H   0  0  0  0  0
    3.8767   17.1254   22.3508 H   0  0  0  0  0
    3.0171   14.5551   21.3466 H   0  0  0  0  0
    1.7057   14.4508   23.4706 H   0  0  0  0  0
    3.1429   14.8829   24.3864 H   0  0  0  0  0
    5.2378   15.6626   23.1365 H   0  0  0  0  0
    5.3055   15.4048   21.3337 H   0  0  0  0  0
    2.9746   12.4395   22.5128 H   0  0  0  0  0
    2.7742   12.3489   24.2562 H   0  0  0  0  0
    5.3551   13.0908   21.5904 H   0  0  0  0  0
    6.5424   13.7625   22.7906 H   0  0  0  0  0
    5.1297   11.8655   23.6113 H   0  0  0  0  0
    5.0291   13.3889   24.5759 H   0  0  0  0  0
    0.4598   18.0866   19.8895 H   0  0  0  0  0
    1.1901   20.9427   20.6751 H   0  0  0  0  0
    0.0147   20.6882   18.6921 H   0  0  0  0  0
   -0.9373   18.5368   18.6016 H   0  0  0  0  0
   -2.0405   18.8836   19.9557 H   0  0  0  0  0
   -2.2603   19.7105   18.3940 H   0  0  0  0  0
   -1.9104   21.4247   20.9461 H   0  0  0  0  0
   -0.8052   22.5183   20.0779 H   0  0  0  0  0
   -2.2092   21.8184   19.2353 H   0  0  0  0  0
    0.9997   19.3628   18.0364 H   0  0  0  0  0
   -0.1877   21.7590   22.0527 H   0  0  0  0  0
   -1.8910   20.3991   23.9707 H   0  0  0  0  0
   -0.7430   19.6723   25.2664 H   0  0  0  0  0
   -0.4883   22.6104   26.1019 H   0  0  0  0  0
   -0.5381   21.1665   27.2157 H   0  0  0  0  0
    1.3736   19.7298   24.4003 H   0  0  0  0  0
    1.5965   21.4390   24.8476 H   0  0  0  0  0
    1.4370   20.2001   26.1167 H   0  0  0  0  0
   -2.8172   22.1643   25.4552 H   0  0  0  0  0
   -2.8658   20.7549   26.5424 H   0  0  0  0  0
   -2.6874   22.3935   27.2163 H   0  0  0  0  0
   -3.1969   21.6452   22.7784 H   0  0  0  0  0
   -3.2359   24.2408   21.9147 H   0  0  0  0  0
   -3.7380   24.3512   23.6332 H   0  0  0  0  0
   -4.7696   21.1744   22.8326 H   0  0  0  0  0
   -7.1210   20.5546   22.2578 H   0  0  0  0  0
   -8.6871   22.3366   21.4334 H   0  0  0  0  0
   -7.8728   24.6987   21.2933 H   0  0  0  0  0
  1 13  2  0  0  0
  1  2  1  0  0  0
  2 14  1  0  0  0
 14  3  1  0  0  0
  3 12  4  0  0  0
  3  4  4  0  0  0
  4  5  4  0  0  0
  5  6  4  0  0  0
  7  6  4  0  0  0
 12  7  4  0  0  0
  7  8  4  0  0  0
  8  9  4  0  0  0
 10  9  4  0  0  0
 11 10  4  0  0  0
 12 11  4  0  0  0
 17 16  1  0  0  0
 16 19  1  0  0  0
 16 15  1  0  0  0
 19 20  1  0  0  0
 20 22  4  0  0  0
 20 21  4  0  0  0
 21 23  4  0  0  0
 23 24  4  0  0  0
 22 24  4  0  0  0
 17 18  2  0  0  0
 26 25  1  0  0  0
 34 26  1  0  0  0
 26 27  1  0  0  0
 27 28  1  0  0  0
 28 30  1  0  0  0
 28 29  1  0  0  0
 29 31  1  0  0  0
 31 33  1  0  0  0
 32 33  1  0  0  0
 30 32  1  0  0  0
 36 34  1  0  0  0
 34 35  2  0  0  0
 36 41  1  0  0  0
 37 36  1  0  0  0
 42 37  1  0  0  0
 37 38  1  0  0  0
 38 40  1  0  0  0
 38 39  1  0  0  0
 42 43  2  0  0  0
 46 45  1  0  0  0
 45 48  1  0  0  0
 45 44  1  0  0  0
 48 49  1  0  0  0
 48 50  1  0  0  0
 49 51  1  0  0  0
 46 47  2  0  0  0
 52 53  1  0  0  0
 53 54  1  0  0  0
 54 59  4  0  0  0
 54 55  4  0  0  0
 55 56  4  0  0  0
 56 57  4  0  0  0
 58 57  4  0  0  0
 59 58  4  0  0  0
 15  1  1  0  0  0
 25 17  1  0  0  0
 44 42  1  0  0  0
 46 52  1  0  0  0
  2 60  1  0  0  0
  2 61  1  0  0  0
  4 62  1  0  0  0
  5 63  1  0  0  0
  6 64  1  0  0  0
  8 65  1  0  0  0
  9 66  1  0  0  0
 10 67  1  0  0  0
 11 68  1  0  0  0
 15 69  1  0  0  0
 16 70  1  0  0  0
 19 71  1  0  0  0
 19 72  1  0  0  0
 22 73  1  0  0  0
 23 74  1  0  0  0
 25 75  1  0  0  0
 26 76  1  0  0  0
 27 77  1  0  0  0
 27 78  1  0  0  0
 28 79  1  0  0  0
 29 80  1  0  0  0
 29 81  1  0  0  0
 30 82  1  0  0  0
 30 83  1  0  0  0
 31 84  1  0  0  0
 31 85  1  0  0  0
 32 86  1  0  0  0
 32 87  1  0  0  0
 33 88  1  0  0  0
 33 89  1  0  0  0
 36 90  1  0  0  0
 37 91  1  0  0  0
 38 92  1  0  0  0
 39 93  1  0  0  0
 39 94  1  0  0  0
 39 95  1  0  0  0
 40 96  1  0  0  0
 40 97  1  0  0  0
 40 98  1  0  0  0
 41 99  1  0  0  0
 44100  1  0  0  0
 45101  1  0  0  0
 48102  1  0  0  0
 49103  1  0  0  0
 49104  1  0  0  0
 50105  1  0  0  0
 50106  1  0  0  0
 50107  1  0  0  0
 51108  1  0  0  0
 51109  1  0  0  0
 51110  1  0  0  0
 52111  1  0  0  0
 53112  1  0  0  0
 53113  1  0  0  0
 55114  1  0  0  0
 56115  1  0  0  0
 57116  1  0  0  0
 58117  1  0  0  0
M  END
$$$$
