5wbm_ligand
  -I-interpret- 

 35 37  0  0  0  0  0  0  0  0999 V2000
  -17.4470  -27.4700  -13.1920 N   0  0  0  0  0
  -16.5290  -26.5720  -13.5880 C   0  0  0  0  0
  -19.1010  -26.4380  -14.6140 N   0  0  0  0  0
  -18.6640  -27.3410  -13.7290 C   0  0  0  0  0
  -18.1670  -25.5390  -14.9960 C   0  0  0  0  0
  -20.9570  -24.3590  -16.6240 C   0  0  0  0  0
  -18.5400  -23.5550  -19.4370 C   0  0  0  0  0
  -19.9720  -23.9340  -15.5510 C   0  0  0  0  0
  -15.1420  -23.6630  -15.5630 C   0  0  0  0  0
  -15.5200  -24.8080  -14.6700 C   0  0  0  0  0
  -14.6380  -25.4310  -13.7980 C   0  0  0  0  0
  -15.2400  -26.4810  -13.1560 N   0  0  0  0  0
  -16.7820  -25.5150  -14.5470 C   0  0  0  0  0
  -18.6280  -24.4690  -15.7900 N   0  0  0  0  0
  -20.4660  -23.9200  -17.9980 C   0  0  0  0  0
  -19.0520  -24.4050  -18.2960 C   0  0  0  0  0
  -18.0730  -24.2570  -17.1290 C   0  0  0  0  0
  -18.1900  -24.3550  -20.5440 O   0  0  0  0  0
  -19.4024  -28.0725  -13.4006 H   0  0  0  0  0
  -21.9219  -23.8925  -16.4256 H   0  0  0  0  0
  -21.0509  -25.4449  -16.6103 H   0  0  0  0  0
  -17.6547  -23.0149  -19.1014 H   0  0  0  0  0
  -19.3268  -22.8639  -19.7393 H   0  0  0  0  0
  -20.3253  -24.3192  -14.5945 H   0  0  0  0  0
  -19.9103  -22.8458  -15.5590 H   0  0  0  0  0
  -14.7984  -22.8269  -14.9539 H   0  0  0  0  0
  -14.3435  -23.9766  -16.2354 H   0  0  0  0  0
  -16.0104  -23.3566  -16.1461 H   0  0  0  0  0
  -13.6031  -25.1253  -13.6443 H   0  0  0  0  0
  -20.4590  -22.8302  -18.0199 H   0  0  0  0  0
  -21.1329  -24.3489  -18.7459 H   0  0  0  0  0
  -19.1072  -25.4707  -18.5179 H   0  0  0  0  0
  -17.3131  -25.0257  -17.2692 H   0  0  0  0  0
  -17.7227  -23.2251  -17.1539 H   0  0  0  0  0
  -17.8686  -23.7942  -21.2538 H   0  0  0  0  0
  2  1  4  0  0  0
  4  1  4  0  0  0
  2 12  4  0  0  0
 13  2  4  0  0  0
  3  4  4  0  0  0
  5  3  4  0  0  0
  5 13  4  0  0  0
 14  5  1  0  0  0
  6  8  1  0  0  0
 15  6  1  0  0  0
 16  7  1  0  0  0
  7 18  1  0  0  0
  8 14  1  0  0  0
 10  9  1  0  0  0
 10 11  4  0  0  0
 13 10  4  0  0  0
 11 12  4  0  0  0
 14 17  1  0  0  0
 15 16  1  0  0  0
 16 17  1  0  0  0
  4 19  1  0  0  0
  6 20  1  0  0  0
  6 21  1  0  0  0
  7 22  1  0  0  0
  7 23  1  0  0  0
  8 24  1  0  0  0
  8 25  1  0  0  0
  9 26  1  0  0  0
  9 27  1  0  0  0
  9 28  1  0  0  0
 11 29  1  0  0  0
 15 30  1  0  0  0
 15 31  1  0  0  0
 16 32  1  0  0  0
 17 33  1  0  0  0
 17 34  1  0  0  0
 18 35  1  0  0  0
M  END
$$$$
