### 
### Created by X-TOOL on Mon Sep 10 21:12:58 2018
### 

@<TRIPOS>MOLECULE
3cyy_ligand
  156   157     1     0     0
SMALL
GAST_HUCK


@<TRIPOS>ATOM
      1 N          -3.3330    2.7320   25.3860 N.4       1 ARG         0.2379
      2 CA         -2.5470    2.8030   26.6500 C.3       1 ARG         0.0653
      3 C          -1.1620    2.1950   26.4520 C.2       1 ARG         0.2292
      4 O          -1.0270    0.9700   26.4250 O.2       1 ARG        -0.3905
      5 CB         -3.2830    2.0620   27.7640 C.3       1 ARG         0.0110
      6 CG         -2.9300    2.4750   29.1880 C.3       1 ARG        -0.0125
      7 CD         -3.8880    3.5380   29.6600 C.3       1 ARG         0.0629
      8 NE         -4.2120    3.4260   31.0850 N.pl3     1 ARG        -0.2723
      9 CZ         -5.2610    4.0070   31.6670 C.cat     1 ARG         0.2882
     10 NH1        -6.1090    4.7460   30.9510 N.pl3     1 ARG        -0.2849
     11 NH2        -5.4640    3.8520   32.9710 N.pl3     1 ARG        -0.2849
     12 N          -0.1220    3.0450   26.3180 N.am      1 PRO        -0.2471
     13 CA          1.2260    2.5230   26.0970 C.3       1 PRO         0.1339
     14 C           1.6610    1.5630   27.2100 C.2       1 PRO         0.2041
     15 O           1.7110    1.9440   28.3850 O.2       1 PRO        -0.3944
     16 CB          2.1010    3.7830   26.1170 C.3       1 PRO        -0.0104
     17 CG          1.1830    4.8840   25.7500 C.3       1 PRO        -0.0281
     18 CD         -0.1280    4.5180   26.3770 C.3       1 PRO         0.0371
     19 N           1.9710    0.3310   26.8340 N.am      1 ARG        -0.2637
     20 CA          2.4990   -0.6430   27.7720 C.3       1 ARG         0.1313
     21 C           3.9870   -0.8550   27.4990 C.2       1 ARG         0.2064
     22 O           4.4390   -0.6600   26.3680 O.2       1 ARG        -0.3942
     23 CB          1.7380   -1.9570   27.6500 C.3       1 ARG        -0.0092
     24 CG          0.3020   -1.8770   28.0630 C.3       1 ARG        -0.0156
     25 CD         -0.3570   -3.2250   27.9390 C.3       1 ARG         0.0627
     26 NE          0.3800   -4.2840   28.6450 N.pl3     1 ARG        -0.2723
     27 CZ          0.1320   -4.6840   29.8940 C.cat     1 ARG         0.2882
     28 NH1         0.8580   -5.6590   30.4330 N.pl3     1 ARG        -0.2849
     29 NH2        -0.8350   -4.1170   30.6090 N.pl3     1 ARG        -0.2849
     30 N           4.7650   -1.2030   28.5430 N.am      1 PRO        -0.2498
     31 CA          6.1770   -1.5790   28.3680 C.3       1 PRO         0.1338
     32 C           6.4010   -2.8150   27.4930 C.2       1 PRO         0.2042
     33 O           7.4540   -2.9310   26.8720 O.2       1 PRO        -0.3944
     34 CB          6.6510   -1.8450   29.8020 C.3       1 PRO        -0.0104
     35 CG          5.7330   -1.0110   30.6660 C.3       1 PRO        -0.0281
     36 CD          4.3950   -1.1920   29.9740 C.3       1 PRO         0.0369
     37 N           5.4170   -3.7160   27.4450 N.am      1 ASP        -0.2622
     38 CA          5.5260   -4.9590   26.6910 C.3       1 ASP         0.1423
     39 C           4.9770   -4.8640   25.2610 C.2       1 ASP         0.2057
     40 O           4.9650   -5.8570   24.5260 O.2       1 ASP        -0.3943
     41 CB          4.8910   -6.1360   27.4690 C.3       1 ASP         0.0406
     42 CG          3.4520   -5.8610   27.9300 C.2       1 ASP         0.0393
     43 OD1         2.8900   -6.7100   28.6600 O.co2     1 ASP        -0.5688
     44 OD2         2.8710   -4.8210   27.5710 O.co2     1 ASP        -0.5688
     45 N           4.5150   -3.6710   24.8740 N.am      1 ASP        -0.2621
     46 CA          4.1350   -3.4010   23.4830 C.3       1 ASP         0.1423
     47 C           5.3440   -3.6580   22.5930 C.2       1 ASP         0.2056
     48 O           6.4780   -3.5820   23.0480 O.2       1 ASP        -0.3943
     49 CB          3.6730   -1.9510   23.3140 C.3       1 ASP         0.0406
     50 CG          2.2790   -1.6870   23.8900 C.2       1 ASP         0.0393
     51 OD1         1.5180   -2.6350   24.1180 O.co2     1 ASP        -0.5688
     52 OD2         1.9230   -0.5090   24.1050 O.co2     1 ASP        -0.5688
     53 N           5.1040   -3.9880   21.3260 N.am      1 LEU        -0.2636
     54 CA          6.1920   -4.1770   20.3910 C.3       1 LEU         0.1312
     55 C           6.3450   -2.9130   19.5450 C.2       1 LEU         0.2039
     56 O           5.4800   -2.5930   18.7330 O.2       1 LEU        -0.3944
     57 CB          5.9480   -5.4180   19.5220 C.3       1 LEU        -0.0101
     58 CG          6.9470   -5.7030   18.3970 C.3       1 LEU        -0.0425
     59 CD1         8.3530   -5.9630   18.9480 C.3       1 LEU        -0.0625
     60 CD2         6.4650   -6.8510   17.5360 C.3       1 LEU        -0.0625
     61 N           7.4330   -2.1820   19.7750 N.am      1 GLU        -0.2636
     62 CA          7.7420   -0.9840   19.0090 C.3       1 GLU         0.1324
     63 C           8.8410   -1.2900   18.0130 C.2       1 GLU         0.2035
     64 O           9.9310   -1.7050   18.3890 O.2       1 GLU        -0.3944
     65 CB          8.1760    0.1560   19.9260 C.3       1 GLU        -0.0008
     66 CG          7.0830    0.6360   20.8620 C.3       1 GLU         0.0044
     67 CD          7.5630    1.6970   21.8150 C.2       1 GLU         0.0350
     68 OE1         7.9970    2.7760   21.3490 O.co2     1 GLU        -0.5690
     69 OE2         7.5030    1.4520   23.0350 O.co2     1 GLU        -0.5690
     70 N           8.5360   -1.1030   16.7350 N.am      1 ILE        -0.2692
     71 CA          9.4720   -1.4220   15.6650 C.3       1 ILE         0.0969
     72 C           9.6520   -0.2230   14.7380 C.2       1 ILE         0.0604
     73 O          10.5720   -0.1900   13.9180 O.co2     1 ILE        -0.5666
     74 CB          9.0370   -2.6810   14.8680 C.3       1 ILE        -0.0092
     75 CG1         7.5750   -2.5520   14.4120 C.3       1 ILE        -0.0497
     76 CG2         9.2710   -3.9300   15.7060 C.3       1 ILE        -0.0588
     77 CD1         7.1900   -3.4580   13.2310 C.3       1 ILE        -0.0649
     78 OXT         8.8850    0.7410   14.8060 O.co2     1 ILE        -0.5666
     79 H1         -4.2441    3.1372   25.5337 H         1 ARG         0.2015
     80 H2         -3.4349    1.7687   25.1074 H         1 ARG         0.2015
     81 H3         -2.8518    3.2421   24.6620 H         1 ARG         0.2015
     82 H4         -2.4335    3.8585   26.9380 H         1 ARG         0.1098
     83 H5         -3.0600    0.9899   27.6595 H         1 ARG         0.0347
     84 H6         -4.3613    2.2277   27.6231 H         1 ARG         0.0347
     85 H7         -1.9041    2.8712   29.2103 H         1 ARG         0.0302
     86 H8         -2.9995    1.5997   29.8506 H         1 ARG         0.0302
     87 H9         -4.8194    3.4523   29.0811 H         1 ARG         0.0689
     88 H10        -3.4340    4.5237   29.4804 H         1 ARG         0.0689
     89 H11        -3.5869    2.8602   31.6766 H         1 ARG         0.2642
     90 H12        -6.9171    5.1914   31.4087 H         1 ARG         0.2615
     91 H13        -5.9560    4.8714   29.9402 H         1 ARG         0.2615
     92 H14        -4.8125    3.2823   33.5295 H         1 ARG         0.2615
     93 H15        -6.2729    4.3015   33.4233 H         1 ARG         0.2615
     94 H16         1.2907    2.0103   25.1259 H         1 PRO         0.0802
     95 H17         2.9182    3.6994   25.3855 H         1 PRO         0.0313
     96 H18         2.5219    3.9471   27.1199 H         1 PRO         0.0313
     97 H19         1.0825    4.9561   24.6570 H         1 PRO         0.0287
     98 H20         1.5486    5.8419   26.1486 H         1 PRO         0.0287
     99 H21        -0.1817    4.8721   27.4170 H         1 PRO         0.0524
    100 H22        -0.9702    4.9335   25.8042 H         1 PRO         0.0524
    101 H23         1.8378    0.0652   25.8792 H         1 ARG         0.1883
    102 H24         2.3761   -0.2576   28.7949 H         1 ARG         0.0800
    103 H25         2.2376   -2.7047   28.2835 H         1 ARG         0.0313
    104 H26         1.7769   -2.2815   26.5997 H         1 ARG         0.0313
    105 H27        -0.2213   -1.1572   27.4165 H         1 ARG         0.0301
    106 H28         0.2440   -1.5403   29.1086 H         1 ARG         0.0301
    107 H29        -0.4188   -3.4899   26.8732 H         1 ARG         0.0689
    108 H30        -1.3711   -3.1611   28.3604 H         1 ARG         0.0689
    109 H31         1.1446   -4.7519   28.1377 H         1 ARG         0.2642
    110 H32         0.6687   -5.9696   31.3966 H         1 ARG         0.2615
    111 H33         1.6096   -6.1036   29.8869 H         1 ARG         0.2615
    112 H34        -1.4025   -3.3611   30.1998 H         1 ARG         0.2615
    113 H35        -1.0167   -4.4337   31.5721 H         1 ARG         0.2615
    114 H36         6.7328   -0.7382   27.9274 H         1 PRO         0.0802
    115 H37         7.6972   -1.5304   29.9302 H         1 PRO         0.0313
    116 H38         6.5558   -2.9122   30.0511 H         1 PRO         0.0313
    117 H39         6.0401    0.0452   30.6715 H         1 PRO         0.0287
    118 H40         5.7031   -1.3895   31.6984 H         1 PRO         0.0287
    119 H41         3.9220   -2.1405   30.2682 H         1 PRO         0.0524
    120 H42         3.7155   -0.3574   30.2011 H         1 PRO         0.0524
    121 H43         4.5716   -3.5309   27.9461 H         1 ASP         0.1884
    122 H44         6.6002   -5.1770   26.5985 H         1 ASP         0.0819
    123 H45         5.5079   -6.3396   28.3567 H         1 ASP         0.0478
    124 H46         4.8841   -7.0213   26.8162 H         1 ASP         0.0478
    125 H47         4.4258   -2.9415   25.5521 H         1 ASP         0.1884
    126 H48         3.3153   -4.0750   23.1935 H         1 ASP         0.0819
    127 H49         3.6577   -1.7126   22.2403 H         1 ASP         0.0478
    128 H50         4.3919   -1.2939   23.8253 H         1 ASP         0.0478
    129 H51         4.1605   -4.1067   21.0166 H         1 LEU         0.1883
    130 H52         7.1219   -4.3324   20.9576 H         1 LEU         0.0800
    131 H53         4.9557   -5.3068   19.0606 H         1 LEU         0.0315
    132 H54         5.9461   -6.2922   20.1897 H         1 LEU         0.0315
    133 H55         7.0005   -4.8070   17.7611 H         1 LEU         0.0298
    134 H56         9.0422   -6.1634   18.1144 H         1 LEU         0.0232
    135 H57         8.3282   -6.8331   19.6205 H         1 LEU         0.0232
    136 H58         8.6980   -5.0791   19.5045 H         1 LEU         0.0232
    137 H59         5.4555   -6.6285   17.1599 H         1 LEU         0.0232
    138 H60         6.4379   -7.7728   18.1356 H         1 LEU         0.0232
    139 H61         7.1512   -6.9858   16.6869 H         1 LEU         0.0232
    140 H62         8.0605   -2.4661   20.5000 H         1 GLU         0.1883
    141 H63         6.8402   -0.6719   18.4619 H         1 GLU         0.0801
    142 H64         8.4940    1.0030   19.3004 H         1 GLU         0.0330
    143 H65         9.0253   -0.1908   20.5330 H         1 GLU         0.0330
    144 H66         6.7165   -0.2217   21.4451 H         1 GLU         0.0433
    145 H67         6.2599    1.0490   20.2603 H         1 GLU         0.0433
    146 H68         7.6376   -0.7323   16.4996 H         1 ILE         0.1875
    147 H69        10.4459   -1.6412   16.1270 H         1 ILE         0.0729
    148 H70         9.6652   -2.7540   13.9680 H         1 ILE         0.0338
    149 H71         7.3993   -1.5077   14.1146 H         1 ILE         0.0267
    150 H72         6.9265   -2.8047   15.2638 H         1 ILE         0.0267
    151 H73        10.3280   -3.9769   16.0068 H         1 ILE         0.0234
    152 H74         9.0185   -4.8217   15.1135 H         1 ILE         0.0234
    153 H75         8.6357   -3.8939   16.6033 H         1 ILE         0.0234
    154 H76         6.1320   -3.2982   12.9760 H         1 ILE         0.0230
    155 H77         7.3448   -4.5105   13.5106 H         1 ILE         0.0230
    156 H78         7.8177   -3.2135   12.3614 H         1 ILE         0.0230
@<TRIPOS>BOND
     1    1    2 1  
     2    2    3 1  
     3    2    5 1  
     4    3    4 2  
     5    3   12 am 
     6    5    6 1  
     7    6    7 1  
     8    7    8 1  
     9    8    9 ar 
    10    9   10 ar 
    11    9   11 ar 
    12   12   13 1  
    13   12   18 1  
    14   13   14 1  
    15   13   16 1  
    16   14   15 2  
    17   14   19 am 
    18   16   17 1  
    19   17   18 1  
    20   19   20 1  
    21   20   21 1  
    22   20   23 1  
    23   21   22 2  
    24   21   30 am 
    25   23   24 1  
    26   24   25 1  
    27   25   26 1  
    28   26   27 ar 
    29   27   28 ar 
    30   27   29 ar 
    31   30   31 1  
    32   30   36 1  
    33   31   32 1  
    34   31   34 1  
    35   32   33 2  
    36   32   37 am 
    37   34   35 1  
    38   35   36 1  
    39   37   38 1  
    40   38   39 1  
    41   38   41 1  
    42   39   40 2  
    43   39   45 am 
    44   41   42 1  
    45   42   43 ar 
    46   42   44 ar 
    47   45   46 1  
    48   46   47 1  
    49   46   49 1  
    50   47   48 2  
    51   47   53 am 
    52   49   50 1  
    53   50   51 ar 
    54   50   52 ar 
    55   53   54 1  
    56   54   55 1  
    57   54   57 1  
    58   55   56 2  
    59   55   61 am 
    60   57   58 1  
    61   58   59 1  
    62   58   60 1  
    63   61   62 1  
    64   62   63 1  
    65   62   65 1  
    66   63   64 2  
    67   63   70 am 
    68   65   66 1  
    69   66   67 1  
    70   67   68 ar 
    71   67   69 ar 
    72   70   71 1  
    73   71   72 1  
    74   71   74 1  
    75   72   73 ar 
    76   72   78 ar 
    77   74   75 1  
    78   74   76 1  
    79   75   77 1  
    80    1   79 1  
    81    1   80 1  
    82    1   81 1  
    83    2   82 1  
    84    5   83 1  
    85    5   84 1  
    86    6   85 1  
    87    6   86 1  
    88    7   87 1  
    89    7   88 1  
    90    8   89 1  
    91   10   90 1  
    92   10   91 1  
    93   11   92 1  
    94   11   93 1  
    95   13   94 1  
    96   16   95 1  
    97   16   96 1  
    98   17   97 1  
    99   17   98 1  
   100   18   99 1  
   101   18  100 1  
   102   19  101 1  
   103   20  102 1  
   104   23  103 1  
   105   23  104 1  
   106   24  105 1  
   107   24  106 1  
   108   25  107 1  
   109   25  108 1  
   110   26  109 1  
   111   28  110 1  
   112   28  111 1  
   113   29  112 1  
   114   29  113 1  
   115   31  114 1  
   116   34  115 1  
   117   34  116 1  
   118   35  117 1  
   119   35  118 1  
   120   36  119 1  
   121   36  120 1  
   122   37  121 1  
   123   38  122 1  
   124   41  123 1  
   125   41  124 1  
   126   45  125 1  
   127   46  126 1  
   128   49  127 1  
   129   49  128 1  
   130   53  129 1  
   131   54  130 1  
   132   57  131 1  
   133   57  132 1  
   134   58  133 1  
   135   59  134 1  
   136   59  135 1  
   137   59  136 1  
   138   60  137 1  
   139   60  138 1  
   140   60  139 1  
   141   61  140 1  
   142   62  141 1  
   143   65  142 1  
   144   65  143 1  
   145   66  144 1  
   146   66  145 1  
   147   70  146 1  
   148   71  147 1  
   149   74  148 1  
   150   75  149 1  
   151   75  150 1  
   152   76  151 1  
   153   76  152 1  
   154   76  153 1  
   155   77  154 1  
   156   77  155 1  
   157   77  156 1  
@<TRIPOS>SUBSTRUCTURE
     1 ARG         1

