3cyy_ligand
  -I-interpret- 

158159  0  0  0  0  0  0  0  0999 V2000
   -3.3330    2.7320   25.3860 N   0  3  0  0  0
   -2.5470    2.8030   26.6500 C   0  0  0  0  0
   -1.1620    2.1950   26.4520 C   0  0  0  0  0
   -1.0270    0.9700   26.4250 O   0  0  0  0  0
   -3.2830    2.0620   27.7640 C   0  0  0  0  0
   -2.9300    2.4750   29.1880 C   0  0  0  0  0
   -3.8880    3.5380   29.6600 C   0  0  0  0  0
   -4.2120    3.4260   31.0850 N   0  0  0  0  0
   -5.2610    4.0070   31.6670 C   0  0  0  0  0
   -6.1090    4.7460   30.9510 N   0  0  0  0  0
   -5.4640    3.8520   32.9710 N   0  0  0  0  0
   -0.1220    3.0450   26.3180 N   0  0  0  0  0
    1.2260    2.5230   26.0970 C   0  0  0  0  0
    1.6610    1.5630   27.2100 C   0  0  0  0  0
    1.7110    1.9440   28.3850 O   0  0  0  0  0
    2.1010    3.7830   26.1170 C   0  0  0  0  0
    1.1830    4.8840   25.7500 C   0  0  0  0  0
   -0.1280    4.5180   26.3770 C   0  0  0  0  0
    1.9710    0.3310   26.8340 N   0  0  0  0  0
    2.4990   -0.6430   27.7720 C   0  0  0  0  0
    3.9870   -0.8550   27.4990 C   0  0  0  0  0
    4.4390   -0.6600   26.3680 O   0  0  0  0  0
    1.7380   -1.9570   27.6500 C   0  0  0  0  0
    0.3020   -1.8770   28.0630 C   0  0  0  0  0
   -0.3570   -3.2250   27.9390 C   0  0  0  0  0
    0.3800   -4.2840   28.6450 N   0  0  0  0  0
    0.1320   -4.6840   29.8940 C   0  0  0  0  0
    0.8580   -5.6590   30.4330 N   0  0  0  0  0
   -0.8350   -4.1170   30.6090 N   0  0  0  0  0
    4.7650   -1.2030   28.5430 N   0  0  0  0  0
    6.1770   -1.5790   28.3680 C   0  0  0  0  0
    6.4010   -2.8150   27.4930 C   0  0  0  0  0
    7.4540   -2.9310   26.8720 O   0  0  0  0  0
    6.6510   -1.8450   29.8020 C   0  0  0  0  0
    5.7330   -1.0110   30.6660 C   0  0  0  0  0
    4.3950   -1.1920   29.9740 C   0  0  0  0  0
    5.4170   -3.7160   27.4450 N   0  0  0  0  0
    5.5260   -4.9590   26.6910 C   0  0  0  0  0
    4.9770   -4.8640   25.2610 C   0  0  0  0  0
    4.9650   -5.8570   24.5260 O   0  0  0  0  0
    4.8910   -6.1360   27.4690 C   0  0  0  0  0
    3.4520   -5.8610   27.9300 C   0  0  0  0  0
    2.8900   -6.7100   28.6600 O   0  0  0  0  0
    2.8710   -4.8210   27.5710 O   0  0  0  0  0
    4.5150   -3.6710   24.8740 N   0  0  0  0  0
    4.1350   -3.4010   23.4830 C   0  0  0  0  0
    5.3440   -3.6580   22.5930 C   0  0  0  0  0
    6.4780   -3.5820   23.0480 O   0  0  0  0  0
    3.6730   -1.9510   23.3140 C   0  0  0  0  0
    2.2790   -1.6870   23.8900 C   0  0  0  0  0
    1.5180   -2.6350   24.1180 O   0  0  0  0  0
    1.9230   -0.5090   24.1050 O   0  0  0  0  0
    5.1040   -3.9880   21.3260 N   0  0  0  0  0
    6.1920   -4.1770   20.3910 C   0  0  0  0  0
    6.3450   -2.9130   19.5450 C   0  0  0  0  0
    5.4800   -2.5930   18.7330 O   0  0  0  0  0
    5.9480   -5.4180   19.5220 C   0  0  0  0  0
    6.9470   -5.7030   18.3970 C   0  0  0  0  0
    8.3530   -5.9630   18.9480 C   0  0  0  0  0
    6.4650   -6.8510   17.5360 C   0  0  0  0  0
    7.4330   -2.1820   19.7750 N   0  0  0  0  0
    7.7420   -0.9840   19.0090 C   0  0  0  0  0
    8.8410   -1.2900   18.0130 C   0  0  0  0  0
    9.9310   -1.7050   18.3890 O   0  0  0  0  0
    8.1760    0.1560   19.9260 C   0  0  0  0  0
    7.0830    0.6360   20.8620 C   0  0  0  0  0
    7.5630    1.6970   21.8150 C   0  0  0  0  0
    7.9970    2.7760   21.3490 O   0  0  0  0  0
    7.5030    1.4520   23.0350 O   0  0  0  0  0
    8.5360   -1.1030   16.7350 N   0  0  0  0  0
    9.4720   -1.4220   15.6650 C   0  0  0  0  0
    9.6520   -0.2230   14.7380 C   0  0  0  0  0
   10.5720   -0.1900   13.9180 O   0  0  0  0  0
    9.0370   -2.6810   14.8680 C   0  0  0  0  0
    7.5750   -2.5520   14.4120 C   0  0  0  0  0
    9.2710   -3.9300   15.7060 C   0  0  0  0  0
    7.1900   -3.4580   13.2310 C   0  0  0  0  0
    8.8850    0.7410   14.8060 O   0  0  0  0  0
   -2.8340    3.2292   24.6483 H   0  0  0  0  0
   -3.4549    1.7556   25.1172 H   0  0  0  0  0
   -4.2463    3.1627   25.5303 H   0  0  0  0  0
   -2.4328    3.8504   26.9294 H   0  0  0  0  0
   -3.0023    1.0129   27.6711 H   0  0  0  0  0
   -4.3416    2.2868   27.6337 H   0  0  0  0  0
   -1.9139    2.8690   29.2088 H   0  0  0  0  0
   -3.0007    1.6075   29.8441 H   0  0  0  0  0
   -4.8152    3.4219   29.0988 H   0  0  0  0  0
   -3.4129    4.5063   29.5029 H   0  0  0  0  0
   -3.5930    2.8657   31.6709 H   0  0  0  0  0
   -6.9082    5.1886   31.4046 H   0  0  0  0  0
   -5.9585    4.8687   29.9497 H   0  0  0  0  0
   -4.8178    3.2894   33.5244 H   0  0  0  0  0
    1.2963    1.9498   25.1725 H   0  0  0  0  0
    2.9404    3.7061   25.4259 H   0  0  0  0  0
    2.5595    3.9441   27.0927 H   0  0  0  0  0
    1.0974    4.9964   24.6692 H   0  0  0  0  0
    1.5459    5.8488   26.1044 H   0  0  0  0  0
   -0.2327    4.9003   27.3924 H   0  0  0  0  0
   -0.9813    4.9586   25.8613 H   0  0  0  0  0
    1.8351    0.0598   25.8601 H   0  0  0  0  0
    2.3745   -0.2716   28.7892 H   0  0  0  0  0
    2.2236   -2.6719   28.3142 H   0  0  0  0  0
    1.7539   -2.2405   26.5976 H   0  0  0  0  0
   -0.2144   -1.1689   27.4149 H   0  0  0  0  0
    0.2495   -1.5509   29.1017 H   0  0  0  0  0
   -0.3876   -3.4866   26.8813 H   0  0  0  0  0
   -1.3497   -3.1545   28.3837 H   0  0  0  0  0
    1.1372   -4.7474   28.1426 H   0  0  0  0  0
    0.6710   -5.9661   31.3875 H   0  0  0  0  0
    1.6019   -6.0998   29.8919 H   0  0  0  0  0
   -1.3965   -3.3680   30.2040 H   0  0  0  0  0
    6.7229   -0.7934   27.8455 H   0  0  0  0  0
    7.6982   -1.5771   29.9420 H   0  0  0  0  0
    6.6026   -2.9034   30.0582 H   0  0  0  0  0
    6.0416    0.0317   30.7416 H   0  0  0  0  0
    5.7236   -1.3222   31.7106 H   0  0  0  0  0
    3.8759   -2.0986   30.2849 H   0  0  0  0  0
    3.6800   -0.4073   30.2212 H   0  0  0  0  0
    4.5547   -3.5272   27.9561 H   0  0  0  0  0
    6.5927   -5.1536   26.5793 H   0  0  0  0  0
    5.4945   -6.3022   28.3613 H   0  0  0  0  0
    4.8614   -6.9942   26.7976 H   0  0  0  0  0
    3.4944   -7.4368   28.8273 H   0  0  0  0  0
    4.4240   -2.9269   25.5657 H   0  0  0  0  0
    3.3086   -4.0548   23.2041 H   0  0  0  0  0
    3.6324   -1.7411   22.2452 H   0  0  0  0  0
    4.3770   -1.3166   23.8525 H   0  0  0  0  0
    2.6377    0.0878   23.8713 H   0  0  0  0  0
    4.1416   -4.1091   21.0104 H   0  0  0  0  0
    7.1216   -4.3476   20.9339 H   0  0  0  0  0
    4.9918   -5.2460   19.0278 H   0  0  0  0  0
    6.0198   -6.2687   20.1997 H   0  0  0  0  0
    7.0107   -4.8150   17.7681 H   0  0  0  0  0
    8.6936   -5.0865   19.4992 H   0  0  0  0  0
    8.3270   -6.8253   19.6142 H   0  0  0  0  0
    9.0349   -6.1614   18.1211 H   0  0  0  0  0
    6.3593   -7.7450   18.1506 H   0  0  0  0  0
    5.5009   -6.5943   17.0969 H   0  0  0  0  0
    7.1889   -7.0374   16.7427 H   0  0  0  0  0
    8.0730   -2.4718   20.5145 H   0  0  0  0  0
    6.8425   -0.6702   18.4794 H   0  0  0  0  0
    8.4537    0.9972   19.2909 H   0  0  0  0  0
    8.9936   -0.2159   20.5435 H   0  0  0  0  0
    6.7469   -0.2173   21.4512 H   0  0  0  0  0
    6.2860    1.0656   20.2551 H   0  0  0  0  0
    7.9530    2.7500   20.3904 H   0  0  0  0  0
    7.6196   -0.7249   16.4949 H   0  0  0  0  0
   10.4323   -1.6529   16.1261 H   0  0  0  0  0
    9.6444   -2.7684   13.9671 H   0  0  0  0  0
    7.4345   -1.5227   14.0820 H   0  0  0  0  0
    6.9515   -2.8475   15.2558 H   0  0  0  0  0
   10.3299   -4.0075   15.9525 H   0  0  0  0  0
    8.6868   -3.8648   16.6239 H   0  0  0  0  0
    8.9632   -4.8089   15.1396 H   0  0  0  0  0
    7.8127   -3.2147   12.3701 H   0  0  0  0  0
    7.3439   -4.5006   13.5093 H   0  0  0  0  0
    6.1415   -3.2987   12.9793 H   0  0  0  0  0
    8.2244    0.5758   15.4827 H   0  0  0  0  0
  1  2  1  0  0  0
  2  3  1  0  0  0
  2  5  1  0  0  0
  3  4  2  0  0  0
  3 12  1  0  0  0
  5  6  1  0  0  0
  6  7  1  0  0  0
  7  8  1  0  0  0
  8  9  1  0  0  0
  9 10  1  0  0  0
  9 11  2  0  0  0
 12 13  1  0  0  0
 12 18  1  0  0  0
 13 14  1  0  0  0
 13 16  1  0  0  0
 14 15  2  0  0  0
 14 19  1  0  0  0
 16 17  1  0  0  0
 17 18  1  0  0  0
 19 20  1  0  0  0
 20 21  1  0  0  0
 20 23  1  0  0  0
 21 22  2  0  0  0
 21 30  1  0  0  0
 23 24  1  0  0  0
 24 25  1  0  0  0
 25 26  1  0  0  0
 26 27  1  0  0  0
 27 28  1  0  0  0
 27 29  2  0  0  0
 30 31  1  0  0  0
 30 36  1  0  0  0
 31 32  1  0  0  0
 31 34  1  0  0  0
 32 33  2  0  0  0
 32 37  1  0  0  0
 34 35  1  0  0  0
 35 36  1  0  0  0
 37 38  1  0  0  0
 38 39  1  0  0  0
 38 41  1  0  0  0
 39 40  2  0  0  0
 39 45  1  0  0  0
 41 42  1  0  0  0
 42 43  1  0  0  0
 42 44  2  0  0  0
 45 46  1  0  0  0
 46 47  1  0  0  0
 46 49  1  0  0  0
 47 48  2  0  0  0
 47 53  1  0  0  0
 49 50  1  0  0  0
 50 51  2  0  0  0
 50 52  1  0  0  0
 53 54  1  0  0  0
 54 55  1  0  0  0
 54 57  1  0  0  0
 55 56  2  0  0  0
 55 61  1  0  0  0
 57 58  1  0  0  0
 58 59  1  0  0  0
 58 60  1  0  0  0
 61 62  1  0  0  0
 62 63  1  0  0  0
 62 65  1  0  0  0
 63 64  2  0  0  0
 63 70  1  0  0  0
 65 66  1  0  0  0
 66 67  1  0  0  0
 67 68  1  0  0  0
 67 69  2  0  0  0
 70 71  1  0  0  0
 71 72  1  0  0  0
 71 74  1  0  0  0
 72 73  2  0  0  0
 72 78  1  0  0  0
 74 75  1  0  0  0
 74 76  1  0  0  0
 75 77  1  0  0  0
  1 79  1  0  0  0
  1 80  1  0  0  0
  1 81  1  0  0  0
  2 82  1  0  0  0
  5 83  1  0  0  0
  5 84  1  0  0  0
  6 85  1  0  0  0
  6 86  1  0  0  0
  7 87  1  0  0  0
  7 88  1  0  0  0
  8 89  1  0  0  0
 10 90  1  0  0  0
 10 91  1  0  0  0
 11 92  1  0  0  0
 13 93  1  0  0  0
 16 94  1  0  0  0
 16 95  1  0  0  0
 17 96  1  0  0  0
 17 97  1  0  0  0
 18 98  1  0  0  0
 18 99  1  0  0  0
 19100  1  0  0  0
 20101  1  0  0  0
 23102  1  0  0  0
 23103  1  0  0  0
 24104  1  0  0  0
 24105  1  0  0  0
 25106  1  0  0  0
 25107  1  0  0  0
 26108  1  0  0  0
 28109  1  0  0  0
 28110  1  0  0  0
 29111  1  0  0  0
 31112  1  0  0  0
 34113  1  0  0  0
 34114  1  0  0  0
 35115  1  0  0  0
 35116  1  0  0  0
 36117  1  0  0  0
 36118  1  0  0  0
 37119  1  0  0  0
 38120  1  0  0  0
 41121  1  0  0  0
 41122  1  0  0  0
 43123  1  0  0  0
 45124  1  0  0  0
 46125  1  0  0  0
 49126  1  0  0  0
 49127  1  0  0  0
 52128  1  0  0  0
 53129  1  0  0  0
 54130  1  0  0  0
 57131  1  0  0  0
 57132  1  0  0  0
 58133  1  0  0  0
 59134  1  0  0  0
 59135  1  0  0  0
 59136  1  0  0  0
 60137  1  0  0  0
 60138  1  0  0  0
 60139  1  0  0  0
 61140  1  0  0  0
 62141  1  0  0  0
 65142  1  0  0  0
 65143  1  0  0  0
 66144  1  0  0  0
 66145  1  0  0  0
 68146  1  0  0  0
 70147  1  0  0  0
 71148  1  0  0  0
 74149  1  0  0  0
 75150  1  0  0  0
 75151  1  0  0  0
 76152  1  0  0  0
 76153  1  0  0  0
 76154  1  0  0  0
 77155  1  0  0  0
 77156  1  0  0  0
 77157  1  0  0  0
 78158  1  0  0  0
M  END
$$$$
