6s8a_ligand
  -I-interpret- 

 74 78  0  0  0  0  0  0  0  0999 V2000
   51.5600   -1.8440  -20.0950 C   0  0  0  0  0
   50.5640   -1.2930  -20.8030 C   0  0  0  0  0
   50.6400   -1.3010  -22.1420 C   0  0  0  0  0
   51.6790   -1.8300  -22.7970 N   0  0  0  0  0
   52.6200   -2.3930  -20.6980 N   0  0  0  0  0
   48.8080   -0.8890  -12.5800 C   0  0  0  0  0
   47.9620   -0.7450  -11.3250 C   0  0  0  0  0
   47.8290    0.6720  -10.9420 N   0  3  0  0  0
   46.9220    0.7700   -9.7900 C   0  0  0  0  0
   47.2880    1.4730  -12.0560 C   0  0  0  0  0
   48.1240    1.2940  -13.3140 C   0  0  0  0  0
   48.1490   -0.1410  -13.6680 N   0  0  0  0  0
   48.6340   -0.3830  -14.8980 C   0  0  0  0  0
   49.4970   -1.4480  -15.1360 C   0  0  0  0  0
   49.9840   -1.6730  -16.4190 C   0  0  0  0  0
   48.2580    0.4400  -15.9520 C   0  0  0  0  0
   48.7470    0.2110  -17.2320 C   0  0  0  0  0
   49.6010   -0.8590  -17.4810 C   0  0  0  0  0
   50.1180   -1.1160  -18.6880 C   0  0  0  0  0
   51.2840   -1.7330  -18.8030 N   0  0  0  0  0
   52.7150   -2.4010  -22.0820 C   0  0  0  0  0
   49.6290   -0.7330  -22.8470 O   0  0  0  0  0
   50.2390    0.2320  -23.7120 C   0  0  0  0  0
   49.1970    0.8180  -24.6600 C   0  0  0  0  0
   49.8690    1.8380  -25.5830 C   0  0  0  0  0
   48.5900   -0.3140  -25.4910 C   0  0  0  0  0
   49.6630   -0.8380  -19.9170 C   0  0  0  0  0
   48.5190   -0.2160  -20.2370 C   0  0  0  0  0
   48.5690    1.0720  -20.7520 C   0  0  0  0  0
   47.2770   -0.8220  -20.0590 C   0  0  0  0  0
   46.1150   -0.1340  -20.4030 C   0  0  0  0  0
   46.1740    1.1560  -20.9260 C   0  0  0  0  0
   47.4140    1.7640  -21.0950 C   0  0  0  0  0
   47.5480    2.9920  -21.5990 N   0  0  0  0  0
   47.3990    4.0600  -20.7990 C   0  0  0  0  0
   47.1100    4.0100  -19.6050 O   0  0  0  0  0
   47.6190    5.4050  -21.4950 C   0  0  0  0  0
   48.0800    5.3150  -22.9530 C   0  0  0  0  0
   48.9009   -1.9407  -12.8509 H   0  0  0  0  0
   49.8084   -0.4930  -12.4052 H   0  0  0  0  0
   48.4464   -1.2847  -10.5112 H   0  0  0  0  0
   46.9695   -1.1500  -11.5223 H   0  0  0  0  0
   48.7518    1.0351  -10.7033 H   0  0  0  0  0
   45.9461    0.3679  -10.0623 H   0  0  0  0  0
   47.3320    0.1992   -8.9568 H   0  0  0  0  0
   46.8175    1.8153   -9.4994 H   0  0  0  0  0
   47.3066    2.5249  -11.7710 H   0  0  0  0  0
   46.2705    1.1413  -12.2627 H   0  0  0  0  0
   49.1393    1.6488  -13.1368 H   0  0  0  0  0
   47.6894    1.8690  -14.1317 H   0  0  0  0  0
   49.7911   -2.1053  -14.3177 H   0  0  0  0  0
   50.6747   -2.4976  -16.5952 H   0  0  0  0  0
   47.5751    1.2706  -15.7736 H   0  0  0  0  0
   48.4595    0.8746  -18.0475 H   0  0  0  0  0
   53.5748   -2.8413  -22.5869 H   0  0  0  0  0
   51.0208   -0.2540  -24.2956 H   0  0  0  0  0
   50.6658    1.0337  -23.1094 H   0  0  0  0  0
   48.4108    1.3143  -24.0911 H   0  0  0  0  0
   50.3069    2.6358  -24.9831 H   0  0  0  0  0
   50.6511    1.3443  -26.1598 H   0  0  0  0  0
   49.1258    2.2576  -26.2610 H   0  0  0  0  0
   49.3767   -0.8039  -26.0648 H   0  0  0  0  0
   48.1184   -1.0381  -24.8267 H   0  0  0  0  0
   47.8439    0.0963  -26.1715 H   0  0  0  0  0
   49.5377    1.5521  -20.8907 H   0  0  0  0  0
   47.2145   -1.8312  -19.6519 H   0  0  0  0  0
   45.1458   -0.6121  -20.2608 H   0  0  0  0  0
   45.2597    1.6826  -21.1995 H   0  0  0  0  0
   47.7628    3.1190  -22.5880 H   0  0  0  0  0
   48.4104    5.9161  -20.9468 H   0  0  0  0  0
   46.6562    5.9160  -21.5015 H   0  0  0  0  0
   49.0288    4.7806  -23.0004 H   0  0  0  0  0
   47.3309    4.7805  -23.5372 H   0  0  0  0  0
   48.2071    6.3201  -23.3552 H   0  0  0  0  0
  1  2  4  0  0  0
  1  5  4  0  0  0
 20  1  4  0  0  0
  2  3  4  0  0  0
  2 27  4  0  0  0
  3  4  4  0  0  0
  3 22  1  0  0  0
 21  4  4  0  0  0
  5 21  4  0  0  0
  6  7  1  0  0  0
 12  6  1  0  0  0
  7  8  1  0  0  0
  8  9  1  0  0  0
 10  8  1  0  0  0
 11 10  1  0  0  0
 12 11  1  0  0  0
 13 12  1  0  0  0
 14 13  4  0  0  0
 16 13  4  0  0  0
 15 14  4  0  0  0
 18 15  4  0  0  0
 17 16  4  0  0  0
 18 17  4  0  0  0
 19 18  1  0  0  0
 19 20  4  0  0  0
 19 27  4  0  0  0
 22 23  1  0  0  0
 23 24  1  0  0  0
 24 25  1  0  0  0
 24 26  1  0  0  0
 27 28  1  0  0  0
 28 29  4  0  0  0
 28 30  4  0  0  0
 29 33  4  0  0  0
 30 31  4  0  0  0
 31 32  4  0  0  0
 32 33  4  0  0  0
 33 34  1  0  0  0
 34 35  1  0  0  0
 35 36  2  0  0  0
 35 37  1  0  0  0
 37 38  1  0  0  0
  6 39  1  0  0  0
  6 40  1  0  0  0
  7 41  1  0  0  0
  7 42  1  0  0  0
  8 43  1  0  0  0
  9 44  1  0  0  0
  9 45  1  0  0  0
  9 46  1  0  0  0
 10 47  1  0  0  0
 10 48  1  0  0  0
 11 49  1  0  0  0
 11 50  1  0  0  0
 14 51  1  0  0  0
 15 52  1  0  0  0
 16 53  1  0  0  0
 17 54  1  0  0  0
 21 55  1  0  0  0
 23 56  1  0  0  0
 23 57  1  0  0  0
 24 58  1  0  0  0
 25 59  1  0  0  0
 25 60  1  0  0  0
 25 61  1  0  0  0
 26 62  1  0  0  0
 26 63  1  0  0  0
 26 64  1  0  0  0
 29 65  1  0  0  0
 30 66  1  0  0  0
 31 67  1  0  0  0
 32 68  1  0  0  0
 34 69  1  0  0  0
 37 70  1  0  0  0
 37 71  1  0  0  0
 38 72  1  0  0  0
 38 73  1  0  0  0
 38 74  1  0  0  0
M  END
$$$$
