3hs4_ligand
  -I-interpret- 

 19 19  0  0  0  0  0  0  0  0999 V2000
   -5.0950    2.0810   15.8000 C   0  0  0  0  0
   -4.6920    3.9590   14.3420 C   0  0  0  0  0
   -5.8420    5.6620   13.1470 C   0  0  0  0  0
   -5.6970    6.7650   12.1200 C   0  0  0  0  0
   -5.4240   -0.5550   16.1880 N   0  0  0  0  0
   -3.5970    3.3260   14.7090 N   0  0  0  0  0
   -3.8200    2.1850   15.5420 N   0  0  0  0  0
   -4.6850    5.0760   13.5080 N   0  0  0  0  0
   -5.3270    1.0560   18.0820 O   0  0  0  0  0
   -7.2460    1.0490   16.5670 O   0  0  0  0  0
   -6.9360    5.2920   13.5500 O   0  0  0  0  0
   -5.8540    0.8210   16.7930 S   0  0  0  0  0
   -6.0730    3.3040   15.0330 S   0  0  0  0  0
   -6.2102    6.4756   11.2029 H   0  0  0  0  0
   -6.1370    7.6829   12.5099 H   0  0  0  0  0
   -4.6398    6.9279   11.9104 H   0  0  0  0  0
   -4.8195   -1.1800   16.7212 H   0  0  0  0  0
   -5.7480   -0.8277   15.2601 H   0  0  0  0  0
   -3.7989    5.4512   13.1696 H   0  0  0  0  0
  1  7  4  0  0  0
  1 12  1  0  0  0
 13  1  4  0  0  0
  2  6  4  0  0  0
  8  2  1  0  0  0
  2 13  4  0  0  0
  3  4  1  0  0  0
  3  8  1  0  0  0
  3 11  2  0  0  0
 12  5  1  0  0  0
  6  7  4  0  0  0
 12  9  2  0  0  0
 12 10  2  0  0  0
  4 14  1  0  0  0
  4 15  1  0  0  0
  4 16  1  0  0  0
  5 17  1  0  0  0
  5 18  1  0  0  0
  8 19  1  0  0  0
M  END
$$$$
