### 
### Created by X-TOOL on Mon Sep 10 21:13:10 2018
### 

@<TRIPOS>MOLECULE
4aph_ligand
  112   113     1     0     0
SMALL
GAST_HUCK


@<TRIPOS>ATOM
      1 N          13.7480    0.0630   -9.7190 N.4       1 ASP         0.2377
      2 CA         12.9120   -1.1130   -9.3370 C.3       1 ASP         0.0621
      3 C          13.3730   -2.3650  -10.0700 C.2       1 ASP         0.2264
      4 O          14.4780   -2.8590   -9.8420 O.2       1 ASP        -0.3907
      5 CB         11.4340   -0.8400   -9.6360 C.3       1 ASP        -0.0040
      6 N          12.5160   -2.8730  -10.9500 N.am      1 ARG        -0.2610
      7 CA         12.8290   -4.0550  -11.7390 C.3       1 ARG         0.1312
      8 C          12.7390   -3.7140  -13.2160 C.2       1 ARG         0.2039
      9 O          11.7750   -3.0870  -13.6560 O.2       1 ARG        -0.3944
     10 CB         11.8410   -5.1730  -11.4300 C.3       1 ARG        -0.0092
     11 CG         11.1970   -5.0580  -10.0710 C.3       1 ARG        -0.0156
     12 CD          9.9050   -5.8470  -10.0310 C.3       1 ARG         0.0627
     13 NE          9.0180   -5.5270  -11.1440 N.pl3     1 ARG        -0.2723
     14 CZ          7.7370   -5.8790  -11.1970 C.cat     1 ARG         0.2882
     15 NH1         7.1950   -6.5490  -10.1910 N.pl3     1 ARG        -0.2849
     16 NH2         6.9990   -5.5540  -12.2510 N.pl3     1 ARG        -0.2849
     17 N          13.7380   -4.1370  -13.9830 N.am      1 VAL        -0.2635
     18 CA         13.7590   -3.8630  -15.4100 C.3       1 VAL         0.1333
     19 C          14.0840   -5.1470  -16.1740 C.2       1 VAL         0.2043
     20 O          15.0010   -5.8790  -15.8040 O.2       1 VAL        -0.3944
     21 CB         14.7680   -2.7540  -15.7440 C.3       1 VAL        -0.0063
     22 CG1        14.2140   -1.8590  -16.8300 C.3       1 VAL        -0.0584
     23 CG2        15.0550   -1.9210  -14.5050 C.3       1 VAL        -0.0584
     24 N          13.3320   -5.4090  -17.2400 N.am      1 TYR        -0.2621
     25 CA         13.3550   -6.7140  -17.9080 C.3       1 TYR         0.1390
     26 C          14.1540   -6.7750  -19.2060 C.2       1 TYR         0.2057
     27 O          15.2450   -6.2200  -19.3030 O.2       1 TYR        -0.3942
     28 CB         11.9220   -7.1720  -18.1810 C.3       1 TYR         0.0163
     29 CG         11.1500   -7.4840  -16.9270 C.ar      1 TYR        -0.0493
     30 CD1        11.1900   -8.7520  -16.3690 C.ar      1 TYR        -0.0685
     31 CD2        10.3910   -6.5100  -16.2920 C.ar      1 TYR        -0.0685
     32 CE1        10.4950   -9.0470  -15.2210 C.ar      1 TYR        -0.0398
     33 CE2         9.6870   -6.7980  -15.1350 C.ar      1 TYR        -0.0398
     34 CZ          9.7460   -8.0700  -14.6060 C.ar      1 TYR         0.0805
     35 OH          9.0540   -8.3760  -13.4620 O.3       1 TYR        -0.3376
     36 N          13.5970   -7.4910  -20.1840 N.am      1 ILE        -0.2633
     37 CA         14.1530   -7.6010  -21.5310 C.3       1 ILE         0.1335
     38 C          12.9950   -7.7900  -22.4910 C.2       1 ILE         0.2043
     39 O          11.8450   -7.9050  -22.0660 O.2       1 ILE        -0.3944
     40 CB         15.0380   -8.8470  -21.7020 C.3       1 ILE        -0.0037
     41 CG1        14.2530   -9.9690  -22.3960 C.3       1 ILE        -0.0491
     42 CG2        15.5420   -9.3240  -20.3780 C.3       1 ILE        -0.0582
     43 CD1        14.9870  -11.3000  -22.4380 C.3       1 ILE        -0.0648
     44 N          13.3000   -7.8410  -23.7830 N.am      1 HIS        -0.2625
     45 CA         12.2640   -7.9880  -24.7940 C.3       1 HIS         0.1366
     46 C          11.6260   -9.3790  -24.7950 C.2       1 HIS         0.2006
     47 O          10.5480   -9.5790  -25.3540 O.2       1 HIS        -0.3946
     48 CB         12.7960   -7.6090  -26.1820 C.3       1 HIS         0.0145
     49 CG         13.9130   -8.4760  -26.6810 C.2       1 HIS        -0.0027
     50 ND1        13.8580   -9.1360  -27.8910 N.2       1 HIS        -0.3252
     51 CD2        15.1190   -8.7790  -26.1430 C.2       1 HIS         0.0291
     52 CE1        14.9790   -9.8090  -28.0750 C.2       1 HIS         0.0907
     53 NE2        15.7610   -9.6120  -27.0290 N.pl3     1 HIS        -0.2752
     54 N          12.1600  -10.3290  -24.2190 N.am      1 PRO        -0.2989
     55 H1         13.4261    0.8794   -9.2230 H         1 ASP         0.2015
     56 H2         13.6719    0.2212  -10.7116 H         1 ASP         0.2015
     57 H3         14.7106   -0.1173   -9.4803 H         1 ASP         0.2015
     58 H4         13.0241   -1.2816   -8.2558 H         1 ASP         0.1095
     59 H5         10.8339   -1.7160   -9.3486 H         1 ASP         0.0310
     60 H6         11.3072   -0.6455  -10.7112 H         1 ASP         0.0310
     61 H7         11.0999    0.0373   -9.0628 H         1 ASP         0.0310
     62 H8         11.6285   -2.4291  -11.0737 H         1 ARG         0.1884
     63 H9         13.8484   -4.3920  -11.5000 H         1 ARG         0.0800
     64 H10        12.3764   -6.1326  -11.4799 H         1 ARG         0.0313
     65 H11        11.0480   -5.1555  -12.1921 H         1 ARG         0.0313
     66 H12        10.9823   -4.0000   -9.8599 H         1 ARG         0.0301
     67 H13        11.8858   -5.4515   -9.3090 H         1 ARG         0.0301
     68 H14         9.3836   -5.6218   -9.0890 H         1 ARG         0.0689
     69 H15        10.1458   -6.9196  -10.0695 H         1 ARG         0.0689
     70 H16         9.4075   -4.9965  -11.9364 H         1 ARG         0.2642
     71 H17         6.2028   -6.8228  -10.2298 H         1 ARG         0.2615
     72 H18         7.7657   -6.7962   -9.3700 H         1 ARG         0.2615
     73 H19         7.4199   -5.0330  -13.0335 H         1 ARG         0.2615
     74 H20         6.0053   -5.8227  -12.2865 H         1 ARG         0.2615
     75 H21        14.4889   -4.6532  -13.5710 H         1 VAL         0.1883
     76 H22        12.7589   -3.5202  -15.7137 H         1 VAL         0.0802
     77 H23        15.7034   -3.2135  -16.0959 H         1 VAL         0.0343
     78 H24        14.9435   -1.0689  -17.0616 H         1 VAL         0.0234
     79 H25        13.2752   -1.4014  -16.4847 H         1 VAL         0.0234
     80 H26        14.0205   -2.4556  -17.7336 H         1 VAL         0.0234
     81 H27        15.4582   -2.5690  -13.7128 H         1 VAL         0.0234
     82 H28        14.1240   -1.4507  -14.1556 H         1 VAL         0.0234
     83 H29        15.7905   -1.1406  -14.7501 H         1 VAL         0.0234
     84 H30        12.7320   -4.6930  -17.5969 H         1 TYR         0.1885
     85 H31        13.8184   -7.4258  -17.2090 H         1 TYR         0.0821
     86 H32        11.9572   -8.0777  -18.8043 H         1 TYR         0.0453
     87 H33        11.3971   -6.3728  -18.7248 H         1 TYR         0.0453
     88 H34        11.7804   -9.5253  -16.8470 H         1 TYR         0.0530
     89 H35        10.3490   -5.5099  -16.7080 H         1 TYR         0.0530
     90 H36        10.5365  -10.0456  -14.8013 H         1 TYR         0.0525
     91 H37         9.0950   -6.0306  -14.6496 H         1 TYR         0.0525
     92 H38         9.2031   -9.2868  -13.2371 H         1 TYR         0.2458
     93 H39        12.7489   -7.9815  -19.9836 H         1 ILE         0.1883
     94 H40        14.7254   -6.6932  -21.7726 H         1 ILE         0.0803
     95 H41        15.9003   -8.5794  -22.3303 H         1 ILE         0.0345
     96 H42        14.0431   -9.6566  -23.4296 H         1 ILE         0.0267
     97 H43        13.3051  -10.1132  -21.8568 H         1 ILE         0.0267
     98 H44        16.1032   -8.5156  -19.8865 H         1 ILE         0.0235
     99 H45        16.2028  -10.1906  -20.5277 H         1 ILE         0.0235
    100 H46        14.6910   -9.6167  -19.7455 H         1 ILE         0.0235
    101 H47        14.3618  -12.0475  -22.9483 H         1 ILE         0.0230
    102 H48        15.1961  -11.6360  -21.4117 H         1 ILE         0.0230
    103 H49        15.9340  -11.1794  -22.9845 H         1 ILE         0.0230
    104 H50        14.2572   -7.7773  -24.0653 H         1 HIS         0.1885
    105 H51        11.4672   -7.2721  -24.5439 H         1 HIS         0.0817
    106 H52        13.1601   -6.5719  -26.1384 H         1 HIS         0.0420
    107 H53        11.9639   -7.6757  -26.8983 H         1 HIS         0.0420
    108 H54        15.5072   -8.4285  -25.1878 H         1 HIS         0.0729
    109 H55        15.2183  -10.4226  -28.9423 H         1 HIS         0.1199
    110 H56        16.6992  -10.0165  -26.8982 H         1 HIS         0.2361
    111 H57        11.7259  -11.2298  -24.2321 H         1 PRO         0.1815
    112 H58        13.0273  -10.1989  -23.7386 H         1 PRO         0.1815
@<TRIPOS>BOND
     1    1    2 1  
     2    2    3 1  
     3    2    5 1  
     4    3    4 2  
     5    3    6 am 
     6    6    7 1  
     7    7    8 1  
     8    7   10 1  
     9    8    9 2  
    10    8   17 am 
    11   10   11 1  
    12   11   12 1  
    13   12   13 1  
    14   13   14 ar 
    15   14   15 ar 
    16   14   16 ar 
    17   17   18 1  
    18   18   19 1  
    19   18   21 1  
    20   19   20 2  
    21   19   24 am 
    22   21   22 1  
    23   21   23 1  
    24   24   25 1  
    25   25   26 1  
    26   25   28 1  
    27   26   27 2  
    28   26   36 am 
    29   28   29 1  
    30   29   30 ar 
    31   29   31 ar 
    32   30   32 ar 
    33   31   33 ar 
    34   32   34 ar 
    35   33   34 ar 
    36   34   35 1  
    37   36   37 1  
    38   37   38 1  
    39   37   40 1  
    40   38   39 2  
    41   38   44 am 
    42   40   41 1  
    43   40   42 1  
    44   41   43 1  
    45   44   45 1  
    46   45   46 1  
    47   45   48 1  
    48   46   47 2  
    49   46   54 am 
    50   48   49 1  
    51   49   50 1  
    52   49   51 2  
    53   50   52 2  
    54   51   53 1  
    55   52   53 1  
    56    1   55 1  
    57    1   56 1  
    58    1   57 1  
    59    2   58 1  
    60    5   59 1  
    61    5   60 1  
    62    5   61 1  
    63    6   62 1  
    64    7   63 1  
    65   10   64 1  
    66   10   65 1  
    67   11   66 1  
    68   11   67 1  
    69   12   68 1  
    70   12   69 1  
    71   13   70 1  
    72   15   71 1  
    73   15   72 1  
    74   16   73 1  
    75   16   74 1  
    76   17   75 1  
    77   18   76 1  
    78   21   77 1  
    79   22   78 1  
    80   22   79 1  
    81   22   80 1  
    82   23   81 1  
    83   23   82 1  
    84   23   83 1  
    85   24   84 1  
    86   25   85 1  
    87   28   86 1  
    88   28   87 1  
    89   30   88 1  
    90   31   89 1  
    91   32   90 1  
    92   33   91 1  
    93   35   92 1  
    94   36   93 1  
    95   37   94 1  
    96   40   95 1  
    97   41   96 1  
    98   41   97 1  
    99   42   98 1  
   100   42   99 1  
   101   42  100 1  
   102   43  101 1  
   103   43  102 1  
   104   43  103 1  
   105   44  104 1  
   106   45  105 1  
   107   48  106 1  
   108   48  107 1  
   109   51  108 1  
   110   52  109 1  
   111   53  110 1  
   112   54  111 1  
   113   54  112 1  
@<TRIPOS>SUBSTRUCTURE
     1 ASP         1

