4aph_ligand
  -I-interpret- 

110111  0  0  0  0  0  0  0  0999 V2000
   13.7480    0.0630   -9.7190 N   0  3  0  0  0
   12.9120   -1.1130   -9.3370 C   0  0  0  0  0
   13.3730   -2.3650  -10.0700 C   0  0  0  0  0
   14.4780   -2.8590   -9.8420 O   0  0  0  0  0
   11.4340   -0.8400   -9.6360 C   0  0  0  0  0
   12.5160   -2.8730  -10.9500 N   0  0  0  0  0
   12.8290   -4.0550  -11.7390 C   0  0  0  0  0
   12.7390   -3.7140  -13.2160 C   0  0  0  0  0
   11.7750   -3.0870  -13.6560 O   0  0  0  0  0
   11.8410   -5.1730  -11.4300 C   0  0  0  0  0
   11.1970   -5.0580  -10.0710 C   0  0  0  0  0
    9.9050   -5.8470  -10.0310 C   0  0  0  0  0
    9.0180   -5.5270  -11.1440 N   0  0  0  0  0
    7.7370   -5.8790  -11.1970 C   0  0  0  0  0
    7.1950   -6.5490  -10.1910 N   0  0  0  0  0
    6.9990   -5.5540  -12.2510 N   0  0  0  0  0
   13.7380   -4.1370  -13.9830 N   0  0  0  0  0
   13.7590   -3.8630  -15.4100 C   0  0  0  0  0
   14.0840   -5.1470  -16.1740 C   0  0  0  0  0
   15.0010   -5.8790  -15.8040 O   0  0  0  0  0
   14.7680   -2.7540  -15.7440 C   0  0  0  0  0
   14.2140   -1.8590  -16.8300 C   0  0  0  0  0
   15.0550   -1.9210  -14.5050 C   0  0  0  0  0
   13.3320   -5.4090  -17.2400 N   0  0  0  0  0
   13.3550   -6.7140  -17.9080 C   0  0  0  0  0
   14.1540   -6.7750  -19.2060 C   0  0  0  0  0
   15.2450   -6.2200  -19.3030 O   0  0  0  0  0
   11.9220   -7.1720  -18.1810 C   0  0  0  0  0
   11.1500   -7.4840  -16.9270 C   0  0  0  0  0
   11.1900   -8.7520  -16.3690 C   0  0  0  0  0
   10.3910   -6.5100  -16.2920 C   0  0  0  0  0
   10.4950   -9.0470  -15.2210 C   0  0  0  0  0
    9.6870   -6.7980  -15.1350 C   0  0  0  0  0
    9.7460   -8.0700  -14.6060 C   0  0  0  0  0
    9.0540   -8.3760  -13.4620 O   0  0  0  0  0
   13.5970   -7.4910  -20.1840 N   0  0  0  0  0
   14.1530   -7.6010  -21.5310 C   0  0  0  0  0
   12.9950   -7.7900  -22.4910 C   0  0  0  0  0
   11.8450   -7.9050  -22.0660 O   0  0  0  0  0
   15.0380   -8.8470  -21.7020 C   0  0  0  0  0
   14.2530   -9.9690  -22.3960 C   0  0  0  0  0
   15.5420   -9.3240  -20.3780 C   0  0  0  0  0
   14.9870  -11.3000  -22.4380 C   0  0  0  0  0
   13.3000   -7.8410  -23.7830 N   0  0  0  0  0
   12.2640   -7.9880  -24.7940 C   0  0  0  0  0
   11.6260   -9.3790  -24.7950 C   0  0  0  0  0
   10.5480   -9.5790  -25.3540 O   0  0  0  0  0
   12.7960   -7.6090  -26.1820 C   0  0  0  0  0
   13.9130   -8.4760  -26.6810 C   0  0  0  0  0
   13.8580   -9.1360  -27.8910 N   0  0  0  0  0
   15.1190   -8.7790  -26.1430 C   0  0  0  0  0
   14.9790   -9.8090  -28.0750 C   0  0  0  0  0
   15.7610   -9.6120  -27.0290 N   0  0  0  0  0
   12.1600  -10.3290  -24.2190 N   0  0  0  0  0
   14.7270   -0.1361   -9.5134 H   0  0  0  0  0
   13.6393    0.2462  -10.7165 H   0  0  0  0  0
   13.4470    0.8797   -9.1873 H   0  0  0  0  0
   13.0286   -1.2779   -8.2659 H   0  0  0  0  0
   11.3022   -0.6957  -10.7083 H   0  0  0  0  0
   10.8351   -1.6888   -9.3060 H   0  0  0  0  0
   11.1172    0.0580   -9.1056 H   0  0  0  0  0
   11.6108   -2.4202  -11.0762 H   0  0  0  0  0
   13.8373   -4.3861  -11.4903 H   0  0  0  0  0
   12.3956   -6.1112  -11.4485 H   0  0  0  0  0
   11.0450   -5.1177  -12.1726 H   0  0  0  0  0
   10.9791   -4.0093   -9.8688 H   0  0  0  0  0
   11.8794   -5.4557   -9.3198 H   0  0  0  0  0
    9.3866   -5.5953   -9.1058 H   0  0  0  0  0
   10.1562   -6.9057  -10.0958 H   0  0  0  0  0
    9.4037   -5.0017  -11.9287 H   0  0  0  0  0
    7.7602   -6.7938   -9.3780 H   0  0  0  0  0
    6.0150   -5.8201  -12.2862 H   0  0  0  0  0
    7.4158   -5.0381  -13.0259 H   0  0  0  0  0
   14.5039   -4.6635  -13.5627 H   0  0  0  0  0
   12.7739   -3.5101  -15.7152 H   0  0  0  0  0
   15.6917   -3.2164  -16.0920 H   0  0  0  0  0
   14.0226   -2.4514  -17.7248 H   0  0  0  0  0
   13.2838   -1.4063  -16.4866 H   0  0  0  0  0
   14.9377   -1.0766  -17.0586 H   0  0  0  0  0
   14.1289   -1.4688  -14.1502 H   0  0  0  0  0
   15.4698   -2.5612  -13.7264 H   0  0  0  0  0
   15.7714   -1.1379  -14.7532 H   0  0  0  0  0
   12.7200   -4.6787  -17.6041 H   0  0  0  0  0
   13.8726   -7.3781  -17.2158 H   0  0  0  0  0
   11.9744   -8.0860  -18.7726 H   0  0  0  0  0
   11.4070   -6.3586  -18.6921 H   0  0  0  0  0
   11.7837   -9.5295  -16.8497 H   0  0  0  0  0
   10.3488   -5.5043  -16.7103 H   0  0  0  0  0
   10.5368  -10.0511  -14.7990 H   0  0  0  0  0
    9.0917   -6.0264  -14.6469 H   0  0  0  0  0
    8.5842   -7.5969  -13.1555 H   0  0  0  0  0
   12.7319   -7.9913  -19.9796 H   0  0  0  0  0
   14.7458   -6.7052  -21.7158 H   0  0  0  0  0
   15.8916   -8.5740  -22.3224 H   0  0  0  0  0
   14.0866   -9.6580  -23.4274 H   0  0  0  0  0
   13.3359  -10.1225  -21.8273 H   0  0  0  0  0
   16.1304   -8.5353  -19.9091 H   0  0  0  0  0
   14.6964   -9.5773  -19.7386 H   0  0  0  0  0
   16.1655  -10.2060  -20.5243 H   0  0  0  0  0
   15.9251  -11.1792  -22.9797 H   0  0  0  0  0
   15.1936  -11.6318  -21.4205 H   0  0  0  0  0
   14.3666  -12.0398  -22.9438 H   0  0  0  0  0
   14.2764   -7.7760  -24.0709 H   0  0  0  0  0
   11.4671   -7.2918  -24.5325 H   0  0  0  0  0
   13.1899   -6.5955  -26.1057 H   0  0  0  0  0
   11.9681   -7.7229  -26.8818 H   0  0  0  0  0
   15.5076   -8.4282  -25.1869 H   0  0  0  0  0
   15.2185  -10.4231  -28.9431 H   0  0  0  0  0
   11.7080  -11.2434  -24.2166 H   0  0  0  0  0
   13.0539  -10.2007  -23.7448 H   0  0  0  0  0
  1  2  1  0  0  0
  2  3  1  0  0  0
  2  5  1  0  0  0
  3  4  2  0  0  0
  3  6  1  0  0  0
  6  7  1  0  0  0
  7  8  1  0  0  0
  7 10  1  0  0  0
  8  9  2  0  0  0
  8 17  1  0  0  0
 10 11  1  0  0  0
 11 12  1  0  0  0
 12 13  1  0  0  0
 13 14  1  0  0  0
 14 15  2  0  0  0
 14 16  1  0  0  0
 17 18  1  0  0  0
 18 19  1  0  0  0
 18 21  1  0  0  0
 19 20  2  0  0  0
 19 24  1  0  0  0
 21 22  1  0  0  0
 21 23  1  0  0  0
 24 25  1  0  0  0
 25 26  1  0  0  0
 25 28  1  0  0  0
 26 27  2  0  0  0
 26 36  1  0  0  0
 28 29  1  0  0  0
 29 30  4  0  0  0
 29 31  4  0  0  0
 30 32  4  0  0  0
 31 33  4  0  0  0
 32 34  4  0  0  0
 33 34  4  0  0  0
 34 35  1  0  0  0
 36 37  1  0  0  0
 37 38  1  0  0  0
 37 40  1  0  0  0
 38 39  2  0  0  0
 38 44  1  0  0  0
 40 41  1  0  0  0
 40 42  1  0  0  0
 41 43  1  0  0  0
 44 45  1  0  0  0
 45 46  1  0  0  0
 45 48  1  0  0  0
 46 47  2  0  0  0
 46 54  1  0  0  0
 48 49  1  0  0  0
 49 50  4  0  0  0
 49 51  4  0  0  0
 50 52  4  0  0  0
 51 53  4  0  0  0
 52 53  4  0  0  0
  1 55  1  0  0  0
  1 56  1  0  0  0
  1 57  1  0  0  0
  2 58  1  0  0  0
  5 59  1  0  0  0
  5 60  1  0  0  0
  5 61  1  0  0  0
  6 62  1  0  0  0
  7 63  1  0  0  0
 10 64  1  0  0  0
 10 65  1  0  0  0
 11 66  1  0  0  0
 11 67  1  0  0  0
 12 68  1  0  0  0
 12 69  1  0  0  0
 13 70  1  0  0  0
 15 71  1  0  0  0
 16 72  1  0  0  0
 16 73  1  0  0  0
 17 74  1  0  0  0
 18 75  1  0  0  0
 21 76  1  0  0  0
 22 77  1  0  0  0
 22 78  1  0  0  0
 22 79  1  0  0  0
 23 80  1  0  0  0
 23 81  1  0  0  0
 23 82  1  0  0  0
 24 83  1  0  0  0
 25 84  1  0  0  0
 28 85  1  0  0  0
 28 86  1  0  0  0
 30 87  1  0  0  0
 31 88  1  0  0  0
 32 89  1  0  0  0
 33 90  1  0  0  0
 35 91  1  0  0  0
 36 92  1  0  0  0
 37 93  1  0  0  0
 40 94  1  0  0  0
 41 95  1  0  0  0
 41 96  1  0  0  0
 42 97  1  0  0  0
 42 98  1  0  0  0
 42 99  1  0  0  0
 43100  1  0  0  0
 43101  1  0  0  0
 43102  1  0  0  0
 44103  1  0  0  0
 45104  1  0  0  0
 48105  1  0  0  0
 48106  1  0  0  0
 51107  1  0  0  0
 52108  1  0  0  0
 54109  1  0  0  0
 54110  1  0  0  0
M  END
$$$$
