2fj0_ligand
  -I-interpret- 

 37 36  0  0  0  0  0  0  0  0999 V2000
   35.3740   48.8220   76.9990 C   0  0  0  0  0
   35.5220   49.9570   75.9790 C   0  0  0  0  0
   34.7200   49.6510   74.7150 C   0  0  0  0  0
   34.7440   50.8190   73.7290 C   0  0  0  0  0
   33.9090   50.4980   72.4840 C   0  0  0  0  0
   34.5670   49.3710   71.6880 C   0  0  0  0  0
   33.6600   48.7890   70.6010 C   0  0  0  0  0
   33.3130   49.7870   69.4930 C   0  0  0  0  0
   32.5630   48.9280   68.0640 S   0  0  0  0  0
   31.6060   50.2850   67.3000 C   0  0  0  0  0
   30.2610   49.8280   66.7270 C   0  0  0  0  0
   30.4970   48.7140   65.8590 O   0  0  0  0  0
   29.1990   49.4580   67.7700 C   0  0  0  0  0
   28.0620   49.1600   67.1500 F   0  0  0  0  0
   28.9490   50.4840   68.5780 F   0  0  0  0  0
   29.5680   48.4150   68.5080 F   0  0  0  0  0
   34.3230   48.7092   77.2652 H   0  0  0  0  0
   35.7414   47.8931   76.5628 H   0  0  0  0  0
   35.9527   49.0596   77.8916 H   0  0  0  0  0
   36.5743   50.0590   75.7139 H   0  0  0  0  0
   35.1470   50.8803   76.4207 H   0  0  0  0  0
   33.6848   49.4674   75.0027 H   0  0  0  0  0
   35.1659   48.7835   74.2286 H   0  0  0  0  0
   35.7746   51.0001   73.4238 H   0  0  0  0  0
   34.3242   51.6990   74.2164 H   0  0  0  0  0
   33.8431   51.3877   71.8577 H   0  0  0  0  0
   32.9120   50.1837   72.7927 H   0  0  0  0  0
   34.8019   48.5677   72.3863 H   0  0  0  0  0
   35.4472   49.7851   71.1961 H   0  0  0  0  0
   32.7259   48.4931   71.0786 H   0  0  0  0  0
   34.1952   47.9599   70.1382 H   0  0  0  0  0
   34.2267   50.2837   69.1665 H   0  0  0  0  0
   32.5994   50.5130   69.8827 H   0  0  0  0  0
   32.1979   50.6827   66.4756 H   0  0  0  0  0
   31.4006   51.0218   68.0766 H   0  0  0  0  0
   29.8449   50.6838   66.1954 H   0  0  0  0  0
   29.6627   48.4145   65.4906 H   0  0  0  0  0
  1  2  1  0  0  0
  2  3  1  0  0  0
  3  4  1  0  0  0
  4  5  1  0  0  0
  5  6  1  0  0  0
  6  7  1  0  0  0
  7  8  1  0  0  0
  8  9  1  0  0  0
  9 10  1  0  0  0
 10 11  1  0  0  0
 11 12  1  0  0  0
 11 13  1  0  0  0
 13 14  1  0  0  0
 13 15  1  0  0  0
 13 16  1  0  0  0
  1 17  1  0  0  0
  1 18  1  0  0  0
  1 19  1  0  0  0
  2 20  1  0  0  0
  2 21  1  0  0  0
  3 22  1  0  0  0
  3 23  1  0  0  0
  4 24  1  0  0  0
  4 25  1  0  0  0
  5 26  1  0  0  0
  5 27  1  0  0  0
  6 28  1  0  0  0
  6 29  1  0  0  0
  7 30  1  0  0  0
  7 31  1  0  0  0
  8 32  1  0  0  0
  8 33  1  0  0  0
 10 34  1  0  0  0
 10 35  1  0  0  0
 11 36  1  0  0  0
 12 37  1  0  0  0
M  END
$$$$
