4yee_ligand
  -I-interpret- 

168176  0  0  0  0  0  0  0  0999 V2000
   36.1900  -21.7360   16.6710 O   0  0  0  0  0
   36.8960  -20.5260   16.9760 C   0  0  0  0  0
   36.3610  -19.4140   16.0960 C   0  0  0  0  0
   34.9540  -19.2800   16.3980 O   0  0  0  0  0
   37.1930  -18.1600   16.3850 C   0  0  0  0  0
   36.7960  -17.0890   15.5180 O   0  0  0  0  0
   38.7040  -18.4420   16.1480 C   0  0  0  0  0
   39.5650  -17.1790   16.3440 C   0  0  0  0  0
   39.4700  -16.6960   17.7010 O   0  0  0  0  0
   39.1090  -19.4930   17.0340 O   0  0  0  0  0
   38.4060  -20.7300   16.8260 C   0  0  0  0  0
   38.6990  -21.2370   15.5460 O   0  0  0  0  0
   40.0670  -21.6590   15.3880 C   0  0  0  0  0
   40.1520  -22.3330   14.0290 C   0  0  0  0  0
   41.4390  -23.1270   13.7700 C   0  0  0  0  0
   41.4880  -24.2180   14.6680 O   0  0  0  0  0
   42.3950  -24.1070   15.7720 C   0  0  0  0  0
   43.4520  -25.2170   15.6690 C   0  0  0  0  0
   44.1310  -25.2170   14.4080 O   0  0  0  0  0
   42.7860  -26.5620   15.8800 C   0  0  0  0  0
   43.7450  -27.5750   15.9520 O   0  0  0  0  0
   41.6660  -24.2390   16.9930 O   0  0  0  0  0
   40.9760  -25.4920   17.1970 C   0  0  0  0  0
   40.2510  -25.4220   18.5370 C   0  0  0  0  0
   39.3500  -24.3270   18.4390 O   0  0  0  0  0
   41.9940  -26.6160   17.1790 C   0  0  0  0  0
   41.3060  -27.8490   17.2270 O   0  0  0  0  0
   41.3470  -28.6170   18.4440 C   0  0  0  0  0
   41.8250  -30.0210   18.0970 C   0  0  0  0  0
   43.0300  -29.9450   17.3680 O   0  0  0  0  0
   40.8420  -30.7450   17.1710 C   0  0  0  0  0
   41.2280  -32.0720   16.8170 O   0  0  0  0  0
   40.0200  -28.7480   18.9300 O   0  0  0  0  0
   39.1040  -29.3490   18.0120 C   0  0  0  0  0
   37.6870  -29.2540   18.5290 C   0  0  0  0  0
   37.7420  -29.3060   19.9450 O   0  0  0  0  0
   39.4860  -30.7790   17.7730 C   0  0  0  0  0
   38.6620  -31.3620   16.7710 O   0  0  0  0  0
   37.9000  -32.5470   17.1190 C   0  0  0  0  0
   37.9280  -33.5100   15.9450 C   0  0  0  0  0
   39.2870  -33.7790   15.5570 O   0  0  0  0  0
   37.1770  -32.9250   14.7470 C   0  0  0  0  0
   37.1540  -33.8480   13.6500 O   0  0  0  0  0
   36.5310  -32.2260   17.3510 O   0  0  0  0  0
   35.8800  -31.5210   16.3090 C   0  0  0  0  0
   34.5540  -31.0180   16.8400 C   0  0  0  0  0
   34.1120  -31.9350   17.8530 O   0  0  0  0  0
   39.9320  -21.3670   13.0000 O   0  0  0  0  0
   39.8830  -21.9080   11.6650 C   0  0  0  0  0
   41.2000  -22.6100   11.3400 C   0  0  0  0  0
   41.1690  -23.1060   10.0010 O   0  0  0  0  0
   41.4660  -23.7180   12.3500 C   0  0  0  0  0
   42.7140  -24.4070   12.0680 O   0  0  0  0  0
   38.8130  -22.8660   11.5210 O   0  0  0  0  0
   37.6560  -22.4430   10.8340 C   0  0  0  0  0
   36.3940  -22.6120   11.7000 C   0  0  0  0  0
   36.2980  -21.6930   12.9000 C   0  0  0  0  0
   35.5520  -22.3550   13.9120 O   0  0  0  0  0
   35.1640  -22.6560   10.9720 O   0  0  0  0  0
   35.1860  -23.3500    9.7130 C   0  0  0  0  0
   36.3030  -22.9340    8.7990 C   0  0  0  0  0
   36.2270  -23.7050    7.5770 O   0  0  0  0  0
   37.6530  -23.1390    9.5060 C   0  0  0  0  0
   38.7110  -22.6380    8.6770 O   0  0  0  0  0
   35.3830  -24.7250    9.9970 O   0  0  0  0  0
   34.2460  -25.5430    9.6700 C   0  0  0  0  0
   33.5140  -25.9160   10.9480 C   0  0  0  0  0
   32.7310  -24.6950   11.4580 C   0  0  0  0  0
   32.5210  -24.9940   12.8340 O   0  0  0  0  0
   32.5400  -26.9770   10.7340 O   0  0  0  0  0
   33.0030  -28.1380   10.0470 C   0  0  0  0  0
   33.6230  -27.7650    8.7150 C   0  0  0  0  0
   34.1310  -28.9220    8.0560 O   0  0  0  0  0
   34.7640  -26.7650    8.9320 C   0  0  0  0  0
   35.3000  -26.3080    7.7020 O   0  0  0  0  0
   33.9400  -28.7850   10.8930 O   0  0  0  0  0
   33.5450  -30.0450   11.4780 C   0  0  0  0  0
   33.2530  -29.9610   12.9930 C   0  0  0  0  0
   33.0540  -31.2550   13.5370 O   0  0  0  0  0
   32.0130  -29.1840   13.4230 C   0  0  0  0  0
   30.8350  -29.7460   12.7910 O   0  0  0  0  0
   34.7110  -30.9990   11.2130 C   0  0  0  0  0
   34.8360  -31.1740    9.7900 O   0  0  0  0  0
   34.4090  -32.3470   11.8610 C   0  0  0  0  0
   35.5060  -33.2410   11.7360 O   0  0  0  0  0
   34.1060  -32.1950   13.3420 C   0  0  0  0  0
   35.2430  -31.7100   14.0230 O   0  0  0  0  0
   35.7680  -32.4460   15.1160 C   0  0  0  0  0
   35.2466  -21.5885   16.7705 H   0  0  0  0  0
   36.7318  -20.2420   18.0155 H   0  0  0  0  0
   36.4458  -19.6079   15.0267 H   0  0  0  0  0
   34.5038  -20.1023   16.1912 H   0  0  0  0  0
   37.0260  -17.8818   17.4256 H   0  0  0  0  0
   35.8641  -16.9003   15.6504 H   0  0  0  0  0
   38.8541  -18.7502   15.1133 H   0  0  0  0  0
   39.2057  -16.4018   15.6695 H   0  0  0  0  0
   40.6050  -17.4276   16.1325 H   0  0  0  0  0
   40.0134  -15.9106   17.7987 H   0  0  0  0  0
   38.7330  -21.4461   17.5799 H   0  0  0  0  0
   40.3601  -22.3437   16.1838 H   0  0  0  0  0
   40.7482  -20.8101   15.4476 H   0  0  0  0  0
   39.3648  -23.0870   14.0224 H   0  0  0  0  0
   42.2796  -22.4449   13.8973 H   0  0  0  0  0
   42.8903  -23.1362   15.7529 H   0  0  0  0  0
   44.1991  -25.0285   16.4399 H   0  0  0  0  0
   44.7781  -25.9260   14.3943 H   0  0  0  0  0
   42.1153  -26.7023   15.0323 H   0  0  0  0  0
   43.3077  -28.4191   16.0856 H   0  0  0  0  0
   40.2454  -25.6785   16.4099 H   0  0  0  0  0
   40.9534  -25.2826   19.3588 H   0  0  0  0  0
   39.7214  -26.3510   18.7480 H   0  0  0  0  0
   38.8649  -24.2385   19.2627 H   0  0  0  0  0
   42.6668  -26.5146   18.0305 H   0  0  0  0  0
   41.9970  -28.1362   19.1751 H   0  0  0  0  0
   41.9318  -30.5533   19.0422 H   0  0  0  0  0
   43.3280  -30.8315   17.1512 H   0  0  0  0  0
   40.8440  -30.1634   16.2491 H   0  0  0  0  0
   40.5635  -32.4539   16.2389 H   0  0  0  0  0
   39.1521  -28.8096   17.0661 H   0  0  0  0  0
   37.0854  -30.0763   18.1417 H   0  0  0  0  0
   37.2244  -28.3232   18.2007 H   0  0  0  0  0
   36.8524  -29.2474   20.3010 H   0  0  0  0  0
   39.4078  -31.3357   18.7069 H   0  0  0  0  0
   38.3410  -32.9781   18.0178 H   0  0  0  0  0
   37.4425  -34.4348   16.2567 H   0  0  0  0  0
   39.2922  -34.3881   14.8150 H   0  0  0  0  0
   37.7276  -32.0405   14.4266 H   0  0  0  0  0
   36.6780  -33.4566   12.9139 H   0  0  0  0  0
   36.4333  -30.6442   15.9724 H   0  0  0  0  0
   33.8210  -30.9601   16.0354 H   0  0  0  0  0
   34.6681  -30.0178   17.2580 H   0  0  0  0  0
   33.2706  -31.6378   18.2069 H   0  0  0  0  0
   39.7106  -21.0760   10.9823 H   0  0  0  0  0
   42.0216  -21.8972   11.4111 H   0  0  0  0  0
   41.9995  -23.5455    9.8044 H   0  0  0  0  0
   40.6804  -24.4696   12.2725 H   0  0  0  0  0
   42.6891  -24.7593   11.1753 H   0  0  0  0  0
   37.6576  -21.3716   10.6333 H   0  0  0  0  0
   36.5456  -23.6117   12.1070 H   0  0  0  0  0
   35.8034  -20.7631   12.6195 H   0  0  0  0  0
   37.2958  -21.4537   13.2678 H   0  0  0  0  0
   35.4818  -21.7847   14.6811 H   0  0  0  0  0
   34.2476  -23.1226    9.2072 H   0  0  0  0  0
   36.2114  -21.8772    8.5483 H   0  0  0  0  0
   36.9393  -23.4424    6.9895 H   0  0  0  0  0
   37.8087  -24.2042    9.6770 H   0  0  0  0  0
   38.6961  -23.0925    7.8316 H   0  0  0  0  0
   33.5354  -25.0165    9.0329 H   0  0  0  0  0
   34.2683  -26.2528   11.6591 H   0  0  0  0  0
   31.7990  -24.5368   10.9153 H   0  0  0  0  0
   33.2687  -23.7587   11.3087 H   0  0  0  0  0
   32.0317  -24.2776   13.2449 H   0  0  0  0  0
   32.1740  -28.8101    9.8252 H   0  0  0  0  0
   32.8510  -27.3126    8.0925 H   0  0  0  0  0
   34.5189  -28.6660    7.2160 H   0  0  0  0  0
   35.5352  -27.2824    9.5026 H   0  0  0  0  0
   35.6392  -27.0557    7.2045 H   0  0  0  0  0
   32.6082  -30.3804   11.0330 H   0  0  0  0  0
   34.1348  -29.4331   13.3562 H   0  0  0  0  0
   32.1196  -28.1417   13.1226 H   0  0  0  0  0
   31.9056  -29.2486   14.5058 H   0  0  0  0  0
   30.0592  -29.2521   13.0662 H   0  0  0  0  0
   35.6352  -30.5954   11.6266 H   0  0  0  0  0
   35.5646  -31.7711    9.6049 H   0  0  0  0  0
   33.5393  -32.7467   11.3395 H   0  0  0  0  0
   35.2849  -34.0772   12.1524 H   0  0  0  0  0
   33.8176  -33.1732   13.7267 H   0  0  0  0  0
   35.1225  -33.2933   15.3472 H   0  0  0  0  0
  1  2  1  0  0  0
  2  3  1  0  0  0
  2 11  1  0  0  0
  3  4  1  0  0  0
  3  5  1  0  0  0
  5  6  1  0  0  0
  5  7  1  0  0  0
  7  8  1  0  0  0
  7 10  1  0  0  0
  8  9  1  0  0  0
 10 11  1  0  0  0
 11 12  1  0  0  0
 12 13  1  0  0  0
 13 14  1  0  0  0
 14 15  1  0  0  0
 14 48  1  0  0  0
 15 16  1  0  0  0
 15 52  1  0  0  0
 16 17  1  0  0  0
 17 18  1  0  0  0
 17 22  1  0  0  0
 18 19  1  0  0  0
 18 20  1  0  0  0
 20 21  1  0  0  0
 20 26  1  0  0  0
 22 23  1  0  0  0
 23 24  1  0  0  0
 23 26  1  0  0  0
 24 25  1  0  0  0
 26 27  1  0  0  0
 27 28  1  0  0  0
 28 29  1  0  0  0
 28 33  1  0  0  0
 29 30  1  0  0  0
 29 31  1  0  0  0
 31 32  1  0  0  0
 31 37  1  0  0  0
 33 34  1  0  0  0
 34 35  1  0  0  0
 34 37  1  0  0  0
 35 36  1  0  0  0
 37 38  1  0  0  0
 38 39  1  0  0  0
 39 40  1  0  0  0
 39 44  1  0  0  0
 40 41  1  0  0  0
 40 42  1  0  0  0
 42 43  1  0  0  0
 42 88  1  0  0  0
 44 45  1  0  0  0
 45 46  1  0  0  0
 45 88  1  0  0  0
 46 47  1  0  0  0
 48 49  1  0  0  0
 49 50  1  0  0  0
 49 54  1  0  0  0
 50 51  1  0  0  0
 50 52  1  0  0  0
 52 53  1  0  0  0
 54 55  1  0  0  0
 55 56  1  0  0  0
 55 63  1  0  0  0
 56 57  1  0  0  0
 56 59  1  0  0  0
 57 58  1  0  0  0
 59 60  1  0  0  0
 60 61  1  0  0  0
 60 65  1  0  0  0
 61 62  1  0  0  0
 61 63  1  0  0  0
 63 64  1  0  0  0
 65 66  1  0  0  0
 66 67  1  0  0  0
 66 74  1  0  0  0
 67 68  1  0  0  0
 67 70  1  0  0  0
 68 69  1  0  0  0
 70 71  1  0  0  0
 71 72  1  0  0  0
 71 76  1  0  0  0
 72 73  1  0  0  0
 72 74  1  0  0  0
 74 75  1  0  0  0
 76 77  1  0  0  0
 77 78  1  0  0  0
 77 82  1  0  0  0
 78 79  1  0  0  0
 78 80  1  0  0  0
 79 86  1  0  0  0
 80 81  1  0  0  0
 82 83  1  0  0  0
 82 84  1  0  0  0
 84 85  1  0  0  0
 84 86  1  0  0  0
 86 87  1  0  0  0
 87 88  1  0  0  0
  1 89  1  0  0  0
  2 90  1  0  0  0
  3 91  1  0  0  0
  4 92  1  0  0  0
  5 93  1  0  0  0
  6 94  1  0  0  0
  7 95  1  0  0  0
  8 96  1  0  0  0
  8 97  1  0  0  0
  9 98  1  0  0  0
 11 99  1  0  0  0
 13100  1  0  0  0
 13101  1  0  0  0
 14102  1  0  0  0
 15103  1  0  0  0
 17104  1  0  0  0
 18105  1  0  0  0
 19106  1  0  0  0
 20107  1  0  0  0
 21108  1  0  0  0
 23109  1  0  0  0
 24110  1  0  0  0
 24111  1  0  0  0
 25112  1  0  0  0
 26113  1  0  0  0
 28114  1  0  0  0
 29115  1  0  0  0
 30116  1  0  0  0
 31117  1  0  0  0
 32118  1  0  0  0
 34119  1  0  0  0
 35120  1  0  0  0
 35121  1  0  0  0
 36122  1  0  0  0
 37123  1  0  0  0
 39124  1  0  0  0
 40125  1  0  0  0
 41126  1  0  0  0
 42127  1  0  0  0
 43128  1  0  0  0
 45129  1  0  0  0
 46130  1  0  0  0
 46131  1  0  0  0
 47132  1  0  0  0
 49133  1  0  0  0
 50134  1  0  0  0
 51135  1  0  0  0
 52136  1  0  0  0
 53137  1  0  0  0
 55138  1  0  0  0
 56139  1  0  0  0
 57140  1  0  0  0
 57141  1  0  0  0
 58142  1  0  0  0
 60143  1  0  0  0
 61144  1  0  0  0
 62145  1  0  0  0
 63146  1  0  0  0
 64147  1  0  0  0
 66148  1  0  0  0
 67149  1  0  0  0
 68150  1  0  0  0
 68151  1  0  0  0
 69152  1  0  0  0
 71153  1  0  0  0
 72154  1  0  0  0
 73155  1  0  0  0
 74156  1  0  0  0
 75157  1  0  0  0
 77158  1  0  0  0
 78159  1  0  0  0
 80160  1  0  0  0
 80161  1  0  0  0
 81162  1  0  0  0
 82163  1  0  0  0
 83164  1  0  0  0
 84165  1  0  0  0
 85166  1  0  0  0
 86167  1  0  0  0
 88168  1  0  0  0
M  END
$$$$
