### 
### Created by X-TOOL on Mon Sep 10 21:13:22 2018
### 

@<TRIPOS>MOLECULE
4yee_ligand
  168   176     1     0     0
SMALL
GAST_HUCK


@<TRIPOS>ATOM
      1 O88        36.1900  -21.7360   16.6710 O.3       1 4CQ        -0.3841
      2 C79        36.8960  -20.5260   16.9760 C.3       1 4CQ         0.1341
      3 C80        36.3610  -19.4140   16.0960 C.3       1 4CQ         0.1141
      4 O87        34.9540  -19.2800   16.3980 O.3       1 4CQ        -0.3864
      5 C81        37.1930  -18.1600   16.3850 C.3       1 4CQ         0.1119
      6 O86        36.7960  -17.0890   15.5180 O.3       1 4CQ        -0.3865
      7 C82        38.7040  -18.4420   16.1480 C.3       1 4CQ         0.1130
      8 C84        39.5650  -17.1790   16.3440 C.3       1 4CQ         0.0730
      9 O85        39.4700  -16.6960   17.7010 O.3       1 4CQ        -0.3924
     10 O83        39.1090  -19.4930   17.0340 O.3       1 4CQ        -0.3405
     11 C78        38.4060  -20.7300   16.8260 C.3       1 4CQ         0.1880
     12 O64        38.6990  -21.2370   15.5460 O.3       1 4CQ        -0.3460
     13 C64        40.0670  -21.6590   15.3880 C.3       1 4CQ         0.0796
     14 C54        40.1520  -22.3330   14.0290 C.3       1 4CQ         0.1137
     15 C44        41.4390  -23.1270   13.7700 C.3       1 4CQ         0.1184
     16 O44        41.4880  -24.2180   14.6680 O.3       1 4CQ        -0.3401
     17 C15        42.3950  -24.1070   15.7720 C.3       1 4CQ         0.1884
     18 C25        43.4520  -25.2170   15.6690 C.3       1 4CQ         0.1341
     19 O25        44.1310  -25.2170   14.4080 O.3       1 4CQ        -0.3841
     20 C35        42.7860  -26.5620   15.8800 C.3       1 4CQ         0.1144
     21 O35        43.7450  -27.5750   15.9520 O.3       1 4CQ        -0.3864
     22 O55        41.6660  -24.2390   16.9930 O.3       1 4CQ        -0.3405
     23 C55        40.9760  -25.4920   17.1970 C.3       1 4CQ         0.1134
     24 C65        40.2510  -25.4220   18.5370 C.3       1 4CQ         0.0730
     25 O65        39.3500  -24.3270   18.4390 O.3       1 4CQ        -0.3924
     26 C45        41.9940  -26.6160   17.1790 C.3       1 4CQ         0.1184
     27 O45        41.3060  -27.8490   17.2270 O.3       1 4CQ        -0.3401
     28 C16        41.3470  -28.6170   18.4440 C.3       1 4CQ         0.1884
     29 C26        41.8250  -30.0210   18.0970 C.3       1 4CQ         0.1341
     30 O26        43.0300  -29.9450   17.3680 O.3       1 4CQ        -0.3841
     31 C36        40.8420  -30.7450   17.1710 C.3       1 4CQ         0.1144
     32 O36        41.2280  -32.0720   16.8170 O.3       1 4CQ        -0.3864
     33 O56        40.0200  -28.7480   18.9300 O.3       1 4CQ        -0.3405
     34 C56        39.1040  -29.3490   18.0120 C.3       1 4CQ         0.1134
     35 C66        37.6870  -29.2540   18.5290 C.3       1 4CQ         0.0730
     36 O66        37.7420  -29.3060   19.9450 O.3       1 4CQ        -0.3924
     37 C46        39.4860  -30.7790   17.7730 C.3       1 4CQ         0.1184
     38 O46        38.6620  -31.3620   16.7710 O.3       1 4CQ        -0.3401
     39 C17        37.9000  -32.5470   17.1190 C.3       1 4CQ         0.1884
     40 C27        37.9280  -33.5100   15.9450 C.3       1 4CQ         0.1341
     41 O27        39.2870  -33.7790   15.5570 O.3       1 4CQ        -0.3841
     42 C37        37.1770  -32.9250   14.7470 C.3       1 4CQ         0.1144
     43 O37        37.1540  -33.8480   13.6500 O.3       1 4CQ        -0.3864
     44 O57        36.5310  -32.2260   17.3510 O.3       1 4CQ        -0.3405
     45 C57        35.8800  -31.5210   16.3090 C.3       1 4CQ         0.1134
     46 C67        34.5540  -31.0180   16.8400 C.3       1 4CQ         0.0730
     47 O67        34.1120  -31.9350   17.8530 O.3       1 4CQ        -0.3924
     48 O54        39.9320  -21.3670   13.0000 O.3       1 4CQ        -0.3405
     49 C14        39.8830  -21.9080   11.6650 C.3       1 4CQ         0.1884
     50 C24        41.2000  -22.6100   11.3400 C.3       1 4CQ         0.1341
     51 O24        41.1690  -23.1060   10.0010 O.3       1 4CQ        -0.3841
     52 C34        41.4660  -23.7180   12.3500 C.3       1 4CQ         0.1144
     53 O34        42.7140  -24.4070   12.0680 O.3       1 4CQ        -0.3864
     54 O43        38.8130  -22.8660   11.5210 O.3       1 4CQ        -0.3401
     55 C43        37.6560  -22.4430   10.8340 C.3       1 4CQ         0.1184
     56 C53        36.3940  -22.6120   11.7000 C.3       1 4CQ         0.1134
     57 C63        36.2980  -21.6930   12.9000 C.3       1 4CQ         0.0730
     58 O63        35.5520  -22.3550   13.9120 O.3       1 4CQ        -0.3924
     59 O53        35.1640  -22.6560   10.9720 O.3       1 4CQ        -0.3405
     60 C13        35.1860  -23.3500    9.7130 C.3       1 4CQ         0.1884
     61 C23        36.3030  -22.9340    8.7990 C.3       1 4CQ         0.1341
     62 O23        36.2270  -23.7050    7.5770 O.3       1 4CQ        -0.3841
     63 C33        37.6530  -23.1390    9.5060 C.3       1 4CQ         0.1144
     64 O33        38.7110  -22.6380    8.6770 O.3       1 4CQ        -0.3864
     65 O42        35.3830  -24.7250    9.9970 O.3       1 4CQ        -0.3401
     66 C42        34.2460  -25.5430    9.6700 C.3       1 4CQ         0.1184
     67 C52        33.5140  -25.9160   10.9480 C.3       1 4CQ         0.1134
     68 C62        32.7310  -24.6950   11.4580 C.3       1 4CQ         0.0730
     69 O62        32.5210  -24.9940   12.8340 O.3       1 4CQ        -0.3924
     70 O52        32.5400  -26.9770   10.7340 O.3       1 4CQ        -0.3405
     71 C12        33.0030  -28.1380   10.0470 C.3       1 4CQ         0.1884
     72 C22        33.6230  -27.7650    8.7150 C.3       1 4CQ         0.1341
     73 O22        34.1310  -28.9220    8.0560 O.3       1 4CQ        -0.3841
     74 C32        34.7640  -26.7650    8.9320 C.3       1 4CQ         0.1144
     75 O32        35.3000  -26.3080    7.7020 O.3       1 4CQ        -0.3864
     76 O41        33.9400  -28.7850   10.8930 O.3       1 4CQ        -0.3401
     77 C41        33.5450  -30.0450   11.4780 C.3       1 4CQ         0.1184
     78 C51        33.2530  -29.9610   12.9930 C.3       1 4CQ         0.1134
     79 O51        33.0540  -31.2550   13.5370 O.3       1 4CQ        -0.3405
     80 C61        32.0130  -29.1840   13.4230 C.3       1 4CQ         0.0730
     81 O61        30.8350  -29.7460   12.7910 O.3       1 4CQ        -0.3924
     82 C31        34.7110  -30.9990   11.2130 C.3       1 4CQ         0.1144
     83 O31        34.8360  -31.1740    9.7900 O.3       1 4CQ        -0.3864
     84 C21        34.4090  -32.3470   11.8610 C.3       1 4CQ         0.1341
     85 O21        35.5060  -33.2410   11.7360 O.3       1 4CQ        -0.3841
     86 C11        34.1060  -32.1950   13.3420 C.3       1 4CQ         0.1884
     87 O47        35.2430  -31.7100   14.0230 O.3       1 4CQ        -0.3401
     88 C47        35.7680  -32.4460   15.1160 C.3       1 4CQ         0.1184
     89 H1         36.3221  -21.9564   15.7565 H         1 4CQ         0.2101
     90 H2         36.6963  -20.2587   18.0242 H         1 4CQ         0.0671
     91 H3         36.4744  -19.6782   15.0343 H         1 4CQ         0.0648
     92 H4         34.5117  -20.0999   16.2115 H         1 4CQ         0.2100
     93 H5         37.0371  -17.8606   17.4319 H         1 4CQ         0.0647
     94 H6         37.3191  -16.3190   15.7077 H         1 4CQ         0.2100
     95 H7         38.8372  -18.7849   15.1113 H         1 4CQ         0.0647
     96 H8         39.2149  -16.3943   15.6572 H         1 4CQ         0.0584
     97 H9         40.6146  -17.4204   16.1204 H         1 4CQ         0.0584
     98 H10        39.7747  -17.3695   18.2977 H         1 4CQ         0.2095
     99 H11        38.7400  -21.4569   17.5810 H         1 4CQ         0.0937
    100 H12        40.3407  -22.3686   16.1826 H         1 4CQ         0.0587
    101 H13        40.7402  -20.7899   15.4246 H         1 4CQ         0.0587
    102 H14        39.3259  -23.0579   13.9846 H         1 4CQ         0.0647
    103 H15        42.3093  -22.4705   13.9167 H         1 4CQ         0.0651
    104 H16        42.8907  -23.1254   15.7456 H         1 4CQ         0.0938
    105 H17        44.1974  -25.0588   16.4623 H         1 4CQ         0.0671
    106 H18        43.5002  -25.3489   13.7100 H         1 4CQ         0.2101
    107 H19        42.1091  -26.7534   15.0343 H         1 4CQ         0.0648
    108 H20        43.3123  -28.4104   16.0842 H         1 4CQ         0.2100
    109 H21        40.2431  -25.6522   16.3925 H         1 4CQ         0.0647
    110 H22        40.9701  -25.2533   19.3521 H         1 4CQ         0.0584
    111 H23        39.6992  -26.3554   18.7221 H         1 4CQ         0.0584
    112 H24        38.7409  -24.4823   17.7266 H         1 4CQ         0.2095
    113 H25        42.6724  -26.5241   18.0400 H         1 4CQ         0.0651
    114 H26        42.0018  -28.1427   19.1898 H         1 4CQ         0.0938
    115 H27        41.9678  -30.5962   19.0237 H         1 4CQ         0.0671
    116 H28        42.8843  -29.4541   16.5678 H         1 4CQ         0.2101
    117 H29        40.7877  -30.1612   16.2403 H         1 4CQ         0.0648
    118 H30        40.5704  -32.4499   16.2449 H         1 4CQ         0.2100
    119 H31        39.1612  -28.8074   17.0563 H         1 4CQ         0.0647
    120 H32        37.0909  -30.0953   18.1458 H         1 4CQ         0.0584
    121 H33        37.2328  -28.3056   18.2060 H         1 4CQ         0.0584
    122 H34        38.2619  -28.5792   20.2675 H         1 4CQ         0.2095
    123 H35        39.4554  -31.3598   18.7067 H         1 4CQ         0.0651
    124 H36        38.3346  -33.0166   18.0138 H         1 4CQ         0.0938
    125 H37        37.4453  -34.4513   16.2467 H         1 4CQ         0.0671
    126 H38        39.7097  -32.9666   15.3042 H         1 4CQ         0.2101
    127 H39        37.7393  -32.0398   14.4151 H         1 4CQ         0.0648
    128 H40        36.6829  -33.4607   12.9215 H         1 4CQ         0.2100
    129 H41        36.4870  -30.6516   16.0162 H         1 4CQ         0.0647
    130 H42        33.8161  -30.9759   16.0253 H         1 4CQ         0.0584
    131 H43        34.6802  -30.0146   17.2726 H         1 4CQ         0.0584
    132 H44        34.7560  -31.9690   18.5506 H         1 4CQ         0.2095
    133 H45        39.7242  -21.0829   10.9551 H         1 4CQ         0.0938
    134 H46        42.0154  -21.8755   11.4150 H         1 4CQ         0.0671
    135 H47        41.9909  -23.5409    9.8065 H         1 4CQ         0.2101
    136 H48        40.6537  -24.4556   12.2722 H         1 4CQ         0.0648
    137 H49        42.8503  -25.0901   12.7140 H         1 4CQ         0.2100
    138 H50        37.7511  -21.3655   10.6344 H         1 4CQ         0.0651
    139 H51        36.5003  -23.6190   12.1298 H         1 4CQ         0.0647
    140 H52        35.7901  -20.7601   12.6141 H         1 4CQ         0.0584
    141 H53        37.3067  -21.4620   13.2729 H         1 4CQ         0.0584
    142 H54        35.4826  -21.7907   14.6730 H         1 4CQ         0.2095
    143 H55        34.2248  -23.1950    9.2011 H         1 4CQ         0.0938
    144 H56        36.1910  -21.8676    8.5538 H         1 4CQ         0.0671
    145 H57        36.3081  -24.6292    7.7814 H         1 4CQ         0.2101
    146 H58        37.8091  -24.2153    9.6707 H         1 4CQ         0.0648
    147 H59        39.5436  -22.7660    9.1162 H         1 4CQ         0.2100
    148 H60        33.5601  -24.9859    9.0149 H         1 4CQ         0.0651
    149 H61        34.2482  -26.2370   11.7015 H         1 4CQ         0.0647
    150 H62        31.7736  -24.5905   10.9266 H         1 4CQ         0.0584
    151 H63        33.3184  -23.7725   11.3402 H         1 4CQ         0.0584
    152 H64        32.0259  -25.8013   12.9095 H         1 4CQ         0.2095
    153 H65        32.1554  -28.8141    9.8613 H         1 4CQ         0.0938
    154 H66        32.8526  -27.3013    8.0814 H         1 4CQ         0.0671
    155 H67        34.7937  -29.3300    8.6008 H         1 4CQ         0.2101
    156 H68        35.5566  -27.2497    9.5209 H         1 4CQ         0.0648
    157 H69        36.0025  -25.6919    7.8734 H         1 4CQ         0.2100
    158 H70        32.6394  -30.4110   10.9722 H         1 4CQ         0.0651
    159 H71        34.1311  -29.4946   13.4635 H         1 4CQ         0.0647
    160 H72        32.1203  -28.1310   13.1236 H         1 4CQ         0.0584
    161 H73        31.9049  -29.2453   14.5159 H         1 4CQ         0.0584
    162 H74        30.9274  -29.6924   11.8470 H         1 4CQ         0.2095
    163 H75        35.6420  -30.5839   11.6264 H         1 4CQ         0.0648
    164 H76        35.0033  -30.3325    9.3821 H         1 4CQ         0.2100
    165 H77        33.5327  -32.7825   11.3586 H         1 4CQ         0.0671
    166 H78        36.2685  -32.8662   12.1609 H         1 4CQ         0.2101
    167 H79        33.8132  -33.1718   13.7545 H         1 4CQ         0.0938
    168 H80        35.1184  -33.3020   15.3511 H         1 4CQ         0.0651
@<TRIPOS>BOND
     1    1    2 1  
     2    2    3 1  
     3    2   11 1  
     4    3    4 1  
     5    3    5 1  
     6    5    6 1  
     7    5    7 1  
     8    7    8 1  
     9    7   10 1  
    10    8    9 1  
    11   10   11 1  
    12   11   12 1  
    13   12   13 1  
    14   13   14 1  
    15   14   15 1  
    16   14   48 1  
    17   15   16 1  
    18   15   52 1  
    19   16   17 1  
    20   17   18 1  
    21   17   22 1  
    22   18   19 1  
    23   18   20 1  
    24   20   21 1  
    25   20   26 1  
    26   22   23 1  
    27   23   24 1  
    28   23   26 1  
    29   24   25 1  
    30   26   27 1  
    31   27   28 1  
    32   28   29 1  
    33   28   33 1  
    34   29   30 1  
    35   29   31 1  
    36   31   32 1  
    37   31   37 1  
    38   33   34 1  
    39   34   35 1  
    40   34   37 1  
    41   35   36 1  
    42   37   38 1  
    43   38   39 1  
    44   39   40 1  
    45   39   44 1  
    46   40   41 1  
    47   40   42 1  
    48   42   43 1  
    49   42   88 1  
    50   44   45 1  
    51   45   46 1  
    52   45   88 1  
    53   46   47 1  
    54   48   49 1  
    55   49   50 1  
    56   49   54 1  
    57   50   51 1  
    58   50   52 1  
    59   52   53 1  
    60   54   55 1  
    61   55   56 1  
    62   55   63 1  
    63   56   57 1  
    64   56   59 1  
    65   57   58 1  
    66   59   60 1  
    67   60   61 1  
    68   60   65 1  
    69   61   62 1  
    70   61   63 1  
    71   63   64 1  
    72   65   66 1  
    73   66   67 1  
    74   66   74 1  
    75   67   68 1  
    76   67   70 1  
    77   68   69 1  
    78   70   71 1  
    79   71   72 1  
    80   71   76 1  
    81   72   73 1  
    82   72   74 1  
    83   74   75 1  
    84   76   77 1  
    85   77   78 1  
    86   77   82 1  
    87   78   79 1  
    88   78   80 1  
    89   79   86 1  
    90   80   81 1  
    91   82   83 1  
    92   82   84 1  
    93   84   85 1  
    94   84   86 1  
    95   86   87 1  
    96   87   88 1  
    97    1   89 1  
    98    2   90 1  
    99    3   91 1  
   100    4   92 1  
   101    5   93 1  
   102    6   94 1  
   103    7   95 1  
   104    8   96 1  
   105    8   97 1  
   106    9   98 1  
   107   11   99 1  
   108   13  100 1  
   109   13  101 1  
   110   14  102 1  
   111   15  103 1  
   112   17  104 1  
   113   18  105 1  
   114   19  106 1  
   115   20  107 1  
   116   21  108 1  
   117   23  109 1  
   118   24  110 1  
   119   24  111 1  
   120   25  112 1  
   121   26  113 1  
   122   28  114 1  
   123   29  115 1  
   124   30  116 1  
   125   31  117 1  
   126   32  118 1  
   127   34  119 1  
   128   35  120 1  
   129   35  121 1  
   130   36  122 1  
   131   37  123 1  
   132   39  124 1  
   133   40  125 1  
   134   41  126 1  
   135   42  127 1  
   136   43  128 1  
   137   45  129 1  
   138   46  130 1  
   139   46  131 1  
   140   47  132 1  
   141   49  133 1  
   142   50  134 1  
   143   51  135 1  
   144   52  136 1  
   145   53  137 1  
   146   55  138 1  
   147   56  139 1  
   148   57  140 1  
   149   57  141 1  
   150   58  142 1  
   151   60  143 1  
   152   61  144 1  
   153   62  145 1  
   154   63  146 1  
   155   64  147 1  
   156   66  148 1  
   157   67  149 1  
   158   68  150 1  
   159   68  151 1  
   160   69  152 1  
   161   71  153 1  
   162   72  154 1  
   163   73  155 1  
   164   74  156 1  
   165   75  157 1  
   166   77  158 1  
   167   78  159 1  
   168   80  160 1  
   169   80  161 1  
   170   81  162 1  
   171   82  163 1  
   172   83  164 1  
   173   84  165 1  
   174   85  166 1  
   175   86  167 1  
   176   88  168 1  
@<TRIPOS>SUBSTRUCTURE
     1 4CQ         1

