1gt5_ligand
  -I-interpret- 

 26 27  0  0  0  0  0  0  0  0999 V2000
   -0.1140    0.5560    2.9820 C   0  0  0  0  0
   -1.5400    0.3940    2.8730 C   0  0  0  0  0
   -2.2670   -0.1870    3.9430 C   0  0  0  0  0
   -1.5650   -0.6050    5.1190 C   0  0  0  0  0
   -0.1380   -0.4520    5.2400 C   0  0  0  0  0
    0.5570    0.1360    4.1510 C   0  0  0  0  0
    0.6590   -0.8800    6.4570 C   0  0  0  0  0
   -1.0690   -1.0880    8.3280 C   0  0  0  0  0
    0.1280   -1.5230    7.7300 C   0  0  0  0  0
    0.8500   -2.5770    8.3550 C   0  0  0  0  0
    0.3750   -3.1650    9.5360 C   0  0  0  0  0
   -0.8180   -2.7200   10.1140 C   0  0  0  0  0
   -1.5510   -1.6710    9.5060 C   0  0  0  0  0
    2.0550   -0.6750    6.4300 O   0  0  0  0  0
    0.4479    1.0030    2.1619 H   0  0  0  0  0
   -2.0595    0.7169    1.9708 H   0  0  0  0  0
   -3.3472   -0.3139    3.8711 H   0  0  0  0  0
   -2.1240   -1.0496    5.9423 H   0  0  0  0  0
    1.6370    0.2667    4.2190 H   0  0  0  0  0
   -0.4210   -0.9270    6.3176 H   0  0  0  0  0
   -1.6335   -0.2793    7.8639 H   0  0  0  0  0
    1.7809   -2.9309    7.9120 H   0  0  0  0  0
    0.9378   -3.9720   10.0053 H   0  0  0  0  0
   -1.1839   -3.1800   11.0320 H   0  0  0  0  0
   -2.4821   -1.3209    9.9516 H   0  0  0  0  0
    2.3014   -0.2679    5.5963 H   0  0  0  0  0
  1  2  4  0  0  0
  1  6  4  0  0  0
  2  3  4  0  0  0
  3  4  4  0  0  0
  4  5  4  0  0  0
  5  6  4  0  0  0
  5  7  1  0  0  0
  7  9  1  0  0  0
  7 14  1  0  0  0
  9 10  4  0  0  0
 10 11  4  0  0  0
 11 12  4  0  0  0
 12 13  4  0  0  0
 13  8  4  0  0  0
  9  8  4  0  0  0
  1 15  1  0  0  0
  2 16  1  0  0  0
  3 17  1  0  0  0
  4 18  1  0  0  0
  6 19  1  0  0  0
  7 20  1  0  0  0
  8 21  1  0  0  0
 10 22  1  0  0  0
 11 23  1  0  0  0
 12 24  1  0  0  0
 13 25  1  0  0  0
 14 26  1  0  0  0
M  END
$$$$
