5yh8_ligand
  -I-interpret- 

 44 44  0  0  0  0  0  0  0  0999 V2000
  -12.8200   23.6750  -15.8480 O   0  0  0  0  0
  -13.6240   23.8970  -16.7570 C   0  0  0  0  0
  -13.3420   24.4130  -17.8910 O   0  0  0  0  0
  -15.0630   23.4780  -16.4710 C   0  0  0  0  0
  -15.1660   22.1070  -15.7560 C   0  0  0  0  0
  -15.8290   23.4920  -17.7300 N   0  3  0  0  0
  -16.3020   22.2310  -18.4300 C   0  0  0  0  0
  -15.1680   21.5150  -19.1490 C   0  0  0  0  0
  -15.3260   20.3040  -19.4390 O   0  0  0  0  0
  -14.2400   22.2470  -19.5250 O   0  0  0  0  0
  -17.4040   22.4200  -19.4870 C   0  0  0  0  0
  -17.4680   23.8610  -19.9920 C   0  0  0  0  0
  -16.3360   24.2090  -20.8780 N   0  3  0  0  0
  -16.1820   25.6270  -21.2570 C   0  0  0  0  0
  -15.8450   26.5950  -20.0980 C   0  0  0  0  0
  -15.2960   26.1390  -19.0700 O   0  0  0  0  0
  -16.0840   27.8090  -20.3150 O   0  0  0  0  0
  -15.2110   25.7220  -22.4090 C   0  0  0  0  0
  -13.8120   25.2290  -22.0210 C   0  0  0  0  0
  -12.8390   25.1430  -22.9220 C   0  0  0  0  0
  -11.7720   24.6630  -22.3100 N   0  0  0  0  0
  -12.0580   24.4760  -21.0290 C   0  0  0  0  0
  -13.3430   24.8040  -20.8360 N   0  0  0  0  0
  -14.1413   24.4799  -18.4185 H   0  0  0  0  0
  -15.4913   24.1988  -15.7745 H   0  0  0  0  0
  -16.2104   21.8959  -15.5264 H   0  0  0  0  0
  -14.7714   21.3279  -16.4083 H   0  0  0  0  0
  -14.5883   22.1362  -14.8321 H   0  0  0  0  0
  -15.1690   23.8921  -18.3969 H   0  0  0  0  0
  -16.7013   23.9490  -17.4640 H   0  0  0  0  0
  -16.7078   21.6554  -17.5981 H   0  0  0  0  0
  -16.1239   19.9766  -19.0173 H   0  0  0  0  0
  -18.3624   22.1754  -19.0291 H   0  0  0  0  0
  -17.1806   21.7707  -20.3336 H   0  0  0  0  0
  -17.4282   24.5205  -19.1251 H   0  0  0  0  0
  -18.3877   23.9728  -20.5662 H   0  0  0  0  0
  -16.5044   23.7075  -21.7501 H   0  0  0  0  0
  -15.4934   23.9705  -20.3550 H   0  0  0  0  0
  -17.1639   25.9803  -21.5720 H   0  0  0  0  0
  -16.5094   27.9023  -21.1705 H   0  0  0  0  0
  -15.1343   26.7681  -22.7055 H   0  0  0  0  0
  -15.5812   25.0950  -23.2201 H   0  0  0  0  0
  -12.9090   25.4185  -23.9743 H   0  0  0  0  0
  -11.3678   24.1177  -20.2653 H   0  0  0  0  0
  1  2  2  0  0  0
  2  3  1  0  0  0
  2  4  1  0  0  0
  4  5  1  0  0  0
  4  6  1  0  0  0
  6  7  1  0  0  0
  7  8  1  0  0  0
  7 11  1  0  0  0
  8  9  1  0  0  0
  8 10  2  0  0  0
 11 12  1  0  0  0
 12 13  1  0  0  0
 13 14  1  0  0  0
 14 15  1  0  0  0
 14 18  1  0  0  0
 15 16  2  0  0  0
 15 17  1  0  0  0
 18 19  1  0  0  0
 19 20  4  0  0  0
 19 23  4  0  0  0
 20 21  4  0  0  0
 21 22  4  0  0  0
 22 23  4  0  0  0
  3 24  1  0  0  0
  4 25  1  0  0  0
  5 26  1  0  0  0
  5 27  1  0  0  0
  5 28  1  0  0  0
  6 29  1  0  0  0
  6 30  1  0  0  0
  7 31  1  0  0  0
  9 32  1  0  0  0
 11 33  1  0  0  0
 11 34  1  0  0  0
 12 35  1  0  0  0
 12 36  1  0  0  0
 13 37  1  0  0  0
 13 38  1  0  0  0
 14 39  1  0  0  0
 17 40  1  0  0  0
 18 41  1  0  0  0
 18 42  1  0  0  0
 20 43  1  0  0  0
 22 44  1  0  0  0
M  END
$$$$
