4x8s_ligand
  -I-interpret- 

 17 17  0  0  0  0  0  0  0  0999 V2000
    9.4760   34.3640   27.9280 C   0  0  0  0  0
    9.6750   33.0440   27.5780 C   0  0  0  0  0
    9.5710   34.7640   29.2710 C   0  0  0  0  0
    9.8920   33.8210   30.2460 C   0  0  0  0  0
    9.9910   32.1300   28.5640 C   0  0  0  0  0
   10.1090   32.4980   29.8940 C   0  0  0  0  0
    9.2400   35.3800   27.0450 O   0  0  0  0  0
   10.2370   30.3160   28.0730 Br  0  0  0  0  0
    9.3980   36.0660   29.6100 O   0  0  0  0  0
    9.3400   35.0900   25.6520 C   0  0  0  0  0
    9.5841   32.7275   26.5389 H   0  0  0  0  0
    9.9727   34.1252   31.2896 H   0  0  0  0  0
   10.3684   31.7589   30.6520 H   0  0  0  0  0
    9.4956   36.1638   30.5600 H   0  0  0  0  0
   10.3486   34.7442   25.4257 H   0  0  0  0  0
    8.6212   34.3132   25.3914 H   0  0  0  0  0
    9.1264   35.9918   25.0782 H   0  0  0  0  0
  1  2  4  0  0  0
  1  3  4  0  0  0
  1  7  1  0  0  0
  2  5  4  0  0  0
  3  4  4  0  0  0
  3  9  1  0  0  0
  4  6  4  0  0  0
  5  6  4  0  0  0
  5  8  1  0  0  0
  7 10  1  0  0  0
  2 11  1  0  0  0
  4 12  1  0  0  0
  6 13  1  0  0  0
  9 14  1  0  0  0
 10 15  1  0  0  0
 10 16  1  0  0  0
 10 17  1  0  0  0
M  END
$$$$
