5i9x_ligand
  -I-interpret- 

 67 70  0  0  0  0  0  0  0  0999 V2000
  -84.4130  -15.3720    9.4560 C   0  0  0  0  0
  -92.5450  -18.9780    9.3680 O   0  0  0  0  0
  -82.3600  -12.2770    4.2680 C   0  0  0  0  0
  -92.7620  -14.7930    8.6760 N   0  0  0  0  0
  -93.8790  -18.4140   11.7950 Cl  0  0  0  0  0
  -90.4300  -14.3090   12.2050 Cl  0  0  0  0  0
  -91.7970  -14.6520    8.1820 C   0  0  0  0  0
  -90.4350  -14.0760    6.2950 C   0  0  0  0  0
  -92.0260  -16.3960   11.8210 C   0  0  0  0  0
  -90.8710  -17.1780    9.4020 C   0  0  0  0  0
  -86.8620  -13.8730    5.6540 C   0  0  0  0  0
  -86.8650  -14.8020    8.3170 C   0  0  0  0  0
  -82.9760  -13.6230    3.9240 C   0  0  0  0  0
  -84.4430  -13.6150    4.3730 C   0  0  0  0  0
  -76.8800  -11.0570    4.4970 C   0  0  0  0  0
  -80.5690  -10.7890    3.8170 C   0  0  0  0  0
  -80.1420  -12.8600    4.9740 C   0  0  0  0  0
  -79.0760  -10.6150    3.5820 C   0  0  0  0  0
  -78.6550  -12.6740    4.7390 C   0  0  0  0  0
  -89.2130  -13.8720    5.6740 N   0  0  0  0  0
  -89.3220  -15.2600    9.5980 N   0  0  0  0  0
  -84.4270  -14.7640    8.1610 O   0  0  0  0  0
  -84.4430  -13.9120    5.7750 O   0  0  0  0  0
  -91.9660  -17.8750    9.9450 C   0  0  0  0  0
  -92.5290  -17.4980   11.1520 C   0  0  0  0  0
  -90.9610  -15.6830   11.2820 C   0  0  0  0  0
  -90.5030  -14.5290    7.6040 C   0  0  0  0  0
  -90.3480  -16.0570   10.0760 C   0  0  0  0  0
  -85.6760  -14.5690    7.6290 C   0  0  0  0  0
  -85.6750  -14.1110    6.3210 C   0  0  0  0  0
  -89.3140  -14.7940    8.3030 C   0  0  0  0  0
  -88.0580  -14.1040    6.3340 C   0  0  0  0  0
  -88.0790  -14.5680    7.6620 C   0  0  0  0  0
  -80.9310  -12.2150    3.9110 N   0  3  0  0  0
  -78.3280  -11.2410    4.6810 N   0  3  0  0  0
  -92.1000  -19.1800    8.0260 C   0  0  0  0  0
  -84.9586  -14.7414   10.1580 H   0  0  0  0  0
  -84.8876  -16.3517    9.4012 H   0  0  0  0  0
  -83.3822  -15.4845    9.7920 H   0  0  0  0  0
  -82.4489  -12.1269    5.3439 H   0  0  0  0  0
  -82.8858  -11.5075    3.7027 H   0  0  0  0  0
  -91.3559  -13.8776    5.7467 H   0  0  0  0  0
  -92.4645  -16.0871   12.7699 H   0  0  0  0  0
  -90.4281  -17.5049    8.4612 H   0  0  0  0  0
  -86.8635  -13.5146    4.6246 H   0  0  0  0  0
  -86.8497  -15.1599    9.3464 H   0  0  0  0  0
  -82.4352  -14.4210    4.4328 H   0  0  0  0  0
  -82.9164  -13.7961    2.8495 H   0  0  0  0  0
  -85.0241  -14.3520    3.8187 H   0  0  0  0  0
  -84.9042  -12.6464    4.1800 H   0  0  0  0  0
  -76.5735  -11.5147    3.5564 H   0  0  0  0  0
  -76.6502   -9.9917    4.4761 H   0  0  0  0  0
  -76.3473  -11.5288    5.3227 H   0  0  0  0  0
  -81.1071  -10.3479    2.9779 H   0  0  0  0  0
  -80.8329  -10.3004    4.7549 H   0  0  0  0  0
  -80.4041  -12.4040    5.9287 H   0  0  0  0  0
  -80.3644  -13.9271    4.9750 H   0  0  0  0  0
  -78.8372   -9.5523    3.5405 H   0  0  0  0  0
  -78.7999  -11.0887    2.6399 H   0  0  0  0  0
  -78.3809  -13.1421    3.7936 H   0  0  0  0  0
  -78.1029  -13.1341    5.5585 H   0  0  0  0  0
  -88.5532  -15.0121   10.2208 H   0  0  0  0  0
  -80.7468  -12.6925    3.0287 H   0  0  0  0  0
  -78.5944  -10.7954    5.5590 H   0  0  0  0  0
  -92.3565  -18.3080    7.4244 H   0  0  0  0  0
  -91.0193  -19.3217    8.0204 H   0  0  0  0  0
  -92.5858  -20.0639    7.6126 H   0  0  0  0  0
 22  1  1  0  0  0
 24  2  1  0  0  0
  2 36  1  0  0  0
 13  3  1  0  0  0
  3 34  1  0  0  0
  7  4  3  0  0  0
 25  5  1  0  0  0
 26  6  1  0  0  0
 27  7  1  0  0  0
 20  8  4  0  0  0
  8 27  4  0  0  0
  9 25  4  0  0  0
 26  9  4  0  0  0
 10 24  4  0  0  0
 28 10  4  0  0  0
 30 11  4  0  0  0
 11 32  4  0  0  0
 29 12  4  0  0  0
 12 33  4  0  0  0
 14 13  1  0  0  0
 23 14  1  0  0  0
 35 15  1  0  0  0
 16 18  1  0  0  0
 34 16  1  0  0  0
 17 19  1  0  0  0
 34 17  1  0  0  0
 18 35  1  0  0  0
 19 35  1  0  0  0
 32 20  4  0  0  0
 21 28  1  0  0  0
 31 21  1  0  0  0
 29 22  1  0  0  0
 30 23  1  0  0  0
 24 25  4  0  0  0
 28 26  4  0  0  0
 27 31  4  0  0  0
 29 30  4  0  0  0
 31 33  4  0  0  0
 32 33  4  0  0  0
  1 37  1  0  0  0
  1 38  1  0  0  0
  1 39  1  0  0  0
  3 40  1  0  0  0
  3 41  1  0  0  0
  8 42  1  0  0  0
  9 43  1  0  0  0
 10 44  1  0  0  0
 11 45  1  0  0  0
 12 46  1  0  0  0
 13 47  1  0  0  0
 13 48  1  0  0  0
 14 49  1  0  0  0
 14 50  1  0  0  0
 15 51  1  0  0  0
 15 52  1  0  0  0
 15 53  1  0  0  0
 16 54  1  0  0  0
 16 55  1  0  0  0
 17 56  1  0  0  0
 17 57  1  0  0  0
 18 58  1  0  0  0
 18 59  1  0  0  0
 19 60  1  0  0  0
 19 61  1  0  0  0
 21 62  1  0  0  0
 34 63  1  0  0  0
 35 64  1  0  0  0
 36 65  1  0  0  0
 36 66  1  0  0  0
 36 67  1  0  0  0
M  END
$$$$
