### 
### Created by X-TOOL on Mon Sep 10 21:12:56 2018
### 

@<TRIPOS>MOLECULE
2jnw_ligand
  169   169     1     0     0
SMALL
GAST_HUCK


@<TRIPOS>ATOM
      1 N         -15.3230    1.6770  -12.5190 N.4       1 LYS         0.2379
      2 CA        -16.5250    2.5770  -12.6200 C.3       1 LYS         0.0650
      3 C         -16.1450    3.9320  -13.2930 C.2       1 LYS         0.2267
      4 O         -15.1600    4.0360  -14.0340 O.2       1 LYS        -0.3907
      5 CB        -16.9960    2.7980  -11.1590 C.3       1 LYS         0.0080
      6 CG        -18.5320    2.8060  -11.0850 C.3       1 LYS        -0.0410
      7 CD        -19.0190    4.0820  -10.3800 C.3       1 LYS        -0.0123
      8 CE        -20.0010    4.8370  -11.2910 C.3       1 LYS        -0.0354
      9 NZ        -19.9460    6.2590  -10.8480 N.4       1 LYS         0.2185
     10 H1        -15.5894    0.8085  -12.0822 H         1 LYS         0.2015
     11 H2        -14.6116    2.1274  -11.9649 H         1 LYS         0.2015
     12 H3        -14.9630    1.4922  -13.4422 H         1 LYS         0.2015
     13 H4        -17.3181    2.0909  -13.2071 H         1 LYS         0.1098
     14 H5        -16.6109    3.7624  -10.7962 H         1 LYS         0.0346
     15 H6        -16.6072    1.9865  -10.5264 H         1 LYS         0.0346
     16 H7        -18.8739    1.9256  -10.5212 H         1 LYS         0.0270
     17 H8        -18.9457    2.7725  -12.1037 H         1 LYS         0.0270
     18 H9        -18.1570    4.7280  -10.1573 H         1 LYS         0.0317
     19 H10       -19.5258    3.8105   -9.4422 H         1 LYS         0.0317
     20 H11       -21.0190    4.4372  -11.1732 H         1 LYS         0.0813
     21 H12       -19.6926    4.7505  -12.3433 H         1 LYS         0.0813
     22 H13       -20.5735    6.8110  -11.4116 H         1 LYS         0.1994
     23 H14       -19.0059    6.6074  -10.9526 H         1 LYS         0.1994
     24 H15       -20.2214    6.3204   -9.8803 H         1 LYS         0.1994
     25 N         -16.9340    4.9670  -13.0320 N.am      1 ILE        -0.2608
     26 CA        -16.6690    6.3270  -13.6160 C.3       1 ILE         0.1336
     27 C         -16.6170    7.3500  -12.4680 C.2       1 ILE         0.2042
     28 O         -17.4110    8.2720  -12.4020 O.2       1 ILE        -0.3944
     29 CB        -17.8580    6.5910  -14.5670 C.3       1 ILE        -0.0037
     30 CG1       -17.5020    7.7610  -15.4980 C.3       1 ILE        -0.0491
     31 CG2       -19.1300    6.9190  -13.7660 C.3       1 ILE        -0.0582
     32 CD1       -18.6300    7.9910  -16.5110 C.3       1 ILE        -0.0648
     33 H16       -17.7240    4.8391  -12.4323 H         1 ILE         0.1885
     34 H17       -15.7201    6.3427  -14.1722 H         1 ILE         0.0803
     35 H18       -18.0414    5.6908  -15.1720 H         1 ILE         0.0345
     36 H19       -16.5717    7.5274  -16.0364 H         1 ILE         0.0267
     37 H20       -17.3599    8.6724  -14.8988 H         1 ILE         0.0267
     38 H21       -19.3743    6.0751  -13.1041 H         1 ILE         0.0235
     39 H22       -19.9653    7.0944  -14.4599 H         1 ILE         0.0235
     40 H23       -18.9599    7.8219  -13.1612 H         1 ILE         0.0235
     41 H24       -18.3644    8.8298  -17.1713 H         1 ILE         0.0230
     42 H25       -19.5614    8.2267  -15.9754 H         1 ILE         0.0230
     43 H26       -18.7732    7.0816  -17.1131 H         1 ILE         0.0230
     44 N         -15.7100    7.1580  -11.5390 N.am      1 ILE        -0.2635
     45 CA        -15.6260    8.0780  -10.3620 C.3       1 ILE         0.1335
     46 C         -14.3870    8.9220  -10.4380 C.2       1 ILE         0.2042
     47 O         -13.7440    9.1820   -9.4400 O.2       1 ILE        -0.3944
     48 CB        -15.5520    7.1800   -9.1400 C.3       1 ILE        -0.0037
     49 CG1       -16.6940    6.1510   -9.1870 C.3       1 ILE        -0.0491
     50 CG2       -15.6760    8.0380   -7.8680 C.3       1 ILE        -0.0582
     51 CD1       -16.2640    4.8290   -8.5270 C.3       1 ILE        -0.0648
     52 H27       -15.0715    6.3925  -11.6182 H         1 ILE         0.1883
     53 H28       -16.5141    8.7254  -10.3157 H         1 ILE         0.0803
     54 H29       -14.5868    6.6525   -9.1317 H         1 ILE         0.0345
     55 H30       -16.9643    5.9595  -10.2359 H         1 ILE         0.0267
     56 H31       -17.5659    6.5548   -8.6515 H         1 ILE         0.0267
     57 H32       -14.8571    8.7719   -7.8395 H         1 ILE         0.0235
     58 H33       -15.6183    7.3896   -6.9813 H         1 ILE         0.0235
     59 H34       -16.6412    8.5657   -7.8742 H         1 ILE         0.0235
     60 H35       -17.0948    4.1095   -8.5721 H         1 ILE         0.0230
     61 H36       -15.9958    5.0139   -7.4764 H         1 ILE         0.0230
     62 H37       -15.3942    4.4186   -9.0608 H         1 ILE         0.0230
     63 N         -14.0400    9.3400  -11.6110 N.am      1 ASP        -0.2622
     64 CA        -12.8150   10.1580  -11.7590 C.3       1 ASP         0.1423
     65 C         -12.5340   10.9730  -10.5000 C.2       1 ASP         0.2057
     66 O         -13.1840   11.9600  -10.1950 O.2       1 ASP        -0.3943
     67 CB        -13.0380   11.0610  -12.9530 C.3       1 ASP         0.0406
     68 CG        -11.6790   11.2960  -13.6140 C.2       1 ASP         0.0393
     69 OD1       -10.7840   11.7670  -12.9190 O.co2     1 ASP        -0.5688
     70 OD2       -11.5460   10.9740  -14.7910 O.co2     1 ASP        -0.5688
     71 H38       -14.5943    9.1127  -12.4117 H         1 ASP         0.1884
     72 H39       -11.9548    9.4997  -11.9506 H         1 ASP         0.0819
     73 H40       -13.4659   12.0194  -12.6240 H         1 ASP         0.0478
     74 H41       -13.7234   10.5787  -13.6655 H         1 ASP         0.0478
     75 N         -11.5540   10.5420   -9.7770 N.am      1 THR        -0.2612
     76 CA        -11.1700   11.2410   -8.5400 C.3       1 THR         0.1565
     77 C         -10.2720   12.4090   -8.9400 C.2       1 THR         0.2063
     78 O         -10.5840   13.1390   -9.8690 O.2       1 THR        -0.3943
     79 CB        -10.3790   10.2120   -7.7240 C.3       1 THR         0.0924
     80 OG1        -9.0540   10.1690   -8.2370 O.3       1 THR        -0.3874
     81 CG2       -11.0050    8.8080   -7.8180 C.3       1 THR        -0.0346
     82 H42       -11.0513    9.7254  -10.0606 H         1 THR         0.1884
     83 H43       -12.0487   11.5982   -7.9830 H         1 THR         0.0826
     84 H44       -10.3586   10.5246   -6.6696 H         1 THR         0.0639
     85 H45        -8.6654   11.0340   -8.1802 H         1 THR         0.2101
     86 H46       -10.4104    8.1008   -7.2211 H         1 THR         0.0257
     87 H47       -11.0172    8.4815   -8.8683 H         1 THR         0.0257
     88 H48       -12.0344    8.8389   -7.4316 H         1 THR         0.0257
     89 N          -9.1500   12.5740   -8.2670 N.am      1 GLY        -0.2663
     90 CA         -8.2050   13.6810   -8.6130 C.3       1 GLY         0.1201
     91 C          -6.7970   13.1040   -8.7710 C.2       1 GLY         0.2005
     92 O          -6.3570   12.3100   -7.9580 O.2       1 GLY        -0.3947
     93 H49        -8.9282   11.9517   -7.5163 H         1 GLY         0.1881
     94 H50        -8.2074   14.4324   -7.8096 H         1 GLY         0.0763
     95 H51        -8.5184   14.1519   -9.5564 H         1 GLY         0.0763
     96 N          -6.0890   13.4920   -9.8180 N.am      1 GLY        -0.2666
     97 CA         -4.7040   12.9580  -10.0320 C.3       1 GLY         0.1201
     98 C          -4.3200   12.9490  -11.5280 C.2       1 GLY         0.2005
     99 O          -3.4930   12.1710  -11.9400 O.2       1 GLY        -0.3947
    100 H52        -6.4782   14.1435  -10.4692 H         1 GLY         0.1881
    101 H53        -4.6548   11.9294   -9.6452 H         1 GLY         0.0763
    102 H54        -3.9896   13.5903   -9.4844 H         1 GLY         0.0763
    103 N          -4.9010   13.7970  -12.3440 N.am      1 GLY        -0.2666
    104 CA         -4.5410   13.7980  -13.8040 C.3       1 GLY         0.1201
    105 C          -4.6820   12.4210  -14.3550 C.2       1 GLY         0.2009
    106 O          -3.7420   11.8750  -14.8820 O.2       1 GLY        -0.3947
    107 H55        -5.5818   14.4412  -11.9955 H         1 GLY         0.1881
    108 H56        -3.5010   14.1356  -13.9243 H         1 GLY         0.0763
    109 H57        -5.2128   14.4797  -14.3462 H         1 GLY         0.0763
    110 N          -5.8290   11.8440  -14.2700 N.am      1 PHE        -0.2622
    111 CA         -5.9660   10.4920  -14.8260 C.3       1 PHE         0.1404
    112 C          -7.4240   10.0560  -14.8090 C.2       1 PHE         0.2060
    113 O          -8.1260   10.2340  -13.8450 O.2       1 PHE        -0.3942
    114 CB         -5.0120    9.6680  -13.9640 C.3       1 PHE         0.0214
    115 CG         -5.7290    8.9810  -12.8260 C.ar      1 PHE        -0.0386
    116 CD1        -6.2410    9.7230  -11.7520 C.ar      1 PHE        -0.0601
    117 CD2        -5.9070    7.5960  -12.8670 C.ar      1 PHE        -0.0601
    118 CE1        -6.9440    9.0670  -10.7270 C.ar      1 PHE        -0.0686
    119 CE2        -6.5960    6.9420  -11.8430 C.ar      1 PHE        -0.0686
    120 CZ         -7.1220    7.6680  -10.7760 C.ar      1 PHE        -0.0687
    121 H58        -6.6049   12.3033  -13.8376 H         1 PHE         0.1885
    122 H59        -5.6208   10.4705  -15.8702 H         1 PHE         0.0823
    123 H60        -4.2428   10.3353  -13.5480 H         1 PHE         0.0474
    124 H61        -4.5330    8.9045  -14.5945 H         1 PHE         0.0474
    125 H62        -6.0954   10.7965  -11.7125 H         1 PHE         0.0557
    126 H63        -5.5082    7.0257  -13.6981 H         1 PHE         0.0557
    127 H64        -7.3497    9.6360   -9.8983 H         1 PHE         0.0599
    128 H65        -6.7220    5.8659  -11.8784 H         1 PHE         0.0599
    129 H66        -7.6654    7.1603   -9.9873 H         1 PHE         0.0559
    130 N          -7.8920    9.5580  -15.9140 N.am      1 ILE        -0.2633
    131 CA         -9.3320    9.1760  -16.0340 C.3       1 ILE         0.1335
    132 C          -9.6940    7.9300  -15.2320 C.2       1 ILE         0.2042
    133 O          -9.0550    6.9140  -15.3260 O.2       1 ILE        -0.3944
    134 CB         -9.5120    8.9160  -17.5070 C.3       1 ILE        -0.0037
    135 CG1        -9.2810   10.2130  -18.2990 C.3       1 ILE        -0.0491
    136 CG2       -10.9150    8.3890  -17.7750 C.3       1 ILE        -0.0582
    137 CD1       -10.5000   11.1540  -18.1940 C.3       1 ILE        -0.0648
    138 H67        -7.2806    9.4286  -16.6946 H         1 ILE         0.1883
    139 H68        -9.9718   10.0080  -15.7048 H         1 ILE         0.0803
    140 H69        -8.7784    8.1628  -17.8302 H         1 ILE         0.0345
    141 H70        -9.1108    9.9625  -19.3565 H         1 ILE         0.0267
    142 H71        -8.3953   10.7265  -17.8967 H         1 ILE         0.0267
    143 H72       -11.0732    7.4614  -17.2054 H         1 ILE         0.0235
    144 H73       -11.0306    8.1837  -18.8495 H         1 ILE         0.0235
    145 H74       -11.6549    9.1411  -17.4637 H         1 ILE         0.0235
    146 H75       -10.3057   12.0712  -18.7693 H         1 ILE         0.0230
    147 H76       -10.6737   11.4127  -17.1391 H         1 ILE         0.0230
    148 H77       -11.3892   10.6487  -18.5989 H         1 ILE         0.0230
    149 N         -10.7420    8.0070  -14.4580 N.am      1 LEU        -0.2623
    150 CA        -11.1680    6.8320  -13.6410 C.3       1 LEU         0.1422
    151 C         -12.6670    6.5210  -13.8350 C.2       1 LEU         0.2571
    152 O         -13.4910    7.3600  -13.4730 O.2       1 LEU        -0.3680
    153 CB        -10.8770    7.2800  -12.2100 C.3       1 LEU        -0.0087
    154 CG        -10.5610    6.0820  -11.3370 C.3       1 LEU        -0.0424
    155 CD1        -9.3350    5.3470  -11.8800 C.3       1 LEU        -0.0624
    156 CD2       -10.2840    6.5840   -9.9240 C.3       1 LEU        -0.0624
    157 H78       -11.2634    8.8590  -14.4118 H         1 LEU         0.1885
    158 H79       -10.5772    5.9411  -13.9003 H         1 LEU         0.0816
    159 H80       -11.7581    7.8005  -11.8065 H         1 LEU         0.0316
    160 H81       -10.0159    7.9644  -12.2122 H         1 LEU         0.0316
    161 H82       -11.4206    5.3958  -11.3245 H         1 LEU         0.0298
    162 H83        -9.1141    4.4800  -11.2401 H         1 LEU         0.0232
    163 H84        -8.4715    6.0284  -11.8852 H         1 LEU         0.0232
    164 H85        -9.5375    5.0038  -12.9053 H         1 LEU         0.0232
    165 H86       -11.1706    7.1110   -9.5417 H         1 LEU         0.0232
    166 H87        -9.4269    7.2732   -9.9412 H         1 LEU         0.0232
    167 H88       -10.0548    5.7299   -9.2698 H         1 LEU         0.0232
    168 O1        -13.0590    5.3732  -14.3806 O.3       1 LEU        -0.2910
    169 H89       -13.6033    4.8996  -13.7625 H         1 LEU         0.2540
@<TRIPOS>BOND
     1    2    1 1  
     2    2    5 1  
     3    3    2 1  
     4    3    4 2  
     5    5    6 1  
     6    6    7 1  
     7    7    8 1  
     8    8    9 1  
     9    1   10 1  
    10    1   11 1  
    11    1   12 1  
    12    2   13 1  
    13    5   14 1  
    14    5   15 1  
    15    6   16 1  
    16    6   17 1  
    17    7   18 1  
    18    7   19 1  
    19    8   20 1  
    20    8   21 1  
    21    9   22 1  
    22    9   23 1  
    23    9   24 1  
    24   26   25 1  
    25   26   29 1  
    26   27   26 1  
    27   27   28 2  
    28   29   31 1  
    29   29   30 1  
    30   30   32 1  
    31   25   33 1  
    32   26   34 1  
    33   29   35 1  
    34   30   36 1  
    35   30   37 1  
    36   31   38 1  
    37   31   39 1  
    38   31   40 1  
    39   32   41 1  
    40   32   42 1  
    41   32   43 1  
    42   25    3 am 
    43   45   44 1  
    44   45   48 1  
    45   46   45 1  
    46   46   47 2  
    47   48   50 1  
    48   48   49 1  
    49   49   51 1  
    50   44   52 1  
    51   45   53 1  
    52   48   54 1  
    53   49   55 1  
    54   49   56 1  
    55   50   57 1  
    56   50   58 1  
    57   50   59 1  
    58   51   60 1  
    59   51   61 1  
    60   51   62 1  
    61   44   27 am 
    62   64   63 1  
    63   64   67 1  
    64   65   64 1  
    65   65   66 2  
    66   67   68 1  
    67   68   69 ar 
    68   68   70 ar 
    69   63   71 1  
    70   64   72 1  
    71   67   73 1  
    72   67   74 1  
    73   63   46 am 
    74   76   75 1  
    75   76   79 1  
    76   77   76 1  
    77   77   78 2  
    78   79   81 1  
    79   79   80 1  
    80   75   82 1  
    81   76   83 1  
    82   79   84 1  
    83   80   85 1  
    84   81   86 1  
    85   81   87 1  
    86   81   88 1  
    87   75   65 am 
    88   90   89 1  
    89   91   90 1  
    90   91   92 2  
    91   89   93 1  
    92   90   94 1  
    93   90   95 1  
    94   89   77 am 
    95   97   96 1  
    96   98   97 1  
    97   98   99 2  
    98   96  100 1  
    99   97  101 1  
   100   97  102 1  
   101   96   91 am 
   102  104  103 1  
   103  105  104 1  
   104  105  106 2  
   105  103  107 1  
   106  104  108 1  
   107  104  109 1  
   108  103   98 am 
   109  111  110 1  
   110  111  114 1  
   111  112  111 1  
   112  112  113 2  
   113  114  115 1  
   114  115  116 ar 
   115  115  117 ar 
   116  117  119 ar 
   117  119  120 ar 
   118  118  120 ar 
   119  116  118 ar 
   120  110  121 1  
   121  111  122 1  
   122  114  123 1  
   123  114  124 1  
   124  116  125 1  
   125  117  126 1  
   126  118  127 1  
   127  119  128 1  
   128  120  129 1  
   129  110  105 am 
   130  131  130 1  
   131  131  134 1  
   132  132  131 1  
   133  132  133 2  
   134  134  136 1  
   135  134  135 1  
   136  135  137 1  
   137  130  138 1  
   138  131  139 1  
   139  134  140 1  
   140  135  141 1  
   141  135  142 1  
   142  136  143 1  
   143  136  144 1  
   144  136  145 1  
   145  137  146 1  
   146  137  147 1  
   147  137  148 1  
   148  130  112 am 
   149  149  150 1  
   150  150  153 1  
   151  150  151 1  
   152  151  152 2  
   153  153  154 1  
   154  154  155 1  
   155  154  156 1  
   156  149  157 1  
   157  150  158 1  
   158  153  159 1  
   159  153  160 1  
   160  154  161 1  
   161  155  162 1  
   162  155  163 1  
   163  155  164 1  
   164  156  165 1  
   165  156  166 1  
   166  156  167 1  
   167  132  149 am 
   168  151  168 1  
   169  168  169 1  
@<TRIPOS>SUBSTRUCTURE
     1 LYS         1

