2jnw_ligand
  -I-interpret- 

170170  0  0  0  0  0  0  0  0999 V2000
  -15.3230    1.6770  -12.5190 N   0  3  0  0  0
  -16.5250    2.5770  -12.6200 C   0  0  0  0  0
  -16.1450    3.9320  -13.2930 C   0  0  0  0  0
  -15.1600    4.0360  -14.0340 O   0  0  0  0  0
  -16.9960    2.7980  -11.1590 C   0  0  0  0  0
  -18.5320    2.8060  -11.0850 C   0  0  0  0  0
  -19.0190    4.0820  -10.3800 C   0  0  0  0  0
  -20.0010    4.8370  -11.2910 C   0  0  0  0  0
  -19.9460    6.2590  -10.8480 N   0  3  0  0  0
  -16.9340    4.9670  -13.0320 N   0  0  0  0  0
  -16.6690    6.3270  -13.6160 C   0  0  0  0  0
  -16.6170    7.3500  -12.4680 C   0  0  0  0  0
  -17.4110    8.2720  -12.4020 O   0  0  0  0  0
  -17.8580    6.5910  -14.5670 C   0  0  0  0  0
  -17.5020    7.7610  -15.4980 C   0  0  0  0  0
  -19.1300    6.9190  -13.7660 C   0  0  0  0  0
  -18.6300    7.9910  -16.5110 C   0  0  0  0  0
  -15.7100    7.1580  -11.5390 N   0  0  0  0  0
  -15.6260    8.0780  -10.3620 C   0  0  0  0  0
  -14.3870    8.9220  -10.4380 C   0  0  0  0  0
  -13.7440    9.1820   -9.4400 O   0  0  0  0  0
  -15.5520    7.1800   -9.1400 C   0  0  0  0  0
  -16.6940    6.1510   -9.1870 C   0  0  0  0  0
  -15.6760    8.0380   -7.8680 C   0  0  0  0  0
  -16.2640    4.8290   -8.5270 C   0  0  0  0  0
  -14.0400    9.3400  -11.6110 N   0  0  0  0  0
  -12.8150   10.1580  -11.7590 C   0  0  0  0  0
  -12.5340   10.9730  -10.5000 C   0  0  0  0  0
  -13.1840   11.9600  -10.1950 O   0  0  0  0  0
  -13.0380   11.0610  -12.9530 C   0  0  0  0  0
  -11.6790   11.2960  -13.6140 C   0  0  0  0  0
  -10.7840   11.7670  -12.9190 O   0  0  0  0  0
  -11.5460   10.9740  -14.7910 O   0  0  0  0  0
  -11.5540   10.5420   -9.7770 N   0  0  0  0  0
  -11.1700   11.2410   -8.5400 C   0  0  0  0  0
  -10.2720   12.4090   -8.9400 C   0  0  0  0  0
  -10.5840   13.1390   -9.8690 O   0  0  0  0  0
  -10.3790   10.2120   -7.7240 C   0  0  0  0  0
   -9.0540   10.1690   -8.2370 O   0  0  0  0  0
  -11.0050    8.8080   -7.8180 C   0  0  0  0  0
   -9.1500   12.5740   -8.2670 N   0  0  0  0  0
   -8.2050   13.6810   -8.6130 C   0  0  0  0  0
   -6.7970   13.1040   -8.7710 C   0  0  0  0  0
   -6.3570   12.3100   -7.9580 O   0  0  0  0  0
   -6.0890   13.4920   -9.8180 N   0  0  0  0  0
   -4.7040   12.9580  -10.0320 C   0  0  0  0  0
   -4.3200   12.9490  -11.5280 C   0  0  0  0  0
   -3.4930   12.1710  -11.9400 O   0  0  0  0  0
   -4.9010   13.7970  -12.3440 N   0  0  0  0  0
   -4.5410   13.7980  -13.8040 C   0  0  0  0  0
   -4.6820   12.4210  -14.3550 C   0  0  0  0  0
   -3.7420   11.8750  -14.8820 O   0  0  0  0  0
   -5.8290   11.8440  -14.2700 N   0  0  0  0  0
   -5.9660   10.4920  -14.8260 C   0  0  0  0  0
   -7.4240   10.0560  -14.8090 C   0  0  0  0  0
   -8.1260   10.2340  -13.8450 O   0  0  0  0  0
   -5.0120    9.6680  -13.9640 C   0  0  0  0  0
   -5.7290    8.9810  -12.8260 C   0  0  0  0  0
   -6.2410    9.7230  -11.7520 C   0  0  0  0  0
   -5.9070    7.5960  -12.8670 C   0  0  0  0  0
   -6.9440    9.0670  -10.7270 C   0  0  0  0  0
   -6.5960    6.9420  -11.8430 C   0  0  0  0  0
   -7.1220    7.6680  -10.7760 C   0  0  0  0  0
   -7.8920    9.5580  -15.9140 N   0  0  0  0  0
   -9.3320    9.1760  -16.0340 C   0  0  0  0  0
   -9.6940    7.9300  -15.2320 C   0  0  0  0  0
   -9.0550    6.9140  -15.3260 O   0  0  0  0  0
   -9.5120    8.9160  -17.5070 C   0  0  0  0  0
   -9.2810   10.2130  -18.2990 C   0  0  0  0  0
  -10.9150    8.3890  -17.7750 C   0  0  0  0  0
  -10.5000   11.1540  -18.1940 C   0  0  0  0  0
  -10.7420    8.0070  -14.4580 N   0  0  0  0  0
  -11.1680    6.8320  -13.6410 C   0  0  0  0  0
  -12.6670    6.5210  -13.8350 C   0  0  0  0  0
  -13.4910    7.3600  -13.4730 O   0  0  0  0  0
  -10.8770    7.2800  -12.2100 C   0  0  0  0  0
  -10.5610    6.0820  -11.3370 C   0  0  0  0  0
   -9.3350    5.3470  -11.8800 C   0  0  0  0  0
  -10.2840    6.5840   -9.9240 C   0  0  0  0  0
  -13.0590    5.3732  -14.3806 O   0  0  0  0  0
  -15.5937    0.7985  -12.0769 H   0  0  0  0  0
  -14.9597    1.4908  -13.4537 H   0  0  0  0  0
  -14.6039    2.1338  -11.9582 H   0  0  0  0  0
  -17.3107    2.1375  -13.2346 H   0  0  0  0  0
  -16.6190    3.7580  -10.8063 H   0  0  0  0  0
  -16.6153    1.9877  -10.5373 H   0  0  0  0  0
  -18.8680    1.9353  -10.5219 H   0  0  0  0  0
  -18.9394    2.7775  -12.0956 H   0  0  0  0  0
  -18.1642    4.7223  -10.1621 H   0  0  0  0  0
  -19.5230    3.8114   -9.4522 H   0  0  0  0  0
  -21.0102    4.4332  -11.2103 H   0  0  0  0  0
  -19.7281    4.7360  -12.3414 H   0  0  0  0  0
  -20.5813    6.8165  -11.4189 H   0  0  0  0  0
  -20.2248    6.3198   -9.8687 H   0  0  0  0  0
  -18.9944    6.6104  -10.9543 H   0  0  0  0  0
  -17.7398    4.8366  -12.4203 H   0  0  0  0  0
  -15.7238    6.3982  -14.1541 H   0  0  0  0  0
  -18.0522    5.6958  -15.1578 H   0  0  0  0  0
  -16.5828    7.5245  -16.0340 H   0  0  0  0  0
  -17.3669    8.6637  -14.9022 H   0  0  0  0  0
  -19.3761    6.0785  -13.1171 H   0  0  0  0  0
  -18.9572    7.8087  -13.1605 H   0  0  0  0  0
  -19.9547    7.1014  -14.4549 H   0  0  0  0  0
  -18.7710    7.0892  -17.1069 H   0  0  0  0  0
  -19.5523    8.2244  -15.9791 H   0  0  0  0  0
  -18.3657    8.8223  -17.1646 H   0  0  0  0  0
  -15.0587    6.3772  -11.6198 H   0  0  0  0  0
  -16.4820    8.7520  -10.3281 H   0  0  0  0  0
  -14.5971    6.6545   -9.1300 H   0  0  0  0  0
  -16.9506    5.9573  -10.2285 H   0  0  0  0  0
  -17.5514    6.5518   -8.6463 H   0  0  0  0  0
  -14.8617    8.7619   -7.8388 H   0  0  0  0  0
  -16.6309    8.5635   -7.8774 H   0  0  0  0  0
  -15.6230    7.3939   -6.9902 H   0  0  0  0  0
  -15.4020    4.4234   -9.0568 H   0  0  0  0  0
  -15.9985    5.0136   -7.4861 H   0  0  0  0  0
  -17.0880    4.1169   -8.5723 H   0  0  0  0  0
  -14.6054    9.1082  -12.4277 H   0  0  0  0  0
  -11.9435    9.5207  -11.9091 H   0  0  0  0  0
  -13.4766   12.0077  -12.6375 H   0  0  0  0  0
  -13.7286   10.5971  -13.6573 H   0  0  0  0  0
  -12.3788   10.6318  -15.1240 H   0  0  0  0  0
  -11.0413    9.7090  -10.0663 H   0  0  0  0  0
  -12.0156   11.6231   -7.9682 H   0  0  0  0  0
  -10.3897   10.5095   -6.6754 H   0  0  0  0  0
   -8.5399    9.5292   -7.7391 H   0  0  0  0  0
  -12.0250    8.8400   -7.4349 H   0  0  0  0  0
  -11.0165    8.4857   -8.8592 H   0  0  0  0  0
  -10.4150    8.1082   -7.2262 H   0  0  0  0  0
   -8.9237   11.9392   -7.5013 H   0  0  0  0  0
   -8.2087   14.4284   -7.8196 H   0  0  0  0  0
   -8.5160   14.1512   -9.5459 H   0  0  0  0  0
   -6.4860   14.1565  -10.4822 H   0  0  0  0  0
   -4.6702   11.9331   -9.6626 H   0  0  0  0  0
   -4.0021   13.6012   -9.5012 H   0  0  0  0  0
   -5.5954   14.4541  -11.9885 H   0  0  0  0  0
   -3.5100   14.1314  -13.9224 H   0  0  0  0  0
   -5.2079   14.4727  -14.3408 H   0  0  0  0  0
   -6.6205   12.3125  -13.8290 H   0  0  0  0  0
   -5.7014   10.3875  -15.8782 H   0  0  0  0  0
   -4.2669   10.3415  -13.5406 H   0  0  0  0  0
   -4.5588    8.9022  -14.5934 H   0  0  0  0  0
   -6.0946   10.8024  -11.7123 H   0  0  0  0  0
   -5.5060    7.0225  -13.7027 H   0  0  0  0  0
   -7.3520    9.6392   -9.8937 H   0  0  0  0  0
   -6.7227    5.8600  -11.8786 H   0  0  0  0  0
   -7.6684    7.1575   -9.9829 H   0  0  0  0  0
   -7.2684    9.4260  -16.7103 H   0  0  0  0  0
   -9.9790    9.9586  -15.6376 H   0  0  0  0  0
   -8.7854    8.1689  -17.8263 H   0  0  0  0  0
   -9.1268    9.9582  -19.3475 H   0  0  0  0  0
   -8.4106   10.7230  -17.8862 H   0  0  0  0  0
  -11.0638    7.4596  -17.2253 H   0  0  0  0  0
  -11.6475    9.1271  -17.4483 H   0  0  0  0  0
  -11.0346    8.2044  -18.8426 H   0  0  0  0  0
  -11.3804   10.6522  -18.5955 H   0  0  0  0  0
  -10.6711   11.4096  -17.1483 H   0  0  0  0  0
  -10.3063   12.0624  -18.7644 H   0  0  0  0  0
  -11.2739    8.8761  -14.4108 H   0  0  0  0  0
  -10.6500    5.9135  -13.9169 H   0  0  0  0  0
  -11.7546    7.7890  -11.8113 H   0  0  0  0  0
  -10.0190    7.9523  -12.2154 H   0  0  0  0  0
  -11.4020    5.3886  -11.3321 H   0  0  0  0  0
   -9.5369    5.0075  -12.8959 H   0  0  0  0  0
   -8.4801    6.0232  -11.8847 H   0  0  0  0  0
   -9.1171    4.4882  -11.2451 H   0  0  0  0  0
   -9.4365    7.2692   -9.9428 H   0  0  0  0  0
  -11.1643    7.1032   -9.5452 H   0  0  0  0  0
  -10.0539    5.7371   -9.2775 H   0  0  0  0  0
  -12.2881    4.8448  -14.6002 H   0  0  0  0  0
  2  1  1  0  0  0
  2  5  1  0  0  0
  3  2  1  0  0  0
  3  4  2  0  0  0
  5  6  1  0  0  0
  6  7  1  0  0  0
  7  8  1  0  0  0
  8  9  1  0  0  0
 11 10  1  0  0  0
 11 14  1  0  0  0
 12 11  1  0  0  0
 12 13  2  0  0  0
 14 16  1  0  0  0
 14 15  1  0  0  0
 15 17  1  0  0  0
 10  3  1  0  0  0
 19 18  1  0  0  0
 19 22  1  0  0  0
 20 19  1  0  0  0
 20 21  2  0  0  0
 22 24  1  0  0  0
 22 23  1  0  0  0
 23 25  1  0  0  0
 18 12  1  0  0  0
 27 26  1  0  0  0
 27 30  1  0  0  0
 28 27  1  0  0  0
 28 29  2  0  0  0
 30 31  1  0  0  0
 31 32  2  0  0  0
 31 33  1  0  0  0
 26 20  1  0  0  0
 35 34  1  0  0  0
 35 38  1  0  0  0
 36 35  1  0  0  0
 36 37  2  0  0  0
 38 40  1  0  0  0
 38 39  1  0  0  0
 34 28  1  0  0  0
 42 41  1  0  0  0
 43 42  1  0  0  0
 43 44  2  0  0  0
 41 36  1  0  0  0
 46 45  1  0  0  0
 47 46  1  0  0  0
 47 48  2  0  0  0
 45 43  1  0  0  0
 50 49  1  0  0  0
 51 50  1  0  0  0
 51 52  2  0  0  0
 49 47  1  0  0  0
 54 53  1  0  0  0
 54 57  1  0  0  0
 55 54  1  0  0  0
 55 56  2  0  0  0
 57 58  1  0  0  0
 58 59  4  0  0  0
 58 60  4  0  0  0
 60 62  4  0  0  0
 62 63  4  0  0  0
 61 63  4  0  0  0
 59 61  4  0  0  0
 53 51  1  0  0  0
 65 64  1  0  0  0
 65 68  1  0  0  0
 66 65  1  0  0  0
 66 67  2  0  0  0
 68 70  1  0  0  0
 68 69  1  0  0  0
 69 71  1  0  0  0
 64 55  1  0  0  0
 72 73  1  0  0  0
 73 76  1  0  0  0
 73 74  1  0  0  0
 74 75  2  0  0  0
 76 77  1  0  0  0
 77 78  1  0  0  0
 77 79  1  0  0  0
 66 72  1  0  0  0
 74 80  1  0  0  0
  1 81  1  0  0  0
  1 82  1  0  0  0
  1 83  1  0  0  0
  2 84  1  0  0  0
  5 85  1  0  0  0
  5 86  1  0  0  0
  6 87  1  0  0  0
  6 88  1  0  0  0
  7 89  1  0  0  0
  7 90  1  0  0  0
  8 91  1  0  0  0
  8 92  1  0  0  0
  9 93  1  0  0  0
  9 94  1  0  0  0
  9 95  1  0  0  0
 10 96  1  0  0  0
 11 97  1  0  0  0
 14 98  1  0  0  0
 15 99  1  0  0  0
 15100  1  0  0  0
 16101  1  0  0  0
 16102  1  0  0  0
 16103  1  0  0  0
 17104  1  0  0  0
 17105  1  0  0  0
 17106  1  0  0  0
 18107  1  0  0  0
 19108  1  0  0  0
 22109  1  0  0  0
 23110  1  0  0  0
 23111  1  0  0  0
 24112  1  0  0  0
 24113  1  0  0  0
 24114  1  0  0  0
 25115  1  0  0  0
 25116  1  0  0  0
 25117  1  0  0  0
 26118  1  0  0  0
 27119  1  0  0  0
 30120  1  0  0  0
 30121  1  0  0  0
 33122  1  0  0  0
 34123  1  0  0  0
 35124  1  0  0  0
 38125  1  0  0  0
 39126  1  0  0  0
 40127  1  0  0  0
 40128  1  0  0  0
 40129  1  0  0  0
 41130  1  0  0  0
 42131  1  0  0  0
 42132  1  0  0  0
 45133  1  0  0  0
 46134  1  0  0  0
 46135  1  0  0  0
 49136  1  0  0  0
 50137  1  0  0  0
 50138  1  0  0  0
 53139  1  0  0  0
 54140  1  0  0  0
 57141  1  0  0  0
 57142  1  0  0  0
 59143  1  0  0  0
 60144  1  0  0  0
 61145  1  0  0  0
 62146  1  0  0  0
 63147  1  0  0  0
 64148  1  0  0  0
 65149  1  0  0  0
 68150  1  0  0  0
 69151  1  0  0  0
 69152  1  0  0  0
 70153  1  0  0  0
 70154  1  0  0  0
 70155  1  0  0  0
 71156  1  0  0  0
 71157  1  0  0  0
 71158  1  0  0  0
 72159  1  0  0  0
 73160  1  0  0  0
 76161  1  0  0  0
 76162  1  0  0  0
 77163  1  0  0  0
 78164  1  0  0  0
 78165  1  0  0  0
 78166  1  0  0  0
 79167  1  0  0  0
 79168  1  0  0  0
 79169  1  0  0  0
 80170  1  0  0  0
M  END
$$$$
