2e9n_ligand
  -I-interpret- 

 61 66  0  0  0  0  0  0  0  0999 V2000
  -13.4960    9.4900  -13.8670 O   0  0  0  0  0
   -9.6580    9.3950  -16.0270 C   0  0  0  0  0
  -10.3360    8.1260  -15.6120 C   0  0  0  0  0
  -11.6250    8.1580  -14.8870 C   0  0  0  0  0
  -12.2860    9.4560  -14.5480 C   0  0  0  0  0
  -11.6410   10.7100  -14.9420 C   0  0  0  0  0
  -10.3660   10.6880  -15.6600 C   0  0  0  0  0
   -5.7140    9.6140  -18.3310 C   0  0  0  0  0
   -6.1180    8.3060  -17.6850 C   0  0  0  0  0
   -7.3940    8.2220  -16.9350 C   0  0  0  0  0
   -8.2980    9.4160  -16.8020 C   0  0  0  0  0
   -7.8550   10.6720  -17.4560 C   0  0  0  0  0
   -6.6180   10.7760  -18.1890 C   0  0  0  0  0
   -4.4200    9.8530  -19.1240 C   0  0  0  0  0
   -4.2420   10.5910  -20.2580 N   0  0  0  0  0
   -2.9630   10.6280  -20.7230 N   0  0  0  0  0
   -2.2310    9.8610  -19.8500 C   0  0  0  0  0
   -3.1120    9.3620  -18.8240 C   0  0  0  0  0
   -0.9270    9.4350  -19.6310 C   0  0  0  0  0
   -0.9940    8.6030  -18.3890 C   0  0  0  0  0
   -2.3500    8.5850  -17.9410 C   0  0  0  0  0
    0.3570    9.6330  -20.3260 C   0  0  0  0  0
    1.6120    8.9950  -19.7760 C   0  0  0  0  0
    1.5530    8.1490  -18.5110 C   0  0  0  0  0
    0.2170    7.9750  -17.8480 C   0  0  0  0  0
    2.7020    7.5290  -17.9170 C   0  0  0  0  0
    3.5980    6.8640  -18.7560 N   0  0  0  0  0
    2.9080    7.5990  -16.6860 O   0  0  0  0  0
    4.8400    6.2040  -18.2460 C   0  0  0  0  0
    4.9170    4.6690  -18.5860 C   0  0  0  0  0
    6.2470    3.9840  -18.0630 C   0  0  0  0  0
    7.6020    4.7180  -18.4660 C   0  0  0  0  0
    7.4890    6.3300  -18.2950 C   0  0  0  0  0
    6.1300    6.9430  -18.8160 C   0  0  0  0  0
    8.6830    4.2490  -17.5860 O   0  0  0  0  0
  -13.7645   10.4028  -13.7393 H   0  0  0  0  0
   -9.8741    7.1671  -15.8470 H   0  0  0  0  0
  -12.1002    7.2214  -14.5954 H   0  0  0  0  0
  -12.1119   11.6627  -14.6998 H   0  0  0  0  0
   -9.9069   11.6354  -15.9422 H   0  0  0  0  0
   -5.4742    7.4306  -17.7708 H   0  0  0  0  0
   -7.6818    7.2782  -16.4719 H   0  0  0  0  0
   -8.4918   11.5533  -17.3790 H   0  0  0  0  0
   -6.3443   11.7269  -18.6462 H   0  0  0  0  0
   -2.7253    7.5618  -17.9220 H   0  0  0  0  0
   -2.4169    8.9901  -16.9313 H   0  0  0  0  0
    0.4016   10.2367  -21.2325 H   0  0  0  0  0
    2.5636    9.1411  -20.2871 H   0  0  0  0  0
    0.1451    7.3689  -16.9449 H   0  0  0  0  0
    3.3981    6.8267  -19.7555 H   0  0  0  0  0
    4.8056    6.2870  -17.1597 H   0  0  0  0  0
    4.8964    4.5681  -19.6711 H   0  0  0  0  0
    4.0762    4.1781  -18.0960 H   0  0  0  0  0
    6.2844    2.9934  -18.5162 H   0  0  0  0  0
    6.1971    4.0012  -16.9743 H   0  0  0  0  0
    7.8044    4.4859  -19.5116 H   0  0  0  0  0
    8.2895    6.7730  -18.8875 H   0  0  0  0  0
    7.5507    6.5452  -17.2282 H   0  0  0  0  0
    6.0885    7.9795  -18.4812 H   0  0  0  0  0
    6.1166    6.8355  -19.9006 H   0  0  0  0  0
    9.5022    4.6887  -17.8250 H   0  0  0  0  0
  5  1  1  0  0  0
  2  3  4  0  0  0
  2  7  4  0  0  0
 11  2  1  0  0  0
  3  4  4  0  0  0
  4  5  4  0  0  0
  6  5  4  0  0  0
  7  6  4  0  0  0
  9  8  4  0  0  0
  8 13  4  0  0  0
  8 14  1  0  0  0
 10  9  4  0  0  0
 10 11  4  0  0  0
 11 12  4  0  0  0
 12 13  4  0  0  0
 14 15  4  0  0  0
 14 18  4  0  0  0
 15 16  4  0  0  0
 16 17  4  0  0  0
 17 18  4  0  0  0
 17 19  1  0  0  0
 18 21  1  0  0  0
 19 20  4  0  0  0
 19 22  4  0  0  0
 20 21  1  0  0  0
 20 25  4  0  0  0
 22 23  4  0  0  0
 23 24  4  0  0  0
 24 25  4  0  0  0
 24 26  1  0  0  0
 26 27  1  0  0  0
 26 28  2  0  0  0
 27 29  1  0  0  0
 29 30  1  0  0  0
 29 34  1  0  0  0
 30 31  1  0  0  0
 31 32  1  0  0  0
 32 33  1  0  0  0
 32 35  1  0  0  0
 33 34  1  0  0  0
  1 36  1  0  0  0
  3 37  1  0  0  0
  4 38  1  0  0  0
  6 39  1  0  0  0
  7 40  1  0  0  0
  9 41  1  0  0  0
 10 42  1  0  0  0
 12 43  1  0  0  0
 13 44  1  0  0  0
 21 45  1  0  0  0
 21 46  1  0  0  0
 22 47  1  0  0  0
 23 48  1  0  0  0
 25 49  1  0  0  0
 27 50  1  0  0  0
 29 51  1  0  0  0
 30 52  1  0  0  0
 30 53  1  0  0  0
 31 54  1  0  0  0
 31 55  1  0  0  0
 32 56  1  0  0  0
 33 57  1  0  0  0
 33 58  1  0  0  0
 34 59  1  0  0  0
 34 60  1  0  0  0
 35 61  1  0  0  0
M  END
$$$$
