1d6n_ligand
  -I-interpret- 

 14 15  0  0  0  0  0  0  0  0999 V2000
   45.7210   51.0030    3.6400 O   0  0  0  0  0
   44.9190   50.0450    3.6210 C   0  0  0  0  0
   43.8470   49.7780    4.5360 C   0  0  0  0  0
   43.4150   50.4750    5.6470 N   0  0  0  0  0
   42.4140   49.7890    6.1030 N   0  0  0  0  0
   42.1480   48.6640    5.3580 C   0  0  0  0  0
   43.0690   48.6440    4.3400 C   0  0  0  0  0
   43.1770   47.6920    3.3460 N   0  0  0  0  0
   44.1880   47.9370    2.4740 C   0  0  0  0  0
   45.0210   49.0570    2.6010 N   0  0  0  0  0
   41.1318   48.6877    4.9645 H   0  0  0  0  0
   42.2222   47.7645    5.9692 H   0  0  0  0  0
   44.3569   47.2425    1.6511 H   0  0  0  0  0
   45.7594   49.1736    1.9071 H   0  0  0  0  0
  1  2  2  0  0  0
  2  3  1  0  0  0
  2 10  1  0  0  0
  3  4  1  0  0  0
  3  7  2  0  0  0
  4  5  2  0  0  0
  5  6  1  0  0  0
  6  7  1  0  0  0
  7  8  1  0  0  0
  8  9  2  0  0  0
  9 10  1  0  0  0
  6 11  1  0  0  0
  6 12  1  0  0  0
  9 13  1  0  0  0
 10 14  1  0  0  0
M  END
$$$$
