### 
### Created by X-TOOL on Mon Sep 10 21:13:28 2018
### 

@<TRIPOS>MOLECULE
4yk6_ligand
  152   153     1     0     0
SMALL
GAST_HUCK


@<TRIPOS>ATOM
      1 N           9.0530    5.4850    2.7930 N.4       1 TYR         0.2392
      2 CA         10.3140    5.7720    3.5150 C.3       1 TYR         0.0730
      3 C          10.0480    6.3940    4.8930 C.2       1 TYR         0.2286
      4 O           8.9470    6.8900    5.1400 O.2       1 TYR        -0.3905
      5 CB         11.2650    6.6170    2.6470 C.3       1 TYR         0.0365
      6 CG         11.1750    8.1280    2.7820 C.ar      1 TYR        -0.0460
      7 CD1        12.3100    8.8800    3.0520 C.ar      1 TYR        -0.0684
      8 CD2         9.9720    8.7980    2.6030 C.ar      1 TYR        -0.0684
      9 CE1        12.2480   10.2600    3.1660 C.ar      1 TYR        -0.0398
     10 CE2         9.9000   10.1670    2.7060 C.ar      1 TYR        -0.0398
     11 CZ         11.0370   10.8940    2.9940 C.ar      1 TYR         0.0805
     12 OH         10.9510   12.2560    3.0900 O.3       1 TYR        -0.3376
     13 N          11.0400    6.3060    5.7800 N.am      1 GLN        -0.2607
     14 CA         10.9580    6.9230    7.1090 C.3       1 GLN         0.1331
     15 C          11.2560    8.4160    6.9980 C.2       1 GLN         0.2038
     16 O          12.3720    8.8630    7.2510 O.2       1 GLN        -0.3944
     17 CB         11.9400    6.3300    8.1380 C.3       1 GLN         0.0045
     18 CG         11.8530    4.8440    8.4570 C.3       1 GLN         0.0412
     19 CD         12.9940    4.4100    9.3830 C.2       1 GLN         0.1737
     20 OE1        13.8160    5.2310    9.8390 O.2       1 GLN        -0.3973
     21 NE2        13.0700    3.1070    9.6390 N.am      1 GLN        -0.3009
     22 N          10.2570    9.2140    6.6510 N.am      1 GLY        -0.2664
     23 CA         10.5460   10.6400    6.4460 C.3       1 GLY         0.1201
     24 C          10.3200   11.4180    7.7070 C.2       1 GLY         0.2005
     25 O          10.5850   12.6110    7.7760 O.2       1 GLY        -0.3947
     26 N           9.8690   10.7220    8.7480 N.am      1 GLY        -0.2666
     27 CA          9.4460   11.4020    9.9420 C.3       1 GLY         0.1201
     28 C          10.5660   12.0640   10.7010 C.2       1 GLY         0.2005
     29 O          10.3730   13.0460   11.4230 O.2       1 GLY        -0.3947
     30 N          11.7690   11.5300   10.5790 N.am      1 GLY        -0.2666
     31 CA         12.9110   12.1800   11.2320 C.3       1 GLY         0.1201
     32 C          12.8660   12.0370   12.7390 C.2       1 GLY         0.2007
     33 O          12.1540   11.1880   13.2980 O.2       1 GLY        -0.3947
     34 N          13.6760   12.8620   13.3660 N.am      1 GLU        -0.2639
     35 CA         13.7570   12.9520   14.8280 C.3       1 GLU         0.1324
     36 C          13.8120   14.4350   15.2130 C.2       1 GLU         0.2040
     37 O          14.0330   15.2650   14.3590 O.2       1 GLU        -0.3944
     38 CB         15.0080   12.1810   15.2510 C.3       1 GLU        -0.0008
     39 CG         16.2950   12.6370   14.5660 C.3       1 GLU         0.0044
     40 CD         17.5140   11.9830   15.1380 C.2       1 GLU         0.0350
     41 OE1        18.6100   12.2120   14.5940 O.co2     1 GLU        -0.5690
     42 OE2        17.4060   11.2290   16.1470 O.co2     1 GLU        -0.5690
     43 N          13.6060   14.7870   16.4930 N.am      1 GLU        -0.2636
     44 CA         13.5780   16.2060   16.8880 C.3       1 GLU         0.1325
     45 C          13.8770   16.2810   18.3880 C.2       1 GLU         0.2040
     46 O          13.5820   15.3500   19.1510 O.2       1 GLU        -0.3944
     47 CB         12.2020   16.8560   16.5610 C.3       1 GLU        -0.0008
     48 CG         12.2140   18.3920   16.6190 C.3       1 GLU         0.0044
     49 CD         11.0190   19.0720   15.9640 C.2       1 GLU         0.0350
     50 OE1        10.3790   19.9220   16.6360 O.co2     1 GLU        -0.5690
     51 OE2        10.7360   18.8000   14.7640 O.co2     1 GLU        -0.5690
     52 N          14.5410   17.3570   18.7920 N.am      1 MET        -0.2637
     53 CA         14.5980   17.6990   20.2310 C.3       1 MET         0.1317
     54 C          13.2540   18.0610   20.8300 C.2       1 MET         0.2039
     55 O          12.2970   18.3570   20.1360 O.2       1 MET        -0.3944
     56 CB         15.5530   18.8750   20.4280 C.3       1 MET        -0.0034
     57 CG         16.9030   18.6820   19.7910 C.3       1 MET        -0.0024
     58 SD         17.9460   17.8040   20.9530 S.3       1 MET        -0.1639
     59 CE         18.2570   19.0190   22.2610 C.3       1 MET        -0.0181
     60 N          13.2000   18.0700   22.1680 N.am      1 ALA        -0.2640
     61 CA         12.0380   18.5330   22.9380 C.3       1 ALA         0.1282
     62 C          11.7320   20.0040   22.6460 C.2       1 ALA         0.2036
     63 O          12.6340   20.7910   22.3620 O.2       1 ALA        -0.3944
     64 CB         12.3410   18.3900   24.4270 C.3       1 ALA        -0.0244
     65 N          10.4550   20.3390   22.7080 N.am      1 LEU        -0.2637
     66 CA         10.0080   21.7170   22.5800 C.3       1 LEU         0.1314
     67 C          10.1740   22.3930   23.9450 C.2       1 LEU         0.2058
     68 O           9.6830   21.8700   24.9310 O.2       1 LEU        -0.3942
     69 CB          8.5230   21.7550   22.2150 C.3       1 LEU        -0.0101
     70 CG          8.1040   21.0140   20.9540 C.3       1 LEU        -0.0425
     71 CD1         6.6110   21.2940   20.8510 C.3       1 LEU        -0.0625
     72 CD2         8.8510   21.5530   19.7380 C.3       1 LEU        -0.0625
     73 N          10.8510   23.5560   23.9900 N.am      1 PRO        -0.2556
     74 CA         11.0540   24.2900   25.2200 C.3       1 PRO         0.0972
     75 C           9.7490   24.9220   25.7400 C.2       1 PRO         0.0603
     76 O           9.6190   25.2390   26.9230 O.co2     1 PRO        -0.5666
     77 CB         12.0720   25.3620   24.8190 C.3       1 PRO        -0.0159
     78 CG         11.8770   25.5510   23.3410 C.3       1 PRO        -0.0288
     79 CD         11.5750   24.1670   22.8560 C.3       1 PRO         0.0362
     80 OXT         8.7800   25.1380   25.0070 O.co2     1 PRO        -0.5666
     81 H1          9.2649    5.0787    1.8952 H         1 TYR         0.2017
     82 H2          8.5388    6.3419    2.6610 H         1 TYR         0.2017
     83 H3          8.4971    4.8391    3.3313 H         1 TYR         0.2017
     84 H4         10.8137    4.8083    3.6925 H         1 TYR         0.1120
     85 H5         11.0624    6.3667    1.5952 H         1 TYR         0.0486
     86 H6         12.2939    6.3233    2.9022 H         1 TYR         0.0486
     87 H7         13.2630    8.3785    3.1761 H         1 TYR         0.0530
     88 H8          9.0750    8.2323    2.3784 H         1 TYR         0.0530
     89 H9         13.1410   10.8331    3.3877 H         1 TYR         0.0525
     90 H10         8.9528   10.6739    2.5614 H         1 TYR         0.0525
     91 H11        11.8081   12.6129    3.2912 H         1 TYR         0.2458
     92 H12        11.8675    5.8027    5.5311 H         1 GLN         0.1885
     93 H13         9.9341    6.7835    7.4860 H         1 GLN         0.0801
     94 H14        11.7876    6.8736    9.0821 H         1 GLN         0.0337
     95 H15        12.9565    6.5222    7.7641 H         1 GLN         0.0337
     96 H16        11.9136    4.2714    7.5198 H         1 GLN         0.0504
     97 H17        10.8918    4.6384    8.9508 H         1 GLN         0.0504
     98 H18        13.7913    2.7560   10.2361 H         1 GLN         0.1814
     99 H19        12.4058    2.4784    9.2344 H         1 GLN         0.1814
    100 H20         9.3311    8.8555    6.5318 H         1 GLY         0.1881
    101 H21         9.8859   11.0316    5.6580 H         1 GLY         0.0763
    102 H22        11.5951   10.7539    6.1357 H         1 GLY         0.0763
    103 H23         9.8243    9.7242    8.6995 H         1 GLY         0.1881
    104 H24         8.9651   10.6683   10.6057 H         1 GLY         0.0763
    105 H25         8.7159   12.1748    9.6595 H         1 GLY         0.0763
    106 H26        11.8993   10.6928   10.0479 H         1 GLY         0.1881
    107 H27        12.9027   13.2501   10.9774 H         1 GLY         0.0763
    108 H28        13.8394   11.7219   10.8603 H         1 GLY         0.0763
    109 H29        14.2654   13.4569   12.8195 H         1 GLU         0.1883
    110 H30        12.8708   12.4920   15.2896 H         1 GLU         0.0801
    111 H31        14.8521   11.1177   15.0163 H         1 GLU         0.0330
    112 H32        15.1354   12.3020   16.3369 H         1 GLU         0.0330
    113 H33        16.3908   13.7263   14.6853 H         1 GLU         0.0433
    114 H34        16.2315   12.3894   13.4961 H         1 GLU         0.0433
    115 H35        13.4702   14.0782   17.1852 H         1 GLU         0.1883
    116 H36        14.3598   16.7487   16.3364 H         1 GLU         0.0801
    117 H37        11.4625   16.4870   17.2869 H         1 GLU         0.0330
    118 H38        11.9053   16.5493   15.5472 H         1 GLU         0.0330
    119 H39        13.1256   18.7451   16.1148 H         1 GLU         0.0433
    120 H40        12.2399   18.6930   17.6767 H         1 GLU         0.0433
    121 H41        15.0039   17.9380   18.1225 H         1 MET         0.1883
    122 H42        14.9887   16.8249   20.7726 H         1 MET         0.0800
    123 H43        15.6986   19.0249   21.5079 H         1 MET         0.0320
    124 H44        15.0904   19.7728   19.9922 H         1 MET         0.0320
    125 H45        17.3478   19.6602   19.5561 H         1 MET         0.0378
    126 H46        16.7986   18.0952   18.8665 H         1 MET         0.0378
    127 H47        18.8980   18.5697   23.0339 H         1 MET         0.0340
    128 H48        17.3013   19.3266   22.7105 H         1 MET         0.0340
    129 H49        18.7606   19.8982   21.8326 H         1 MET         0.0340
    130 H50        13.9983   17.7420   22.6730 H         1 ALA         0.1883
    131 H51        11.1628   17.9203   22.6761 H         1 ALA         0.0797
    132 H52        11.4756   18.7347   25.0120 H         1 ALA         0.0277
    133 H53        13.2215   18.9979   24.6821 H         1 ALA         0.0277
    134 H54        12.5442   17.3344   24.6601 H         1 ALA         0.0277
    135 H55         9.7733   19.6208   22.8476 H         1 LEU         0.1883
    136 H56        10.6006   22.2389   21.8142 H         1 LEU         0.0800
    137 H57         8.2386   22.8102   22.0901 H         1 LEU         0.0315
    138 H58         7.9629   21.3214   23.0566 H         1 LEU         0.0315
    139 H59         8.2937   19.9349   21.0512 H         1 LEU         0.0298
    140 H60         6.2051   20.7951   19.9586 H         1 LEU         0.0232
    141 H61         6.4459   22.3786   20.7716 H         1 LEU         0.0232
    142 H62         6.1032   20.9105   21.7482 H         1 LEU         0.0232
    143 H63         9.9244   21.3360   19.8413 H         1 LEU         0.0232
    144 H64         8.7018   22.6406   19.6684 H         1 LEU         0.0232
    145 H65         8.4655   21.0710   18.8275 H         1 LEU         0.0232
    146 H66        11.4675   23.6324   25.9989 H         1 PRO         0.0728
    147 H67        13.0960   25.0221   25.0334 H         1 PRO         0.0306
    148 H68        11.8770   26.3010   25.3577 H         1 PRO         0.0306
    149 H69        12.7901   25.9436   22.8697 H         1 PRO         0.0286
    150 H70        11.0375   26.2321   23.1378 H         1 PRO         0.0286
    151 H71        10.9440   24.1947   21.9554 H         1 PRO         0.0524
    152 H72        12.5015   23.6157   22.6378 H         1 PRO         0.0524
@<TRIPOS>BOND
     1    1    2 1  
     2    2    3 1  
     3    2    5 1  
     4    3    4 2  
     5    3   13 am 
     6    5    6 1  
     7    6    7 ar 
     8    6    8 ar 
     9    7    9 ar 
    10    8   10 ar 
    11    9   11 ar 
    12   10   11 ar 
    13   11   12 1  
    14   13   14 1  
    15   14   15 1  
    16   14   17 1  
    17   15   16 2  
    18   15   22 am 
    19   17   18 1  
    20   18   19 1  
    21   19   20 2  
    22   19   21 am 
    23   22   23 1  
    24   23   24 1  
    25   24   25 2  
    26   24   26 am 
    27   26   27 1  
    28   27   28 1  
    29   28   29 2  
    30   28   30 am 
    31   30   31 1  
    32   31   32 1  
    33   32   33 2  
    34   32   34 am 
    35   34   35 1  
    36   35   36 1  
    37   35   38 1  
    38   36   37 2  
    39   36   43 am 
    40   38   39 1  
    41   39   40 1  
    42   40   41 ar 
    43   40   42 ar 
    44   43   44 1  
    45   44   45 1  
    46   44   47 1  
    47   45   46 2  
    48   45   52 am 
    49   47   48 1  
    50   48   49 1  
    51   49   50 ar 
    52   49   51 ar 
    53   52   53 1  
    54   53   54 1  
    55   53   56 1  
    56   54   55 2  
    57   54   60 am 
    58   56   57 1  
    59   57   58 1  
    60   58   59 1  
    61   60   61 1  
    62   61   62 1  
    63   61   64 1  
    64   62   63 2  
    65   62   65 am 
    66   65   66 1  
    67   66   67 1  
    68   66   69 1  
    69   67   68 2  
    70   67   73 am 
    71   69   70 1  
    72   70   71 1  
    73   70   72 1  
    74   73   74 1  
    75   73   79 1  
    76   74   75 1  
    77   74   77 1  
    78   75   76 ar 
    79   75   80 ar 
    80   77   78 1  
    81   78   79 1  
    82    1   81 1  
    83    1   82 1  
    84    1   83 1  
    85    2   84 1  
    86    5   85 1  
    87    5   86 1  
    88    7   87 1  
    89    8   88 1  
    90    9   89 1  
    91   10   90 1  
    92   12   91 1  
    93   13   92 1  
    94   14   93 1  
    95   17   94 1  
    96   17   95 1  
    97   18   96 1  
    98   18   97 1  
    99   21   98 1  
   100   21   99 1  
   101   22  100 1  
   102   23  101 1  
   103   23  102 1  
   104   26  103 1  
   105   27  104 1  
   106   27  105 1  
   107   30  106 1  
   108   31  107 1  
   109   31  108 1  
   110   34  109 1  
   111   35  110 1  
   112   38  111 1  
   113   38  112 1  
   114   39  113 1  
   115   39  114 1  
   116   43  115 1  
   117   44  116 1  
   118   47  117 1  
   119   47  118 1  
   120   48  119 1  
   121   48  120 1  
   122   52  121 1  
   123   53  122 1  
   124   56  123 1  
   125   56  124 1  
   126   57  125 1  
   127   57  126 1  
   128   59  127 1  
   129   59  128 1  
   130   59  129 1  
   131   60  130 1  
   132   61  131 1  
   133   64  132 1  
   134   64  133 1  
   135   64  134 1  
   136   65  135 1  
   137   66  136 1  
   138   69  137 1  
   139   69  138 1  
   140   70  139 1  
   141   71  140 1  
   142   71  141 1  
   143   71  142 1  
   144   72  143 1  
   145   72  144 1  
   146   72  145 1  
   147   74  146 1  
   148   77  147 1  
   149   77  148 1  
   150   78  149 1  
   151   78  150 1  
   152   79  151 1  
   153   79  152 1  
@<TRIPOS>SUBSTRUCTURE
     1 TYR         1

