4yk6_ligand
  -I-interpret- 

155156  0  0  0  0  0  0  0  0999 V2000
    9.0530    5.4850    2.7930 N   0  3  0  0  0
   10.3140    5.7720    3.5150 C   0  0  0  0  0
   10.0480    6.3940    4.8930 C   0  0  0  0  0
    8.9470    6.8900    5.1400 O   0  0  0  0  0
   11.2650    6.6170    2.6470 C   0  0  0  0  0
   11.1750    8.1280    2.7820 C   0  0  0  0  0
   12.3100    8.8800    3.0520 C   0  0  0  0  0
    9.9720    8.7980    2.6030 C   0  0  0  0  0
   12.2480   10.2600    3.1660 C   0  0  0  0  0
    9.9000   10.1670    2.7060 C   0  0  0  0  0
   11.0370   10.8940    2.9940 C   0  0  0  0  0
   10.9510   12.2560    3.0900 O   0  0  0  0  0
   11.0400    6.3060    5.7800 N   0  0  0  0  0
   10.9580    6.9230    7.1090 C   0  0  0  0  0
   11.2560    8.4160    6.9980 C   0  0  0  0  0
   12.3720    8.8630    7.2510 O   0  0  0  0  0
   11.9400    6.3300    8.1380 C   0  0  0  0  0
   11.8530    4.8440    8.4570 C   0  0  0  0  0
   12.9940    4.4100    9.3830 C   0  0  0  0  0
   13.8160    5.2310    9.8390 O   0  0  0  0  0
   13.0700    3.1070    9.6390 N   0  0  0  0  0
   10.2570    9.2140    6.6510 N   0  0  0  0  0
   10.5460   10.6400    6.4460 C   0  0  0  0  0
   10.3200   11.4180    7.7070 C   0  0  0  0  0
   10.5850   12.6110    7.7760 O   0  0  0  0  0
    9.8690   10.7220    8.7480 N   0  0  0  0  0
    9.4460   11.4020    9.9420 C   0  0  0  0  0
   10.5660   12.0640   10.7010 C   0  0  0  0  0
   10.3730   13.0460   11.4230 O   0  0  0  0  0
   11.7690   11.5300   10.5790 N   0  0  0  0  0
   12.9110   12.1800   11.2320 C   0  0  0  0  0
   12.8660   12.0370   12.7390 C   0  0  0  0  0
   12.1540   11.1880   13.2980 O   0  0  0  0  0
   13.6760   12.8620   13.3660 N   0  0  0  0  0
   13.7570   12.9520   14.8280 C   0  0  0  0  0
   13.8120   14.4350   15.2130 C   0  0  0  0  0
   14.0330   15.2650   14.3590 O   0  0  0  0  0
   15.0080   12.1810   15.2510 C   0  0  0  0  0
   16.2950   12.6370   14.5660 C   0  0  0  0  0
   17.5140   11.9830   15.1380 C   0  0  0  0  0
   18.6100   12.2120   14.5940 O   0  0  0  0  0
   17.4060   11.2290   16.1470 O   0  0  0  0  0
   13.6060   14.7870   16.4930 N   0  0  0  0  0
   13.5780   16.2060   16.8880 C   0  0  0  0  0
   13.8770   16.2810   18.3880 C   0  0  0  0  0
   13.5820   15.3500   19.1510 O   0  0  0  0  0
   12.2020   16.8560   16.5610 C   0  0  0  0  0
   12.2140   18.3920   16.6190 C   0  0  0  0  0
   11.0190   19.0720   15.9640 C   0  0  0  0  0
   10.3790   19.9220   16.6360 O   0  0  0  0  0
   10.7360   18.8000   14.7640 O   0  0  0  0  0
   14.5410   17.3570   18.7920 N   0  0  0  0  0
   14.5980   17.6990   20.2310 C   0  0  0  0  0
   13.2540   18.0610   20.8300 C   0  0  0  0  0
   12.2970   18.3570   20.1360 O   0  0  0  0  0
   15.5530   18.8750   20.4280 C   0  0  0  0  0
   16.9030   18.6820   19.7910 C   0  0  0  0  0
   17.9460   17.8040   20.9530 S   0  0  0  0  0
   18.2570   19.0190   22.2610 C   0  0  0  0  0
   13.2000   18.0700   22.1680 N   0  0  0  0  0
   12.0380   18.5330   22.9380 C   0  0  0  0  0
   11.7320   20.0040   22.6460 C   0  0  0  0  0
   12.6340   20.7910   22.3620 O   0  0  0  0  0
   12.3410   18.3900   24.4270 C   0  0  0  0  0
   10.4550   20.3390   22.7080 N   0  0  0  0  0
   10.0080   21.7170   22.5800 C   0  0  0  0  0
   10.1740   22.3930   23.9450 C   0  0  0  0  0
    9.6830   21.8700   24.9310 O   0  0  0  0  0
    8.5230   21.7550   22.2150 C   0  0  0  0  0
    8.1040   21.0140   20.9540 C   0  0  0  0  0
    6.6110   21.2940   20.8510 C   0  0  0  0  0
    8.8510   21.5530   19.7380 C   0  0  0  0  0
   10.8510   23.5560   23.9900 N   0  0  0  0  0
   11.0540   24.2900   25.2200 C   0  0  0  0  0
    9.7490   24.9220   25.7400 C   0  0  0  0  0
    9.6190   25.2390   26.9230 O   0  0  0  0  0
   12.0720   25.3620   24.8190 C   0  0  0  0  0
   11.8770   25.5510   23.3410 C   0  0  0  0  0
   11.5750   24.1670   22.8560 C   0  0  0  0  0
    8.7800   25.1380   25.0070 O   0  0  0  0  0
    8.4418    4.9255    3.3878 H   0  0  0  0  0
    8.5899    6.3629    2.5578 H   0  0  0  0  0
    9.2619    4.9697    1.9379 H   0  0  0  0  0
   10.8207    4.8260    3.7059 H   0  0  0  0  0
   10.9956    6.3966    1.6141 H   0  0  0  0  0
   12.2720    6.3516    2.9688 H   0  0  0  0  0
   13.2683    8.3757    3.1767 H   0  0  0  0  0
    9.0700    8.2292    2.3771 H   0  0  0  0  0
   13.1459   10.8363    3.3889 H   0  0  0  0  0
    8.9476   10.6767    2.5606 H   0  0  0  0  0
   10.0423   12.5292    2.9443 H   0  0  0  0  0
   11.8840    5.7926    5.5262 H   0  0  0  0  0
    9.9460    6.7261    7.4628 H   0  0  0  0  0
   11.7085    6.8356    9.0755 H   0  0  0  0  0
   12.9284    6.4689    7.7000 H   0  0  0  0  0
   11.9274    4.2827    7.5256 H   0  0  0  0  0
   10.9046    4.6501    8.9581 H   0  0  0  0  0
   13.8206    2.7458   10.2277 H   0  0  0  0  0
   12.3777    2.4689    9.2466 H   0  0  0  0  0
    9.3126    8.8483    6.5294 H   0  0  0  0  0
    9.8811   11.0248    5.6727 H   0  0  0  0  0
   11.5896   10.7472    6.1502 H   0  0  0  0  0
    9.8234    9.7042    8.6986 H   0  0  0  0  0
    9.0072   10.6534   10.6017 H   0  0  0  0  0
    8.7536   12.1871    9.6383 H   0  0  0  0  0
   11.9019   10.6760   10.0372 H   0  0  0  0  0
   12.8795   13.2426   10.9912 H   0  0  0  0  0
   13.8232   11.7032   10.8733 H   0  0  0  0  0
   14.2772   13.4688   12.8085 H   0  0  0  0  0
   12.8946   12.5182   15.3342 H   0  0  0  0  0
   14.8501   11.1392   14.9722 H   0  0  0  0  0
   15.1393   12.3479   16.3201 H   0  0  0  0  0
   16.3908   13.7127   14.7137 H   0  0  0  0  0
   16.2300   12.3629   13.5130 H   0  0  0  0  0
   16.4848   11.1827   16.4133 H   0  0  0  0  0
   13.4675   14.0640   17.1990 H   0  0  0  0  0
   14.3284   16.7624   16.3263 H   0  0  0  0  0
   11.4909   16.5074   17.3100 H   0  0  0  0  0
   11.9410   16.5706   15.5419 H   0  0  0  0  0
   13.0994   18.7199   16.0743 H   0  0  0  0  0
   12.1924   18.6666   17.6736 H   0  0  0  0  0
   11.3412   18.1300   14.4376 H   0  0  0  0  0
   15.0131   17.9496   18.1091 H   0  0  0  0  0
   14.9439   16.8033   20.7469 H   0  0  0  0  0
   15.7145   18.9837   21.5005 H   0  0  0  0  0
   15.0952   19.7451   19.9574 H   0  0  0  0  0
   17.3442   19.6480   19.5456 H   0  0  0  0  0
   16.8047   18.1105   18.8681 H   0  0  0  0  0
   18.7559   19.8896   21.8353 H   0  0  0  0  0
   17.3093   19.3230   22.7056 H   0  0  0  0  0
   18.8922   18.5727   23.0262 H   0  0  0  0  0
   14.0143   17.7354   22.6831 H   0  0  0  0  0
   11.1757   17.9301   22.6534 H   0  0  0  0  0
   12.5422   17.3436   24.6567 H   0  0  0  0  0
   13.2137   18.9928   24.6784 H   0  0  0  0  0
   11.4828   18.7318   25.0056 H   0  0  0  0  0
    9.7596   19.6065   22.8504 H   0  0  0  0  0
   10.5881   22.2202   21.8064 H   0  0  0  0  0
    8.2866   22.8040   22.0368 H   0  0  0  0  0
    8.0014   21.2639   23.0365 H   0  0  0  0  0
    8.3283   19.9480   20.9914 H   0  0  0  0  0
    6.1091   20.9136   21.7406 H   0  0  0  0  0
    6.4488   22.3690   20.7725 H   0  0  0  0  0
    6.2100   20.7992   19.9664 H   0  0  0  0  0
    8.6265   22.6126   19.6156 H   0  0  0  0  0
    9.9232   21.4220   19.8843 H   0  0  0  0  0
    8.5352   21.0082   18.8483 H   0  0  0  0  0
   11.3947   23.6541   26.0371 H   0  0  0  0  0
   13.0918   25.0591   25.0562 H   0  0  0  0  0
   11.9180   26.2907   25.3685 H   0  0  0  0  0
   12.7497   25.9861   22.8540 H   0  0  0  0  0
   11.0827   26.2605   23.1090 H   0  0  0  0  0
   10.9902   24.1644   21.9362 H   0  0  0  0  0
   12.4740   23.6128   22.5863 H   0  0  0  0  0
    8.9871   24.8557   24.1131 H   0  0  0  0  0
  1  2  1  0  0  0
  2  3  1  0  0  0
  2  5  1  0  0  0
  3  4  2  0  0  0
  3 13  1  0  0  0
  5  6  1  0  0  0
  6  7  4  0  0  0
  6  8  4  0  0  0
  7  9  4  0  0  0
  8 10  4  0  0  0
  9 11  4  0  0  0
 10 11  4  0  0  0
 11 12  1  0  0  0
 13 14  1  0  0  0
 14 15  1  0  0  0
 14 17  1  0  0  0
 15 16  2  0  0  0
 15 22  1  0  0  0
 17 18  1  0  0  0
 18 19  1  0  0  0
 19 20  2  0  0  0
 19 21  1  0  0  0
 22 23  1  0  0  0
 23 24  1  0  0  0
 24 25  2  0  0  0
 24 26  1  0  0  0
 26 27  1  0  0  0
 27 28  1  0  0  0
 28 29  2  0  0  0
 28 30  1  0  0  0
 30 31  1  0  0  0
 31 32  1  0  0  0
 32 33  2  0  0  0
 32 34  1  0  0  0
 34 35  1  0  0  0
 35 36  1  0  0  0
 35 38  1  0  0  0
 36 37  2  0  0  0
 36 43  1  0  0  0
 38 39  1  0  0  0
 39 40  1  0  0  0
 40 41  2  0  0  0
 40 42  1  0  0  0
 43 44  1  0  0  0
 44 45  1  0  0  0
 44 47  1  0  0  0
 45 46  2  0  0  0
 45 52  1  0  0  0
 47 48  1  0  0  0
 48 49  1  0  0  0
 49 50  2  0  0  0
 49 51  1  0  0  0
 52 53  1  0  0  0
 53 54  1  0  0  0
 53 56  1  0  0  0
 54 55  2  0  0  0
 54 60  1  0  0  0
 56 57  1  0  0  0
 57 58  1  0  0  0
 58 59  1  0  0  0
 60 61  1  0  0  0
 61 62  1  0  0  0
 61 64  1  0  0  0
 62 63  2  0  0  0
 62 65  1  0  0  0
 65 66  1  0  0  0
 66 67  1  0  0  0
 66 69  1  0  0  0
 67 68  2  0  0  0
 67 73  1  0  0  0
 69 70  1  0  0  0
 70 71  1  0  0  0
 70 72  1  0  0  0
 73 74  1  0  0  0
 73 79  1  0  0  0
 74 75  1  0  0  0
 74 77  1  0  0  0
 75 76  2  0  0  0
 75 80  1  0  0  0
 77 78  1  0  0  0
 78 79  1  0  0  0
  1 81  1  0  0  0
  1 82  1  0  0  0
  1 83  1  0  0  0
  2 84  1  0  0  0
  5 85  1  0  0  0
  5 86  1  0  0  0
  7 87  1  0  0  0
  8 88  1  0  0  0
  9 89  1  0  0  0
 10 90  1  0  0  0
 12 91  1  0  0  0
 13 92  1  0  0  0
 14 93  1  0  0  0
 17 94  1  0  0  0
 17 95  1  0  0  0
 18 96  1  0  0  0
 18 97  1  0  0  0
 21 98  1  0  0  0
 21 99  1  0  0  0
 22100  1  0  0  0
 23101  1  0  0  0
 23102  1  0  0  0
 26103  1  0  0  0
 27104  1  0  0  0
 27105  1  0  0  0
 30106  1  0  0  0
 31107  1  0  0  0
 31108  1  0  0  0
 34109  1  0  0  0
 35110  1  0  0  0
 38111  1  0  0  0
 38112  1  0  0  0
 39113  1  0  0  0
 39114  1  0  0  0
 42115  1  0  0  0
 43116  1  0  0  0
 44117  1  0  0  0
 47118  1  0  0  0
 47119  1  0  0  0
 48120  1  0  0  0
 48121  1  0  0  0
 51122  1  0  0  0
 52123  1  0  0  0
 53124  1  0  0  0
 56125  1  0  0  0
 56126  1  0  0  0
 57127  1  0  0  0
 57128  1  0  0  0
 59129  1  0  0  0
 59130  1  0  0  0
 59131  1  0  0  0
 60132  1  0  0  0
 61133  1  0  0  0
 64134  1  0  0  0
 64135  1  0  0  0
 64136  1  0  0  0
 65137  1  0  0  0
 66138  1  0  0  0
 69139  1  0  0  0
 69140  1  0  0  0
 70141  1  0  0  0
 71142  1  0  0  0
 71143  1  0  0  0
 71144  1  0  0  0
 72145  1  0  0  0
 72146  1  0  0  0
 72147  1  0  0  0
 74148  1  0  0  0
 77149  1  0  0  0
 77150  1  0  0  0
 78151  1  0  0  0
 78152  1  0  0  0
 79153  1  0  0  0
 79154  1  0  0  0
 80155  1  0  0  0
M  END
$$$$
