1p01_ligand
  -I-interpret- 

 59 59  0  0  0  0  0  0  0  0999 V2000
   13.1720   39.3550   19.4720 O   0  0  0  0  0
   13.6320   39.4020   18.3460 C   0  0  0  0  0
   14.5250   40.4990   17.8750 O   0  0  0  0  0
   15.0140   41.4770   18.8990 C   0  0  0  0  0
   15.7880   40.6710   19.9350 C   0  0  0  0  0
   15.9310   42.4590   18.1580 C   0  0  0  0  0
   13.7970   42.1990   19.4380 C   0  0  0  0  0
   13.5280   38.3860   17.4830 N   0  0  0  0  0
   12.7720   37.2260   17.9180 C   0  0  0  0  0
   13.5690   36.0430   17.4680 C   0  0  0  0  0
   14.4720   36.2820   16.6650 O   0  0  0  0  0
   11.7340   36.9670   16.9100 C   0  0  0  0  0
   13.3800   34.8800   18.0750 N   0  0  0  0  0
   14.1290   33.6690   17.7300 C   0  0  0  0  0
   13.7980   33.2290   16.3080 C   0  0  0  0  0
   12.6410   33.4520   15.8930 O   0  0  0  0  0
   13.6850   32.6390   18.7570 C   0  0  0  0  0
   12.7960   33.3460   19.7220 C   0  0  0  0  0
   12.3030   34.6260   19.0520 C   0  0  0  0  0
   14.7500   32.6680   15.5680 N   0  0  0  0  0
   14.5240   32.1810   14.1950 C   0  0  0  0  0
   15.3400   32.9840   13.1360 C   0  0  0  0  0
   14.8440   34.4260   12.8980 C   0  0  0  0  0
   16.8340   33.0210   13.4810 C   0  0  0  0  0
   14.7560   30.6430   14.1350 B   0  0  0  0  0
   14.8520   30.0920   12.7150 O   0  0  0  0  0
   13.8680   29.7940   14.9910 O   0  0  0  0  0
   16.1397   41.3370   20.7230 H   0  0  0  0  0
   15.1349   39.9112   20.3643 H   0  0  0  0  0
   16.6411   40.1903   19.4562 H   0  0  0  0  0
   15.3856   42.9073   17.3275 H   0  0  0  0  0
   16.2554   43.2404   18.8453 H   0  0  0  0  0
   16.8011   41.9245   17.7767 H   0  0  0  0  0
   14.1156   42.9797   20.1288 H   0  0  0  0  0
   13.2458   42.6466   18.6110 H   0  0  0  0  0
   13.1566   41.4886   19.9609 H   0  0  0  0  0
   13.9607   38.4245   16.5601 H   0  0  0  0  0
   12.4899   37.3622   18.9620 H   0  0  0  0  0
   11.0824   37.8371   16.8295 H   0  0  0  0  0
   12.2053   36.7740   15.9463 H   0  0  0  0  0
   11.1473   36.0985   17.2094 H   0  0  0  0  0
   15.2087   33.8164   17.7530 H   0  0  0  0  0
   14.5451   32.2069   19.2684 H   0  0  0  0  0
   13.1568   31.8158   18.2759 H   0  0  0  0  0
   13.3419   33.5833   20.6351 H   0  0  0  0  0
   11.9519   32.7118   19.9930 H   0  0  0  0  0
   11.3164   34.5293   18.5988 H   0  0  0  0  0
   12.1423   35.4491   19.7483 H   0  0  0  0  0
   15.6822   32.5699   15.9701 H   0  0  0  0  0
   13.4833   32.3611   13.9256 H   0  0  0  0  0
   15.1798   32.4351   12.2080 H   0  0  0  0  0
   13.8118   34.4008   12.5487 H   0  0  0  0  0
   14.8996   34.9866   13.8311 H   0  0  0  0  0
   15.4716   34.9054   12.1467 H   0  0  0  0  0
   16.9696   33.4963   14.4525 H   0  0  0  0  0
   17.2229   32.0033   13.5156 H   0  0  0  0  0
   17.3675   33.5895   12.7193 H   0  0  0  0  0
   14.9944   29.1433   12.7500 H   0  0  0  0  0
   14.1005   28.8700   14.8735 H   0  0  0  0  0
  1  2  2  0  0  0
  2  3  1  0  0  0
  2  8  1  0  0  0
  3  4  1  0  0  0
  4  5  1  0  0  0
  4  6  1  0  0  0
  4  7  1  0  0  0
  8  9  1  0  0  0
  9 10  1  0  0  0
  9 12  1  0  0  0
 10 11  2  0  0  0
 10 13  1  0  0  0
 13 14  1  0  0  0
 13 19  1  0  0  0
 14 15  1  0  0  0
 14 17  1  0  0  0
 15 16  2  0  0  0
 15 20  1  0  0  0
 17 18  1  0  0  0
 18 19  1  0  0  0
 20 21  1  0  0  0
 21 22  1  0  0  0
 21 25  1  0  0  0
 22 23  1  0  0  0
 22 24  1  0  0  0
 25 26  1  0  0  0
 25 27  1  0  0  0
  5 28  1  0  0  0
  5 29  1  0  0  0
  5 30  1  0  0  0
  6 31  1  0  0  0
  6 32  1  0  0  0
  6 33  1  0  0  0
  7 34  1  0  0  0
  7 35  1  0  0  0
  7 36  1  0  0  0
  8 37  1  0  0  0
  9 38  1  0  0  0
 12 39  1  0  0  0
 12 40  1  0  0  0
 12 41  1  0  0  0
 14 42  1  0  0  0
 17 43  1  0  0  0
 17 44  1  0  0  0
 18 45  1  0  0  0
 18 46  1  0  0  0
 19 47  1  0  0  0
 19 48  1  0  0  0
 20 49  1  0  0  0
 21 50  1  0  0  0
 22 51  1  0  0  0
 23 52  1  0  0  0
 23 53  1  0  0  0
 23 54  1  0  0  0
 24 55  1  0  0  0
 24 56  1  0  0  0
 24 57  1  0  0  0
 26 58  1  0  0  0
 27 59  1  0  0  0
M  END
$$$$
