### 
### Created by X-TOOL on Mon Sep 10 21:12:44 2018
### 

@<TRIPOS>MOLECULE
1p01_ligand
   59    59     1     0     0
SMALL
GAST_HUCK


@<TRIPOS>ATOM
      1 O1         13.1720   39.3550   19.4720 O.2       1 0EG        -0.3774
      2 C          13.6320   39.4020   18.3460 C.2       1 0EG         0.3223
      3 O2         14.5250   40.4990   17.8750 O.3       1 0EG        -0.2580
      4 CT         15.0140   41.4770   18.8990 C.3       1 0EG         0.0905
      5 C1         15.7880   40.6710   19.9350 C.3       1 0EG        -0.0320
      6 C2         15.9310   42.4590   18.1580 C.3       1 0EG        -0.0320
      7 C3         13.7970   42.1990   19.4380 C.3       1 0EG        -0.0320
      8 N          13.5280   38.3860   17.4830 N.am      1 0EG        -0.2415
      9 CA         12.7720   37.2260   17.9180 C.3       1 0EG         0.1302
     10 C          13.5690   36.0430   17.4680 C.2       1 0EG         0.2061
     11 O          14.4720   36.2820   16.6650 O.2       1 0EG        -0.3942
     12 CB         11.7340   36.9670   16.9100 C.3       1 0EG        -0.0244
     13 N          13.3800   34.8800   18.0750 N.am      1 0EG        -0.2499
     14 CA         14.1290   33.6690   17.7300 C.3       1 0EG         0.1336
     15 C          13.7980   33.2290   16.3080 C.2       1 0EG         0.2010
     16 O          12.6410   33.4520   15.8930 O.2       1 0EG        -0.3946
     17 CB         13.6850   32.6390   18.7570 C.3       1 0EG        -0.0104
     18 CG         12.7960   33.3460   19.7220 C.3       1 0EG        -0.0281
     19 CD         12.3030   34.6260   19.0520 C.3       1 0EG         0.0369
     20 N          14.7500   32.6680   15.5680 N.am      1 0EG        -0.2915
     21 CA         14.5240   32.1810   14.1950 C.3       1 0EG         0.0555
     22 CB         15.3400   32.9840   13.1360 C.3       1 0EG        -0.0325
     23 CG1        14.8440   34.4260   12.8980 C.3       1 0EG        -0.0617
     24 CG2        16.8340   33.0210   13.4810 C.3       1 0EG        -0.0617
     25 B          14.7560   30.6430   14.1350 B         1 0EG         0.7166
     26 O1         14.8520   30.0920   12.7150 O.3       1 0EG        -0.4967
     27 O2         13.8680   29.7940   14.9910 O.3       1 0EG        -0.4967
     28 H1         16.1707   41.3467   20.7141 H         1 0EG         0.0260
     29 H2         16.6308   40.1597   19.4469 H         1 0EG         0.0260
     30 H3         15.1213   39.9249   20.3920 H         1 0EG         0.0260
     31 H4         16.3203   43.2038   18.8677 H         1 0EG         0.0260
     32 H5         15.3602   42.9688   17.3679 H         1 0EG         0.0260
     33 H6         16.7699   41.9085   17.7073 H         1 0EG         0.0260
     34 H7         14.1110   42.9307   20.1970 H         1 0EG         0.0260
     35 H8         13.1101   41.4704   19.8933 H         1 0EG         0.0260
     36 H9         13.2858   42.7205   18.6154 H         1 0EG         0.0260
     37 H10        13.9522   38.4237   16.5782 H         1 0EG         0.1899
     38 H11        12.4536   37.2583   18.9704 H         1 0EG         0.0796
     39 H12        11.1412   36.0907   17.2110 H         1 0EG         0.0277
     40 H13        12.2084   36.7720   15.9369 H         1 0EG         0.0277
     41 H14        11.0756   37.8444   16.8278 H         1 0EG         0.0277
     42 H15        15.2115   33.8468   17.8108 H         1 0EG         0.0802
     43 H16        14.5595   32.2258   19.2810 H         1 0EG         0.0313
     44 H17        13.1351   31.8246   18.2628 H         1 0EG         0.0313
     45 H18        13.3571   33.5940   20.6350 H         1 0EG         0.0287
     46 H19        11.9399   32.7055   19.9804 H         1 0EG         0.0287
     47 H20        11.3354   34.4710   18.5523 H         1 0EG         0.0524
     48 H21        12.2142   35.4498   19.7755 H         1 0EG         0.0524
     49 H22        15.6640   32.5718   15.9622 H         1 0EG         0.1840
     50 H23        13.4627   32.3520   13.9618 H         1 0EG         0.0434
     51 H24        15.2315   32.4448   12.1834 H         1 0EG         0.0305
     52 H25        15.4766   34.9109   12.1399 H         1 0EG         0.0233
     53 H26        14.8996   34.9929   13.8390 H         1 0EG         0.0233
     54 H27        13.8023   34.4020   12.5454 H         1 0EG         0.0233
     55 H28        17.1962   31.9966   13.6524 H         1 0EG         0.0233
     56 H29        16.9855   33.6204   14.3908 H         1 0EG         0.0233
     57 H30        17.3918   33.4724   12.6473 H         1 0EG         0.0233
     58 H31        15.2092   29.2121   12.7414 H         1 0EG         0.1667
     59 H32        13.8283   30.1614   15.8662 H         1 0EG         0.1667
@<TRIPOS>BOND
     1    1    2 2  
     2    2    3 1  
     3    2    8 am 
     4    3    4 1  
     5    4    5 1  
     6    4    6 1  
     7    4    7 1  
     8    8    9 1  
     9    9   10 1  
    10    9   12 1  
    11   10   11 2  
    12   10   13 am 
    13   13   14 1  
    14   13   19 1  
    15   14   15 1  
    16   14   17 1  
    17   15   16 2  
    18   15   20 am 
    19   17   18 1  
    20   18   19 1  
    21   20   21 1  
    22   21   22 1  
    23   21   25 1  
    24   22   23 1  
    25   22   24 1  
    26   25   26 1  
    27   25   27 1  
    28    5   28 1  
    29    5   29 1  
    30    5   30 1  
    31    6   31 1  
    32    6   32 1  
    33    6   33 1  
    34    7   34 1  
    35    7   35 1  
    36    7   36 1  
    37    8   37 1  
    38    9   38 1  
    39   12   39 1  
    40   12   40 1  
    41   12   41 1  
    42   14   42 1  
    43   17   43 1  
    44   17   44 1  
    45   18   45 1  
    46   18   46 1  
    47   19   47 1  
    48   19   48 1  
    49   20   49 1  
    50   21   50 1  
    51   22   51 1  
    52   23   52 1  
    53   23   53 1  
    54   23   54 1  
    55   24   55 1  
    56   24   56 1  
    57   24   57 1  
    58   26   58 1  
    59   27   59 1  
@<TRIPOS>SUBSTRUCTURE
     1 0EG         1

