### 
### Created by X-TOOL on Mon Sep 10 21:13:11 2018
### 

@<TRIPOS>MOLECULE
3rbm_ligand
   58    58     1     0     0
SMALL
GAST_HUCK


@<TRIPOS>ATOM
      1 CAA       -32.4000   10.7370   -5.4540 C.3       1 B73        -0.0653
      2 OAB       -40.2220    8.3240  -22.1210 O.co2     1 B73        -0.5611
      3 OAC       -40.7580   10.8510  -21.3370 O.co2     1 B73        -0.5611
      4 OAD       -37.8050    7.4990  -21.7210 O.co2     1 B73        -0.5611
      5 OAE       -39.5720    7.1610  -19.8250 O.co2     1 B73        -0.5611
      6 OAF       -40.3130   10.7300  -18.7390 O.co2     1 B73        -0.5611
      7 OAG       -38.9400   12.3560  -20.1470 O.co2     1 B73        -0.5611
      8 CAH       -35.3230   12.6680  -19.2940 C.2       1 B73         0.1816
      9 CAI       -35.8100   11.7900  -20.1710 C.2       1 B73         0.1185
     10 CAJ       -36.3890   11.0630  -18.1830 C.2       1 B73         0.1885
     11 CAK       -33.5750    9.9220   -6.0280 C.3       1 B73        -0.0559
     12 CAL       -34.6850   10.8280   -6.5790 C.3       1 B73        -0.0533
     13 CAM       -34.6590   10.8990   -8.1080 C.3       1 B73        -0.0531
     14 CAN       -33.8250   12.0920   -8.5630 C.3       1 B73        -0.0531
     15 CAO       -33.5260   12.0540  -10.0630 C.3       1 B73        -0.0531
     16 CAP       -34.7720   12.5070  -10.7830 C.3       1 B73        -0.0531
     17 CAQ       -34.4190   13.1280  -12.1350 C.3       1 B73        -0.0531
     18 CAR       -35.0860   12.3160  -13.2410 C.3       1 B73        -0.0530
     19 CAS       -34.4020   12.6400  -14.5640 C.3       1 B73        -0.0503
     20 CAT       -35.0820   11.8850  -15.6980 C.3       1 B73        -0.0215
     21 CAU       -35.2200   12.8520  -16.8560 C.3       1 B73         0.0877
     22 CAV       -37.1010    9.7300  -20.1550 C.3       1 B73         0.0536
     23 CAW       -38.6210    9.5070  -20.0490 C.3       1 B73         0.1132
     24 NAX       -35.5430   12.1200  -18.0910 N.pl3     1 B73        -0.1380
     25 NAY       -36.6000   10.9300  -19.4920 N.2       1 B73        -0.2676
     26 PAZ       -39.1730    8.1260  -21.0850 P.3       1 B73         0.0789
     27 PBA       -39.7440   10.9070  -20.2580 P.3       1 B73         0.0789
     28 H         -31.9738   11.3606   -6.2399 H         1 B73         0.0230
     29 H         -32.7601   11.3689   -4.6422 H         1 B73         0.0230
     30 H         -31.6378   10.0560   -5.0753 H         1 B73         0.0230
     31 H         -34.8482   13.6253  -19.5091 H         1 B73         0.2017
     32 H         -35.6075   11.7697  -21.2418 H         1 B73         0.1406
     33 H         -36.8010   10.4614  -17.3728 H         1 B73         0.1987
     34 H         -33.9953    9.3163   -5.2251 H         1 B73         0.0263
     35 H         -33.1977    9.3079   -6.8457 H         1 B73         0.0263
     36 H         -34.5305   11.8336   -6.1879 H         1 B73         0.0265
     37 H         -35.6462   10.4151   -6.2727 H         1 B73         0.0265
     38 H         -35.6779   11.0127   -8.4782 H         1 B73         0.0265
     39 H         -34.2177    9.9832   -8.5012 H         1 B73         0.0265
     40 H         -32.8755   12.0642   -8.0284 H         1 B73         0.0265
     41 H         -34.3914   12.9996   -8.3542 H         1 B73         0.0265
     42 H         -33.2513   11.0456  -10.3724 H         1 B73         0.0265
     43 H         -32.6875   12.7081  -10.3021 H         1 B73         0.0265
     44 H         -35.2792   13.2547  -10.1733 H         1 B73         0.0265
     45 H         -35.4166   11.6439  -10.9491 H         1 B73         0.0265
     46 H         -33.3378   13.1202  -12.2730 H         1 B73         0.0265
     47 H         -34.7720   14.1586  -12.1705 H         1 B73         0.0265
     48 H         -36.1447   12.5688  -13.2994 H         1 B73         0.0265
     49 H         -34.9930   11.2513  -13.0267 H         1 B73         0.0265
     50 H         -33.3552   12.3409  -14.5101 H         1 B73         0.0266
     51 H         -34.4728   13.7113  -14.7523 H         1 B73         0.0266
     52 H         -36.0592   11.5177  -15.3845 H         1 B73         0.0294
     53 H         -34.4923   11.0161  -15.9901 H         1 B73         0.0294
     54 H         -34.2784   13.3841  -16.9916 H         1 B73         0.0657
     55 H         -36.0216   13.5579  -16.6387 H         1 B73         0.0657
     56 H         -36.8747    9.8413  -21.2154 H         1 B73         0.0449
     57 H         -36.6256    8.8805  -19.6647 H         1 B73         0.0449
     58 H         -38.7068    9.2851  -18.9853 H         1 B73         0.0688
@<TRIPOS>BOND
     1   11    1 1  
     2   26    2 ar 
     3   27    3 ar 
     4   26    4 ar 
     5   26    5 ar 
     6   27    6 ar 
     7   27    7 ar 
     8    9    8 2  
     9   24    8 1  
    10   25    9 1  
    11   10   24 1  
    12   25   10 2  
    13   12   11 1  
    14   13   12 1  
    15   14   13 1  
    16   15   14 1  
    17   16   15 1  
    18   17   16 1  
    19   18   17 1  
    20   19   18 1  
    21   20   19 1  
    22   21   20 1  
    23   24   21 1  
    24   23   22 1  
    25   22   25 1  
    26   23   26 1  
    27   23   27 1  
    28    1   28 1  
    29    1   29 1  
    30    1   30 1  
    31    8   31 1  
    32    9   32 1  
    33   10   33 1  
    34   11   34 1  
    35   11   35 1  
    36   12   36 1  
    37   12   37 1  
    38   13   38 1  
    39   13   39 1  
    40   14   40 1  
    41   14   41 1  
    42   15   42 1  
    43   15   43 1  
    44   16   44 1  
    45   16   45 1  
    46   17   46 1  
    47   17   47 1  
    48   18   48 1  
    49   18   49 1  
    50   19   50 1  
    51   19   51 1  
    52   20   52 1  
    53   20   53 1  
    54   21   54 1  
    55   21   55 1  
    56   22   56 1  
    57   22   57 1  
    58   23   58 1  
@<TRIPOS>SUBSTRUCTURE
     1 B73         1

