6n4t_ligand
  -I-interpret- 

 89 92  0  0  0  0  0  0  0  0999 V2000
  -18.2460   -6.8830   30.5920 C   0  0  0  0  0
  -18.6730   -5.7330   30.6680 O   0  0  0  0  0
  -18.4730   -7.8900   31.6960 C   0  0  0  0  0
  -19.8260   -7.6930   32.3910 C   0  0  0  0  0
  -21.0190   -7.9750   31.4980 C   0  0  0  0  0
  -22.2050   -7.2730   31.6560 C   0  0  0  0  0
  -23.2970   -7.5330   30.8440 C   0  0  0  0  0
  -23.2180   -8.4990   29.8660 C   0  0  0  0  0
  -22.0430   -9.1950   29.6910 C   0  0  0  0  0
  -20.9520   -8.9380   30.5050 C   0  0  0  0  0
  -15.9260   -4.1120   30.1790 C   0  0  0  0  0
  -14.6140   -5.8270   32.0470 C   0  0  0  0  0
  -17.4690   -7.3140   27.0990 C   0  0  0  0  0
  -17.2500   -6.5080   28.3820 C   0  0  0  0  0
  -15.7900   -6.0460   28.4460 C   0  0  0  0  0
  -15.4890   -5.5410   29.8570 C   0  0  0  0  0
  -14.8050   -6.4960   30.7880 N   0  0  0  0  0
  -17.5550   -7.3290   29.5380 N   0  0  0  0  0
  -16.9960   -8.4430   26.9950 O   0  0  0  0  0
  -15.3190   -4.1520   31.8850 S   0  0  0  0  0
  -18.1750   -6.7350   26.1250 N   0  0  0  0  0
  -18.3940   -7.4420   24.8750 C   0  0  0  0  0
  -17.0660   -7.4530   24.1180 C   0  0  0  0  0
  -16.2190   -6.5920   24.3380 O   0  0  0  0  0
  -19.5430   -6.8520   24.0340 C   0  0  0  0  0
  -20.8600   -6.8780   24.7990 C   0  0  0  0  0
  -19.2250   -5.4440   23.5540 C   0  0  0  0  0
  -15.6380   -8.6040   22.5030 C   0  0  0  0  0
  -15.0550   -9.9870   22.7880 C   0  0  0  0  0
  -14.5620  -10.1490   24.2220 C   0  0  0  0  0
  -14.1880  -11.5840   24.5820 C   0  0  0  0  0
  -13.1360  -12.6710   26.5420 C   0  0  0  0  0
  -15.8100   -8.3320   21.0060 C   0  0  0  0  0
  -16.2270   -6.9080   20.6630 C   0  0  0  0  0
  -17.5130   -5.0470   19.8800 C   0  0  0  0  0
  -18.5880   -4.3210   19.3710 C   0  0  0  0  0
  -18.4730   -2.9470   19.2260 C   0  0  0  0  0
  -17.2870   -2.3010   19.5180 C   0  0  0  0  0
  -16.2120   -3.0070   20.0290 C   0  0  0  0  0
  -16.3320   -4.3830   20.2010 C   0  0  0  0  0
  -16.8840   -8.4450   23.2470 N   0  0  0  0  0
  -13.7900  -11.4950   25.9930 N   0  0  0  0  0
  -12.5910  -12.5650   27.7350 N   0  0  0  0  0
  -13.1150  -13.8000   25.8620 N   0  0  0  0  0
  -17.4750   -6.4240   20.1160 N   0  0  0  0  0
  -14.5250   -8.4120   20.3960 O   0  0  0  0  0
  -15.1070   -5.4750   20.8210 S   0  0  0  0  0
  -17.6874   -7.7600   32.4403 H   0  0  0  0  0
  -18.4608   -8.8863   31.2539 H   0  0  0  0  0
  -19.8867   -6.6478   32.6944 H   0  0  0  0  0
  -19.8695   -8.3955   33.2233 H   0  0  0  0  0
  -22.2787   -6.5075   32.4284 H   0  0  0  0  0
  -24.2212   -6.9713   30.9797 H   0  0  0  0  0
  -24.0804   -8.7114   29.2342 H   0  0  0  0  0
  -21.9710   -9.9510   28.9091 H   0  0  0  0  0
  -20.0294   -9.5007   30.3622 H   0  0  0  0  0
  -16.4256   -3.3422   29.5908 H   0  0  0  0  0
  -14.1364   -6.2437   32.9338 H   0  0  0  0  0
  -17.9081   -5.6391   28.3812 H   0  0  0  0  0
  -15.6264   -5.2442   27.7260 H   0  0  0  0  0
  -15.1300   -6.8794   28.2054 H   0  0  0  0  0
  -17.2260   -8.2944   29.5473 H   0  0  0  0  0
  -18.5593   -5.7996   26.2581 H   0  0  0  0  0
  -18.7177   -8.4608   25.0881 H   0  0  0  0  0
  -19.6512   -7.4845   23.1529 H   0  0  0  0  0
  -21.1101   -7.9077   25.0543 H   0  0  0  0  0
  -20.7604   -6.2900   25.7114 H   0  0  0  0  0
  -21.6486   -6.4548   24.1768 H   0  0  0  0  0
  -19.0622   -4.7960   24.4152 H   0  0  0  0  0
  -18.3254   -5.4657   22.9388 H   0  0  0  0  0
  -20.0603   -5.0649   22.9652 H   0  0  0  0  0
  -14.9276   -7.8515   22.8453 H   0  0  0  0  0
  -14.1993  -10.1267   22.1274 H   0  0  0  0  0
  -15.8471  -10.7183   22.6270 H   0  0  0  0  0
  -15.3750   -9.8479   24.8827 H   0  0  0  0  0
  -13.6638   -9.5408   24.3291 H   0  0  0  0  0
  -13.3929  -11.9783   23.9492 H   0  0  0  0  0
  -15.0113  -12.2808   24.4248 H   0  0  0  0  0
  -16.5642   -9.0463   20.6757 H   0  0  0  0  0
  -19.5106   -4.8286   19.0895 H   0  0  0  0  0
  -19.3289   -2.3691   18.8773 H   0  0  0  0  0
  -17.1975   -1.2286   19.3448 H   0  0  0  0  0
  -15.2869   -2.4942   20.2923 H   0  0  0  0  0
  -17.6388   -9.1141   23.0954 H   0  0  0  0  0
  -13.9619  -10.6598   26.5527 H   0  0  0  0  0
  -12.6370  -11.6799   28.2399 H   0  0  0  0  0
  -12.6666  -14.6259   26.2585 H   0  0  0  0  0
  -13.5471  -13.8477   24.9393 H   0  0  0  0  0
  -14.6080   -8.2445   19.4544 H   0  0  0  0  0
  1  2  2  0  0  0
  1  3  1  0  0  0
 18  1  1  0  0  0
  3  4  1  0  0  0
  4  5  1  0  0  0
  5  6  4  0  0  0
  5 10  4  0  0  0
  6  7  4  0  0  0
  7  8  4  0  0  0
  9  8  4  0  0  0
 10  9  4  0  0  0
 16 11  4  0  0  0
 11 20  4  0  0  0
 17 12  4  0  0  0
 12 20  4  0  0  0
 13 14  1  0  0  0
 13 19  2  0  0  0
 21 13  1  0  0  0
 14 15  1  0  0  0
 14 18  1  0  0  0
 15 16  1  0  0  0
 16 17  4  0  0  0
 22 21  1  0  0  0
 23 22  1  0  0  0
 22 25  1  0  0  0
 23 24  2  0  0  0
 41 23  1  0  0  0
 25 26  1  0  0  0
 25 27  1  0  0  0
 28 29  1  0  0  0
 33 28  1  0  0  0
 28 41  1  0  0  0
 29 30  1  0  0  0
 30 31  1  0  0  0
 31 42  1  0  0  0
 42 32  1  0  0  0
 32 43  2  0  0  0
 32 44  1  0  0  0
 34 33  1  0  0  0
 33 46  1  0  0  0
 45 34  4  0  0  0
 34 47  4  0  0  0
 35 36  4  0  0  0
 35 40  4  0  0  0
 35 45  4  0  0  0
 36 37  4  0  0  0
 37 38  4  0  0  0
 38 39  4  0  0  0
 39 40  4  0  0  0
 40 47  4  0  0  0
  3 48  1  0  0  0
  3 49  1  0  0  0
  4 50  1  0  0  0
  4 51  1  0  0  0
  6 52  1  0  0  0
  7 53  1  0  0  0
  8 54  1  0  0  0
  9 55  1  0  0  0
 10 56  1  0  0  0
 11 57  1  0  0  0
 12 58  1  0  0  0
 14 59  1  0  0  0
 15 60  1  0  0  0
 15 61  1  0  0  0
 18 62  1  0  0  0
 21 63  1  0  0  0
 22 64  1  0  0  0
 25 65  1  0  0  0
 26 66  1  0  0  0
 26 67  1  0  0  0
 26 68  1  0  0  0
 27 69  1  0  0  0
 27 70  1  0  0  0
 27 71  1  0  0  0
 28 72  1  0  0  0
 29 73  1  0  0  0
 29 74  1  0  0  0
 30 75  1  0  0  0
 30 76  1  0  0  0
 31 77  1  0  0  0
 31 78  1  0  0  0
 33 79  1  0  0  0
 36 80  1  0  0  0
 37 81  1  0  0  0
 38 82  1  0  0  0
 39 83  1  0  0  0
 41 84  1  0  0  0
 42 85  1  0  0  0
 43 86  1  0  0  0
 44 87  1  0  0  0
 44 88  1  0  0  0
 46 89  1  0  0  0
M  END
$$$$
