5ewh_ligand
  -I-interpret- 

 18 19  0  0  0  0  0  0  0  0999 V2000
    8.9440  -10.9260    6.3410 C   0  0  0  0  0
    9.9030  -11.8280    5.8870 C   0  0  0  0  0
    9.7330  -12.4660    4.6600 C   0  0  0  0  0
    8.6090  -12.2000    3.8890 C   0  0  0  0  0
    8.4470  -12.8380    2.6690 C   0  0  0  0  0
    7.3180  -12.5830    1.8910 N   0  0  0  0  0
    6.3550  -11.6730    2.3490 C   0  0  0  0  0
    6.5230  -11.0340    3.5700 C   0  0  0  0  0
    7.6480  -11.3000    4.3380 C   0  0  0  0  0
    7.8220  -10.6690    5.5610 C   0  0  0  0  0
    6.8450   -9.7990    5.9430 O   0  0  0  0  0
    9.0720  -10.4252    7.3006 H   0  0  0  0  0
   10.7863  -12.0348    6.4913 H   0  0  0  0  0
   10.4822  -13.1738    4.3053 H   0  0  0  0  0
    9.2031  -13.5399    2.3173 H   0  0  0  0  0
    5.4717  -11.4665    1.7447 H   0  0  0  0  0
    5.7739  -10.3258    3.9243 H   0  0  0  0  0
    6.1644   -9.7668    5.2667 H   0  0  0  0  0
  1  2  4  0  0  0
  1 10  4  0  0  0
  2  3  4  0  0  0
  3  4  4  0  0  0
  4  5  4  0  0  0
  4  9  4  0  0  0
  5  6  4  0  0  0
  6  7  4  0  0  0
  7  8  4  0  0  0
  8  9  4  0  0  0
  9 10  4  0  0  0
 10 11  1  0  0  0
  1 12  1  0  0  0
  2 13  1  0  0  0
  3 14  1  0  0  0
  5 15  1  0  0  0
  7 16  1  0  0  0
  8 17  1  0  0  0
 11 18  1  0  0  0
M  END
$$$$
