6nzr_ligand
  -I-interpret- 

 46 48  0  0  0  0  0  0  0  0999 V2000
    9.5700   -3.1810   31.6590 C   0  0  0  0  0
   15.7910   -1.6810   26.9040 C   0  0  0  0  0
    9.2720   -5.1350   30.4880 C   0  0  0  0  0
    7.9400   -5.2140   30.8480 C   0  0  0  0  0
    7.4260   -4.2280   31.6660 C   0  0  0  0  0
   14.8680   -5.4100   26.9410 C   0  0  0  0  0
   15.1270   -4.2900   27.7220 C   0  0  0  0  0
   14.2390   -1.0170   31.2710 C   0  0  0  0  0
   13.4750   -0.3940   32.1860 N   0  0  0  0  0
   12.2180   -0.8020   32.4380 N   0  0  0  0  0
   11.7020   -1.8060   31.7330 C   0  0  0  0  0
   12.4160   -2.4710   30.7340 C   0  0  0  0  0
   13.7480   -2.1310   30.5130 C   0  0  0  0  0
   10.3960   -2.1410   32.0490 N   0  0  0  0  0
   14.6290   -2.8750   29.6640 N   0  0  0  0  0
   15.5800   -0.3930   31.0200 C   0  0  0  0  0
   15.9060    0.6320   31.8090 N   0  0  0  0  0
   16.2970   -0.7920   30.1070 O   0  0  0  0  0
   17.0880    1.4430   31.5730 C   0  0  0  0  0
   14.3890   -4.0460   28.8980 C   0  0  0  0  0
   13.4300   -4.9900   29.2800 C   0  0  0  0  0
   13.1660   -6.0910   28.4830 C   0  0  0  0  0
   13.8810   -6.3020   27.3270 C   0  0  0  0  0
    8.2400   -3.1970   32.1010 C   0  0  0  0  0
   10.0870   -4.1440   30.8780 N   0  0  0  0  0
   16.4870   -3.2620   27.2050 S   0  0  0  0  0
   17.4000   -3.1520   28.3040 O   0  0  0  0  0
   16.9880   -3.7750   25.9680 O   0  0  0  0  0
   15.2635   -1.3420   27.7955 H   0  0  0  0  0
   16.5858   -0.9760   26.6604 H   0  0  0  0  0
   15.0926   -1.7457   26.0696 H   0  0  0  0  0
    9.6821   -5.9203   29.8530 H   0  0  0  0  0
    7.3124   -6.0326   30.4956 H   0  0  0  0  0
    6.3795   -4.2615   31.9691 H   0  0  0  0  0
   15.4387   -5.5857   26.0291 H   0  0  0  0  0
   11.9370   -3.2458   30.1353 H   0  0  0  0  0
    9.9542   -1.4912   32.6994 H   0  0  0  0  0
   15.5776   -2.5058   29.5995 H   0  0  0  0  0
   15.3061    0.8535   32.6036 H   0  0  0  0  0
   17.9752    0.8112   31.6166 H   0  0  0  0  0
   17.0185    1.9065   30.5889 H   0  0  0  0  0
   17.1541    2.2176   32.3370 H   0  0  0  0  0
   12.8850   -4.8575   30.2146 H   0  0  0  0  0
   12.3864   -6.7952   28.7735 H   0  0  0  0  0
   13.6697   -7.1762   26.7111 H   0  0  0  0  0
    7.8590   -2.4221   32.7662 H   0  0  0  0  0
 14  1  1  0  0  0
  1 24  4  0  0  0
  1 25  4  0  0  0
 26  2  1  0  0  0
  3  4  4  0  0  0
 25  3  4  0  0  0
  5  4  4  0  0  0
 24  5  4  0  0  0
  7  6  4  0  0  0
  6 23  4  0  0  0
 20  7  4  0  0  0
  7 26  1  0  0  0
  8  9  4  0  0  0
 13  8  4  0  0  0
  8 16  1  0  0  0
  9 10  4  0  0  0
 11 10  4  0  0  0
 12 11  4  0  0  0
 11 14  1  0  0  0
 13 12  4  0  0  0
 15 13  1  0  0  0
 15 20  1  0  0  0
 16 17  1  0  0  0
 16 18  2  0  0  0
 17 19  1  0  0  0
 20 21  4  0  0  0
 21 22  4  0  0  0
 22 23  4  0  0  0
 26 27  2  0  0  0
 26 28  2  0  0  0
  2 29  1  0  0  0
  2 30  1  0  0  0
  2 31  1  0  0  0
  3 32  1  0  0  0
  4 33  1  0  0  0
  5 34  1  0  0  0
  6 35  1  0  0  0
 12 36  1  0  0  0
 14 37  1  0  0  0
 15 38  1  0  0  0
 17 39  1  0  0  0
 19 40  1  0  0  0
 19 41  1  0  0  0
 19 42  1  0  0  0
 21 43  1  0  0  0
 22 44  1  0  0  0
 23 45  1  0  0  0
 24 46  1  0  0  0
M  END
$$$$
