3upx_ligand
  -I-interpret- 

 48 51  0  0  0  0  0  0  0  0999 V2000
   28.6370   14.5510   28.3560 C   0  0  0  0  0
   28.7290   15.5520   27.2110 C   0  0  0  0  0
   29.4820   16.7250   27.6740 N   0  3  0  0  0
   28.7100   17.4420   28.6850 C   0  0  0  0  0
   28.5850   16.5450   29.9120 C   0  0  0  0  0
   27.9460   15.1900   29.5530 C   0  0  0  0  0
   28.0850   14.2640   30.7490 C   0  0  0  0  0
   27.2630   13.0480   30.6400 N   0  0  0  0  0
   25.9490   12.9670   30.7820 C   0  0  0  0  0
   24.9640   13.9070   31.0490 C   0  0  0  0  0
   27.7400   11.8470   30.3900 C   0  0  0  0  0
   29.0270   11.5870   30.1850 N   0  0  0  0  0
   26.7410   10.9610   30.3680 N   0  0  0  0  0
   25.6130   11.6290   30.6110 C   0  0  0  0  0
   24.2850   11.2290   30.7200 C   0  0  0  0  0
   23.2920   12.1710   30.9910 C   0  0  0  0  0
   23.6380   13.5080   31.1580 C   0  0  0  0  0
   22.5930   14.5620   31.4400 C   0  0  0  0  0
   22.7730   15.7150   31.0430 O   0  0  0  0  0
   21.3380   14.2000   32.2240 C   0  0  0  0  0
   20.1120   14.7370   31.8530 C   0  0  0  0  0
   18.9630   14.4040   32.5650 C   0  0  0  0  0
   19.0630   13.5490   33.6640 C   0  0  0  0  0
   20.2930   13.0190   34.0290 C   0  0  0  0  0
   21.4300   13.3440   33.3140 C   0  0  0  0  0
   29.6420   14.2433   28.6446 H   0  0  0  0  0
   28.0608   13.6852   28.0297 H   0  0  0  0  0
   27.7287   15.8523   26.8991 H   0  0  0  0  0
   29.2363   15.0973   26.3602 H   0  0  0  0  0
   29.6598   17.3447   26.8836 H   0  0  0  0  0
   30.3664   16.4190   28.0797 H   0  0  0  0  0
   27.7212   17.6877   28.2976 H   0  0  0  0  0
   29.2118   18.3726   28.9501 H   0  0  0  0  0
   27.9501   17.0448   30.6436 H   0  0  0  0  0
   29.5827   16.3629   30.3114 H   0  0  0  0  0
   26.8990   15.3533   29.2975 H   0  0  0  0  0
   27.7503   14.8108   31.6305 H   0  0  0  0  0
   29.1282   13.9533   30.8064 H   0  0  0  0  0
   25.2303   14.9567   31.1730 H   0  0  0  0  0
   29.7113   12.3427   30.2168 H   0  0  0  0  0
   29.3305   10.6317   29.9958 H   0  0  0  0  0
   24.0201   10.1792   30.5936 H   0  0  0  0  0
   22.2502   11.8608   31.0715 H   0  0  0  0  0
   20.0495   15.4188   31.0048 H   0  0  0  0  0
   17.9949   14.8069   32.2673 H   0  0  0  0  0
   18.1714   13.2965   34.2380 H   0  0  0  0  0
   20.3622   12.3443   34.8823 H   0  0  0  0  0
   22.3956   12.9301   33.6044 H   0  0  0  0  0
  1  2  1  0  0  0
  1  6  1  0  0  0
  2  3  1  0  0  0
  3  4  1  0  0  0
  4  5  1  0  0  0
  5  6  1  0  0  0
  6  7  1  0  0  0
  7  8  1  0  0  0
  8  9  4  0  0  0
  8 11  4  0  0  0
  9 10  4  0  0  0
  9 14  4  0  0  0
 10 17  4  0  0  0
 11 12  1  0  0  0
 11 13  4  0  0  0
 13 14  4  0  0  0
 14 15  4  0  0  0
 15 16  4  0  0  0
 16 17  4  0  0  0
 17 18  1  0  0  0
 18 19  2  0  0  0
 18 20  1  0  0  0
 20 21  4  0  0  0
 20 25  4  0  0  0
 21 22  4  0  0  0
 22 23  4  0  0  0
 23 24  4  0  0  0
 24 25  4  0  0  0
  1 26  1  0  0  0
  1 27  1  0  0  0
  2 28  1  0  0  0
  2 29  1  0  0  0
  3 30  1  0  0  0
  3 31  1  0  0  0
  4 32  1  0  0  0
  4 33  1  0  0  0
  5 34  1  0  0  0
  5 35  1  0  0  0
  6 36  1  0  0  0
  7 37  1  0  0  0
  7 38  1  0  0  0
 10 39  1  0  0  0
 12 40  1  0  0  0
 12 41  1  0  0  0
 15 42  1  0  0  0
 16 43  1  0  0  0
 21 44  1  0  0  0
 22 45  1  0  0  0
 23 46  1  0  0  0
 24 47  1  0  0  0
 25 48  1  0  0  0
M  END
$$$$
