3zh8_ligand
  -I-interpret- 

 56 60  0  0  0  0  0  0  0  0999 V2000
   16.2100   16.8050   15.2430 C   0  0  0  0  0
   15.0990   15.9500   14.7990 N   0  3  0  0  0
   16.7000   18.0790    8.5650 S   0  0  0  0  0
   17.5440   16.3000   14.5980 C   0  0  0  0  0
   17.4150   16.1500   13.1550 N   0  0  0  0  0
   17.3480   17.2150   12.3460 C   0  0  0  0  0
   17.4650   18.4400   12.8850 N   0  0  0  0  0
   17.3650   19.5220   12.1050 C   0  0  0  0  0
   17.1110   19.5200   10.7900 N   0  0  0  0  0
   17.0010   18.3010   10.2650 C   0  0  0  0  0
   18.2010   23.3140   13.9200 N   0  0  0  0  0
   17.1220   17.0870   10.9420 C   0  0  0  0  0
   16.9890   15.9540   10.0300 C   0  0  0  0  0
   16.7570   16.3500    8.7590 C   0  0  0  0  0
   16.5500   15.4510    7.5790 C   0  0  0  0  0
   16.9920   14.0390    7.9110 C   0  0  0  0  0
   16.5360   13.6280    9.2940 C   0  0  0  0  0
   17.1250   14.5050   10.3840 C   0  0  0  0  0
   17.6310   20.8380   12.7390 C   0  0  0  0  0
   17.5650   22.0190   12.0090 C   0  0  0  0  0
   17.8580   23.2140   12.6340 C   0  0  0  0  0
   18.2540   22.1770   14.6170 C   0  0  0  0  0
   17.9830   20.9350   14.0800 C   0  0  0  0  0
   16.3900   16.8010   16.7790 C   0  0  0  0  0
   17.4760   17.7560   17.2070 C   0  0  0  0  0
   18.8000   17.3540   17.2480 C   0  0  0  0  0
   19.7960   18.2320   17.6420 C   0  0  0  0  0
   19.4790   19.5220   17.9980 C   0  0  0  0  0
   18.1680   19.9360   17.9620 C   0  0  0  0  0
   17.1720   19.0590   17.5700 C   0  0  0  0  0
   15.9712   17.8214   14.9299 H   0  0  0  0  0
   15.0261   15.9900   13.7824 H   0  0  0  0  0
   15.2739   14.9884   15.0910 H   0  0  0  0  0
   14.2292   16.2806   15.2168 H   0  0  0  0  0
   17.7884   15.3278   15.0260 H   0  0  0  0  0
   18.3250   17.0328   14.8008 H   0  0  0  0  0
   17.3748   15.2138   12.7521 H   0  0  0  0  0
   17.1403   15.8214    6.7409 H   0  0  0  0  0
   15.4913   15.4413    7.3197 H   0  0  0  0  0
   18.0809   14.0011    7.8803 H   0  0  0  0  0
   16.5493   13.3580    7.1841 H   0  0  0  0  0
   16.8695   12.6050    9.4682 H   0  0  0  0  0
   15.4511   13.7252    9.3334 H   0  0  0  0  0
   16.5889   14.3181   11.3144 H   0  0  0  0  0
   18.1831   14.2672   10.4939 H   0  0  0  0  0
   17.2852   22.0015   10.9557 H   0  0  0  0  0
   17.8063   24.1287   12.0435 H   0  0  0  0  0
   18.5270   22.2326   15.6708 H   0  0  0  0  0
   18.0443   20.0407   14.7002 H   0  0  0  0  0
   16.6695   15.7952   17.0926 H   0  0  0  0  0
   15.4525   17.1138   17.2387 H   0  0  0  0  0
   19.0619   16.3340   16.9668 H   0  0  0  0  0
   20.8337   17.8997   17.6700 H   0  0  0  0  0
   20.2631   20.2131   18.3072 H   0  0  0  0  0
   17.9128   20.9578   18.2430 H   0  0  0  0  0
   16.1359   19.3967   17.5463 H   0  0  0  0  0
  1  2  1  0  0  0
  4  1  1  0  0  0
  1 24  1  0  0  0
 10  3  4  0  0  0
  3 14  4  0  0  0
  5  4  1  0  0  0
  6  5  1  0  0  0
  7  6  4  0  0  0
  6 12  4  0  0  0
  8  7  4  0  0  0
  8  9  4  0  0  0
 19  8  1  0  0  0
  9 10  4  0  0  0
 10 12  4  0  0  0
 21 11  4  0  0  0
 11 22  4  0  0  0
 12 13  4  0  0  0
 13 14  4  0  0  0
 13 18  1  0  0  0
 14 15  1  0  0  0
 15 16  1  0  0  0
 17 16  1  0  0  0
 18 17  1  0  0  0
 20 19  4  0  0  0
 19 23  4  0  0  0
 20 21  4  0  0  0
 22 23  4  0  0  0
 24 25  1  0  0  0
 25 26  4  0  0  0
 25 30  4  0  0  0
 26 27  4  0  0  0
 27 28  4  0  0  0
 28 29  4  0  0  0
 29 30  4  0  0  0
  1 31  1  0  0  0
  2 32  1  0  0  0
  2 33  1  0  0  0
  2 34  1  0  0  0
  4 35  1  0  0  0
  4 36  1  0  0  0
  5 37  1  0  0  0
 15 38  1  0  0  0
 15 39  1  0  0  0
 16 40  1  0  0  0
 16 41  1  0  0  0
 17 42  1  0  0  0
 17 43  1  0  0  0
 18 44  1  0  0  0
 18 45  1  0  0  0
 20 46  1  0  0  0
 21 47  1  0  0  0
 22 48  1  0  0  0
 23 49  1  0  0  0
 24 50  1  0  0  0
 24 51  1  0  0  0
 26 52  1  0  0  0
 27 53  1  0  0  0
 28 54  1  0  0  0
 29 55  1  0  0  0
 30 56  1  0  0  0
M  END
$$$$
