5cal_ligand
  -I-interpret- 

 54 56  0  0  0  0  0  0  0  0999 V2000
  -52.7840    1.5370  -19.3620 C   0  0  0  0  0
  -53.7480    2.4970  -19.6950 C   0  0  0  0  0
  -50.5890   -1.2760  -20.3250 C   0  0  0  0  0
  -53.8730    1.7240  -21.8930 C   0  0  0  0  0
  -52.8930    0.7500  -21.6510 C   0  0  0  0  0
  -52.3360    0.6320  -20.3640 C   0  0  0  0  0
  -51.4300   -2.3860  -20.9680 C   0  0  0  0  0
  -49.5080   -0.7450  -21.2710 C   0  0  0  0  0
  -52.1060    1.2470  -18.2230 N   0  0  0  0  0
  -50.3980   -0.3090  -17.3570 C   0  0  0  0  0
  -51.2960    0.2520  -18.4330 C   0  0  0  0  0
  -54.2560    2.5440  -20.9140 N   0  0  0  0  0
  -51.3910   -0.1800  -19.7360 N   0  0  0  0  0
  -54.5000    1.9380  -23.1310 N   0  0  0  0  0
  -54.5270    1.1190  -24.2560 C   0  0  0  0  0
  -55.6330    1.1620  -25.1240 C   0  0  0  0  0
  -55.6200    0.3330  -26.2400 C   0  0  0  0  0
  -54.5700   -0.4650  -26.4540 N   0  0  0  0  0
  -53.5430   -0.4940  -25.6070 C   0  0  0  0  0
  -53.5100    0.3020  -24.5500 N   0  0  0  0  0
  -52.4410   -1.2840  -25.8610 N   0  0  0  0  0
  -52.2180   -2.5520  -25.1530 C   0  0  0  0  0
  -50.9280   -3.2700  -25.6050 C   0  0  0  0  0
  -50.7370   -3.1550  -27.1290 C   0  0  0  0  0
  -49.7450   -2.6010  -24.9020 C   0  0  0  0  0
  -50.9650   -4.7320  -25.1810 C   0  0  0  0  0
  -51.4460   -5.0580  -24.1060 O   0  0  0  0  0
  -50.4470   -5.7080  -25.9660 N   0  0  0  0  0
  -54.0820    3.2113  -18.9424 H   0  0  0  0  0
  -50.0841   -1.7536  -19.4853 H   0  0  0  0  0
  -52.5653    0.0895  -22.4538 H   0  0  0  0  0
  -51.9218   -1.9972  -21.8597 H   0  0  0  0  0
  -50.7819   -3.2183  -21.2426 H   0  0  0  0  0
  -52.1819   -2.7285  -20.2570 H   0  0  0  0  0
  -49.9781   -0.1898  -22.0827 H   0  0  0  0  0
  -48.8363   -0.0866  -20.7201 H   0  0  0  0  0
  -48.9429   -1.5820  -21.6811 H   0  0  0  0  0
  -49.7265    0.4727  -17.0019 H   0  0  0  0  0
  -51.0075   -0.6701  -16.5286 H   0  0  0  0  0
  -49.8139   -1.1333  -17.7663 H   0  0  0  0  0
  -55.0076    2.8184  -23.2182 H   0  0  0  0  0
  -56.4752    1.8255  -24.9275 H   0  0  0  0  0
  -56.4598    0.3341  -26.9349 H   0  0  0  0  0
  -51.7626   -0.9796  -26.5592 H   0  0  0  0  0
  -53.0599   -3.2090  -25.3712 H   0  0  0  0  0
  -52.1213   -2.3288  -24.0905 H   0  0  0  0  0
  -51.5874   -3.6110  -27.6359 H   0  0  0  0  0
  -50.6680   -2.1033  -27.4069 H   0  0  0  0  0
  -49.8209   -3.6696  -27.4189 H   0  0  0  0  0
  -49.7076   -1.5475  -25.1793 H   0  0  0  0  0
  -49.8680   -2.6897  -23.8226 H   0  0  0  0  0
  -48.8196   -3.0909  -25.2050 H   0  0  0  0  0
  -50.4668   -6.6786  -25.6529 H   0  0  0  0  0
  -50.0374   -5.4719  -26.8698 H   0  0  0  0  0
  1  2  4  0  0  0
  6  1  4  0  0  0
  1  9  4  0  0  0
  2 12  4  0  0  0
  3  7  1  0  0  0
  3  8  1  0  0  0
 13  3  1  0  0  0
  5  4  4  0  0  0
  4 12  4  0  0  0
  4 14  1  0  0  0
  6  5  4  0  0  0
  6 13  4  0  0  0
  9 11  4  0  0  0
 11 10  1  0  0  0
 11 13  4  0  0  0
 14 15  1  0  0  0
 15 16  4  0  0  0
 15 20  4  0  0  0
 16 17  4  0  0  0
 17 18  4  0  0  0
 18 19  4  0  0  0
 19 20  4  0  0  0
 19 21  1  0  0  0
 21 22  1  0  0  0
 22 23  1  0  0  0
 23 24  1  0  0  0
 23 25  1  0  0  0
 23 26  1  0  0  0
 26 27  2  0  0  0
 26 28  1  0  0  0
  2 29  1  0  0  0
  3 30  1  0  0  0
  5 31  1  0  0  0
  7 32  1  0  0  0
  7 33  1  0  0  0
  7 34  1  0  0  0
  8 35  1  0  0  0
  8 36  1  0  0  0
  8 37  1  0  0  0
 10 38  1  0  0  0
 10 39  1  0  0  0
 10 40  1  0  0  0
 14 41  1  0  0  0
 16 42  1  0  0  0
 17 43  1  0  0  0
 21 44  1  0  0  0
 22 45  1  0  0  0
 22 46  1  0  0  0
 24 47  1  0  0  0
 24 48  1  0  0  0
 24 49  1  0  0  0
 25 50  1  0  0  0
 25 51  1  0  0  0
 25 52  1  0  0  0
 28 53  1  0  0  0
 28 54  1  0  0  0
M  END
$$$$
