3kjn_ligand
  -I-interpret- 

 77 81  0  0  0  0  0  0  0  0999 V2000
  -11.9170   36.5420   37.4590 C   0  0  0  0  0
  -10.5460   36.4140   36.8770 C   0  0  0  0  0
  -10.3370   36.7860   35.7320 O   0  0  0  0  0
   -9.4430   35.8270   37.7260 C   0  0  0  0  0
   -8.5360   34.9850   36.8460 C   0  0  0  0  0
   -7.1950   34.9010   37.5170 C   0  0  0  0  0
   -6.7570   35.6990   38.3290 O   0  0  0  0  0
   -6.5030   33.8220   37.1070 O   0  0  0  0  0
  -10.0810   34.9930   38.7270 N   0  0  0  0  0
  -10.0830   35.3600   40.0540 C   0  0  0  0  0
   -9.5280   36.3510   40.5110 O   0  0  0  0  0
  -10.8620   34.3830   40.8940 C   0  0  0  0  0
  -12.3080   34.7500   40.8120 C   0  0  0  0  0
  -12.9880   35.3620   41.7890 C   0  0  0  0  0
  -14.4440   35.6580   41.6070 C   0  0  0  0  0
  -14.8610   37.1110   41.5230 C   0  0  0  0  0
  -14.0590   37.9030   40.5070 C   0  0  0  0  0
  -14.5270   39.3440   40.4890 C   0  0  0  0  0
  -16.0020   39.4070   40.1270 C   0  0  0  0  0
  -16.8270   38.5960   41.1060 C   0  0  0  0  0
  -16.3360   37.1650   41.1610 C   0  0  0  0  0
  -12.3340   35.7270   43.0830 C   0  0  0  0  0
  -10.8930   35.6480   42.9430 N   0  0  0  0  0
  -10.4320   34.5240   42.2740 N   0  0  0  0  0
   -9.1620   34.2400   42.7120 C   0  0  0  0  0
   -8.3420   33.5020   42.1870 O   0  0  0  0  0
   -8.9740   35.0420   43.8090 N   0  0  0  0  0
   -7.6680   35.2530   44.3960 C   0  0  0  0  0
   -7.5530   34.5310   45.7230 C   0  0  0  0  0
   -7.5990   33.0930   45.5650 N   0  0  0  0  0
   -7.6910   32.2690   46.6720 C   0  0  0  0  0
   -7.8640   32.6460   47.8250 O   0  0  0  0  0
   -7.5460   30.8320   46.3790 C   0  0  0  0  0
   -7.9750   30.3540   45.1600 C   0  0  0  0  0
   -7.8690   29.0240   44.8090 C   0  0  0  0  0
   -7.3030   28.2230   45.7740 C   0  0  0  0  0
   -7.0420   26.8830   45.7820 N   0  0  0  0  0
   -6.4700   26.5700   46.9790 C   0  0  0  0  0
   -6.3540   27.6400   47.7360 N   0  0  0  0  0
   -6.8680   28.6770   47.0020 C   0  0  0  0  0
   -6.9790   30.0190   47.3390 C   0  0  0  0  0
  -10.0330   35.8960   43.9900 C   0  0  0  0  0
  -10.1840   36.7070   44.8950 O   0  0  0  0  0
  -12.2131   37.5910   37.4608 H   0  0  0  0  0
  -12.6206   35.9656   36.8583 H   0  0  0  0  0
  -11.9135   36.1624   38.4808 H   0  0  0  0  0
   -8.8425   36.6038   38.1995 H   0  0  0  0  0
   -8.4380   35.4386   35.8597 H   0  0  0  0  0
   -8.9562   33.9880   36.7136 H   0  0  0  0  0
   -7.0269   33.3301   36.4705 H   0  0  0  0  0
  -10.5338   34.1239   38.4442 H   0  0  0  0  0
  -10.7031   33.3621   40.5466 H   0  0  0  0  0
  -12.8446   34.5030   39.8960 H   0  0  0  0  0
  -14.9353   35.2643   42.4968 H   0  0  0  0  0
  -14.7127   35.2212   40.6452 H   0  0  0  0  0
  -14.6712   37.5692   42.4937 H   0  0  0  0  0
  -14.2013   37.4668   39.5183 H   0  0  0  0  0
  -13.0039   37.8715   40.7789 H   0  0  0  0  0
  -13.9518   39.8987   39.7477 H   0  0  0  0  0
  -14.3812   39.7808   41.4770 H   0  0  0  0  0
  -16.1378   38.9968   39.1263 H   0  0  0  0  0
  -16.3306   40.4456   40.1640 H   0  0  0  0  0
  -17.8668   38.5998   40.7790 H   0  0  0  0  0
  -16.7341   39.0392   42.0975 H   0  0  0  0  0
  -16.9034   36.6288   41.9217 H   0  0  0  0  0
  -16.4730   36.7096   40.1802 H   0  0  0  0  0
  -12.6596   35.0350   43.8597 H   0  0  0  0  0
  -12.6149   36.7445   43.3549 H   0  0  0  0  0
   -7.5254   36.3207   44.5627 H   0  0  0  0  0
   -6.9097   34.8636   43.7166 H   0  0  0  0  0
   -8.3937   34.8318   46.3482 H   0  0  0  0  0
   -6.5949   34.7937   46.1715 H   0  0  0  0  0
   -7.5633   32.6846   44.6310 H   0  0  0  0  0
   -8.4140   31.0520   44.4471 H   0  0  0  0  0
   -8.2059   28.6394   43.8464 H   0  0  0  0  0
   -6.1518   25.5689   47.2698 H   0  0  0  0  0
   -6.6401   30.4057   48.3001 H   0  0  0  0  0
  1  2  1  0  0  0
  2  3  2  0  0  0
  2  4  1  0  0  0
  4  5  1  0  0  0
  4  9  1  0  0  0
  5  6  1  0  0  0
  6  7  2  0  0  0
  6  8  1  0  0  0
  9 10  1  0  0  0
 10 11  2  0  0  0
 10 12  1  0  0  0
 12 13  1  0  0  0
 12 24  1  0  0  0
 13 14  2  0  0  0
 14 15  1  0  0  0
 14 22  1  0  0  0
 15 16  1  0  0  0
 16 17  1  0  0  0
 16 21  1  0  0  0
 17 18  1  0  0  0
 18 19  1  0  0  0
 19 20  1  0  0  0
 20 21  1  0  0  0
 22 23  1  0  0  0
 23 24  1  0  0  0
 23 42  1  0  0  0
 24 25  1  0  0  0
 25 26  2  0  0  0
 25 27  1  0  0  0
 27 28  1  0  0  0
 27 42  1  0  0  0
 28 29  1  0  0  0
 29 30  1  0  0  0
 30 31  1  0  0  0
 31 32  2  0  0  0
 31 33  1  0  0  0
 33 34  4  0  0  0
 33 41  4  0  0  0
 34 35  4  0  0  0
 35 36  4  0  0  0
 36 37  4  0  0  0
 36 40  4  0  0  0
 37 38  4  0  0  0
 38 39  4  0  0  0
 39 40  4  0  0  0
 40 41  4  0  0  0
 42 43  2  0  0  0
  1 44  1  0  0  0
  1 45  1  0  0  0
  1 46  1  0  0  0
  4 47  1  0  0  0
  5 48  1  0  0  0
  5 49  1  0  0  0
  8 50  1  0  0  0
  9 51  1  0  0  0
 12 52  1  0  0  0
 13 53  1  0  0  0
 15 54  1  0  0  0
 15 55  1  0  0  0
 16 56  1  0  0  0
 17 57  1  0  0  0
 17 58  1  0  0  0
 18 59  1  0  0  0
 18 60  1  0  0  0
 19 61  1  0  0  0
 19 62  1  0  0  0
 20 63  1  0  0  0
 20 64  1  0  0  0
 21 65  1  0  0  0
 21 66  1  0  0  0
 22 67  1  0  0  0
 22 68  1  0  0  0
 28 69  1  0  0  0
 28 70  1  0  0  0
 29 71  1  0  0  0
 29 72  1  0  0  0
 30 73  1  0  0  0
 34 74  1  0  0  0
 35 75  1  0  0  0
 38 76  1  0  0  0
 41 77  1  0  0  0
M  END
$$$$
