1b3g_ligand
  -I-interpret- 

 67 66  0  0  0  0  0  0  0  0999 V2000
    7.0190   16.7670   15.2900 N   0  3  0  0  0
    6.5830   18.0800   14.6910 C   0  0  0  0  0
    5.3130   18.6050   15.3930 C   0  0  0  0  0
    4.6050   17.8200   16.0220 O   0  0  0  0  0
    6.3510   17.9640   13.1910 C   0  0  0  0  0
    5.3090   16.9790   12.6980 C   0  0  0  0  0
    5.2500   16.7760   11.1990 C   0  0  0  0  0
    6.5560   16.1890   10.6030 C   0  0  0  0  0
    6.6030   14.7040   10.9230 N   0  3  0  0  0
    5.1170   19.8870   15.4630 N   0  0  0  0  0
    3.9870   20.5050   16.1490 C   0  0  0  0  0
    2.7000   20.5130   15.3080 C   0  0  0  0  0
    2.6660   20.9040   14.1510 O   0  0  0  0  0
    4.2470   21.9150   16.6540 C   0  0  0  0  0
    5.4060   21.8220   17.6980 C   0  0  0  0  0
    3.0410   22.5230   17.4160 C   0  0  0  0  0
    5.9390   23.2060   18.0320 C   0  0  0  0  0
    1.6200   20.0180   15.9740 N   0  0  0  0  0
    0.3140   19.9840   15.3770 C   0  0  0  0  0
   -0.6770   20.8030   16.2530 C   0  0  0  0  0
   -1.5740   21.3820   15.6570 O   0  0  0  0  0
   -0.3030   18.5920   15.2490 C   0  0  0  0  0
   -1.4270   18.6790   14.1740 C   0  0  0  0  0
   -2.2020   17.3580   14.1790 C   0  0  0  0  0
   -3.0300   17.2910   12.8620 C   0  0  0  0  0
   -3.6650   18.6220   12.6160 N   0  3  0  0  0
   -0.5280   20.9380   17.4690 O   0  0  0  0  0
    7.1642   16.8837   16.2928 H   0  0  0  0  0
    6.2968   16.0648   15.1293 H   0  0  0  0  0
    7.8899   16.4672   14.8517 H   0  0  0  0  0
    7.3910   18.7946   14.8478 H   0  0  0  0  0
    7.2968   17.6091   12.7816 H   0  0  0  0  0
    5.9881   18.9439   12.8808 H   0  0  0  0  0
    4.3404   17.3833   12.9919 H   0  0  0  0  0
    5.5711   16.0128   13.1290 H   0  0  0  0  0
    5.0911   17.7527   10.7419 H   0  0  0  0  0
    4.4486   16.0657   10.9956 H   0  0  0  0  0
    7.4219   16.6914   11.0341 H   0  0  0  0  0
    6.5742   16.3391    9.5235 H   0  0  0  0  0
    7.4572   14.3012   10.5376 H   0  0  0  0  0
    6.5912   14.5749   11.9347 H   0  0  0  0  0
    5.7920   14.2427   10.5107 H   0  0  0  0  0
    5.7951   20.4999   15.0103 H   0  0  0  0  0
    3.8498   19.8598   17.0167 H   0  0  0  0  0
    4.4640   22.5387   15.7868 H   0  0  0  0  0
    6.2143   21.2251   17.2756 H   0  0  0  0  0
    5.0240   21.3617   18.6092 H   0  0  0  0  0
    2.1771   22.5643   16.7526 H   0  0  0  0  0
    2.8078   21.9009   18.2801 H   0  0  0  0  0
    3.2934   23.5297   17.7490 H   0  0  0  0  0
    6.3176   23.6768   17.1248 H   0  0  0  0  0
    5.1352   23.8125   18.4494 H   0  0  0  0  0
    6.7450   23.1175   18.7605 H   0  0  0  0  0
    1.7418   19.6619   16.9220 H   0  0  0  0  0
    0.4613   20.3879   14.3754 H   0  0  0  0  0
   -0.7126   18.2658   16.2050 H   0  0  0  0  0
    0.4529   17.8643   14.9539 H   0  0  0  0  0
   -0.9905   18.8522   13.1904 H   0  0  0  0  0
   -2.0985   19.5068   14.4019 H   0  0  0  0  0
   -2.8618   17.3082   15.0452 H   0  0  0  0  0
   -1.5141   16.5145   14.2383 H   0  0  0  0  0
   -3.8023   16.5271   12.9525 H   0  0  0  0  0
   -2.3744   17.0376   12.0289 H   0  0  0  0  0
   -4.2089   18.5837   11.7540 H   0  0  0  0  0
   -4.2789   18.8540   13.3968 H   0  0  0  0  0
   -2.9388   19.3331   12.5299 H   0  0  0  0  0
    0.2207   20.4117   17.7589 H   0  0  0  0  0
  3  2  1  0  0  0
  2  5  1  0  0  0
  2  1  1  0  0  0
  5  6  1  0  0  0
  6  7  1  0  0  0
  7  8  1  0  0  0
  8  9  1  0  0  0
  3  4  2  0  0  0
 12 11  1  0  0  0
 11 14  1  0  0  0
 11 10  1  0  0  0
 14 15  1  0  0  0
 14 16  1  0  0  0
 15 17  1  0  0  0
 12 13  2  0  0  0
 19 20  1  0  0  0
 19 22  1  0  0  0
 18 19  1  0  0  0
 22 23  1  0  0  0
 23 24  1  0  0  0
 24 25  1  0  0  0
 25 26  1  0  0  0
 20 27  1  0  0  0
 20 21  2  0  0  0
 10  3  1  0  0  0
 12 18  1  0  0  0
  1 28  1  0  0  0
  1 29  1  0  0  0
  1 30  1  0  0  0
  2 31  1  0  0  0
  5 32  1  0  0  0
  5 33  1  0  0  0
  6 34  1  0  0  0
  6 35  1  0  0  0
  7 36  1  0  0  0
  7 37  1  0  0  0
  8 38  1  0  0  0
  8 39  1  0  0  0
  9 40  1  0  0  0
  9 41  1  0  0  0
  9 42  1  0  0  0
 10 43  1  0  0  0
 11 44  1  0  0  0
 14 45  1  0  0  0
 15 46  1  0  0  0
 15 47  1  0  0  0
 16 48  1  0  0  0
 16 49  1  0  0  0
 16 50  1  0  0  0
 17 51  1  0  0  0
 17 52  1  0  0  0
 17 53  1  0  0  0
 18 54  1  0  0  0
 19 55  1  0  0  0
 22 56  1  0  0  0
 22 57  1  0  0  0
 23 58  1  0  0  0
 23 59  1  0  0  0
 24 60  1  0  0  0
 24 61  1  0  0  0
 25 62  1  0  0  0
 25 63  1  0  0  0
 26 64  1  0  0  0
 26 65  1  0  0  0
 26 66  1  0  0  0
 27 67  1  0  0  0
M  END
$$$$
