### 
### Created by X-TOOL on Mon Sep 10 21:13:26 2018
### 

@<TRIPOS>MOLECULE
5FQB_LIGAND
   44    46     1     0     0
SMALL
GAST_HUCK


@<TRIPOS>ATOM
      1 N01        53.6720   10.3700   29.7280 N.4       1 OK3         0.2315
      2 C02        54.2900   11.5920   29.3560 C.3       1 OK3         0.0005
      3 C03        55.3700   11.3290   28.3070 C.ar      1 OK3         0.0060
      4 C04        55.0430   11.2740   26.9590 C.ar      1 OK3        -0.0494
      5 C05        56.0390   11.0250   25.9980 C.ar      1 OK3        -0.0484
      6 C06        57.3670   10.8610   26.3890 C.ar      1 OK3         0.0403
      7 C07        57.6650   10.8840   27.7390 C.ar      1 OK3        -0.0484
      8 C08        56.6970   11.1330   28.7020 C.ar      1 OK3        -0.0494
      9 C09        58.4400   10.5400   25.3290 C.2       1 OK3         0.1717
     10 O10        58.2160   10.7380   24.1390 O.2       1 OK3        -0.3904
     11 N11        59.7050    9.9330   25.6850 N.am      1 OK3        -0.4374
     12 C12        60.6500    9.5290   24.6630 C.3       1 OK3        -0.2231
     13 C13        61.6890   10.4920   24.2470 C.3       1 OK3        -0.1582
     14 C14        62.9600   10.3260   25.0570 C.ar      1 OK3        -0.1337
     15 C15        63.3940    9.0800   25.4630 C.ar      1 OK3         0.0514
     16 O16        62.6270    7.8900   25.0720 O.3       1 OK3        -0.1792
     17 B17        61.2440    8.1120   25.3080 B         1 OK3         3.0000
     18 O18        60.4470    6.7740   24.6770 O.3       1 OK3        -0.8710
     19 O19        61.0930    8.0420   26.9640 O.3       1 OK3        -0.8710
     20 C20        64.5680    8.9340   26.2150 C.ar      1 OK3        -0.0834
     21 C21        65.2710   10.0740   26.5870 C.ar      1 OK3        -0.1625
     22 C22        64.8310   11.3480   26.1740 C.ar      1 OK3        -0.1672
     23 C23        63.6640   11.4770   25.3980 C.ar      1 OK3        -0.1745
     24 C24        64.9700    7.5510   26.6870 C.2       1 OK3        -0.0182
     25 O25        65.4930    7.4750   27.8290 O.co2     1 OK3        -0.5976
     26 O26        64.7240    6.4880   26.0510 O.co2     1 OK3        -0.5976
     27 H          52.9529   10.5533   30.4278 H         1 OK3         0.2009
     28 H          53.2467    9.9414   28.9059 H         1 OK3         0.2009
     29 H          54.3737    9.7400   30.1167 H         1 OK3         0.2009
     30 H          54.7456   12.0473   30.2353 H         1 OK3         0.0990
     31 H          53.5389   12.2629   28.9390 H         1 OK3         0.0990
     32 H          54.0103   11.4244   26.6442 H         1 OK3         0.0572
     33 H          55.7716   10.9600   24.9433 H         1 OK3         0.0652
     34 H          58.6915   10.7010   28.0567 H         1 OK3         0.0652
     35 H          56.9688   11.1754   29.7567 H         1 OK3         0.0572
     36 H          59.9344    9.7877   26.6682 H         1 OK3         0.1453
     37 H          60.1616    9.4325   23.6933 H         1 OK3        -0.1809
     38 H          61.3078   11.5006   24.4070 H         1 OK3        -0.0002
     39 H          61.9236   10.3137   23.1976 H         1 OK3        -0.0002
     40 H          61.3770    7.1789   27.2739 H         1 OK3        -0.1290
     41 H          66.1669    9.9824   27.2011 H         1 OK3         0.0065
     42 H          65.3964   12.2360   26.4566 H         1 OK3         0.0254
     43 H          63.3188   12.4578   25.0710 H         1 OK3        -0.0243
     44 H3         60.6309    6.7066   23.7474 H         1 OK3        -0.1290
@<TRIPOS>BOND
     1    1    2 1  
     2    2    3 1  
     3    3    4 ar 
     4    3    8 ar 
     5    4    5 ar 
     6    5    6 ar 
     7    6    7 ar 
     8    6    9 1  
     9    7    8 ar 
    10    9   10 2  
    11    9   11 am 
    12   11   12 1  
    13   12   13 1  
    14   12   17 1  
    15   13   14 1  
    16   14   15 ar 
    17   14   23 ar 
    18   15   16 1  
    19   15   20 ar 
    20   16   17 1  
    21   17   19 1  
    22   20   21 ar 
    23   20   24 1  
    24   21   22 ar 
    25   22   23 ar 
    26   24   25 ar 
    27   24   26 ar 
    28    1   27 1  
    29    1   28 1  
    30    1   29 1  
    31    2   30 1  
    32    2   31 1  
    33    4   32 1  
    34    5   33 1  
    35    7   34 1  
    36    8   35 1  
    37   11   36 1  
    38   12   37 1  
    39   13   38 1  
    40   13   39 1  
    41   19   40 1  
    42   21   41 1  
    43   22   42 1  
    44   23   43 1  
    45   18   17 1  
    46   18   44 1  
@<TRIPOS>SUBSTRUCTURE
     1 OK3         1

