5FQB_LIGAND
  -I-interpret- 

 45 47  0  0  0  0  0  0  0  0999 V2000
   53.6720   10.3700   29.7280 N   0  3  0  0  0
   54.2900   11.5920   29.3560 C   0  0  0  0  0
   55.3700   11.3290   28.3070 C   0  0  0  0  0
   55.0430   11.2740   26.9590 C   0  0  0  0  0
   56.0390   11.0250   25.9980 C   0  0  0  0  0
   57.3670   10.8610   26.3890 C   0  0  0  0  0
   57.6650   10.8840   27.7390 C   0  0  0  0  0
   56.6970   11.1330   28.7020 C   0  0  0  0  0
   58.4400   10.5400   25.3290 C   0  0  0  0  0
   58.2160   10.7380   24.1390 O   0  0  0  0  0
   59.7050    9.9330   25.6850 N   0  0  0  0  0
   60.6500    9.5290   24.6630 C   0  0  0  0  0
   61.6890   10.4920   24.2470 C   0  0  0  0  0
   62.9600   10.3260   25.0570 C   0  0  0  0  0
   63.3940    9.0800   25.4630 C   0  0  0  0  0
   62.6270    7.8900   25.0720 O   0  0  0  0  0
   61.2440    8.1120   25.3080 B   0  0  0  0  0
   60.4470    6.7740   24.6770 O   0  0  0  0  0
   61.0930    8.0420   26.9640 O   0  0  0  0  0
   64.5680    8.9340   26.2150 C   0  0  0  0  0
   65.2710   10.0740   26.5870 C   0  0  0  0  0
   64.8310   11.3480   26.1740 C   0  0  0  0  0
   63.6640   11.4770   25.3980 C   0  0  0  0  0
   64.9700    7.5510   26.6870 C   0  0  0  0  0
   65.4930    7.4750   27.8290 O   0  0  0  0  0
   64.7240    6.4880   26.0510 O   0  0  0  0  0
   52.9529   10.5533   30.4278 H   0  0  0  0  0
   53.2467    9.9414   28.9059 H   0  0  0  0  0
   54.3737    9.7400   30.1167 H   0  0  0  0  0
   54.7456   12.0473   30.2353 H   0  0  0  0  0
   53.5389   12.2629   28.9390 H   0  0  0  0  0
   54.0103   11.4244   26.6442 H   0  0  0  0  0
   55.7716   10.9600   24.9433 H   0  0  0  0  0
   58.6915   10.7010   28.0567 H   0  0  0  0  0
   56.9688   11.1754   29.7567 H   0  0  0  0  0
   59.9344    9.7877   26.6682 H   0  0  0  0  0
   60.1616    9.4325   23.6933 H   0  0  0  0  0
   61.3078   11.5006   24.4070 H   0  0  0  0  0
   61.9236   10.3137   23.1976 H   0  0  0  0  0
   60.8093    5.9744   25.0657 H   0  0  0  0  0
   61.4490    7.2090   27.2817 H   0  0  0  0  0
   66.1669    9.9824   27.2011 H   0  0  0  0  0
   65.3964   12.2360   26.4566 H   0  0  0  0  0
   63.3188   12.4578   25.0710 H   0  0  0  0  0
   64.3293    6.7074   25.2038 H   0  0  0  0  0
  1  2  1  0  0  0
  2  3  1  0  0  0
  3  4  4  0  0  0
  3  8  4  0  0  0
  4  5  4  0  0  0
  5  6  4  0  0  0
  6  7  4  0  0  0
  6  9  1  0  0  0
  7  8  4  0  0  0
  9 10  2  0  0  0
  9 11  1  0  0  0
 11 12  1  0  0  0
 12 13  1  0  0  0
 12 17  1  0  0  0
 13 14  1  0  0  0
 14 15  4  0  0  0
 14 23  4  0  0  0
 15 16  1  0  0  0
 15 20  4  0  0  0
 16 17  1  0  0  0
 17 19  1  0  0  0
 20 21  4  0  0  0
 20 24  1  0  0  0
 21 22  4  0  0  0
 22 23  4  0  0  0
 24 25  2  0  0  0
 24 26  1  0  0  0
 18 17  1  0  0  0
  1 27  1  0  0  0
  1 28  1  0  0  0
  1 29  1  0  0  0
  2 30  1  0  0  0
  2 31  1  0  0  0
  4 32  1  0  0  0
  5 33  1  0  0  0
  7 34  1  0  0  0
  8 35  1  0  0  0
 11 36  1  0  0  0
 12 37  1  0  0  0
 13 38  1  0  0  0
 13 39  1  0  0  0
 18 40  1  0  0  0
 19 41  1  0  0  0
 21 42  1  0  0  0
 22 43  1  0  0  0
 23 44  1  0  0  0
 26 45  1  0  0  0
M  END
$$$$
