### 
### Created by X-TOOL on Mon Sep 10 21:12:54 2018
### 

@<TRIPOS>MOLECULE
2eum_ligand
  126   127     1     0     0
SMALL
GAST_HUCK


@<TRIPOS>ATOM
      1 C1         25.8640    4.6460   17.4650 C.3       1 LAT         0.1884
      2 C2         25.2490    5.7780   18.2860 C.3       1 LAT         0.1341
      3 C3         26.3210    6.8080   18.6700 C.3       1 LAT         0.1141
      4 C4         27.5250    6.1170   19.3180 C.3       1 LAT         0.1119
      5 C5         27.9740    4.9940   18.3790 C.3       1 LAT         0.1130
      6 C6         29.2470    4.2700   18.8030 C.3       1 LAT         0.0730
      7 O1         24.9230    3.6620   17.0940 O.3       1 LAT        -0.3401
      8 O2         24.2490    6.3890   17.5110 O.3       1 LAT        -0.3841
      9 O3         25.7900    7.8130   19.5120 O.3       1 LAT        -0.3864
     10 O4         27.1970    5.6300   20.6050 O.3       1 LAT        -0.3865
     11 O5         26.9300    4.0550   18.1710 O.3       1 LAT        -0.3405
     12 O6         29.8360    3.7960   17.6030 O.3       1 LAT        -0.3924
     13 C1'        23.0680    0.4620   19.0850 C.3       1 LAT         0.1882
     14 C2'        22.2710    1.7800   18.9350 C.3       1 LAT         0.1341
     15 C3'        22.9050    2.8030   17.9950 C.3       1 LAT         0.1144
     16 C4'        24.4280    2.7250   18.0200 C.3       1 LAT         0.1184
     17 C5'        24.8770    1.3300   17.5750 C.3       1 LAT         0.1134
     18 C6'        26.3930    1.1380   17.7220 C.3       1 LAT         0.0730
     19 O1'        22.2120   -0.6450   18.9530 O.3       1 LAT        -0.3429
     20 O2'        20.9330    1.5440   18.5410 O.3       1 LAT        -0.3841
     21 O3'        22.4600    4.1050   18.3100 O.3       1 LAT        -0.3864
     22 O5'        24.1990    0.2550   18.2350 O.3       1 LAT        -0.3405
     23 O6'        26.7820    0.0230   16.9410 O.3       1 LAT        -0.3924
     24 C1         22.4550   -1.9540   18.8780 C.3       1 SPH         0.0975
     25 C2         21.4090   -2.8080   19.5940 C.3       1 SPH         0.0367
     26 N2         20.0710   -2.4560   19.1420 N.4       1 SPH         0.2559
     27 C3         21.4890   -2.7060   21.1180 C.3       1 SPH         0.1173
     28 O3         22.7740   -3.1820   21.5490 O.3       1 SPH        -0.3772
     29 C4         20.3670   -3.4920   21.8030 C.2       1 SPH        -0.0651
     30 C5         19.6240   -2.9360   22.7680 C.2       1 SPH        -0.0961
     31 C6         18.6120   -3.7680   23.5650 C.3       1 SPH        -0.0364
     32 C7         19.1370   -4.2180   24.9380 C.3       1 SPH        -0.0464
     33 C8         19.9870   -5.4950   24.8630 C.3       1 SPH        -0.0515
     34 C9         21.2270   -5.4280   25.7440 C.3       1 SPH        -0.0529
     35 C10        21.1970   -6.5340   26.7970 C.3       1 SPH        -0.0531
     36 C11        21.9660   -6.1340   28.0510 C.3       1 SPH        -0.0531
     37 C12        21.4340   -6.8580   29.2820 C.3       1 SPH        -0.0531
     38 C13        21.8150   -6.1620   30.5900 C.3       1 SPH        -0.0531
     39 C14        22.9020   -6.9260   31.3480 C.3       1 SPH        -0.0531
     40 C15        22.3400   -7.8550   32.4240 C.3       1 SPH        -0.0531
     41 C16        21.8090   -7.1110   33.6480 C.3       1 SPH        -0.0533
     42 C17        21.6820   -8.0150   34.8730 C.3       1 SPH        -0.0559
     43 C18        21.5260   -7.1820   36.1290 C.3       1 SPH        -0.0653
     44 C1         19.0360   -2.5980   18.4380 C.3       1 OCA         0.0809
     45 C2         17.5450   -2.3030   18.3650 C.3       1 OCA         0.0166
     46 C3         16.8930   -2.5890   19.7090 C.3       1 OCA        -0.0455
     47 C4         15.3880   -2.3970   19.6010 C.3       1 OCA        -0.0528
     48 C5         14.6580   -3.5830   20.2090 C.3       1 OCA        -0.0531
     49 C6         13.2750   -3.7200   19.5940 C.3       1 OCA        -0.0533
     50 C7         12.6240   -4.9830   20.1380 C.3       1 OCA        -0.0559
     51 C8         11.3670   -4.6310   20.9080 C.3       1 OCA        -0.0653
     52 O1         19.2560   -4.0090   18.5970 O.3       1 OCA        -0.3531
     53 H1         26.2672    5.0863   16.5411 H         1 LAT         0.0938
     54 H2         24.8028    5.3649   19.2026 H         1 LAT         0.0671
     55 H3         26.6680    7.2942   17.7463 H         1 LAT         0.0648
     56 H4         28.3442    6.8435   19.4228 H         1 LAT         0.0647
     57 H5         28.1891    5.4670   17.4095 H         1 LAT         0.0647
     58 H6         29.0061    3.4293   19.4702 H         1 LAT         0.0584
     59 H7         29.9291    4.9628   19.3175 H         1 LAT         0.0584
     60 H8         24.6365    6.7463   16.7206 H         1 LAT         0.2101
     61 H9         26.4579    8.4665   19.6833 H         1 LAT         0.2100
     62 H10        26.9242    6.3540   21.1563 H         1 LAT         0.2100
     63 H11        30.6397    3.3326   17.8076 H         1 LAT         0.2095
     64 H12        23.4559    0.4641   20.1143 H         1 LAT         0.0937
     65 H13        22.2428    2.2402   19.9337 H         1 LAT         0.0671
     66 H14        22.5748    2.5700   16.9719 H         1 LAT         0.0648
     67 H15        24.8053    2.9424   19.0301 H         1 LAT         0.0651
     68 H16        24.6371    1.2523   16.5043 H         1 LAT         0.0647
     69 H17        26.6436    0.9572   18.7777 H         1 LAT         0.0584
     70 H18        26.9171    2.0387   17.3698 H         1 LAT         0.0584
     71 H19        20.5393    0.9075   19.1262 H         1 LAT         0.2101
     72 H20        21.5106    4.1279   18.2879 H         1 LAT         0.2100
     73 H21        26.5615    0.1829   16.0309 H         1 LAT         0.2095
     74 H22        23.4372   -2.1528   19.3317 H         1 LAT         0.0620
     75 H23        22.4754   -2.2446   17.8173 H         1 LAT         0.0620
     76 H24        21.5968   -3.8571   19.3216 H         1 LAT         0.0921
     77 H25        20.2665   -1.4991   18.8925 H         1 LAT         0.2047
     78 H26        19.6192   -2.4829   20.0427 H         1 LAT         0.2047
     79 H27        21.3898   -1.6481   21.4026 H         1 LAT         0.0776
     80 H28        22.8316   -3.1218   22.4953 H         1 LAT         0.2129
     81 H29        20.1705   -4.5195   21.5003 H         1 LAT         0.0477
     82 H30        19.7401   -1.8763   22.9904 H         1 LAT         0.0451
     83 H31        18.3580   -4.6633   22.9785 H         1 LAT         0.0388
     84 H32        17.7072   -3.1619   23.7195 H         1 LAT         0.0388
     85 H33        18.2774   -4.4067   25.5979 H         1 LAT         0.0285
     86 H34        19.7531   -3.4105   25.3602 H         1 LAT         0.0285
     87 H35        20.3038   -5.6462   23.8205 H         1 LAT         0.0267
     88 H36        19.3712   -6.3472   25.1864 H         1 LAT         0.0267
     89 H37        21.2610   -4.4504   26.2471 H         1 LAT         0.0265
     90 H38        22.1229   -5.5493   25.1175 H         1 LAT         0.0265
     91 H39        21.6510   -7.4423   26.3741 H         1 LAT         0.0265
     92 H40        20.1513   -6.7395   27.0696 H         1 LAT         0.0265
     93 H41        21.8654   -5.0491   28.2022 H         1 LAT         0.0265
     94 H42        23.0277   -6.3886   27.9167 H         1 LAT         0.0265
     95 H43        21.8446   -7.8784   29.2944 H         1 LAT         0.0265
     96 H44        20.3370   -6.9049   29.2155 H         1 LAT         0.0265
     97 H45        20.9215   -6.0893   31.2274 H         1 LAT         0.0265
     98 H46        22.1849   -5.1518   30.3605 H         1 LAT         0.0265
     99 H47        23.5717   -6.1978   31.8288 H         1 LAT         0.0265
    100 H48        23.4733   -7.5297   30.6275 H         1 LAT         0.0265
    101 H49        23.1399   -8.5363   32.7495 H         1 LAT         0.0265
    102 H50        21.5169   -8.4387   31.9861 H         1 LAT         0.0265
    103 H51        20.8170   -6.7005   33.4083 H         1 LAT         0.0265
    104 H52        22.4985   -6.2880   33.8871 H         1 LAT         0.0265
    105 H53        22.5852   -8.6367   34.9601 H         1 LAT         0.0263
    106 H54        20.8008   -8.6629   34.7558 H         1 LAT         0.0263
    107 H55        21.4359   -7.8466   37.0009 H         1 LAT         0.0230
    108 H56        20.6222   -6.5604   36.0469 H         1 LAT         0.0230
    109 H57        22.4066   -6.5343   36.2512 H         1 LAT         0.0230
    110 H58        19.3472   -2.2498   17.4421 H         1 LAT         0.1184
    111 H59        17.0850   -2.9387   17.5941 H         1 LAT         0.0346
    112 H60        17.3951   -1.2447   18.1051 H         1 LAT         0.0346
    113 H61        17.2961   -1.8991   20.4650 H         1 LAT         0.0268
    114 H62        17.1087   -3.6258   20.0066 H         1 LAT         0.0268
    115 H63        15.1095   -2.3046   18.5409 H         1 LAT         0.0265
    116 H64        15.1001   -1.4806   20.1370 H         1 LAT         0.0265
    117 H65        14.5596   -3.4317   21.2941 H         1 LAT         0.0265
    118 H66        15.2333   -4.5008   20.0174 H         1 LAT         0.0265
    119 H67        13.3615   -3.7897   18.4996 H         1 LAT         0.0265
    120 H68        12.6636   -2.8447   19.8585 H         1 LAT         0.0265
    121 H69        13.3294   -5.4962   20.8081 H         1 LAT         0.0263
    122 H70        12.3637   -5.6476   19.3010 H         1 LAT         0.0263
    123 H71        10.9052   -5.5508   21.2963 H         1 LAT         0.0230
    124 H72        10.6589   -4.1191   20.2398 H         1 LAT         0.0230
    125 H73        11.6245   -3.9677   21.7469 H         1 LAT         0.0230
    126 H74        18.5765   -4.4881   18.1373 H         1 LAT         0.2154
@<TRIPOS>BOND
     1    1    2 1  
     2    7    1 1  
     3    1   11 1  
     4    2    3 1  
     5    2    8 1  
     6    3    4 1  
     7    3    9 1  
     8    5    4 1  
     9    4   10 1  
    10    5    6 1  
    11   11    5 1  
    12    6   12 1  
    13   16    7 1  
    14   14   13 1  
    15   13   19 1  
    16   13   22 1  
    17   15   14 1  
    18   14   20 1  
    19   15   16 1  
    20   15   21 1  
    21   16   17 1  
    22   17   18 1  
    23   17   22 1  
    24   18   23 1  
    25   19   24 1  
    26   24   25 1  
    27   25   26 1  
    28   25   27 1  
    29   26   44 1  
    30   27   28 1  
    31   27   29 1  
    32   29   30 2  
    33   30   31 1  
    34   31   32 1  
    35   32   33 1  
    36   33   34 1  
    37   34   35 1  
    38   35   36 1  
    39   36   37 1  
    40   37   38 1  
    41   38   39 1  
    42   39   40 1  
    43   40   41 1  
    44   41   42 1  
    45   42   43 1  
    46   44   45 1  
    47   44   52 1  
    48   45   46 1  
    49   46   47 1  
    50   47   48 1  
    51   48   49 1  
    52   49   50 1  
    53   50   51 1  
    54    1   53 1  
    55    2   54 1  
    56    3   55 1  
    57    4   56 1  
    58    5   57 1  
    59    6   58 1  
    60    6   59 1  
    61    8   60 1  
    62    9   61 1  
    63   10   62 1  
    64   12   63 1  
    65   13   64 1  
    66   14   65 1  
    67   15   66 1  
    68   16   67 1  
    69   17   68 1  
    70   18   69 1  
    71   18   70 1  
    72   20   71 1  
    73   21   72 1  
    74   23   73 1  
    75   24   74 1  
    76   24   75 1  
    77   25   76 1  
    78   26   77 1  
    79   26   78 1  
    80   27   79 1  
    81   28   80 1  
    82   29   81 1  
    83   30   82 1  
    84   31   83 1  
    85   31   84 1  
    86   32   85 1  
    87   32   86 1  
    88   33   87 1  
    89   33   88 1  
    90   34   89 1  
    91   34   90 1  
    92   35   91 1  
    93   35   92 1  
    94   36   93 1  
    95   36   94 1  
    96   37   95 1  
    97   37   96 1  
    98   38   97 1  
    99   38   98 1  
   100   39   99 1  
   101   39  100 1  
   102   40  101 1  
   103   40  102 1  
   104   41  103 1  
   105   41  104 1  
   106   42  105 1  
   107   42  106 1  
   108   43  107 1  
   109   43  108 1  
   110   43  109 1  
   111   44  110 1  
   112   45  111 1  
   113   45  112 1  
   114   46  113 1  
   115   46  114 1  
   116   47  115 1  
   117   47  116 1  
   118   48  117 1  
   119   48  118 1  
   120   49  119 1  
   121   49  120 1  
   122   50  121 1  
   123   50  122 1  
   124   51  123 1  
   125   51  124 1  
   126   51  125 1  
   127   52  126 1  
@<TRIPOS>SUBSTRUCTURE
     1 LAT         1

