5d6f_ligand
  -I-interpret- 

 53 55  0  0  0  0  0  0  0  0999 V2000
   26.5850   21.9800   18.3940 O   0  0  0  0  0
   24.8480   14.3790   15.2900 C   0  0  0  0  0
   25.4400   16.6670   15.4890 C   0  0  0  0  0
   28.5210   19.6330   18.0770 N   0  0  0  0  0
   25.1280   17.9560   15.2980 C   0  0  0  0  0
   26.0060   18.9900   15.6460 C   0  0  0  0  0
   29.6320   21.0250   22.2010 O   0  0  0  0  0
   27.2020   18.6090   16.2180 C   0  0  0  0  0
   29.6750   18.7710   23.0350 O   0  0  0  0  0
   27.5240   17.3270   16.4710 C   0  0  0  0  0
   24.4960   15.7030   15.1750 O   0  0  0  0  0
   26.6540   16.3240   16.0840 C   0  0  0  0  0
   30.2450   19.8880   22.9090 C   0  0  0  0  0
   31.4060   20.1600   23.4070 N   0  0  0  0  0
   32.2180   19.1610   24.1190 C   0  0  0  0  0
   32.8430   18.3610   22.9820 C   0  0  0  0  0
   33.2630   19.8330   25.0120 C   0  0  0  0  0
   28.3410   20.5990   21.6490 C   0  0  0  0  0
   27.4950   21.8700   21.3760 C   0  0  0  0  0
   26.1950   21.4210   20.7170 C   0  0  0  0  0
   26.5110   20.8480   19.3220 C   0  0  0  0  0
   25.3100   19.8950   18.9430 C   0  0  0  0  0
   27.7970   20.2560   19.1990 C   0  0  0  0  0
   28.6890   20.0280   20.3250 C   0  0  0  0  0
   29.7810   19.4720   19.9220 N   0  0  0  0  0
   29.7580   19.1930   18.5930 N   0  0  0  0  0
   28.2210   19.6020   16.6410 C   0  0  0  0  0
   26.7813   21.6567   17.5117 H   0  0  0  0  0
   25.6906   14.1698   14.6310 H   0  0  0  0  0
   25.1305   14.1677   16.3213 H   0  0  0  0  0
   24.0009   13.7534   15.0085 H   0  0  0  0  0
   24.1625   18.2071   14.8589 H   0  0  0  0  0
   25.7581   20.0375   15.4744 H   0  0  0  0  0
   28.4591   17.0822   16.9748 H   0  0  0  0  0
   26.9141   15.2774   16.2422 H   0  0  0  0  0
   31.7742   21.1054   23.3022 H   0  0  0  0  0
   31.6459   18.5335   24.8024 H   0  0  0  0  0
   32.0540   17.9105   22.3799 H   0  0  0  0  0
   33.4429   19.0248   22.3593 H   0  0  0  0  0
   33.4776   17.5777   23.3966 H   0  0  0  0  0
   33.9234   20.4458   24.3984 H   0  0  0  0  0
   32.7606   20.4618   25.7470 H   0  0  0  0  0
   33.8468   19.0684   25.5245 H   0  0  0  0  0
   27.8029   19.9136   22.3038 H   0  0  0  0  0
   28.0362   22.5560   20.7243 H   0  0  0  0  0
   27.2884   22.3982   22.3068 H   0  0  0  0  0
   25.5193   22.2709   20.6207 H   0  0  0  0  0
   25.7180   20.6556   21.3292 H   0  0  0  0  0
   25.2328   19.0981   19.6827 H   0  0  0  0  0
   24.3835   20.4689   18.9273 H   0  0  0  0  0
   25.4878   19.4625   17.9584 H   0  0  0  0  0
   29.1479   19.3268   16.1378 H   0  0  0  0  0
   27.8195   20.5833   16.3881 H   0  0  0  0  0
 21  1  1  0  0  0
 11  2  1  0  0  0
  5  3  4  0  0  0
  3 11  1  0  0  0
 12  3  4  0  0  0
 23  4  4  0  0  0
  4 26  4  0  0  0
  4 27  1  0  0  0
  6  5  4  0  0  0
  8  6  4  0  0  0
  7 13  1  0  0  0
 18  7  1  0  0  0
  8 10  4  0  0  0
 27  8  1  0  0  0
 13  9  2  0  0  0
 10 12  4  0  0  0
 13 14  1  0  0  0
 14 15  1  0  0  0
 15 16  1  0  0  0
 15 17  1  0  0  0
 19 18  1  0  0  0
 18 24  1  0  0  0
 20 19  1  0  0  0
 21 20  1  0  0  0
 21 22  1  0  0  0
 21 23  1  0  0  0
 23 24  4  0  0  0
 24 25  4  0  0  0
 25 26  4  0  0  0
  1 28  1  0  0  0
  2 29  1  0  0  0
  2 30  1  0  0  0
  2 31  1  0  0  0
  5 32  1  0  0  0
  6 33  1  0  0  0
 10 34  1  0  0  0
 12 35  1  0  0  0
 14 36  1  0  0  0
 15 37  1  0  0  0
 16 38  1  0  0  0
 16 39  1  0  0  0
 16 40  1  0  0  0
 17 41  1  0  0  0
 17 42  1  0  0  0
 17 43  1  0  0  0
 18 44  1  0  0  0
 19 45  1  0  0  0
 19 46  1  0  0  0
 20 47  1  0  0  0
 20 48  1  0  0  0
 22 49  1  0  0  0
 22 50  1  0  0  0
 22 51  1  0  0  0
 27 52  1  0  0  0
 27 53  1  0  0  0
M  END
$$$$
