### 
### Created by X-TOOL on Mon Sep 10 21:12:56 2018
### 

@<TRIPOS>MOLECULE
2it4_ligand
    7     6     1     0     0
SMALL
GAST_HUCK


@<TRIPOS>ATOM
      1 C1         13.4630   35.5810   19.4330 C.2       1 PPF         0.1699
      2 O1         13.7540   38.0550   19.8180 O.co2     1 PPF        -0.5941
      3 O2         13.9710   37.1930   17.4290 O.co2     1 PPF        -0.5941
      4 O3         15.7910   36.8460   19.1020 O.co2     1 PPF        -0.5941
      5 O4         13.8590   34.4090   19.2350 O.co2     1 PPF        -0.4901
      6 O5         12.3850   35.7390   20.0310 O.co2     1 PPF        -0.4901
      7 P1         14.3170   37.0000   18.8970 P.3       1 PPF         0.0927
@<TRIPOS>BOND
     1    1    5 ar 
     2    1    6 ar 
     3    1    7 1  
     4    7    2 ar 
     5    7    3 ar 
     6    7    4 ar 
@<TRIPOS>SUBSTRUCTURE
     1 PPF         1

