4wno_ligand
  -I-interpret- 

 45 49  0  0  0  0  0  0  0  0999 V2000
   -2.7020  -40.6980  -18.8390 C   0  0  0  0  0
   -0.6690  -39.4530  -19.3460 C   0  0  0  0  0
   -4.2250  -39.8440  -16.9980 C   0  0  0  0  0
   -7.9290  -41.4650  -14.9370 C   0  0  0  0  0
   -9.3170  -40.0890  -13.7550 C   0  0  0  0  0
   -6.7510  -40.7610  -15.2200 C   0  0  0  0  0
   -7.6530  -37.4520  -10.7680 N   0  0  0  0  0
   -6.6790  -37.3380  -11.8110 C   0  0  0  0  0
   -5.3380  -37.6040  -11.5370 C   0  0  0  0  0
   -4.3930  -37.4810  -12.5580 C   0  0  0  0  0
   -7.0890  -36.9490  -13.0740 C   0  0  0  0  0
   -6.1470  -36.8220  -14.0980 C   0  0  0  0  0
   -4.8190  -37.1110  -13.8300 C   0  0  0  0  0
   -3.8550  -36.9510  -14.8700 N   0  0  0  0  0
   -3.6320  -37.9410  -15.8650 C   0  0  0  0  0
   -2.5270  -37.7960  -16.5940 N   0  0  0  0  0
   -2.1960  -38.6910  -17.5800 C   0  0  0  0  0
   -3.0380  -39.7570  -17.8260 C   0  0  0  0  0
   -1.5240  -40.5440  -19.5960 C   0  0  0  0  0
   -0.9810  -38.5330  -18.3400 C   0  0  0  0  0
   -5.0970  -40.9190  -17.2500 N   0  0  0  0  0
   -6.2400  -41.2410  -16.4550 C   0  0  0  0  0
   -7.0640  -42.2120  -16.8960 N   0  0  0  0  0
   -8.0540  -42.3210  -15.9750 N   0  0  0  0  0
   -9.0610  -41.5840  -13.8430 C   0  0  0  0  0
   -8.3540  -40.7210  -12.7860 C   0  0  0  0  0
   -4.4920  -38.9410  -16.0440 N   0  0  0  0  0
   -3.3612  -41.5446  -19.0308 H   0  0  0  0  0
    0.2375  -39.3255  -19.9377 H   0  0  0  0  0
  -10.1737  -39.4160  -13.7207 H   0  0  0  0  0
   -9.3413  -39.2318  -14.4279 H   0  0  0  0  0
   -6.3054  -39.9821  -14.6012 H   0  0  0  0  0
   -7.3649  -37.7269   -9.8289 H   0  0  0  0  0
   -8.6351  -37.2584  -10.9639 H   0  0  0  0  0
   -5.0302  -37.9050  -10.5356 H   0  0  0  0  0
   -3.3380  -37.6719  -12.3615 H   0  0  0  0  0
   -8.1414  -36.7427  -13.2690 H   0  0  0  0  0
   -6.4527  -36.5001  -15.0935 H   0  0  0  0  0
   -3.3046  -36.0928  -14.9004 H   0  0  0  0  0
   -1.2749  -41.2669  -20.3728 H   0  0  0  0  0
   -0.3089  -37.7006  -18.1315 H   0  0  0  0  0
   -4.8994  -41.5103  -18.0572 H   0  0  0  0  0
   -9.6366  -42.5091  -13.8731 H   0  0  0  0  0
   -8.1637  -40.7343  -11.7128 H   0  0  0  0  0
   -7.3456  -40.5533  -12.4078 H   0  0  0  0  0
 18  1  4  0  0  0
  1 19  4  0  0  0
 19  2  4  0  0  0
 20  2  4  0  0  0
  3 18  4  0  0  0
 21  3  1  0  0  0
  3 27  4  0  0  0
  6  4  4  0  0  0
  4 24  4  0  0  0
  4 25  1  0  0  0
 25  5  1  0  0  0
  5 26  1  0  0  0
 22  6  4  0  0  0
  8  7  1  0  0  0
  9  8  4  0  0  0
 11  8  4  0  0  0
 10  9  4  0  0  0
 13 10  4  0  0  0
 12 11  4  0  0  0
 13 12  4  0  0  0
 14 13  1  0  0  0
 15 14  1  0  0  0
 15 16  4  0  0  0
 27 15  4  0  0  0
 17 16  4  0  0  0
 18 17  4  0  0  0
 17 20  4  0  0  0
 21 22  1  0  0  0
 22 23  4  0  0  0
 23 24  4  0  0  0
 25 26  1  0  0  0
  1 28  1  0  0  0
  2 29  1  0  0  0
  5 30  1  0  0  0
  5 31  1  0  0  0
  6 32  1  0  0  0
  7 33  1  0  0  0
  7 34  1  0  0  0
  9 35  1  0  0  0
 10 36  1  0  0  0
 11 37  1  0  0  0
 12 38  1  0  0  0
 14 39  1  0  0  0
 19 40  1  0  0  0
 20 41  1  0  0  0
 21 42  1  0  0  0
 25 43  1  0  0  0
 26 44  1  0  0  0
 26 45  1  0  0  0
M  END
$$$$
