5m0s_ligand
  -I-interpret- 

 93 97  0  0  0  0  0  0  0  0999 V2000
  -17.2710  -23.4290    3.9570 C   0  0  0  0  0
  -16.4580  -23.6210    5.2410 C   0  0  0  0  0
  -16.0290  -22.2530    5.7990 C   0  0  0  0  0
  -17.1550  -21.3960    6.3670 C   0  0  0  0  0
  -16.9690  -19.9320    6.0580 C   0  0  0  0  0
  -17.8750  -19.2510    5.5740 O   0  0  0  0  0
  -15.7690  -19.4210    6.3480 N   0  0  0  0  0
  -15.3770  -18.0420    6.0930 C   0  0  0  0  0
  -13.8680  -17.8980    6.1100 C   0  0  0  0  0
  -13.2680  -18.2480    4.8400 N   0  0  0  0  0
  -11.9460  -18.1130    4.6250 C   0  0  0  0  0
  -11.1490  -17.7460    5.4680 O   0  0  0  0  0
  -11.6300  -18.4340    3.3400 O   0  0  0  0  0
  -10.4370  -17.8130    2.7830 C   0  0  0  0  0
  -10.3470  -17.9840    1.2920 C   0  0  0  0  0
  -10.8410  -19.1230    0.6690 C   0  0  0  0  0
  -10.7350  -19.2590   -0.6970 C   0  0  0  0  0
  -11.3640  -20.6870   -1.4740 Cl  0  0  0  0  0
  -10.1330  -18.2870   -1.4770 C   0  0  0  0  0
   -9.6370  -17.1600   -0.8440 C   0  0  0  0  0
   -8.8760  -15.9240   -1.8100 Cl  0  0  0  0  0
   -9.7360  -17.0060    0.5200 C   0  0  0  0  0
  -15.2090  -24.5220    5.0820 C   0  0  0  0  0
  -14.6840  -25.0180    6.4590 C   0  0  0  0  0
  -13.9140  -26.3260    6.1980 C   0  0  0  0  0
  -13.8900  -26.4410    4.6730 C   0  0  0  0  0
  -13.5250  -27.7840    4.0320 C   0  0  0  0  0
  -12.1720  -28.3210    4.5280 C   0  0  0  0  0
  -12.1660  -28.5250    5.9560 O   0  0  0  0  0
  -11.8180  -29.6430    3.8520 C   0  0  0  0  0
  -11.8480  -29.5530    2.3160 C   0  0  0  0  0
  -10.6210  -28.7850    1.7900 C   0  0  0  0  0
  -10.5800  -28.7070    0.2800 C   0  0  0  0  0
   -9.4290  -27.9540   -0.1470 O   0  0  0  0  0
  -11.8490  -28.0620   -0.2200 C   0  0  0  0  0
  -13.0690  -28.8570    0.2390 C   0  0  0  0  0
  -13.2100  -29.0200    1.7730 C   0  0  0  0  0
  -14.3210  -30.0740    2.0150 C   0  0  0  0  0
  -13.5430  -27.6660    2.4880 C   0  0  0  0  0
  -14.8340  -26.9890    1.9990 C   0  0  0  0  0
  -15.1580  -25.6710    2.7140 C   0  0  0  0  0
  -15.2370  -25.8320    4.2370 C   0  0  0  0  0
  -16.4470  -26.7020    4.6290 C   0  0  0  0  0
  -16.6418  -22.9679    3.1956 H   0  0  0  0  0
  -17.6218  -24.3981    3.6023 H   0  0  0  0  0
  -18.1259  -22.7848    4.1627 H   0  0  0  0  0
  -17.1221  -24.1388    5.9331 H   0  0  0  0  0
  -15.6045  -21.6956    4.9640 H   0  0  0  0  0
  -15.3446  -22.4538    6.6233 H   0  0  0  0  0
  -17.1585  -21.5158    7.4504 H   0  0  0  0  0
  -18.0909  -21.7219    5.9130 H   0  0  0  0  0
  -15.0805  -20.0391    6.7773 H   0  0  0  0  0
  -15.7990  -17.4073    6.8723 H   0  0  0  0  0
  -15.7466  -17.7480    5.1106 H   0  0  0  0  0
  -13.4725  -18.5737    6.8683 H   0  0  0  0  0
  -13.6303  -16.8552    6.3202 H   0  0  0  0  0
  -13.8607  -18.6052    4.0906 H   0  0  0  0  0
   -9.5663  -18.2916    3.2312 H   0  0  0  0  0
  -10.4797  -16.7454    2.9987 H   0  0  0  0  0
  -11.3119  -19.9080    1.2607 H   0  0  0  0  0
  -10.0518  -18.4053   -2.5575 H   0  0  0  0  0
   -9.3328  -16.1121    0.9959 H   0  0  0  0  0
  -14.6039  -23.8048    4.5275 H   0  0  0  0  0
  -15.5097  -25.1862    7.1504 H   0  0  0  0  0
  -14.0352  -24.2718    6.9176 H   0  0  0  0  0
  -14.3878  -27.1865    6.6705 H   0  0  0  0  0
  -12.9124  -26.3093    6.6276 H   0  0  0  0  0
  -13.0269  -25.9029    4.2811 H   0  0  0  0  0
  -14.2802  -28.5075    4.3391 H   0  0  0  0  0
  -11.4316  -27.5639    4.2697 H   0  0  0  0  0
  -11.3078  -28.8594    6.2267 H   0  0  0  0  0
  -12.5573  -30.3832    4.1579 H   0  0  0  0  0
  -10.8046  -29.9105    4.1513 H   0  0  0  0  0
  -11.7745  -30.5646    1.9168 H   0  0  0  0  0
   -9.7284  -29.3160    2.1208 H   0  0  0  0  0
  -10.6748  -27.7667    2.1751 H   0  0  0  0  0
  -10.5028  -29.7122   -0.1343 H   0  0  0  0  0
   -9.4137  -27.9113   -1.1059 H   0  0  0  0  0
  -11.8298  -28.0401   -1.3096 H   0  0  0  0  0
  -11.9140  -27.0504    0.1807 H   0  0  0  0  0
  -12.9628  -29.8601   -0.1742 H   0  0  0  0  0
  -13.9469  -28.3068   -0.0996 H   0  0  0  0  0
  -14.0627  -30.9977    1.4972 H   0  0  0  0  0
  -14.4096  -30.2677    3.0840 H   0  0  0  0  0
  -15.2690  -29.6949    1.6333 H   0  0  0  0  0
  -12.7285  -27.0044    2.1933 H   0  0  0  0  0
  -15.6555  -27.6763    2.2008 H   0  0  0  0  0
  -14.6974  -26.7582    0.9425 H   0  0  0  0  0
  -16.1307  -25.3279    2.3615 H   0  0  0  0  0
  -14.3594  -24.9632    2.4920 H   0  0  0  0  0
  -16.3784  -26.9628    5.6851 H   0  0  0  0  0
  -17.3666  -26.1449    4.4500 H   0  0  0  0  0
  -16.4488  -27.6115    4.0282 H   0  0  0  0  0
  1  2  1  0  0  0
  2  3  1  0  0  0
  2 23  1  0  0  0
  3  4  1  0  0  0
  4  5  1  0  0  0
  5  6  2  0  0  0
  5  7  1  0  0  0
  7  8  1  0  0  0
  8  9  1  0  0  0
  9 10  1  0  0  0
 10 11  1  0  0  0
 11 12  2  0  0  0
 11 13  1  0  0  0
 13 14  1  0  0  0
 14 15  1  0  0  0
 15 16  4  0  0  0
 15 22  4  0  0  0
 16 17  4  0  0  0
 17 18  1  0  0  0
 17 19  4  0  0  0
 19 20  4  0  0  0
 20 21  1  0  0  0
 20 22  4  0  0  0
 23 24  1  0  0  0
 23 42  1  0  0  0
 24 25  1  0  0  0
 25 26  1  0  0  0
 26 27  1  0  0  0
 26 42  1  0  0  0
 27 28  1  0  0  0
 27 39  1  0  0  0
 28 29  1  0  0  0
 28 30  1  0  0  0
 30 31  1  0  0  0
 31 32  1  0  0  0
 31 37  1  0  0  0
 32 33  1  0  0  0
 33 34  1  0  0  0
 33 35  1  0  0  0
 35 36  1  0  0  0
 36 37  1  0  0  0
 37 38  1  0  0  0
 37 39  1  0  0  0
 39 40  1  0  0  0
 40 41  1  0  0  0
 41 42  1  0  0  0
 42 43  1  0  0  0
  1 44  1  0  0  0
  1 45  1  0  0  0
  1 46  1  0  0  0
  2 47  1  0  0  0
  3 48  1  0  0  0
  3 49  1  0  0  0
  4 50  1  0  0  0
  4 51  1  0  0  0
  7 52  1  0  0  0
  8 53  1  0  0  0
  8 54  1  0  0  0
  9 55  1  0  0  0
  9 56  1  0  0  0
 10 57  1  0  0  0
 14 58  1  0  0  0
 14 59  1  0  0  0
 16 60  1  0  0  0
 19 61  1  0  0  0
 22 62  1  0  0  0
 23 63  1  0  0  0
 24 64  1  0  0  0
 24 65  1  0  0  0
 25 66  1  0  0  0
 25 67  1  0  0  0
 26 68  1  0  0  0
 27 69  1  0  0  0
 28 70  1  0  0  0
 29 71  1  0  0  0
 30 72  1  0  0  0
 30 73  1  0  0  0
 31 74  1  0  0  0
 32 75  1  0  0  0
 32 76  1  0  0  0
 33 77  1  0  0  0
 34 78  1  0  0  0
 35 79  1  0  0  0
 35 80  1  0  0  0
 36 81  1  0  0  0
 36 82  1  0  0  0
 38 83  1  0  0  0
 38 84  1  0  0  0
 38 85  1  0  0  0
 39 86  1  0  0  0
 40 87  1  0  0  0
 40 88  1  0  0  0
 41 89  1  0  0  0
 41 90  1  0  0  0
 43 91  1  0  0  0
 43 92  1  0  0  0
 43 93  1  0  0  0
M  END
$$$$
