### 
### Created by X-TOOL on Mon Sep 10 21:12:58 2018
### 

@<TRIPOS>MOLECULE
2w0p_ligand
  144   144     1     0     0
SMALL
GAST_HUCK


@<TRIPOS>ATOM
      1 N          12.3650   22.3830   48.5110 N.4       1 ARG         0.2379
      2 CA         12.9570   22.6280   47.1570 C.3       1 ARG         0.0651
      3 C          12.3070   21.7250   46.0940 C.2       1 ARG         0.2267
      4 O          12.3480   20.4810   46.1860 O.2       1 ARG        -0.3907
      5 CB         14.4840   22.4250   47.1150 C.3       1 ARG         0.0110
      6 CG         15.3260   23.2400   48.0630 C.3       1 ARG        -0.0125
      7 CD         16.6700   23.6530   47.4080 C.3       1 ARG         0.0629
      8 NE         17.6050   22.5570   47.0650 N.pl3     1 ARG        -0.2723
      9 CZ         18.6880   22.7090   46.2880 C.cat     1 ARG         0.2882
     10 NH1        18.9950   23.9100   45.7680 N.pl3     1 ARG        -0.2849
     11 NH2        19.4790   21.6600   46.0260 N.pl3     1 ARG        -0.2849
     12 N          11.7090   22.3530   45.0840 N.am      1 VAL        -0.2608
     13 CA         11.2910   21.6520   43.8860 C.3       1 VAL         0.1334
     14 C          12.0020   22.3690   42.7200 C.2       1 VAL         0.2041
     15 O          12.5000   23.5080   42.8750 O.2       1 VAL        -0.3944
     16 CB          9.7930   21.7100   43.6790 C.3       1 VAL        -0.0063
     17 CG1         9.0500   20.7030   44.6200 C.3       1 VAL        -0.0584
     18 CG2         9.3080   23.1150   43.8810 C.3       1 VAL        -0.0584
     19 N          12.0320   21.7120   41.5700 N.am      1 ALA        -0.2640
     20 CA         12.8970   22.1730   40.4670 C.3       1 ALA         0.1282
     21 C          12.2570   21.9110   39.0880 C.2       1 ALA         0.2037
     22 O          11.4560   20.9800   38.9250 O.2       1 ALA        -0.3944
     23 CB         14.2700   21.5290   40.5530 C.3       1 ALA        -0.0244
     24 N          12.5890   22.7720   38.1160 N.am      1 SER        -0.2616
     25 CA         12.2250   22.6050   36.7200 C.3       1 SER         0.1539
     26 C          13.5520   22.7760   36.0300 C.2       1 SER         0.2062
     27 O          14.2350   23.7680   36.2820 O.2       1 SER        -0.3943
     28 CB         11.3300   23.7420   36.2380 C.3       1 SER         0.0843
     29 OG         10.1760   23.8280   37.0550 O.3       1 SER        -0.3903
     30 N          13.8780   21.7760   35.2080 N.am      1 SER        -0.2615
     31 CA         15.1860   21.5990   34.5350 C.3       1 SER         0.1539
     32 C          14.8210   21.3870   33.0690 C.2       1 SER         0.2062
     33 O          14.0700   20.4890   32.7800 O.2       1 SER        -0.3943
     34 CB         15.8140   20.3100   35.0160 C.3       1 SER         0.0843
     35 OG         17.1730   20.2080   34.6610 O.3       1 SER        -0.3903
     36 N          15.3610   22.2130   32.1720 N.am      1 VAL        -0.2634
     37 CA         14.9870   22.1880   30.7530 C.3       1 VAL         0.1333
     38 C          16.2700   22.0920   29.9150 C.2       1 VAL         0.2043
     39 O          17.2800   22.7170   30.2610 O.2       1 VAL        -0.3944
     40 CB         14.1360   23.4300   30.3290 C.3       1 VAL        -0.0063
     41 CG1        13.5130   23.1930   28.9200 C.3       1 VAL        -0.0584
     42 CG2        13.0790   23.7820   31.3650 C.3       1 VAL        -0.0584
     43 N          16.2210   21.2770   28.8700 N.am      1 PHE        -0.2619
     44 CA         17.3540   21.1120   27.9620 C.3       1 PHE         0.1404
     45 C          16.8730   21.4920   26.5630 C.2       1 PHE         0.2060
     46 O          15.7960   21.0610   26.1320 O.2       1 PHE        -0.3942
     47 CB         17.8600   19.6760   27.9870 C.3       1 PHE         0.0214
     48 CG         18.9690   19.4170   26.9770 C.ar      1 PHE        -0.0386
     49 CD1        20.2990   19.5100   27.3640 C.ar      1 PHE        -0.0601
     50 CD2        18.6620   19.1060   25.6380 C.ar      1 PHE        -0.0601
     51 CE1        21.3160   19.2810   26.4360 C.ar      1 PHE        -0.0686
     52 CE2        19.6640   18.8980   24.7010 C.ar      1 PHE        -0.0686
     53 CZ         20.9970   18.9880   25.1000 C.ar      1 PHE        -0.0687
     54 N          17.6640   22.3090   25.8760 N.am      1 ILE        -0.2633
     55 CA         17.2140   22.8630   24.5850 C.3       1 ILE         0.1335
     56 C          18.2620   22.6030   23.5290 C.2       1 ILE         0.2037
     57 O          19.4170   22.8950   23.7560 O.2       1 ILE        -0.3944
     58 CB         17.0030   24.4060   24.6850 C.3       1 ILE        -0.0037
     59 CG1        16.1810   24.8060   25.9160 C.3       1 ILE        -0.0491
     60 CG2        16.4200   24.9680   23.3580 C.3       1 ILE        -0.0582
     61 CD1        14.7560   24.4680   25.7870 C.3       1 ILE        -0.0648
     62 N          17.8330   22.0680   22.3900 N.am      1 THR        -0.2670
     63 CA         18.7010   21.7200   21.2480 C.3       1 THR         0.1198
     64 C          17.8660   21.3010   20.0140 C.2       1 THR         0.0626
     65 O          16.7378   21.8148   19.7886 O.co2     1 THR        -0.5665
     66 CB         19.4810   20.4280   21.5350 C.3       1 THR         0.0869
     67 OG1        20.6750   20.3940   20.7360 O.3       1 THR        -0.3880
     68 CG2        18.5790   19.2120   21.2080 C.3       1 THR        -0.0352
     69 O71        18.3214   20.4327   19.2226 O.co2     1 THR        -0.5665
     70 H1         12.8084   22.9865   49.1857 H         1 ARG         0.2015
     71 H2         12.5121   21.4208   48.7730 H         1 ARG         0.2015
     72 H3         11.3762   22.5769   48.4855 H         1 ARG         0.2015
     73 H4         12.7493   23.6753   46.8926 H         1 ARG         0.1098
     74 H5         14.8186   22.6599   46.0938 H         1 ARG         0.0347
     75 H6         14.6804   21.3643   47.3304 H         1 ARG         0.0347
     76 H7         15.5343   22.6419   48.9623 H         1 ARG         0.0302
     77 H8         14.7715   24.1469   48.3460 H         1 ARG         0.0302
     78 H9         17.1880   24.3274   48.1058 H         1 ARG         0.0689
     79 H10        16.4362   24.1949   46.4797 H         1 ARG         0.0689
     80 H11        17.4119   21.6200   47.4466 H         1 ARG         0.2642
     81 H12        19.8289   24.0155   45.1727 H         1 ARG         0.2615
     82 H13        18.3963   24.7247   45.9649 H         1 ARG         0.2615
     83 H14        19.2542   20.7347   46.4187 H         1 ARG         0.2615
     84 H15        20.3120   21.7788   45.4319 H         1 ARG         0.2615
     85 H16        11.5434   23.3367   45.1537 H         1 VAL         0.1885
     86 H17        11.6061   20.5995   43.9393 H         1 VAL         0.0802
     87 H18         9.5786   21.4203   42.6397 H         1 VAL         0.0343
     88 H19         7.9660   20.7696   44.4454 H         1 VAL         0.0234
     89 H20         9.2684   20.9519   45.6690 H         1 VAL         0.0234
     90 H21         9.3935   19.6800   44.4067 H         1 VAL         0.0234
     91 H22         9.8515   23.7913   43.2048 H         1 VAL         0.0234
     92 H23         9.4859   23.4180   44.9234 H         1 VAL         0.0234
     93 H24         8.2311   23.1661   43.6629 H         1 VAL         0.0234
     94 H25        11.4643   20.8978   41.4486 H         1 ALA         0.1883
     95 H26        13.0258   23.2601   40.5751 H         1 ALA         0.0797
     96 H27        14.8957   21.8872   39.7222 H         1 ALA         0.0277
     97 H28        14.1669   20.4357   40.4894 H         1 ALA         0.0277
     98 H29        14.7418   21.7978   41.5096 H         1 ALA         0.0277
     99 H30        13.1209   23.5804   38.3679 H         1 SER         0.1884
    100 H31        11.7615   21.6262   36.5274 H         1 SER         0.0823
    101 H32        11.0269   23.5515   35.1979 H         1 SER         0.0606
    102 H33        11.8851   24.6902   36.2903 H         1 SER         0.0606
    103 H34        10.4370   23.9936   37.9533 H         1 SER         0.2097
    104 H35        13.1772   21.0850   35.0307 H         1 SER         0.1884
    105 H36        15.8537   22.4598   34.6874 H         1 SER         0.0823
    106 H37        15.2687   19.4644   34.5716 H         1 SER         0.0606
    107 H38        15.7312   20.2644   36.1119 H         1 SER         0.0606
    108 H39        17.5225   19.3855   34.9833 H         1 SER         0.2097
    109 H40        16.0463   22.8741   32.4776 H         1 VAL         0.1883
    110 H41        14.3808   21.2881   30.5722 H         1 VAL         0.0802
    111 H42        14.8172   24.2903   30.2527 H         1 VAL         0.0343
    112 H43        12.9168   24.0709   28.6304 H         1 VAL         0.0234
    113 H44        12.8659   22.3040   28.9500 H         1 VAL         0.0234
    114 H45        14.3166   23.0370   28.1853 H         1 VAL         0.0234
    115 H46        13.5608   23.9403   32.3411 H         1 VAL         0.0234
    116 H47        12.3538   22.9587   31.4433 H         1 VAL         0.0234
    117 H48        12.5583   24.7016   31.0597 H         1 VAL         0.0234
    118 H49        15.3828   20.7594   28.6981 H         1 PHE         0.1885
    119 H50        18.1710   21.7829   28.2659 H         1 PHE         0.0823
    120 H51        17.0184   19.0041   27.7630 H         1 PHE         0.0474
    121 H52        18.2454   19.4579   28.9939 H         1 PHE         0.0474
    122 H53        20.5480   19.7609   28.3887 H         1 PHE         0.0557
    123 H54        17.6244   19.0278   25.3341 H         1 PHE         0.0557
    124 H55        22.3534   19.3293   26.7468 H         1 PHE         0.0599
    125 H56        19.4136   18.6684   23.6716 H         1 PHE         0.0599
    126 H57        21.7893   18.8314   24.3770 H         1 PHE         0.0559
    127 H58        18.5661   22.5488   26.2347 H         1 ILE         0.1883
    128 H59        16.2681   22.3817   24.2958 H         1 ILE         0.0803
    129 H60        17.9976   24.8581   24.8129 H         1 ILE         0.0345
    130 H61        16.2722   25.8926   26.0610 H         1 ILE         0.0267
    131 H62        16.5875   24.2834   26.7944 H         1 ILE         0.0267
    132 H63        17.0510   24.6480   22.5157 H         1 ILE         0.0235
    133 H64        16.3986   26.0668   23.4032 H         1 ILE         0.0235
    134 H65        15.3980   24.5868   23.2160 H         1 ILE         0.0235
    135 H66        14.2218   24.7782   26.6972 H         1 ILE         0.0230
    136 H67        14.6476   23.3819   25.6504 H         1 ILE         0.0230
    137 H68        14.3324   24.9911   24.9170 H         1 ILE         0.0230
    138 H69        16.8533   21.8887   22.3007 H         1 THR         0.1876
    139 H70        19.3720   22.5609   21.0187 H         1 THR         0.0752
    140 H71        19.7588   20.3979   22.5989 H         1 THR         0.0632
    141 H72        20.4400   20.4223   19.8160 H         1 THR         0.2100
    142 H73        19.1300   18.2818   21.4108 H         1 THR         0.0256
    143 H74        18.2912   19.2438   20.1468 H         1 THR         0.0256
    144 H75        17.6753   19.2468   21.8342 H         1 THR         0.0256
@<TRIPOS>BOND
     1    1    2 1  
     2    2    3 1  
     3    2    5 1  
     4    3    4 2  
     5    3   12 am 
     6    5    6 1  
     7    6    7 1  
     8    7    8 1  
     9    8    9 ar 
    10    9   10 ar 
    11    9   11 ar 
    12   12   13 1  
    13   13   14 1  
    14   13   16 1  
    15   14   15 2  
    16   14   19 am 
    17   16   17 1  
    18   16   18 1  
    19   19   20 1  
    20   20   21 1  
    21   20   23 1  
    22   21   22 2  
    23   21   24 am 
    24   24   25 1  
    25   25   26 1  
    26   25   28 1  
    27   26   27 2  
    28   26   30 am 
    29   28   29 1  
    30   30   31 1  
    31   31   32 1  
    32   31   34 1  
    33   32   33 2  
    34   32   36 am 
    35   34   35 1  
    36   36   37 1  
    37   37   38 1  
    38   37   40 1  
    39   38   39 2  
    40   38   43 am 
    41   40   41 1  
    42   40   42 1  
    43   43   44 1  
    44   44   45 1  
    45   44   47 1  
    46   45   46 2  
    47   45   54 am 
    48   47   48 1  
    49   48   49 ar 
    50   48   50 ar 
    51   49   51 ar 
    52   50   52 ar 
    53   51   53 ar 
    54   52   53 ar 
    55   54   55 1  
    56   55   56 1  
    57   55   58 1  
    58   56   57 2  
    59   56   62 am 
    60   58   59 1  
    61   58   60 1  
    62   59   61 1  
    63   62   63 1  
    64   63   64 1  
    65   63   66 1  
    66   64   65 ar 
    67   66   67 1  
    68   66   68 1  
    69   64   69 ar 
    70    1   70 1  
    71    1   71 1  
    72    1   72 1  
    73    2   73 1  
    74    5   74 1  
    75    5   75 1  
    76    6   76 1  
    77    6   77 1  
    78    7   78 1  
    79    7   79 1  
    80    8   80 1  
    81   10   81 1  
    82   10   82 1  
    83   11   83 1  
    84   11   84 1  
    85   12   85 1  
    86   13   86 1  
    87   16   87 1  
    88   17   88 1  
    89   17   89 1  
    90   17   90 1  
    91   18   91 1  
    92   18   92 1  
    93   18   93 1  
    94   19   94 1  
    95   20   95 1  
    96   23   96 1  
    97   23   97 1  
    98   23   98 1  
    99   24   99 1  
   100   25  100 1  
   101   28  101 1  
   102   28  102 1  
   103   29  103 1  
   104   30  104 1  
   105   31  105 1  
   106   34  106 1  
   107   34  107 1  
   108   35  108 1  
   109   36  109 1  
   110   37  110 1  
   111   40  111 1  
   112   41  112 1  
   113   41  113 1  
   114   41  114 1  
   115   42  115 1  
   116   42  116 1  
   117   42  117 1  
   118   43  118 1  
   119   44  119 1  
   120   47  120 1  
   121   47  121 1  
   122   49  122 1  
   123   50  123 1  
   124   51  124 1  
   125   52  125 1  
   126   53  126 1  
   127   54  127 1  
   128   55  128 1  
   129   58  129 1  
   130   59  130 1  
   131   59  131 1  
   132   60  132 1  
   133   60  133 1  
   134   60  134 1  
   135   61  135 1  
   136   61  136 1  
   137   61  137 1  
   138   62  138 1  
   139   63  139 1  
   140   66  140 1  
   141   67  141 1  
   142   68  142 1  
   143   68  143 1  
   144   68  144 1  
@<TRIPOS>SUBSTRUCTURE
     1 ARG         1

