2w0p_ligand
  -I-interpret- 

144144  0  0  0  0  0  0  0  0999 V2000
   12.3650   22.3830   48.5110 N   0  3  0  0  0
   12.9570   22.6280   47.1570 C   0  0  0  0  0
   12.3070   21.7250   46.0940 C   0  0  0  0  0
   12.3480   20.4810   46.1860 O   0  0  0  0  0
   14.4840   22.4250   47.1150 C   0  0  0  0  0
   15.3260   23.2400   48.0630 C   0  0  0  0  0
   16.6700   23.6530   47.4080 C   0  0  0  0  0
   17.6050   22.5570   47.0650 N   0  0  0  0  0
   18.6880   22.7090   46.2880 C   0  0  0  0  0
   18.9950   23.9100   45.7680 N   0  0  0  0  0
   19.4790   21.6600   46.0260 N   0  0  0  0  0
   11.7090   22.3530   45.0840 N   0  0  0  0  0
   11.2910   21.6520   43.8860 C   0  0  0  0  0
   12.0020   22.3690   42.7200 C   0  0  0  0  0
   12.5000   23.5080   42.8750 O   0  0  0  0  0
    9.7930   21.7100   43.6790 C   0  0  0  0  0
    9.0500   20.7030   44.6200 C   0  0  0  0  0
    9.3080   23.1150   43.8810 C   0  0  0  0  0
   12.0320   21.7120   41.5700 N   0  0  0  0  0
   12.8970   22.1730   40.4670 C   0  0  0  0  0
   12.2570   21.9110   39.0880 C   0  0  0  0  0
   11.4560   20.9800   38.9250 O   0  0  0  0  0
   14.2700   21.5290   40.5530 C   0  0  0  0  0
   12.5890   22.7720   38.1160 N   0  0  0  0  0
   12.2250   22.6050   36.7200 C   0  0  0  0  0
   13.5520   22.7760   36.0300 C   0  0  0  0  0
   14.2350   23.7680   36.2820 O   0  0  0  0  0
   11.3300   23.7420   36.2380 C   0  0  0  0  0
   10.1760   23.8280   37.0550 O   0  0  0  0  0
   13.8780   21.7760   35.2080 N   0  0  0  0  0
   15.1860   21.5990   34.5350 C   0  0  0  0  0
   14.8210   21.3870   33.0690 C   0  0  0  0  0
   14.0700   20.4890   32.7800 O   0  0  0  0  0
   15.8140   20.3100   35.0160 C   0  0  0  0  0
   17.1730   20.2080   34.6610 O   0  0  0  0  0
   15.3610   22.2130   32.1720 N   0  0  0  0  0
   14.9870   22.1880   30.7530 C   0  0  0  0  0
   16.2700   22.0920   29.9150 C   0  0  0  0  0
   17.2800   22.7170   30.2610 O   0  0  0  0  0
   14.1360   23.4300   30.3290 C   0  0  0  0  0
   13.5130   23.1930   28.9200 C   0  0  0  0  0
   13.0790   23.7820   31.3650 C   0  0  0  0  0
   16.2210   21.2770   28.8700 N   0  0  0  0  0
   17.3540   21.1120   27.9620 C   0  0  0  0  0
   16.8730   21.4920   26.5630 C   0  0  0  0  0
   15.7960   21.0610   26.1320 O   0  0  0  0  0
   17.8600   19.6760   27.9870 C   0  0  0  0  0
   18.9690   19.4170   26.9770 C   0  0  0  0  0
   20.2990   19.5100   27.3640 C   0  0  0  0  0
   18.6620   19.1060   25.6380 C   0  0  0  0  0
   21.3160   19.2810   26.4360 C   0  0  0  0  0
   19.6640   18.8980   24.7010 C   0  0  0  0  0
   20.9970   18.9880   25.1000 C   0  0  0  0  0
   17.6640   22.3090   25.8760 N   0  0  0  0  0
   17.2140   22.8630   24.5850 C   0  0  0  0  0
   18.2620   22.6030   23.5290 C   0  0  0  0  0
   19.4170   22.8950   23.7560 O   0  0  0  0  0
   17.0030   24.4060   24.6850 C   0  0  0  0  0
   16.1810   24.8060   25.9160 C   0  0  0  0  0
   16.4200   24.9680   23.3580 C   0  0  0  0  0
   14.7560   24.4680   25.7870 C   0  0  0  0  0
   17.8330   22.0680   22.3900 N   0  0  0  0  0
   18.7010   21.7200   21.2480 C   0  0  0  0  0
   17.8660   21.3010   20.0140 C   0  0  0  0  0
   16.7378   21.8148   19.7886 O   0  0  0  0  0
   19.4810   20.4280   21.5350 C   0  0  0  0  0
   20.6750   20.3940   20.7360 O   0  0  0  0  0
   18.5790   19.2120   21.2080 C   0  0  0  0  0
   18.3214   20.4327   19.2226 O   0  0  0  0  0
   11.3569   22.5331   48.4722 H   0  0  0  0  0
   12.5562   21.4224   48.7956 H   0  0  0  0  0
   12.7802   23.0273   49.1840 H   0  0  0  0  0
   12.7512   23.6754   46.9363 H   0  0  0  0  0
   14.7914   22.7314   46.1151 H   0  0  0  0  0
   14.6478   21.3856   47.3996 H   0  0  0  0  0
   15.5403   22.6358   48.9446 H   0  0  0  0  0
   14.7762   24.1433   48.3273 H   0  0  0  0  0
   17.1863   24.2698   48.1436 H   0  0  0  0  0
   16.4100   24.1331   46.4646 H   0  0  0  0  0
   17.4137   21.6291   47.4429 H   0  0  0  0  0
   19.8226   24.0152   45.1811 H   0  0  0  0  0
   18.4004   24.7161   45.9604 H   0  0  0  0  0
   19.2581   20.7444   46.4174 H   0  0  0  0  0
   11.5400   23.3564   45.1551 H   0  0  0  0  0
   11.5486   20.5953   43.9570 H   0  0  0  0  0
    9.5677   21.4106   42.6554 H   0  0  0  0  0
    9.3913   19.6898   44.4077 H   0  0  0  0  0
    9.2672   20.9507   45.6590 H   0  0  0  0  0
    7.9760   20.7699   44.4461 H   0  0  0  0  0
    9.5458   23.4379   44.8945 H   0  0  0  0  0
    9.7980   23.7738   43.1640 H   0  0  0  0  0
    8.2290   23.1507   43.7307 H   0  0  0  0  0
   11.4530   20.8815   41.4461 H   0  0  0  0  0
   13.0126   23.2516   40.5739 H   0  0  0  0  0
   14.7364   21.7961   41.5013 H   0  0  0  0  0
   14.1664   20.4458   40.4899 H   0  0  0  0  0
   14.8890   21.8847   39.7293 H   0  0  0  0  0
   13.1316   23.5966   38.3729 H   0  0  0  0  0
   11.6999   21.6669   36.5401 H   0  0  0  0  0
   11.0277   23.5494   35.2086 H   0  0  0  0  0
   11.8806   24.6810   36.2942 H   0  0  0  0  0
    9.6186   24.5455   36.7450 H   0  0  0  0  0
   13.1632   21.0712   35.0272 H   0  0  0  0  0
   15.8630   22.4340   34.7157 H   0  0  0  0  0
   15.2811   19.4814   34.5497 H   0  0  0  0  0
   15.7477   20.2886   36.1038 H   0  0  0  0  0
   17.5261   19.3768   34.9867 H   0  0  0  0  0
   16.0600   22.8873   32.4837 H   0  0  0  0  0
   14.3526   21.3189   30.5789 H   0  0  0  0  0
   14.8001   24.2924   30.2710 H   0  0  0  0  0
   14.3103   23.0385   28.1929 H   0  0  0  0  0
   12.8721   22.3119   28.9511 H   0  0  0  0  0
   12.9225   24.0635   28.6341 H   0  0  0  0  0
   12.4039   22.9362   31.4952 H   0  0  0  0  0
   13.5641   24.0107   32.3139 H   0  0  0  0  0
   12.5144   24.6504   31.0255 H   0  0  0  0  0
   15.3661   20.7490   28.6946 H   0  0  0  0  0
   18.1844   21.7489   28.2667 H   0  0  0  0  0
   17.0230   19.0251   27.7345 H   0  0  0  0  0
   18.2651   19.4845   28.9806 H   0  0  0  0  0
   20.5494   19.7623   28.3944 H   0  0  0  0  0
   17.6187   19.0273   25.3324 H   0  0  0  0  0
   22.3591   19.3296   26.7485 H   0  0  0  0  0
   19.4122   18.6671   23.6659 H   0  0  0  0  0
   21.7937   18.8305   24.3730 H   0  0  0  0  0
   18.5841   22.5536   26.2419 H   0  0  0  0  0
   16.2717   22.3818   24.3231 H   0  0  0  0  0
   17.9799   24.8673   24.8296 H   0  0  0  0  0
   16.2576   25.8873   26.0305 H   0  0  0  0  0
   16.5765   24.2597   26.7723 H   0  0  0  0  0
   17.1111   24.7585   22.5415 H   0  0  0  0  0
   15.4603   24.4930   23.1543 H   0  0  0  0  0
   16.2813   26.0451   23.4510 H   0  0  0  0  0
   14.3375   24.9869   24.9246 H   0  0  0  0  0
   14.6500   23.3916   25.6517 H   0  0  0  0  0
   14.2278   24.7758   26.6894 H   0  0  0  0  0
   16.8337   21.8852   22.2989 H   0  0  0  0  0
   19.3234   22.5997   21.0841 H   0  0  0  0  0
   19.7667   20.3924   22.5863 H   0  0  0  0  0
   21.1583   19.5850   20.9192 H   0  0  0  0  0
   17.6840   19.2477   21.8291 H   0  0  0  0  0
   18.2945   19.2447   20.1563 H   0  0  0  0  0
   19.1260   18.2909   21.4093 H   0  0  0  0  0
   19.1830   20.1416   19.5300 H   0  0  0  0  0
  1  2  1  0  0  0
  2  3  1  0  0  0
  2  5  1  0  0  0
  3  4  2  0  0  0
  3 12  1  0  0  0
  5  6  1  0  0  0
  6  7  1  0  0  0
  7  8  1  0  0  0
  8  9  1  0  0  0
  9 10  1  0  0  0
  9 11  2  0  0  0
 12 13  1  0  0  0
 13 14  1  0  0  0
 13 16  1  0  0  0
 14 15  2  0  0  0
 14 19  1  0  0  0
 16 17  1  0  0  0
 16 18  1  0  0  0
 19 20  1  0  0  0
 20 21  1  0  0  0
 20 23  1  0  0  0
 21 22  2  0  0  0
 21 24  1  0  0  0
 24 25  1  0  0  0
 25 26  1  0  0  0
 25 28  1  0  0  0
 26 27  2  0  0  0
 26 30  1  0  0  0
 28 29  1  0  0  0
 30 31  1  0  0  0
 31 32  1  0  0  0
 31 34  1  0  0  0
 32 33  2  0  0  0
 32 36  1  0  0  0
 34 35  1  0  0  0
 36 37  1  0  0  0
 37 38  1  0  0  0
 37 40  1  0  0  0
 38 39  2  0  0  0
 38 43  1  0  0  0
 40 41  1  0  0  0
 40 42  1  0  0  0
 43 44  1  0  0  0
 44 45  1  0  0  0
 44 47  1  0  0  0
 45 46  2  0  0  0
 45 54  1  0  0  0
 47 48  1  0  0  0
 48 49  4  0  0  0
 48 50  4  0  0  0
 49 51  4  0  0  0
 50 52  4  0  0  0
 51 53  4  0  0  0
 52 53  4  0  0  0
 54 55  1  0  0  0
 55 56  1  0  0  0
 55 58  1  0  0  0
 56 57  2  0  0  0
 56 62  1  0  0  0
 58 59  1  0  0  0
 58 60  1  0  0  0
 59 61  1  0  0  0
 62 63  1  0  0  0
 63 64  1  0  0  0
 63 66  1  0  0  0
 64 65  2  0  0  0
 66 67  1  0  0  0
 66 68  1  0  0  0
 64 69  1  0  0  0
  1 70  1  0  0  0
  1 71  1  0  0  0
  1 72  1  0  0  0
  2 73  1  0  0  0
  5 74  1  0  0  0
  5 75  1  0  0  0
  6 76  1  0  0  0
  6 77  1  0  0  0
  7 78  1  0  0  0
  7 79  1  0  0  0
  8 80  1  0  0  0
 10 81  1  0  0  0
 10 82  1  0  0  0
 11 83  1  0  0  0
 12 84  1  0  0  0
 13 85  1  0  0  0
 16 86  1  0  0  0
 17 87  1  0  0  0
 17 88  1  0  0  0
 17 89  1  0  0  0
 18 90  1  0  0  0
 18 91  1  0  0  0
 18 92  1  0  0  0
 19 93  1  0  0  0
 20 94  1  0  0  0
 23 95  1  0  0  0
 23 96  1  0  0  0
 23 97  1  0  0  0
 24 98  1  0  0  0
 25 99  1  0  0  0
 28100  1  0  0  0
 28101  1  0  0  0
 29102  1  0  0  0
 30103  1  0  0  0
 31104  1  0  0  0
 34105  1  0  0  0
 34106  1  0  0  0
 35107  1  0  0  0
 36108  1  0  0  0
 37109  1  0  0  0
 40110  1  0  0  0
 41111  1  0  0  0
 41112  1  0  0  0
 41113  1  0  0  0
 42114  1  0  0  0
 42115  1  0  0  0
 42116  1  0  0  0
 43117  1  0  0  0
 44118  1  0  0  0
 47119  1  0  0  0
 47120  1  0  0  0
 49121  1  0  0  0
 50122  1  0  0  0
 51123  1  0  0  0
 52124  1  0  0  0
 53125  1  0  0  0
 54126  1  0  0  0
 55127  1  0  0  0
 58128  1  0  0  0
 59129  1  0  0  0
 59130  1  0  0  0
 60131  1  0  0  0
 60132  1  0  0  0
 60133  1  0  0  0
 61134  1  0  0  0
 61135  1  0  0  0
 61136  1  0  0  0
 62137  1  0  0  0
 63138  1  0  0  0
 66139  1  0  0  0
 67140  1  0  0  0
 68141  1  0  0  0
 68142  1  0  0  0
 68143  1  0  0  0
 69144  1  0  0  0
M  END
$$$$
