6ecz_ligand
  -I-interpret- 

 36 37  0  0  0  0  0  0  0  0999 V2000
   -0.9510    8.6300   13.6930 C   0  0  0  0  0
    1.1530    8.1840   12.5490 C   0  0  0  0  0
   -0.7810    6.7980   12.1400 C   0  0  0  0  0
   -4.9860    1.1610   13.8650 C   0  0  0  0  0
   -4.7250    1.7520   12.6450 C   0  0  0  0  0
   -4.6500    3.1380   12.5850 C   0  0  0  0  0
   -4.8460    3.9170   13.7360 C   0  0  0  0  0
   -5.1140    3.3090   14.9550 C   0  0  0  0  0
   -5.1830    1.9230   15.0030 C   0  0  0  0  0
   -4.3750    3.7430   11.3550 O   0  0  0  0  0
   -4.7350    5.3620   13.6280 N   0  0  0  0  0
   -3.3590    5.8010   13.4270 C   0  0  0  0  0
   -2.9520    7.1970   13.2720 N   0  0  0  0  0
   -2.5270    4.9530   13.3870 O   0  0  0  0  0
   -1.5460    7.5470   13.0470 C   0  0  0  0  0
    0.3900    8.9480   13.4490 C   0  0  0  0  0
    0.5580    7.1010   11.8950 C   0  0  0  0  0
   -1.3250    5.7270   11.4810 F   0  0  0  0  0
    1.2720    6.3280   11.0070 F   0  0  0  0  0
    2.4760    8.4890   12.3080 F   0  0  0  0  0
    0.9540   10.0170   14.1030 F   0  0  0  0  0
   -1.6700    9.3860   14.5740 F   0  0  0  0  0
   -4.5470    0.8810   11.4760 N   0  0  0  0  0
   -4.8720    1.2330   10.3960 O   0  0  0  0  0
   -4.0170   -0.4130   11.6500 O   0  0  0  0  0
   -5.5450    1.0110   16.5240 S   0  0  0  0  0
   -6.9170    1.2620   16.9390 O   0  0  0  0  0
   -4.7520    1.4500   17.6710 O   0  0  0  0  0
   -5.3390   -0.6570   16.2380 N   0  0  0  0  0
   -5.0378    0.0744   13.9330 H   0  0  0  0  0
   -5.2668    3.9061   15.8540 H   0  0  0  0  0
   -4.3541    4.6963   11.4661 H   0  0  0  0  0
   -5.5304    5.9979   13.6863 H   0  0  0  0  0
   -3.6540    7.9354   13.3209 H   0  0  0  0  0
   -6.1224   -1.2972   16.3675 H   0  0  0  0  0
   -4.4323   -1.0147   15.9374 H   0  0  0  0  0
 15  1  4  0  0  0
  1 16  4  0  0  0
  1 22  1  0  0  0
 16  2  4  0  0  0
 17  2  4  0  0  0
  2 20  1  0  0  0
 15  3  4  0  0  0
  3 17  4  0  0  0
  3 18  1  0  0  0
  5  4  4  0  0  0
  9  4  4  0  0  0
  6  5  4  0  0  0
  5 23  1  0  0  0
  7  6  4  0  0  0
  6 10  1  0  0  0
  7  8  4  0  0  0
 11  7  1  0  0  0
  8  9  4  0  0  0
  9 26  1  0  0  0
 12 11  1  0  0  0
 13 12  1  0  0  0
 12 14  2  0  0  0
 13 15  1  0  0  0
 16 21  1  0  0  0
 17 19  1  0  0  0
 23 24  2  0  0  0
 23 25  2  0  0  0
 26 27  2  0  0  0
 26 28  2  0  0  0
 26 29  1  0  0  0
  4 30  1  0  0  0
  8 31  1  0  0  0
 10 32  1  0  0  0
 11 33  1  0  0  0
 13 34  1  0  0  0
 29 35  1  0  0  0
 29 36  1  0  0  0
M  END
$$$$
