5oht_ligand
  -I-interpret- 

 27 27  0  0  0  0  0  0  0  0999 V2000
   20.0780  -93.6940   14.1270 O   0  0  0  0  0
   20.7270  -93.6260   12.8590 S   0  0  0  0  0
   21.8990  -94.3770   12.5980 O   0  0  0  0  0
   21.1160  -92.2080   12.5670 O   0  0  0  0  0
   19.5850  -94.0840   11.5690 C   0  0  0  0  0
   18.1940  -93.4230   11.5990 C   0  0  0  0  0
   18.2480  -91.9200   11.3720 C   0  0  0  0  0
   17.7370  -91.3770   10.0980 N   0  3  0  0  0
   16.3630  -91.8100    9.7980 C   0  0  0  0  0
   15.9590  -93.1440   10.4370 C   0  0  0  0  0
   15.0090  -93.8130    9.6330 O   0  0  0  0  0
   17.1540  -94.0680   10.6670 C   0  0  0  0  0
   16.6680  -95.2700   11.2690 O   0  0  0  0  0
   21.5524  -92.1665   11.7129 H   0  0  0  0  0
   19.4093  -95.1526   11.6928 H   0  0  0  0  0
   20.0467  -93.7632   10.6352 H   0  0  0  0  0
   17.8492  -93.6066   12.6166 H   0  0  0  0  0
   19.3089  -91.6699   11.3814 H   0  0  0  0  0
   17.6031  -91.4940   12.1406 H   0  0  0  0  0
   18.3407  -91.7189    9.3503 H   0  0  0  0  0
   17.7326  -90.3598   10.1734 H   0  0  0  0  0
   16.3006  -91.9433    8.7180 H   0  0  0  0  0
   15.6949  -91.0492   10.2016 H   0  0  0  0  0
   15.5254  -92.9021   11.4074 H   0  0  0  0  0
   14.7686  -94.6444   10.0484 H   0  0  0  0  0
   17.6400  -94.2676    9.7120 H   0  0  0  0  0
   17.4024  -95.8686   11.4239 H   0  0  0  0  0
  1  2  2  0  0  0
  2  3  2  0  0  0
  2  4  1  0  0  0
  2  5  1  0  0  0
  5  6  1  0  0  0
  6  7  1  0  0  0
  6 12  1  0  0  0
  7  8  1  0  0  0
  8  9  1  0  0  0
  9 10  1  0  0  0
 10 11  1  0  0  0
 10 12  1  0  0  0
 12 13  1  0  0  0
  4 14  1  0  0  0
  5 15  1  0  0  0
  5 16  1  0  0  0
  6 17  1  0  0  0
  7 18  1  0  0  0
  7 19  1  0  0  0
  8 20  1  0  0  0
  8 21  1  0  0  0
  9 22  1  0  0  0
  9 23  1  0  0  0
 10 24  1  0  0  0
 11 25  1  0  0  0
 12 26  1  0  0  0
 13 27  1  0  0  0
M  END
$$$$
