### 
### Created by X-TOOL on Wed Jan  1 15:39:38 2020
### 

@<TRIPOS>MOLECULE
6fkq_ligand
  310   315     1     0     0
SMALL
GAST_HUCK


@<TRIPOS>ATOM
      1 N         -88.7300  -21.4930  107.1710 N.4       1 MET         0.2379
      2 CA        -88.3720  -21.1910  108.5940 C.3       1 MET         0.0660
      3 C         -87.4230  -22.2700  109.1680 C.2       1 MET         0.2292
      4 O         -86.2050  -22.1020  109.0390 O.2       1 MET        -0.3905
      5 CB        -89.6290  -20.9550  109.4500 C.3       1 MET         0.0168
      6 CG        -90.2790  -19.5920  109.2850 C.3       1 MET         0.0007
      7 SD        -91.9980  -19.6180  109.8470 S.3       1 MET        -0.1638
      8 CE        -91.8580  -20.1800  111.5440 C.3       1 MET        -0.0181
      9 N         -87.9470  -23.3830  109.7670 N.am      1 PRO        -0.2471
     10 CA        -86.9650  -24.3510  110.2610 C.3       1 PRO         0.1339
     11 C         -86.3860  -25.1490  109.0970 C.2       1 PRO         0.2042
     12 O         -87.0840  -25.9590  108.4850 O.2       1 PRO        -0.3944
     13 CB        -87.7860  -25.2430  111.1910 C.3       1 PRO        -0.0104
     14 CG        -89.1490  -25.2420  110.5930 C.3       1 PRO        -0.0281
     15 CD        -89.3230  -23.9150  109.9030 C.3       1 PRO         0.0371
     16 N         -85.1190  -24.8870  108.7930 N.am      1 THR        -0.2613
     17 CA        -84.3890  -25.5590  107.7040 C.3       1 THR         0.1565
     18 C         -84.0060  -27.0060  108.1100 C.2       1 THR         0.2065
     19 O         -84.1810  -27.3880  109.2630 O.2       1 THR        -0.3943
     20 CB        -83.1790  -24.6660  107.2560 C.3       1 THR         0.0924
     21 OG1       -83.5080  -23.9960  106.0370 O.3       1 THR        -0.3874
     22 CG2       -81.8460  -25.4220  107.0600 C.3       1 THR        -0.0346
     23 N         -83.5210  -27.8080  107.1580 N.am      1 LEU        -0.2636
     24 CA        -83.0530  -29.1800  107.4400 C.3       1 LEU         0.1312
     25 C         -81.7260  -29.2290  108.1920 C.2       1 LEU         0.2040
     26 O         -80.7100  -28.6860  107.7480 O.2       1 LEU        -0.3944
     27 CB        -82.9260  -30.0300  106.1670 C.3       1 LEU        -0.0101
     28 CG        -84.2090  -30.7010  105.6650 C.3       1 LEU        -0.0425
     29 CD1       -85.1240  -29.6710  105.0530 C.3       1 LEU        -0.0625
     30 CD2       -83.9000  -31.7640  104.6350 C.3       1 LEU        -0.0625
     31 N         -81.7700  -29.9220  109.3220 N.am      1 ASP        -0.2622
     32 CA        -80.6230  -30.1850  110.1650 C.3       1 ASP         0.1423
     33 C         -79.8800  -31.4110  109.6130 C.2       1 ASP         0.2056
     34 O         -80.4260  -32.5180  109.6210 O.2       1 ASP        -0.3943
     35 CB        -81.1490  -30.4410  111.5920 C.3       1 ASP         0.0406
     36 CG        -80.0460  -30.6230  112.6360 C.2       1 ASP         0.0393
     37 OD1       -78.8360  -30.4780  112.3330 O.co2     1 ASP        -0.5688
     38 OD2       -80.4190  -30.9170  113.7900 O.co2     1 ASP        -0.5688
     39 N         -78.6480  -31.2160  109.1400 N.am      1 MET        -0.2636
     40 CA        -77.8310  -32.3240  108.6110 C.3       1 MET         0.1317
     41 C         -77.2870  -33.2740  109.6790 C.2       1 MET         0.2039
     42 O         -77.1630  -34.4780  109.4420 O.2       1 MET        -0.3944
     43 CB        -76.6940  -31.7790  107.7510 C.3       1 MET        -0.0034
     44 CG        -77.1900  -30.9850  106.5460 C.3       1 MET        -0.0024
     45 SD        -78.3810  -31.8460  105.4770 S.3       1 MET        -0.1639
     46 CE        -77.3230  -33.0070  104.6210 C.3       1 MET        -0.0181
     47 N         -76.9730  -32.7270  110.8500 N.am      1 ALA        -0.2640
     48 CA        -76.5130  -33.5120  111.9980 C.3       1 ALA         0.1282
     49 C         -77.5470  -34.5150  112.5260 C.2       1 ALA         0.2036
     50 O         -77.1730  -35.5690  113.0420 O.2       1 ALA        -0.3944
     51 CB        -76.0930  -32.5710  113.1120 C.3       1 ALA        -0.0244
     52 N         -78.8320  -34.1760  112.4060 N.am      1 LEU        -0.2637
     53 CA        -79.9260  -35.0040  112.9360 C.3       1 LEU         0.1312
     54 C         -80.0810  -36.3620  112.2430 C.2       1 LEU         0.2040
     55 O         -80.5250  -37.3280  112.8750 O.2       1 LEU        -0.3944
     56 CB        -81.2620  -34.2290  112.8960 C.3       1 LEU        -0.0101
     57 CG        -82.4950  -34.8300  113.6150 C.3       1 LEU        -0.0425
     58 CD1       -83.4020  -33.7600  114.2360 C.3       1 LEU        -0.0625
     59 CD2       -83.3130  -35.7330  112.6940 C.3       1 LEU        -0.0625
     60 N         -79.7280  -36.4410  110.9620 N.am      1 PHE        -0.2619
     61 CA        -79.8960  -37.6870  110.2050 C.3       1 PHE         0.1404
     62 C         -78.9640  -38.7840  110.7150 C.2       1 PHE         0.2060
     63 O         -77.7890  -38.5120  110.9700 O.2       1 PHE        -0.3942
     64 CB        -79.6050  -37.4840  108.7150 C.3       1 PHE         0.0214
     65 CG        -80.5960  -36.6100  107.9960 C.ar      1 PHE        -0.0386
     66 CD1       -81.9610  -36.8790  108.0320 C.ar      1 PHE        -0.0601
     67 CD2       -80.1560  -35.5350  107.2330 C.ar      1 PHE        -0.0601
     68 CE1       -82.8670  -36.0690  107.3470 C.ar      1 PHE        -0.0686
     69 CE2       -81.0550  -34.7260  106.5510 C.ar      1 PHE        -0.0686
     70 CZ        -82.4130  -34.9920  106.6080 C.ar      1 PHE        -0.0687
     71 N         -79.5020  -40.0020  110.8580 N.am      1 ASP        -0.2620
     72 CA        -78.7120  -41.2120  111.1380 C.3       1 ASP         0.1423
     73 C         -78.1950  -41.8220  109.8120 C.2       1 ASP         0.2057
     74 O         -78.9690  -42.3700  109.0270 O.2       1 ASP        -0.3943
     75 CB        -79.5550  -42.2270  111.9380 C.3       1 ASP         0.0406
     76 CG        -78.7210  -43.3830  112.5310 C.2       1 ASP         0.0393
     77 OD1       -77.4650  -43.3370  112.5410 O.co2     1 ASP        -0.5688
     78 OD2       -79.3510  -44.3570  113.0020 O.co2     1 ASP        -0.5688
     79 N         -76.8850  -41.7130  109.5780 N.am      1 TRP        -0.2626
     80 CA        -76.2530  -42.1490  108.3220 C.3       1 TRP         0.1352
     81 C         -75.5490  -43.5090  108.3860 C.2       1 TRP         0.2052
     82 O         -74.8810  -43.8820  107.4230 O.2       1 TRP        -0.3942
     83 CB        -75.2040  -41.1220  107.8670 C.3       1 TRP         0.0042
     84 CG        -75.6920  -39.7210  107.6940 C.2       1 TRP        -0.0418
     85 CD1       -75.7970  -38.7670  108.6610 C.2       1 TRP         0.0167
     86 CD2       -76.0970  -39.0990  106.4750 C.ar      1 TRP        -0.0214
     87 NE1       -76.2580  -37.5920  108.1260 N.pl3     1 TRP        -0.2890
     88 CE2       -76.4530  -37.7680  106.7840 C.ar      1 TRP         0.0603
     89 CE3       -76.2100  -39.5400  105.1510 C.ar      1 TRP        -0.0747
     90 CZ2       -76.9130  -36.8720  105.8170 C.ar      1 TRP        -0.0443
     91 CZ3       -76.6690  -38.6440  104.1850 C.ar      1 TRP        -0.0792
     92 CH2       -77.0110  -37.3260  104.5250 C.ar      1 TRP        -0.0768
     93 N         -75.6840  -44.2470  109.4900 N.am      1 THR        -0.2612
     94 CA        -74.9670  -45.5350  109.6600 C.3       1 THR         0.1565
     95 C         -75.2990  -46.5260  108.5250 C.2       1 THR         0.2066
     96 O         -74.4330  -47.2750  108.0740 O.2       1 THR        -0.3943
     97 CB        -75.2340  -46.1900  111.0400 C.3       1 THR         0.0924
     98 OG1       -76.6390  -46.2200  111.2960 O.3       1 THR        -0.3874
     99 CG2       -74.5440  -45.4250  112.1660 C.3       1 THR        -0.0346
    100 N         -76.5590  -46.5170  108.0920 N.am      1 ASP        -0.2621
    101 CA        -76.9760  -47.0770  106.7940 C.3       1 ASP         0.1423
    102 C         -77.0130  -45.9170  105.8160 C.2       1 ASP         0.2057
    103 O         -77.3850  -44.8140  106.2050 O.2       1 ASP        -0.3943
    104 CB        -78.3660  -47.6930  106.8940 C.3       1 ASP         0.0406
    105 CG        -78.4980  -48.6530  108.0610 C.2       1 ASP         0.0393
    106 OD1       -77.5790  -49.4800  108.2800 O.co2     1 ASP        -0.5688
    107 OD2       -79.5290  -48.5830  108.7580 O.co2     1 ASP        -0.5688
    108 N         -76.6610  -46.1630  104.5580 N.am      1 TYR        -0.2620
    109 CA        -76.4460  -45.0850  103.5670 C.3       1 TYR         0.1390
    110 C         -75.1930  -44.2690  103.9220 C.2       1 TYR         0.2057
    111 O         -75.2120  -43.0340  103.9300 O.2       1 TYR        -0.3942
    112 CB        -77.6630  -44.1620  103.4520 C.3       1 TYR         0.0163
    113 CG        -78.9850  -44.8680  103.5260 C.ar      1 TYR        -0.0493
    114 CD1       -79.1700  -46.0960  102.9090 C.ar      1 TYR        -0.0685
    115 CD2       -80.0600  -44.3010  104.1990 C.ar      1 TYR        -0.0685
    116 CE1       -80.3930  -46.7420  102.9550 C.ar      1 TYR        -0.0398
    117 CE2       -81.2880  -44.9360  104.2560 C.ar      1 TYR        -0.0398
    118 CZ        -81.4530  -46.1580  103.6270 C.ar      1 TYR         0.0805
    119 OH        -82.6640  -46.8150  103.6600 O.3       1 TYR        -0.3376
    120 N         -74.1040  -44.9980  104.1750 N.am      1 GLU        -0.2635
    121 CA        -72.8210  -44.4600  104.6940 C.3       1 GLU         0.1325
    122 C         -72.2250  -43.3970  103.7540 C.2       1 GLU         0.2041
    123 O         -71.6910  -42.3720  104.2000 O.2       1 GLU        -0.3944
    124 CB        -71.7900  -45.6040  104.8740 C.3       1 GLU        -0.0008
    125 CG        -72.2240  -46.7990  105.7450 C.3       1 GLU         0.0044
    126 CD        -71.7170  -48.1550  105.2400 C.2       1 GLU         0.0350
    127 OE1       -72.5460  -48.9780  104.7920 O.co2     1 GLU        -0.5690
    128 OE2       -70.4940  -48.4070  105.2950 O.co2     1 GLU        -0.5690
    129 N         -72.3510  -43.6750  102.4550 N.am      1 ASP        -0.2622
    130 CA        -71.7490  -42.8900  101.3670 C.3       1 ASP         0.1423
    131 C         -72.4020  -41.5300  101.0050 C.2       1 ASP         0.2056
    132 O         -71.7130  -40.6610  100.4770 O.2       1 ASP        -0.3943
    133 CB        -71.6430  -43.7620  100.1000 C.3       1 ASP         0.0406
    134 CG        -72.9940  -44.2970   99.6280 C.2       1 ASP         0.0393
    135 OD1       -73.9430  -44.3750  100.4470 O.co2     1 ASP        -0.5688
    136 OD2       -73.1000  -44.6500   98.4350 O.co2     1 ASP        -0.5688
    137 N         -73.7000  -41.3430  101.2570 N.am      1 LEU        -0.2636
    138 CA        -74.3830  -40.0660  100.9160 C.3       1 LEU         0.1312
    139 C         -74.0320  -38.8660  101.8090 C.2       1 LEU         0.2039
    140 O         -74.2650  -37.7280  101.3980 O.2       1 LEU        -0.3944
    141 CB        -75.9110  -40.2280  100.9200 C.3       1 LEU        -0.0101
    142 CG        -76.6270  -40.7880   99.6940 C.3       1 LEU        -0.0425
    143 CD1       -76.1640  -42.2070   99.4140 C.3       1 LEU        -0.0625
    144 CD2       -78.1370  -40.7520   99.8960 C.3       1 LEU        -0.0625
    145 N         -73.5090  -39.1180  103.0170 N.am      1 LYS        -0.2637
    146 CA        -73.1820  -38.0630  104.0070 C.3       1 LYS         0.1311
    147 C         -72.4210  -36.8860  103.3570 C.2       1 LYS         0.2058
    148 O         -71.3770  -37.1100  102.7430 O.2       1 LYS        -0.3942
    149 CB        -72.3500  -38.6530  105.1620 C.3       1 LYS        -0.0122
    150 CG        -72.2840  -37.7860  106.4250 C.3       1 LYS        -0.0440
    151 CD        -71.0400  -38.0600  107.2570 C.3       1 LYS        -0.0124
    152 CE        -70.9750  -39.5070  107.7160 C.3       1 LYS        -0.0354
    153 NZ        -69.7790  -39.7580  108.5610 N.4       1 LYS         0.2185
    154 N         -72.9390  -35.6380  103.4780 N.am      1 PRO        -0.2556
    155 CA        -72.3070  -34.5140  102.7710 C.3       1 PRO         0.0972
    156 C         -70.9900  -34.0120  103.3910 C.2       1 PRO         0.0603
    157 O         -70.2280  -34.7790  103.9780 O.co2     1 PRO        -0.5666
    158 CB        -73.3730  -33.4220  102.8750 C.3       1 PRO        -0.0159
    159 CG        -73.9730  -33.6760  104.2080 C.3       1 PRO        -0.0288
    160 CD        -74.1150  -35.1730  104.2450 C.3       1 PRO         0.0362
    161 OXT       -70.6610  -32.8290  103.3180 O.co2     1 PRO        -0.5666
    162 H1        -89.3474  -20.7773  106.8208 H         1 MET         0.2015
    163 H2        -89.1916  -22.3878  107.1233 H         1 MET         0.2015
    164 H3        -87.8919  -21.5170  106.6115 H         1 MET         0.2015
    165 H4        -87.8104  -20.2452  108.5930 H         1 MET         0.1098
    166 H5        -89.3475  -21.0717  110.5069 H         1 MET         0.0354
    167 H6        -90.3718  -21.7206  109.1817 H         1 MET         0.0354
    168 H7        -90.2526  -19.3076  108.2227 H         1 MET         0.0380
    169 H8        -89.7188  -18.8529  109.8765 H         1 MET         0.0380
    170 H9        -92.8595  -20.2354  111.9957 H         1 MET         0.0340
    171 H10       -91.2372  -19.4734  112.1143 H         1 MET         0.0340
    172 H11       -91.3916  -21.1760  111.5631 H         1 MET         0.0340
    173 H12       -86.1525  -23.8515  110.8089 H         1 PRO         0.0802
    174 H13       -87.8072  -24.8288  112.2098 H         1 PRO         0.0313
    175 H14       -87.3732  -26.2622  111.2181 H         1 PRO         0.0313
    176 H15       -89.9077  -25.3612  111.3805 H         1 PRO         0.0287
    177 H16       -89.2436  -26.0618  109.8657 H         1 PRO         0.0287
    178 H17       -89.7873  -24.0488  108.9148 H         1 PRO         0.0524
    179 H18       -89.9426  -23.2393  110.5109 H         1 PRO         0.0524
    180 H19       -84.6356  -24.1972  109.3320 H         1 THR         0.1884
    181 H20       -85.0680  -25.6390  106.8423 H         1 THR         0.0826
    182 H21       -83.0196  -23.9113  108.0403 H         1 THR         0.0639
    183 H22       -83.6941  -24.6396  105.3635 H         1 THR         0.2101
    184 H23       -81.0649  -24.7131  106.7481 H         1 THR         0.0257
    185 H24       -81.9720  -26.1928  106.2854 H         1 THR         0.0257
    186 H25       -81.5519  -25.8983  108.0069 H         1 THR         0.0257
    187 H26       -83.4731  -27.4665  106.2193 H         1 LEU         0.1883
    188 H27       -83.8140  -29.6490  108.0810 H         1 LEU         0.0800
    189 H28       -82.1896  -30.8226  106.3658 H         1 LEU         0.0315
    190 H29       -82.5538  -29.3767  105.3641 H         1 LEU         0.0315
    191 H30       -84.7179  -31.1714  106.5192 H         1 LEU         0.0298
    192 H31       -86.0415  -30.1616  104.6958 H         1 LEU         0.0232
    193 H32       -84.6153  -29.1848  104.2075 H         1 LEU         0.0232
    194 H33       -85.3830  -28.9151  105.8090 H         1 LEU         0.0232
    195 H34       -83.2323  -32.5188  105.0760 H         1 LEU         0.0232
    196 H35       -83.4076  -31.3014  103.7669 H         1 LEU         0.0232
    197 H36       -84.8352  -32.2452  104.3128 H         1 LEU         0.0232
    198 H37       -82.6549  -30.2873  109.6110 H         1 ASP         0.1884
    199 H38       -79.9464  -29.3177  110.1693 H         1 ASP         0.0819
    200 H39       -81.7644  -31.3526  111.5759 H         1 ASP         0.0478
    201 H40       -81.7707  -29.5841  111.8909 H         1 ASP         0.0478
    202 H41       -78.2672  -30.2913  109.1443 H         1 MET         0.1883
    203 H42       -78.4860  -32.9202  107.9586 H         1 MET         0.0800
    204 H43       -76.0904  -32.6247  107.3899 H         1 MET         0.0320
    205 H44       -76.0685  -31.1208  108.3719 H         1 MET         0.0320
    206 H45       -76.3163  -30.7180  105.9333 H         1 MET         0.0378
    207 H46       -77.6704  -30.0684  106.9188 H         1 MET         0.0378
    208 H47       -77.9262  -33.6082  103.9248 H         1 MET         0.0340
    209 H48       -76.8384  -33.6699  105.3528 H         1 MET         0.0340
    210 H49       -76.5540  -32.4568  104.0590 H         1 MET         0.0340
    211 H50       -77.0546  -31.7355  110.9512 H         1 ALA         0.1883
    212 H51       -75.6312  -34.0855  111.6763 H         1 ALA         0.0797
    213 H52       -75.7468  -33.1572  113.9761 H         1 ALA         0.0277
    214 H53       -76.9505  -31.9499  113.4101 H         1 ALA         0.0277
    215 H54       -75.2772  -31.9240  112.7574 H         1 ALA         0.0277
    216 H55       -79.0607  -33.3234  111.9361 H         1 LEU         0.1883
    217 H56       -79.6897  -35.2077  113.9908 H         1 LEU         0.0800
    218 H57       -81.5332  -34.1066  111.8370 H         1 LEU         0.0315
    219 H58       -81.0764  -33.2414  113.3435 H         1 LEU         0.0315
    220 H59       -82.1138  -35.4541  114.4367 H         1 LEU         0.0298
    221 H60       -84.2565  -34.2455  114.7301 H         1 LEU         0.0232
    222 H61       -83.7686  -33.0871  113.4469 H         1 LEU         0.0232
    223 H62       -82.8313  -33.1802  114.9764 H         1 LEU         0.0232
    224 H63       -82.6567  -36.4974  112.2525 H         1 LEU         0.0232
    225 H64       -83.7626  -35.1285  111.8925 H         1 LEU         0.0232
    226 H65       -84.1088  -36.2236  113.2737 H         1 LEU         0.0232
    227 H66       -79.3419  -35.6380  110.5079 H         1 PHE         0.1885
    228 H67       -80.9374  -38.0212  110.3223 H         1 PHE         0.0823
    229 H68       -79.6018  -38.4706  108.2287 H         1 PHE         0.0474
    230 H69       -78.6101  -37.0248  108.6193 H         1 PHE         0.0474
    231 H70       -82.3246  -37.7282  108.5992 H         1 PHE         0.0557
    232 H71       -79.0945  -35.3248  107.1693 H         1 PHE         0.0557
    233 H72       -83.9284  -36.2842  107.3941 H         1 PHE         0.0599
    234 H73       -80.6930  -33.8839  105.9723 H         1 PHE         0.0599
    235 H74       -83.1154  -34.3600  106.0767 H         1 PHE         0.0559
    236 H75       -80.4938  -40.0944  110.7698 H         1 ASP         0.1884
    237 H76       -77.8429  -40.9288  111.7498 H         1 ASP         0.0819
    238 H77       -80.3157  -42.6538  111.2678 H         1 ASP         0.0478
    239 H78       -80.0505  -41.6951  112.7636 H         1 ASP         0.0478
    240 H79       -76.3055  -41.3163  110.2899 H         1 TRP         0.1884
    241 H80       -77.0449  -42.2119  107.5611 H         1 TRP         0.0815
    242 H81       -74.7995  -41.4592  106.9013 H         1 TRP         0.0397
    243 H82       -74.3993  -41.1079  108.6168 H         1 TRP         0.0397
    244 H83       -75.5496  -38.9167  109.7109 H         1 TRP         0.0795
    245 H84       -76.4291  -36.7209  108.6483 H         1 TRP         0.2216
    246 H85       -75.9464  -40.5565  104.8820 H         1 TRP         0.0540
    247 H86       -77.1830  -35.8548  106.0769 H         1 TRP         0.0541
    248 H87       -76.7629  -38.9710  103.1558 H         1 TRP         0.0510
    249 H88       -77.3600  -36.6521  103.7510 H         1 TRP         0.0530
    250 H89       -76.2840  -43.9234  110.2216 H         1 THR         0.1884
    251 H90       -73.8906  -45.3153  109.6041 H         1 THR         0.0826
    252 H91       -74.8476  -47.2197  111.0215 H         1 THR         0.0639
    253 H92       -76.9785  -45.3327  111.2973 H         1 THR         0.2101
    254 H93       -74.7552  -45.9172  113.1268 H         1 THR         0.0257
    255 H94       -74.9213  -44.3921  112.1925 H         1 THR         0.0257
    256 H95       -73.4582  -45.4143  111.9904 H         1 THR         0.0257
    257 H96       -77.2586  -46.1088  108.6785 H         1 ASP         0.1884
    258 H97       -76.2566  -47.8394  106.4605 H         1 ASP         0.0819
    259 H98       -78.5765  -48.2397  105.9630 H         1 ASP         0.0478
    260 H99       -79.1012  -46.8844  107.0186 H         1 ASP         0.0478
    261 H100      -76.5367  -47.1126  104.2703 H         1 TYR         0.1885
    262 H101      -76.2837  -45.5555  102.5860 H         1 TYR         0.0821
    263 H102      -77.6068  -43.6370  102.4870 H         1 TYR         0.0453
    264 H103      -77.6179  -43.4293  104.2712 H         1 TYR         0.0453
    265 H104      -78.3429  -46.5576  102.3819 H         1 TYR         0.0530
    266 H105      -79.9343  -43.3423  104.6891 H         1 TYR         0.0530
    267 H106      -80.5204  -47.7014  102.4668 H         1 TYR         0.0525
    268 H107      -82.1144  -44.4801  104.7891 H         1 TYR         0.0525
    269 H108      -82.5932  -47.6316  103.1798 H         1 TYR         0.2458
    270 H109      -74.1561  -45.9815  104.0018 H         1 GLU         0.1883
    271 H110      -73.0119  -43.9955  105.6727 H         1 GLU         0.0801
    272 H111      -70.8877  -45.1703  105.3297 H         1 GLU         0.0330
    273 H112      -71.5455  -45.9922  103.8742 H         1 GLU         0.0330
    274 H113      -73.3233  -46.8281  105.7695 H         1 GLU         0.0433
    275 H114      -71.8385  -46.6430  106.7633 H         1 GLU         0.0433
    276 H115      -72.8945  -44.4757  102.2030 H         1 ASP         0.1884
    277 H116      -70.7258  -42.6552  101.6954 H         1 ASP         0.0819
    278 H117      -70.9842  -44.6159  100.3164 H         1 ASP         0.0478
    279 H118      -71.2049  -43.1561   99.2932 H         1 ASP         0.0478
    280 H119      -74.2252  -42.0785  101.6849 H         1 LEU         0.1883
    281 H120      -74.0718  -39.8099   99.8925 H         1 LEU         0.0800
    282 H121      -76.3347  -39.2300  101.1056 H         1 LEU         0.0315
    283 H122      -76.1567  -40.8929  101.7612 H         1 LEU         0.0315
    284 H123      -76.3759  -40.1607   98.8260 H         1 LEU         0.0298
    285 H124      -76.6885  -42.5958   98.5287 H         1 LEU         0.0232
    286 H125      -76.3883  -42.8440  100.2823 H         1 LEU         0.0232
    287 H126      -75.0798  -42.2090   99.2281 H         1 LEU         0.0232
    288 H127      -78.4554  -39.7185  100.0975 H         1 LEU         0.0232
    289 H128      -78.4083  -41.3920  100.7485 H         1 LEU         0.0232
    290 H129      -78.6373  -41.1193   98.9879 H         1 LEU         0.0232
    291 H130      -73.3293  -40.0701  103.2646 H         1 LYS         0.1883
    292 H131      -74.1256  -37.6762  104.4193 H         1 LYS         0.0800
    293 H132      -71.3228  -38.8051  104.7991 H         1 LYS         0.0312
    294 H133      -72.7891  -39.6233  105.4373 H         1 LYS         0.0312
    295 H134      -73.1721  -37.9917  107.0406 H         1 LYS         0.0269
    296 H135      -72.2821  -36.7274  106.1262 H         1 LYS         0.0269
    297 H136      -71.0522  -37.4062  108.1415 H         1 LYS         0.0317
    298 H137      -70.1498  -37.8389  106.6498 H         1 LYS         0.0317
    299 H138      -70.9315  -40.1605  106.8323 H         1 LYS         0.0813
    300 H139      -71.8789  -39.7379  108.2987 H         1 LYS         0.0813
    301 H140      -69.7668  -40.7244  108.8474 H         1 LYS         0.1994
    302 H141      -69.8135  -39.1664  109.3764 H         1 LYS         0.1994
    303 H142      -68.9453  -39.5536  108.0326 H         1 LYS         0.1994
    304 H143      -72.1195  -34.7868  101.7220 H         1 PRO         0.0728
    305 H144      -74.1232  -33.5230  102.0769 H         1 PRO         0.0306
    306 H145      -72.9205  -32.4205  102.8283 H         1 PRO         0.0306
    307 H146      -74.9532  -33.1851  104.2988 H         1 PRO         0.0286
    308 H147      -73.3103  -33.3233  105.0120 H         1 PRO         0.0286
    309 H148      -74.0859  -35.5474  105.2789 H         1 PRO         0.0524
    310 H149      -75.0517  -35.4932  103.7653 H         1 PRO         0.0524
@<TRIPOS>BOND
     1    1    2 1  
     2    2    3 1  
     3    2    5 1  
     4    3    4 2  
     5    3    9 am 
     6    5    6 1  
     7    6    7 1  
     8    7    8 1  
     9    9   10 1  
    10    9   15 1  
    11   10   11 1  
    12   10   13 1  
    13   11   12 2  
    14   11   16 am 
    15   13   14 1  
    16   14   15 1  
    17   16   17 1  
    18   17   18 1  
    19   17   20 1  
    20   18   19 2  
    21   18   23 am 
    22   20   21 1  
    23   20   22 1  
    24   23   24 1  
    25   24   25 1  
    26   24   27 1  
    27   25   26 2  
    28   25   31 am 
    29   27   28 1  
    30   28   29 1  
    31   28   30 1  
    32   31   32 1  
    33   32   33 1  
    34   32   35 1  
    35   33   34 2  
    36   33   39 am 
    37   35   36 1  
    38   36   37 ar 
    39   36   38 ar 
    40   39   40 1  
    41   40   41 1  
    42   40   43 1  
    43   41   42 2  
    44   41   47 am 
    45   43   44 1  
    46   44   45 1  
    47   45   46 1  
    48   47   48 1  
    49   48   49 1  
    50   48   51 1  
    51   49   50 2  
    52   49   52 am 
    53   52   53 1  
    54   53   54 1  
    55   53   56 1  
    56   54   55 2  
    57   54   60 am 
    58   56   57 1  
    59   57   58 1  
    60   57   59 1  
    61   60   61 1  
    62   61   62 1  
    63   61   64 1  
    64   62   63 2  
    65   62   71 am 
    66   64   65 1  
    67   65   66 ar 
    68   65   67 ar 
    69   66   68 ar 
    70   67   69 ar 
    71   68   70 ar 
    72   69   70 ar 
    73   71   72 1  
    74   72   73 1  
    75   72   75 1  
    76   73   74 2  
    77   73   79 am 
    78   75   76 1  
    79   76   77 ar 
    80   76   78 ar 
    81   79   80 1  
    82   80   81 1  
    83   80   83 1  
    84   81   82 2  
    85   81   93 am 
    86   83   84 1  
    87   84   85 2  
    88   84   86 1  
    89   85   87 1  
    90   86   88 ar 
    91   86   89 ar 
    92   87   88 1  
    93   88   90 ar 
    94   89   91 ar 
    95   90   92 ar 
    96   91   92 ar 
    97   93   94 1  
    98   94   95 1  
    99   94   97 1  
   100   95   96 2  
   101   95  100 am 
   102   97   98 1  
   103   97   99 1  
   104  100  101 1  
   105  101  102 1  
   106  101  104 1  
   107  102  103 2  
   108  102  108 am 
   109  104  105 1  
   110  105  106 ar 
   111  105  107 ar 
   112  108  109 1  
   113  109  110 1  
   114  109  112 1  
   115  110  111 2  
   116  110  120 am 
   117  112  113 1  
   118  113  114 ar 
   119  113  115 ar 
   120  114  116 ar 
   121  115  117 ar 
   122  116  118 ar 
   123  117  118 ar 
   124  118  119 1  
   125  120  121 1  
   126  121  122 1  
   127  121  124 1  
   128  122  123 2  
   129  122  129 am 
   130  124  125 1  
   131  125  126 1  
   132  126  127 ar 
   133  126  128 ar 
   134  129  130 1  
   135  130  131 1  
   136  130  133 1  
   137  131  132 2  
   138  131  137 am 
   139  133  134 1  
   140  134  135 ar 
   141  134  136 ar 
   142  137  138 1  
   143  138  139 1  
   144  138  141 1  
   145  139  140 2  
   146  139  145 am 
   147  141  142 1  
   148  142  143 1  
   149  142  144 1  
   150  145  146 1  
   151  146  147 1  
   152  146  149 1  
   153  147  148 2  
   154  147  154 am 
   155  149  150 1  
   156  150  151 1  
   157  151  152 1  
   158  152  153 1  
   159  154  155 1  
   160  154  160 1  
   161  155  156 1  
   162  155  158 1  
   163  156  157 ar 
   164  156  161 ar 
   165  158  159 1  
   166  159  160 1  
   167    1  162 1  
   168    1  163 1  
   169    1  164 1  
   170    2  165 1  
   171    5  166 1  
   172    5  167 1  
   173    6  168 1  
   174    6  169 1  
   175    8  170 1  
   176    8  171 1  
   177    8  172 1  
   178   10  173 1  
   179   13  174 1  
   180   13  175 1  
   181   14  176 1  
   182   14  177 1  
   183   15  178 1  
   184   15  179 1  
   185   16  180 1  
   186   17  181 1  
   187   20  182 1  
   188   21  183 1  
   189   22  184 1  
   190   22  185 1  
   191   22  186 1  
   192   23  187 1  
   193   24  188 1  
   194   27  189 1  
   195   27  190 1  
   196   28  191 1  
   197   29  192 1  
   198   29  193 1  
   199   29  194 1  
   200   30  195 1  
   201   30  196 1  
   202   30  197 1  
   203   31  198 1  
   204   32  199 1  
   205   35  200 1  
   206   35  201 1  
   207   39  202 1  
   208   40  203 1  
   209   43  204 1  
   210   43  205 1  
   211   44  206 1  
   212   44  207 1  
   213   46  208 1  
   214   46  209 1  
   215   46  210 1  
   216   47  211 1  
   217   48  212 1  
   218   51  213 1  
   219   51  214 1  
   220   51  215 1  
   221   52  216 1  
   222   53  217 1  
   223   56  218 1  
   224   56  219 1  
   225   57  220 1  
   226   58  221 1  
   227   58  222 1  
   228   58  223 1  
   229   59  224 1  
   230   59  225 1  
   231   59  226 1  
   232   60  227 1  
   233   61  228 1  
   234   64  229 1  
   235   64  230 1  
   236   66  231 1  
   237   67  232 1  
   238   68  233 1  
   239   69  234 1  
   240   70  235 1  
   241   71  236 1  
   242   72  237 1  
   243   75  238 1  
   244   75  239 1  
   245   79  240 1  
   246   80  241 1  
   247   83  242 1  
   248   83  243 1  
   249   85  244 1  
   250   87  245 1  
   251   89  246 1  
   252   90  247 1  
   253   91  248 1  
   254   92  249 1  
   255   93  250 1  
   256   94  251 1  
   257   97  252 1  
   258   98  253 1  
   259   99  254 1  
   260   99  255 1  
   261   99  256 1  
   262  100  257 1  
   263  101  258 1  
   264  104  259 1  
   265  104  260 1  
   266  108  261 1  
   267  109  262 1  
   268  112  263 1  
   269  112  264 1  
   270  114  265 1  
   271  115  266 1  
   272  116  267 1  
   273  117  268 1  
   274  119  269 1  
   275  120  270 1  
   276  121  271 1  
   277  124  272 1  
   278  124  273 1  
   279  125  274 1  
   280  125  275 1  
   281  129  276 1  
   282  130  277 1  
   283  133  278 1  
   284  133  279 1  
   285  137  280 1  
   286  138  281 1  
   287  141  282 1  
   288  141  283 1  
   289  142  284 1  
   290  143  285 1  
   291  143  286 1  
   292  143  287 1  
   293  144  288 1  
   294  144  289 1  
   295  144  290 1  
   296  145  291 1  
   297  146  292 1  
   298  149  293 1  
   299  149  294 1  
   300  150  295 1  
   301  150  296 1  
   302  151  297 1  
   303  151  298 1  
   304  152  299 1  
   305  152  300 1  
   306  153  301 1  
   307  153  302 1  
   308  153  303 1  
   309  155  304 1  
   310  158  305 1  
   311  158  306 1  
   312  159  307 1  
   313  159  308 1  
   314  160  309 1  
   315  160  310 1  
@<TRIPOS>SUBSTRUCTURE
     1 MET         1

