6fkq_ligand
  -I-interpret- 

315320  0  0  0  0  0  0  0  0999 V2000
  -88.7300  -21.4930  107.1710 N   0  3  0  0  0
  -88.3720  -21.1910  108.5940 C   0  0  0  0  0
  -87.4230  -22.2700  109.1680 C   0  0  0  0  0
  -86.2050  -22.1020  109.0390 O   0  0  0  0  0
  -89.6290  -20.9550  109.4500 C   0  0  0  0  0
  -90.2790  -19.5920  109.2850 C   0  0  0  0  0
  -91.9980  -19.6180  109.8470 S   0  0  0  0  0
  -91.8580  -20.1800  111.5440 C   0  0  0  0  0
  -87.9470  -23.3830  109.7670 N   0  0  0  0  0
  -86.9650  -24.3510  110.2610 C   0  0  0  0  0
  -86.3860  -25.1490  109.0970 C   0  0  0  0  0
  -87.0840  -25.9590  108.4850 O   0  0  0  0  0
  -87.7860  -25.2430  111.1910 C   0  0  0  0  0
  -89.1490  -25.2420  110.5930 C   0  0  0  0  0
  -89.3230  -23.9150  109.9030 C   0  0  0  0  0
  -85.1190  -24.8870  108.7930 N   0  0  0  0  0
  -84.3890  -25.5590  107.7040 C   0  0  0  0  0
  -84.0060  -27.0060  108.1100 C   0  0  0  0  0
  -84.1810  -27.3880  109.2630 O   0  0  0  0  0
  -83.1790  -24.6660  107.2560 C   0  0  0  0  0
  -83.5080  -23.9960  106.0370 O   0  0  0  0  0
  -81.8460  -25.4220  107.0600 C   0  0  0  0  0
  -83.5210  -27.8080  107.1580 N   0  0  0  0  0
  -83.0530  -29.1800  107.4400 C   0  0  0  0  0
  -81.7260  -29.2290  108.1920 C   0  0  0  0  0
  -80.7100  -28.6860  107.7480 O   0  0  0  0  0
  -82.9260  -30.0300  106.1670 C   0  0  0  0  0
  -84.2090  -30.7010  105.6650 C   0  0  0  0  0
  -85.1240  -29.6710  105.0530 C   0  0  0  0  0
  -83.9000  -31.7640  104.6350 C   0  0  0  0  0
  -81.7700  -29.9220  109.3220 N   0  0  0  0  0
  -80.6230  -30.1850  110.1650 C   0  0  0  0  0
  -79.8800  -31.4110  109.6130 C   0  0  0  0  0
  -80.4260  -32.5180  109.6210 O   0  0  0  0  0
  -81.1490  -30.4410  111.5920 C   0  0  0  0  0
  -80.0460  -30.6230  112.6360 C   0  0  0  0  0
  -78.8360  -30.4780  112.3330 O   0  0  0  0  0
  -80.4190  -30.9170  113.7900 O   0  0  0  0  0
  -78.6480  -31.2160  109.1400 N   0  0  0  0  0
  -77.8310  -32.3240  108.6110 C   0  0  0  0  0
  -77.2870  -33.2740  109.6790 C   0  0  0  0  0
  -77.1630  -34.4780  109.4420 O   0  0  0  0  0
  -76.6940  -31.7790  107.7510 C   0  0  0  0  0
  -77.1900  -30.9850  106.5460 C   0  0  0  0  0
  -78.3810  -31.8460  105.4770 S   0  0  0  0  0
  -77.3230  -33.0070  104.6210 C   0  0  0  0  0
  -76.9730  -32.7270  110.8500 N   0  0  0  0  0
  -76.5130  -33.5120  111.9980 C   0  0  0  0  0
  -77.5470  -34.5150  112.5260 C   0  0  0  0  0
  -77.1730  -35.5690  113.0420 O   0  0  0  0  0
  -76.0930  -32.5710  113.1120 C   0  0  0  0  0
  -78.8320  -34.1760  112.4060 N   0  0  0  0  0
  -79.9260  -35.0040  112.9360 C   0  0  0  0  0
  -80.0810  -36.3620  112.2430 C   0  0  0  0  0
  -80.5250  -37.3280  112.8750 O   0  0  0  0  0
  -81.2620  -34.2290  112.8960 C   0  0  0  0  0
  -82.4950  -34.8300  113.6150 C   0  0  0  0  0
  -83.4020  -33.7600  114.2360 C   0  0  0  0  0
  -83.3130  -35.7330  112.6940 C   0  0  0  0  0
  -79.7280  -36.4410  110.9620 N   0  0  0  0  0
  -79.8960  -37.6870  110.2050 C   0  0  0  0  0
  -78.9640  -38.7840  110.7150 C   0  0  0  0  0
  -77.7890  -38.5120  110.9700 O   0  0  0  0  0
  -79.6050  -37.4840  108.7150 C   0  0  0  0  0
  -80.5960  -36.6100  107.9960 C   0  0  0  0  0
  -81.9610  -36.8790  108.0320 C   0  0  0  0  0
  -80.1560  -35.5350  107.2330 C   0  0  0  0  0
  -82.8670  -36.0690  107.3470 C   0  0  0  0  0
  -81.0550  -34.7260  106.5510 C   0  0  0  0  0
  -82.4130  -34.9920  106.6080 C   0  0  0  0  0
  -79.5020  -40.0020  110.8580 N   0  0  0  0  0
  -78.7120  -41.2120  111.1380 C   0  0  0  0  0
  -78.1950  -41.8220  109.8120 C   0  0  0  0  0
  -78.9690  -42.3700  109.0270 O   0  0  0  0  0
  -79.5550  -42.2270  111.9380 C   0  0  0  0  0
  -78.7210  -43.3830  112.5310 C   0  0  0  0  0
  -77.4650  -43.3370  112.5410 O   0  0  0  0  0
  -79.3510  -44.3570  113.0020 O   0  0  0  0  0
  -76.8850  -41.7130  109.5780 N   0  0  0  0  0
  -76.2530  -42.1490  108.3220 C   0  0  0  0  0
  -75.5490  -43.5090  108.3860 C   0  0  0  0  0
  -74.8810  -43.8820  107.4230 O   0  0  0  0  0
  -75.2040  -41.1220  107.8670 C   0  0  0  0  0
  -75.6920  -39.7210  107.6940 C   0  0  0  0  0
  -75.7970  -38.7670  108.6610 C   0  0  0  0  0
  -76.0970  -39.0990  106.4750 C   0  0  0  0  0
  -76.2580  -37.5920  108.1260 N   0  0  0  0  0
  -76.4530  -37.7680  106.7840 C   0  0  0  0  0
  -76.2100  -39.5400  105.1510 C   0  0  0  0  0
  -76.9130  -36.8720  105.8170 C   0  0  0  0  0
  -76.6690  -38.6440  104.1850 C   0  0  0  0  0
  -77.0110  -37.3260  104.5250 C   0  0  0  0  0
  -75.6840  -44.2470  109.4900 N   0  0  0  0  0
  -74.9670  -45.5350  109.6600 C   0  0  0  0  0
  -75.2990  -46.5260  108.5250 C   0  0  0  0  0
  -74.4330  -47.2750  108.0740 O   0  0  0  0  0
  -75.2340  -46.1900  111.0400 C   0  0  0  0  0
  -76.6390  -46.2200  111.2960 O   0  0  0  0  0
  -74.5440  -45.4250  112.1660 C   0  0  0  0  0
  -76.5590  -46.5170  108.0920 N   0  0  0  0  0
  -76.9760  -47.0770  106.7940 C   0  0  0  0  0
  -77.0130  -45.9170  105.8160 C   0  0  0  0  0
  -77.3850  -44.8140  106.2050 O   0  0  0  0  0
  -78.3660  -47.6930  106.8940 C   0  0  0  0  0
  -78.4980  -48.6530  108.0610 C   0  0  0  0  0
  -77.5790  -49.4800  108.2800 O   0  0  0  0  0
  -79.5290  -48.5830  108.7580 O   0  0  0  0  0
  -76.6610  -46.1630  104.5580 N   0  0  0  0  0
  -76.4460  -45.0850  103.5670 C   0  0  0  0  0
  -75.1930  -44.2690  103.9220 C   0  0  0  0  0
  -75.2120  -43.0340  103.9300 O   0  0  0  0  0
  -77.6630  -44.1620  103.4520 C   0  0  0  0  0
  -78.9850  -44.8680  103.5260 C   0  0  0  0  0
  -79.1700  -46.0960  102.9090 C   0  0  0  0  0
  -80.0600  -44.3010  104.1990 C   0  0  0  0  0
  -80.3930  -46.7420  102.9550 C   0  0  0  0  0
  -81.2880  -44.9360  104.2560 C   0  0  0  0  0
  -81.4530  -46.1580  103.6270 C   0  0  0  0  0
  -82.6640  -46.8150  103.6600 O   0  0  0  0  0
  -74.1040  -44.9980  104.1750 N   0  0  0  0  0
  -72.8210  -44.4600  104.6940 C   0  0  0  0  0
  -72.2250  -43.3970  103.7540 C   0  0  0  0  0
  -71.6910  -42.3720  104.2000 O   0  0  0  0  0
  -71.7900  -45.6040  104.8740 C   0  0  0  0  0
  -72.2240  -46.7990  105.7450 C   0  0  0  0  0
  -71.7170  -48.1550  105.2400 C   0  0  0  0  0
  -72.5460  -48.9780  104.7920 O   0  0  0  0  0
  -70.4940  -48.4070  105.2950 O   0  0  0  0  0
  -72.3510  -43.6750  102.4550 N   0  0  0  0  0
  -71.7490  -42.8900  101.3670 C   0  0  0  0  0
  -72.4020  -41.5300  101.0050 C   0  0  0  0  0
  -71.7130  -40.6610  100.4770 O   0  0  0  0  0
  -71.6430  -43.7620  100.1000 C   0  0  0  0  0
  -72.9940  -44.2970   99.6280 C   0  0  0  0  0
  -73.9430  -44.3750  100.4470 O   0  0  0  0  0
  -73.1000  -44.6500   98.4350 O   0  0  0  0  0
  -73.7000  -41.3430  101.2570 N   0  0  0  0  0
  -74.3830  -40.0660  100.9160 C   0  0  0  0  0
  -74.0320  -38.8660  101.8090 C   0  0  0  0  0
  -74.2650  -37.7280  101.3980 O   0  0  0  0  0
  -75.9110  -40.2280  100.9200 C   0  0  0  0  0
  -76.6270  -40.7880   99.6940 C   0  0  0  0  0
  -76.1640  -42.2070   99.4140 C   0  0  0  0  0
  -78.1370  -40.7520   99.8960 C   0  0  0  0  0
  -73.5090  -39.1180  103.0170 N   0  0  0  0  0
  -73.1820  -38.0630  104.0070 C   0  0  0  0  0
  -72.4210  -36.8860  103.3570 C   0  0  0  0  0
  -71.3770  -37.1100  102.7430 O   0  0  0  0  0
  -72.3500  -38.6530  105.1620 C   0  0  0  0  0
  -72.2840  -37.7860  106.4250 C   0  0  0  0  0
  -71.0400  -38.0600  107.2570 C   0  0  0  0  0
  -70.9750  -39.5070  107.7160 C   0  0  0  0  0
  -69.7790  -39.7580  108.5610 N   0  3  0  0  0
  -72.9390  -35.6380  103.4780 N   0  0  0  0  0
  -72.3070  -34.5140  102.7710 C   0  0  0  0  0
  -70.9900  -34.0120  103.3910 C   0  0  0  0  0
  -70.2280  -34.7790  103.9780 O   0  0  0  0  0
  -73.3730  -33.4220  102.8750 C   0  0  0  0  0
  -73.9730  -33.6760  104.2080 C   0  0  0  0  0
  -74.1150  -35.1730  104.2450 C   0  0  0  0  0
  -70.6610  -32.8290  103.3180 O   0  0  0  0  0
  -87.8774  -21.6439  106.6318 H   0  0  0  0  0
  -89.3077  -22.3329  107.1379 H   0  0  0  0  0
  -89.2477  -20.7071  106.7778 H   0  0  0  0  0
  -87.8159  -20.2539  108.6225 H   0  0  0  0  0
  -89.3160  -21.0279  110.4915 H   0  0  0  0  0
  -90.3659  -21.6930  109.1331 H   0  0  0  0  0
  -90.2613  -19.3227  108.2289 H   0  0  0  0  0
  -89.7271  -18.8676  109.8840 H   0  0  0  0  0
  -91.3957  -21.1670  111.5616 H   0  0  0  0  0
  -91.2426  -19.4790  112.1079 H   0  0  0  0  0
  -92.8509  -20.2345  111.9904 H   0  0  0  0  0
  -86.1145  -23.8929  110.7659 H   0  0  0  0  0
  -87.7877  -24.8747  112.2169 H   0  0  0  0  0
  -87.3718  -26.2484  111.2665 H   0  0  0  0  0
  -89.9088  -25.3804  111.3622 H   0  0  0  0  0
  -89.2614  -26.0634  109.8854 H   0  0  0  0  0
  -89.8177  -24.0189  108.9373 H   0  0  0  0  0
  -89.9667  -23.2419  110.4693 H   0  0  0  0  0
  -84.6259  -24.1834  109.3428 H   0  0  0  0  0
  -85.0284  -25.6719  106.8285 H   0  0  0  0  0
  -83.0152  -23.9683  108.0773 H   0  0  0  0  0
  -82.7674  -23.4498  105.7634 H   0  0  0  0  0
  -81.5558  -25.8936  107.9989 H   0  0  0  0  0
  -81.9722  -26.1854  106.2923 H   0  0  0  0  0
  -81.0728  -24.7185  106.7510 H   0  0  0  0  0
  -83.4721  -27.4597  106.2006 H   0  0  0  0  0
  -83.8276  -29.5988  108.0825 H   0  0  0  0  0
  -82.2368  -30.8386  106.4105 H   0  0  0  0  0
  -82.6125  -29.3473  105.3772 H   0  0  0  0  0
  -84.6975  -31.1709  106.5186 H   0  0  0  0  0
  -85.3798  -28.9226  105.8031 H   0  0  0  0  0
  -84.6188  -29.1899  104.2155 H   0  0  0  0  0
  -86.0327  -30.1583  104.6995 H   0  0  0  0  0
  -83.3891  -31.3085  103.7867 H   0  0  0  0  0
  -83.2593  -32.5248  105.0809 H   0  0  0  0  0
  -84.8296  -32.2222  104.2975 H   0  0  0  0  0
  -82.6726  -30.2946  109.6168 H   0  0  0  0  0
  -79.9267  -29.3466  110.1826 H   0  0  0  0  0
  -81.7247  -31.3662  111.5641 H   0  0  0  0  0
  -81.7311  -29.5671  111.8845 H   0  0  0  0  0
  -78.7649  -30.2548  111.4020 H   0  0  0  0  0
  -78.2596  -30.2728  109.1443 H   0  0  0  0  0
  -78.5058  -32.9254  108.0018 H   0  0  0  0  0
  -76.1219  -32.6284  107.3778 H   0  0  0  0  0
  -76.0998  -31.1075  108.3708 H   0  0  0  0  0
  -76.3149  -30.7766  105.9304 H   0  0  0  0  0
  -77.7050  -30.1098  106.9420 H   0  0  0  0  0
  -76.5615  -32.4606  104.0645 H   0  0  0  0  0
  -76.8434  -33.6632  105.3472 H   0  0  0  0  0
  -77.9218  -33.6021  103.9315 H   0  0  0  0  0
  -77.0562  -31.7157  110.9533 H   0  0  0  0  0
  -75.6696  -34.1076  111.6487 H   0  0  0  0  0
  -75.2847  -31.9304  112.7593 H   0  0  0  0  0
  -76.9435  -31.9561  113.4065 H   0  0  0  0  0
  -75.7502  -33.1529  113.9675 H   0  0  0  0  0
  -79.0653  -33.3064  111.9267 H   0  0  0  0  0
  -79.6527  -35.2236  113.9681 H   0  0  0  0  0
  -81.5379  -34.1960  111.8420 H   0  0  0  0  0
  -81.0608  -33.2922  113.4157 H   0  0  0  0  0
  -82.0901  -35.4353  114.4261 H   0  0  0  0  0
  -82.8354  -33.1862  114.9694 H   0  0  0  0  0
  -83.7646  -33.0939  113.4531 H   0  0  0  0  0
  -84.2483  -34.2422  114.7252 H   0  0  0  0  0
  -83.6655  -35.1549  111.8398 H   0  0  0  0  0
  -82.6884  -36.5552  112.3450 H   0  0  0  0  0
  -84.1669  -36.1311  113.2422 H   0  0  0  0  0
  -79.3342  -35.6220  110.4988 H   0  0  0  0  0
  -80.9349  -37.9859  110.3447 H   0  0  0  0  0
  -79.6489  -38.4669  108.2458 H   0  0  0  0  0
  -78.6359  -36.9900  108.6448 H   0  0  0  0  0
  -82.3266  -37.7329  108.6023 H   0  0  0  0  0
  -79.0886  -35.3237  107.1690 H   0  0  0  0  0
  -83.9343  -36.2854  107.3944 H   0  0  0  0  0
  -80.6910  -33.8792  105.9691 H   0  0  0  0  0
  -83.1193  -34.3565  106.0738 H   0  0  0  0  0
  -80.5136  -40.0963  110.7680 H   0  0  0  0  0
  -77.8478  -40.9470  111.7472 H   0  0  0  0  0
  -80.2817  -42.6635  111.2528 H   0  0  0  0  0
  -80.0127  -41.6913  112.7697 H   0  0  0  0  0
  -77.1728  -42.5162  112.1378 H   0  0  0  0  0
  -76.2940  -41.3083  110.3042 H   0  0  0  0  0
  -77.0845  -42.2390  107.6230 H   0  0  0  0  0
  -74.8599  -41.4498  106.8861 H   0  0  0  0  0
  -74.4480  -41.0883  108.6515 H   0  0  0  0  0
  -75.5494  -38.9169  109.7119 H   0  0  0  0  0
  -75.9449  -40.5621  104.8805 H   0  0  0  0  0
  -77.1845  -35.8492  106.0783 H   0  0  0  0  0
  -76.7634  -38.9728  103.1501 H   0  0  0  0  0
  -77.3619  -36.6483  103.7467 H   0  0  0  0  0
  -76.2960  -43.9170  110.2363 H   0  0  0  0  0
  -73.9049  -45.2950  109.6115 H   0  0  0  0  0
  -74.8310  -47.2023  111.0096 H   0  0  0  0  0
  -76.7987  -46.6262  112.1510 H   0  0  0  0  0
  -73.4682  -45.4151  111.9908 H   0  0  0  0  0
  -74.9187  -44.4017  112.1912 H   0  0  0  0  0
  -74.7540  -45.9137  113.1174 H   0  0  0  0  0
  -77.2725  -46.1007  108.6903 H   0  0  0  0  0
  -76.2859  -47.8582  106.4753 H   0  0  0  0  0
  -78.5507  -48.2530  105.9773 H   0  0  0  0  0
  -79.0808  -46.8838  107.0437 H   0  0  0  0  0
  -76.8831  -49.3631  107.6291 H   0  0  0  0  0
  -76.5342  -47.1316  104.2645 H   0  0  0  0  0
  -76.2998  -45.5609  102.5973 H   0  0  0  0  0
  -77.6102  -43.6831  102.4743 H   0  0  0  0  0
  -77.6215  -43.4712  104.2942 H   0  0  0  0  0
  -78.3383  -46.5602  102.3790 H   0  0  0  0  0
  -79.9336  -43.3370  104.6918 H   0  0  0  0  0
  -80.5211  -47.7067  102.4641 H   0  0  0  0  0
  -82.1190  -44.4776  104.7920 H   0  0  0  0  0
  -83.2969  -46.2923  104.1578 H   0  0  0  0  0
  -74.1571  -46.0012  103.9984 H   0  0  0  0  0
  -73.0353  -43.9936  105.6556 H   0  0  0  0  0
  -70.9342  -45.1588  105.3814 H   0  0  0  0  0
  -71.6141  -46.0082  103.8771 H   0  0  0  0  0
  -73.3133  -46.8338  105.7268 H   0  0  0  0  0
  -71.8021  -46.6454  106.7382 H   0  0  0  0  0
  -73.4268  -48.5985  104.8342 H   0  0  0  0  0
  -72.9054  -44.4917  102.1979 H   0  0  0  0  0
  -70.7768  -42.6055  101.7695 H   0  0  0  0  0
  -71.0119  -44.6182  100.3383 H   0  0  0  0  0
  -71.2353  -43.1406   99.3027 H   0  0  0  0  0
  -73.6520  -44.0541  101.3037 H   0  0  0  0  0
  -74.2357  -42.0932  101.6935 H   0  0  0  0  0
  -74.0063  -39.8417   99.9181 H   0  0  0  0  0
  -76.2909  -39.2107  101.0143 H   0  0  0  0  0
  -76.1036  -40.9603  101.7041 H   0  0  0  0  0
  -76.3788  -40.1658   98.8342 H   0  0  0  0  0
  -75.0896  -42.2076   99.2300 H   0  0  0  0  0
  -76.3868  -42.8371  100.2751 H   0  0  0  0  0
  -76.6844  -42.5912   98.5367 H   0  0  0  0  0
  -78.4003  -41.3532  100.7663 H   0  0  0  0  0
  -78.4567  -39.7220  100.0541 H   0  0  0  0  0
  -78.6303  -41.1552   99.0116 H   0  0  0  0  0
  -73.3257  -40.0891  103.2695 H   0  0  0  0  0
  -74.1231  -37.6778  104.3994 H   0  0  0  0  0
  -71.3284  -38.7509  104.7948 H   0  0  0  0  0
  -72.8300  -39.5888  105.4484 H   0  0  0  0  0
  -73.1554  -38.0178  107.0374 H   0  0  0  0  0
  -72.2569  -36.7416  106.1143 H   0  0  0  0  0
  -71.0712  -37.4217  108.1400 H   0  0  0  0  0
  -70.1642  -37.8566  106.6408 H   0  0  0  0  0
  -70.9151  -40.1460  106.8350 H   0  0  0  0  0
  -71.8657  -39.7219  108.3064 H   0  0  0  0  0
  -69.7677  -40.7361  108.8502 H   0  0  0  0  0
  -68.9361  -39.5508  108.0252 H   0  0  0  0  0
  -69.8150  -39.1588  109.3857 H   0  0  0  0  0
  -72.0190  -34.8065  101.7613 H   0  0  0  0  0
  -70.5960  -35.6656  103.9655 H   0  0  0  0  0
  -74.1026  -33.4623  102.0662 H   0  0  0  0  0
  -72.9623  -32.4170  102.7786 H   0  0  0  0  0
  -74.9239  -33.1611  104.3448 H   0  0  0  0  0
  -73.3599  -33.2927  105.0237 H   0  0  0  0  0
  -74.1411  -35.5698  105.2599 H   0  0  0  0  0
  -75.0584  -35.5183  103.8222 H   0  0  0  0  0
  1  2  1  0  0  0
  2  3  1  0  0  0
  2  5  1  0  0  0
  3  4  2  0  0  0
  3  9  1  0  0  0
  5  6  1  0  0  0
  6  7  1  0  0  0
  7  8  1  0  0  0
  9 10  1  0  0  0
  9 15  1  0  0  0
 10 11  1  0  0  0
 10 13  1  0  0  0
 11 12  2  0  0  0
 11 16  1  0  0  0
 13 14  1  0  0  0
 14 15  1  0  0  0
 16 17  1  0  0  0
 17 18  1  0  0  0
 17 20  1  0  0  0
 18 19  2  0  0  0
 18 23  1  0  0  0
 20 21  1  0  0  0
 20 22  1  0  0  0
 23 24  1  0  0  0
 24 25  1  0  0  0
 24 27  1  0  0  0
 25 26  2  0  0  0
 25 31  1  0  0  0
 27 28  1  0  0  0
 28 29  1  0  0  0
 28 30  1  0  0  0
 31 32  1  0  0  0
 32 33  1  0  0  0
 32 35  1  0  0  0
 33 34  2  0  0  0
 33 39  1  0  0  0
 35 36  1  0  0  0
 36 37  1  0  0  0
 36 38  2  0  0  0
 39 40  1  0  0  0
 40 41  1  0  0  0
 40 43  1  0  0  0
 41 42  2  0  0  0
 41 47  1  0  0  0
 43 44  1  0  0  0
 44 45  1  0  0  0
 45 46  1  0  0  0
 47 48  1  0  0  0
 48 49  1  0  0  0
 48 51  1  0  0  0
 49 50  2  0  0  0
 49 52  1  0  0  0
 52 53  1  0  0  0
 53 54  1  0  0  0
 53 56  1  0  0  0
 54 55  2  0  0  0
 54 60  1  0  0  0
 56 57  1  0  0  0
 57 58  1  0  0  0
 57 59  1  0  0  0
 60 61  1  0  0  0
 61 62  1  0  0  0
 61 64  1  0  0  0
 62 63  2  0  0  0
 62 71  1  0  0  0
 64 65  1  0  0  0
 65 66  4  0  0  0
 65 67  4  0  0  0
 66 68  4  0  0  0
 67 69  4  0  0  0
 68 70  4  0  0  0
 69 70  4  0  0  0
 71 72  1  0  0  0
 72 73  1  0  0  0
 72 75  1  0  0  0
 73 74  2  0  0  0
 73 79  1  0  0  0
 75 76  1  0  0  0
 76 77  1  0  0  0
 76 78  2  0  0  0
 79 80  1  0  0  0
 80 81  1  0  0  0
 80 83  1  0  0  0
 81 82  2  0  0  0
 81 93  1  0  0  0
 83 84  1  0  0  0
 84 85  4  0  0  0
 84 86  4  0  0  0
 85 87  4  0  0  0
 86 88  4  0  0  0
 86 89  4  0  0  0
 87 88  4  0  0  0
 88 90  4  0  0  0
 89 91  4  0  0  0
 90 92  4  0  0  0
 91 92  4  0  0  0
 93 94  1  0  0  0
 94 95  1  0  0  0
 94 97  1  0  0  0
 95 96  2  0  0  0
 95100  1  0  0  0
 97 98  1  0  0  0
 97 99  1  0  0  0
100101  1  0  0  0
101102  1  0  0  0
101104  1  0  0  0
102103  2  0  0  0
102108  1  0  0  0
104105  1  0  0  0
105106  1  0  0  0
105107  2  0  0  0
108109  1  0  0  0
109110  1  0  0  0
109112  1  0  0  0
110111  2  0  0  0
110120  1  0  0  0
112113  1  0  0  0
113114  4  0  0  0
113115  4  0  0  0
114116  4  0  0  0
115117  4  0  0  0
116118  4  0  0  0
117118  4  0  0  0
118119  1  0  0  0
120121  1  0  0  0
121122  1  0  0  0
121124  1  0  0  0
122123  2  0  0  0
122129  1  0  0  0
124125  1  0  0  0
125126  1  0  0  0
126127  1  0  0  0
126128  2  0  0  0
129130  1  0  0  0
130131  1  0  0  0
130133  1  0  0  0
131132  2  0  0  0
131137  1  0  0  0
133134  1  0  0  0
134135  1  0  0  0
134136  2  0  0  0
137138  1  0  0  0
138139  1  0  0  0
138141  1  0  0  0
139140  2  0  0  0
139145  1  0  0  0
141142  1  0  0  0
142143  1  0  0  0
142144  1  0  0  0
145146  1  0  0  0
146147  1  0  0  0
146149  1  0  0  0
147148  2  0  0  0
147154  1  0  0  0
149150  1  0  0  0
150151  1  0  0  0
151152  1  0  0  0
152153  1  0  0  0
154155  1  0  0  0
154160  1  0  0  0
155156  1  0  0  0
155158  1  0  0  0
156157  1  0  0  0
156161  2  0  0  0
158159  1  0  0  0
159160  1  0  0  0
  1162  1  0  0  0
  1163  1  0  0  0
  1164  1  0  0  0
  2165  1  0  0  0
  5166  1  0  0  0
  5167  1  0  0  0
  6168  1  0  0  0
  6169  1  0  0  0
  8170  1  0  0  0
  8171  1  0  0  0
  8172  1  0  0  0
 10173  1  0  0  0
 13174  1  0  0  0
 13175  1  0  0  0
 14176  1  0  0  0
 14177  1  0  0  0
 15178  1  0  0  0
 15179  1  0  0  0
 16180  1  0  0  0
 17181  1  0  0  0
 20182  1  0  0  0
 21183  1  0  0  0
 22184  1  0  0  0
 22185  1  0  0  0
 22186  1  0  0  0
 23187  1  0  0  0
 24188  1  0  0  0
 27189  1  0  0  0
 27190  1  0  0  0
 28191  1  0  0  0
 29192  1  0  0  0
 29193  1  0  0  0
 29194  1  0  0  0
 30195  1  0  0  0
 30196  1  0  0  0
 30197  1  0  0  0
 31198  1  0  0  0
 32199  1  0  0  0
 35200  1  0  0  0
 35201  1  0  0  0
 37202  1  0  0  0
 39203  1  0  0  0
 40204  1  0  0  0
 43205  1  0  0  0
 43206  1  0  0  0
 44207  1  0  0  0
 44208  1  0  0  0
 46209  1  0  0  0
 46210  1  0  0  0
 46211  1  0  0  0
 47212  1  0  0  0
 48213  1  0  0  0
 51214  1  0  0  0
 51215  1  0  0  0
 51216  1  0  0  0
 52217  1  0  0  0
 53218  1  0  0  0
 56219  1  0  0  0
 56220  1  0  0  0
 57221  1  0  0  0
 58222  1  0  0  0
 58223  1  0  0  0
 58224  1  0  0  0
 59225  1  0  0  0
 59226  1  0  0  0
 59227  1  0  0  0
 60228  1  0  0  0
 61229  1  0  0  0
 64230  1  0  0  0
 64231  1  0  0  0
 66232  1  0  0  0
 67233  1  0  0  0
 68234  1  0  0  0
 69235  1  0  0  0
 70236  1  0  0  0
 71237  1  0  0  0
 72238  1  0  0  0
 75239  1  0  0  0
 75240  1  0  0  0
 77241  1  0  0  0
 79242  1  0  0  0
 80243  1  0  0  0
 83244  1  0  0  0
 83245  1  0  0  0
 85246  1  0  0  0
 89247  1  0  0  0
 90248  1  0  0  0
 91249  1  0  0  0
 92250  1  0  0  0
 93251  1  0  0  0
 94252  1  0  0  0
 97253  1  0  0  0
 98254  1  0  0  0
 99255  1  0  0  0
 99256  1  0  0  0
 99257  1  0  0  0
100258  1  0  0  0
101259  1  0  0  0
104260  1  0  0  0
104261  1  0  0  0
106262  1  0  0  0
108263  1  0  0  0
109264  1  0  0  0
112265  1  0  0  0
112266  1  0  0  0
114267  1  0  0  0
115268  1  0  0  0
116269  1  0  0  0
117270  1  0  0  0
119271  1  0  0  0
120272  1  0  0  0
121273  1  0  0  0
124274  1  0  0  0
124275  1  0  0  0
125276  1  0  0  0
125277  1  0  0  0
127278  1  0  0  0
129279  1  0  0  0
130280  1  0  0  0
133281  1  0  0  0
133282  1  0  0  0
135283  1  0  0  0
137284  1  0  0  0
138285  1  0  0  0
141286  1  0  0  0
141287  1  0  0  0
142288  1  0  0  0
143289  1  0  0  0
143290  1  0  0  0
143291  1  0  0  0
144292  1  0  0  0
144293  1  0  0  0
144294  1  0  0  0
145295  1  0  0  0
146296  1  0  0  0
149297  1  0  0  0
149298  1  0  0  0
150299  1  0  0  0
150300  1  0  0  0
151301  1  0  0  0
151302  1  0  0  0
152303  1  0  0  0
152304  1  0  0  0
153305  1  0  0  0
153306  1  0  0  0
153307  1  0  0  0
155308  1  0  0  0
157309  1  0  0  0
158310  1  0  0  0
158311  1  0  0  0
159312  1  0  0  0
159313  1  0  0  0
160314  1  0  0  0
160315  1  0  0  0
M  END
$$$$
