4d1s_ligand
  -I-interpret- 

 68 72  0  0  0  0  0  0  0  0999 V2000
    1.9860   -1.6590    5.4110 C   0  0  0  0  0
    1.4030   -0.1800    5.2020 C   0  0  0  0  0
    1.5260    0.2570    3.7910 N   0  3  0  0  0
    1.2470    1.7460    3.8280 C   0  0  0  0  0
    2.9270    0.2580    3.3660 C   0  0  0  0  0
    3.4550   -1.1630    3.2900 C   0  0  0  0  0
    3.1300   -1.9350    4.4700 N   0  0  0  0  0
    3.9230   -3.0670    4.6970 C   0  0  0  0  0
    5.2870   -2.9670    4.4870 C   0  0  0  0  0
    6.0720   -4.0920    4.7390 C   0  0  0  0  0
    3.3080   -4.2480    5.1450 C   0  0  0  0  0
    4.1250   -5.3720    5.3530 C   0  0  0  0  0
    5.5070   -5.2800    5.2070 C   0  0  0  0  0
    6.1730   -6.4400    5.4840 N   0  0  0  0  0
    7.5330   -6.7190    5.3830 C   0  0  0  0  0
    8.4470   -5.8000    4.9950 N   0  0  0  0  0
    7.8960   -7.9760    5.7420 N   0  0  0  0  0
    9.2280   -8.3880    5.7390 C   0  0  0  0  0
   10.1560   -7.4340    5.2850 C   0  0  0  0  0
    9.7850   -6.1180    4.9330 C   0  0  0  0  0
   10.6970   -5.0990    4.6010 C   0  0  0  0  0
   10.3940   -3.8430    4.1220 N   0  0  0  0  0
    9.1000   -3.4750    3.6140 C   0  0  0  0  0
   12.0240   -5.0640    4.8890 C   0  0  0  0  0
   12.5010   -3.7940    4.5350 C   0  0  0  0  0
   13.8140   -3.3930    4.6360 C   0  0  0  0  0
   14.7520   -4.1860    4.4610 O   0  0  0  0  0
   14.0260   -2.0550    4.9400 N   0  0  0  0  0
   11.5080   -3.0550    4.0560 C   0  0  0  0  0
   11.4860   -1.7430    3.5300 C   0  0  0  0  0
   12.1730   -1.4000    2.3490 C   0  0  0  0  0
   12.0560   -0.0840    1.8030 C   0  0  0  0  0
   12.9950    0.1610    0.3970 Cl  0  0  0  0  0
   11.2720    0.9620    2.3650 C   0  0  0  0  0
   10.5800    0.6310    3.5520 C   0  0  0  0  0
   10.6600   -0.6850    4.0970 C   0  0  0  0  0
    9.8990   -0.9070    5.3050 C   0  0  0  0  0
    1.1908   -2.3769    5.2101 H   0  0  0  0  0
    2.3500   -1.7469    6.4347 H   0  0  0  0  0
    1.9723    0.5075    5.8276 H   0  0  0  0  0
    0.3470   -0.1834    5.4719 H   0  0  0  0  0
    0.9356   -0.3322    3.2039 H   0  0  0  0  0
    1.9214    2.2232    4.5390 H   0  0  0  0  0
    1.4048    2.1687    2.8358 H   0  0  0  0  0
    0.2148    1.9134    4.1357 H   0  0  0  0  0
    3.5181    0.8192    4.0897 H   0  0  0  0  0
    2.9997    0.7180    2.3805 H   0  0  0  0  0
    4.5407   -1.1157    3.2059 H   0  0  0  0  0
    2.9933   -1.6492    2.4307 H   0  0  0  0  0
    5.7344   -2.0373    4.1353 H   0  0  0  0  0
    7.1473   -4.0428    4.5673 H   0  0  0  0  0
    2.2338   -4.2909    5.3251 H   0  0  0  0  0
    3.6733   -6.3242    5.6310 H   0  0  0  0  0
    5.5912   -7.2112    5.8113 H   0  0  0  0  0
    9.5298   -9.3828    6.0666 H   0  0  0  0  0
   11.2039   -7.7221    5.2015 H   0  0  0  0  0
    8.8514   -4.1091    2.7629 H   0  0  0  0  0
    8.3530   -3.6062    4.3969 H   0  0  0  0  0
    9.1182   -2.4318    3.2985 H   0  0  0  0  0
   12.6115   -5.8760    5.3176 H   0  0  0  0  0
   14.9769   -1.6960    5.0259 H   0  0  0  0  0
   13.2309   -1.4310    5.0774 H   0  0  0  0  0
   12.7966   -2.1413    1.8493 H   0  0  0  0  0
   11.2094    1.9510    1.9111 H   0  0  0  0  0
    9.9795    1.3884    4.0558 H   0  0  0  0  0
    9.1947   -1.7233    5.1444 H   0  0  0  0  0
   10.5775   -1.1655    6.1180 H   0  0  0  0  0
    9.3527    0.0009    5.5607 H   0  0  0  0  0
  1  2  1  0  0  0
  1  7  1  0  0  0
  2  3  1  0  0  0
  3  4  1  0  0  0
  3  5  1  0  0  0
  5  6  1  0  0  0
  6  7  1  0  0  0
  7  8  1  0  0  0
  8  9  4  0  0  0
  8 11  4  0  0  0
  9 10  4  0  0  0
 10 13  4  0  0  0
 11 12  4  0  0  0
 12 13  4  0  0  0
 13 14  1  0  0  0
 14 15  1  0  0  0
 15 16  4  0  0  0
 15 17  4  0  0  0
 16 20  4  0  0  0
 17 18  4  0  0  0
 18 19  4  0  0  0
 19 20  4  0  0  0
 20 21  1  0  0  0
 21 22  4  0  0  0
 21 24  4  0  0  0
 22 23  1  0  0  0
 22 29  4  0  0  0
 24 25  4  0  0  0
 25 26  1  0  0  0
 25 29  4  0  0  0
 26 27  2  0  0  0
 26 28  1  0  0  0
 29 30  1  0  0  0
 30 31  4  0  0  0
 30 36  4  0  0  0
 31 32  4  0  0  0
 32 33  1  0  0  0
 32 34  4  0  0  0
 34 35  4  0  0  0
 35 36  4  0  0  0
 36 37  1  0  0  0
  1 38  1  0  0  0
  1 39  1  0  0  0
  2 40  1  0  0  0
  2 41  1  0  0  0
  3 42  1  0  0  0
  4 43  1  0  0  0
  4 44  1  0  0  0
  4 45  1  0  0  0
  5 46  1  0  0  0
  5 47  1  0  0  0
  6 48  1  0  0  0
  6 49  1  0  0  0
  9 50  1  0  0  0
 10 51  1  0  0  0
 11 52  1  0  0  0
 12 53  1  0  0  0
 14 54  1  0  0  0
 18 55  1  0  0  0
 19 56  1  0  0  0
 23 57  1  0  0  0
 23 58  1  0  0  0
 23 59  1  0  0  0
 24 60  1  0  0  0
 28 61  1  0  0  0
 28 62  1  0  0  0
 31 63  1  0  0  0
 34 64  1  0  0  0
 35 65  1  0  0  0
 37 66  1  0  0  0
 37 67  1  0  0  0
 37 68  1  0  0  0
M  END
$$$$
