1kat_ligand
  -I-interpret- 

306311  0  0  0  0  0  0  0  0999 V2000
  -16.2950  -32.3660   15.7520 N   0  3  0  0  0
  -16.6790  -33.7040   16.2800 C   0  0  0  0  0
  -17.1120  -34.6720   15.1900 C   0  0  0  0  0
  -17.0330  -35.8880   15.3760 O   0  0  0  0  0
  -17.5760  -34.1380   14.0560 N   0  0  0  0  0
  -18.0190  -34.9820   12.9560 C   0  0  0  0  0
  -17.5300  -34.4890   11.6060 C   0  0  0  0  0
  -16.4740  -34.9070   11.1290 O   0  0  0  0  0
  -18.3050  -33.6040   10.9840 N   0  0  0  0  0
  -17.9500  -33.0590    9.6780 C   0  0  0  0  0
  -18.6460  -31.7120    9.4490 C   0  0  0  0  0
  -19.2480  -31.4690    8.3990 O   0  0  0  0  0
  -18.3280  -34.0590    8.5800 C   0  0  0  0  0
  -17.3600  -34.0340    7.4130 C   0  0  0  0  0
  -16.1440  -34.0950    7.6000 O   0  0  0  0  0
  -17.8930  -33.9430    6.1980 N   0  0  0  0  0
  -18.5610  -30.8370   10.4480 N   0  0  0  0  0
  -19.1820  -29.5180   10.3730 C   0  0  0  0  0
  -18.1470  -28.4440   10.0030 C   0  0  0  0  0
  -18.1650  -27.3320   10.5340 O   0  0  0  0  0
  -19.8690  -29.1980   11.7160 C   0  0  0  0  0
  -21.3940  -29.3000   11.6580 C   0  0  0  0  0
  -22.0940  -27.9680   11.8740 C   0  0  0  0  0
  -21.9720  -27.4060   12.9810 O   0  0  0  0  0
  -22.7650  -27.4910   10.9340 O   0  0  0  0  0
  -17.2500  -28.7850    9.0760 N   0  0  0  0  0
  -16.2160  -27.8500    8.6300 C   0  0  0  0  0
  -16.7210  -26.9890    7.4740 C   0  0  0  0  0
  -16.6170  -27.3760    6.3090 O   0  0  0  0  0
  -14.9580  -28.6080    8.1980 C   0  0  0  0  0
  -14.0320  -29.3760    9.5710 S   0  0  0  0  0
  -17.2600  -25.8170    7.8000 N   0  0  0  0  0
  -17.7710  -24.8990    6.7870 C   0  0  0  0  0
  -16.6180  -24.1860    6.0800 C   0  0  0  0  0
  -15.6720  -23.7310    6.7230 O   0  0  0  0  0
  -18.7170  -23.8820    7.4310 C   0  0  0  0  0
  -20.1700  -24.3150    7.3600 C   0  0  0  0  0
  -20.5210  -25.0670    6.4260 O   0  0  0  0  0
  -20.9580  -23.9040    8.2360 O   0  0  0  0  0
  -16.6970  -24.1100    4.7550 N   0  0  0  0  0
  -15.6520  -23.4740    3.9600 C   0  0  0  0  0
  -15.4970  -21.9880    4.3070 C   0  0  0  0  0
  -14.3830  -21.4660    4.3330 O   0  0  0  0  0
  -15.9270  -23.6460    2.4410 C   0  0  0  0  0
  -14.7330  -23.1540    1.6200 C   0  0  0  0  0
  -17.2030  -22.9230    2.0160 C   0  0  0  0  0
  -14.6490  -23.7810    0.2460 C   0  0  0  0  0
  -16.6150  -21.3130    4.5610 N   0  0  0  0  0
  -16.5920  -19.8880    4.8910 C   0  0  0  0  0
  -16.6600  -19.6520    6.3990 C   0  0  0  0  0
  -17.2330  -18.6620    6.8540 O   0  0  0  0  0
  -17.7320  -19.1680    4.1820 C   0  0  0  0  0
  -16.0670  -20.5610    7.1670 N   0  0  0  0  0
  -16.0470  -20.4450    8.6260 C   0  0  0  0  0
  -14.6450  -20.7220    9.1590 C   0  0  0  0  0
  -13.8190  -21.3150    8.4660 O   0  0  0  0  0
  -17.0550  -21.4120    9.2560 C   0  0  0  0  0
  -18.4840  -20.8700    9.2680 C   0  0  0  0  0
  -19.1820  -21.0880   10.6080 C   0  0  0  0  0
  -19.3670  -22.5090   10.9070 N   0  0  0  0  0
  -19.5800  -23.0080   12.1330 C   0  0  0  0  0
  -19.6700  -22.2100   13.1940 N   0  0  0  0  0
  -19.7150  -24.3180   12.2900 N   0  0  0  0  0
  -14.3730  -20.2760   10.3870 N   0  0  0  0  0
  -13.0590  -20.4650   11.0130 C   0  0  0  0  0
  -12.6350  -21.9360   11.0330 C   0  0  0  0  0
  -13.0220  -22.6980   11.9210 O   0  0  0  0  0
  -13.0740  -19.9120   12.4380 C   0  0  0  0  0
  -11.6970  -19.5300   12.9550 C   0  0  0  0  0
  -11.7630  -18.2750   14.2470 S   0  0  0  0  0
  -11.0840  -16.8620   13.3810 C   0  0  0  0  0
  -11.8330  -22.3230   10.0430 N   0  0  0  0  0
  -11.3530  -23.6980    9.9280 C   0  0  0  0  0
  -10.3850  -24.0360   11.0640 C   0  0  0  0  0
   -9.1840  -23.8080   10.9510 O   0  0  0  0  0
  -10.6540  -23.8980    8.5730 C   0  0  0  0  0
  -11.5770  -24.2840    7.4450 C   0  0  0  0  0
  -12.8980  -24.6450    7.5260 C   0  0  0  0  0
  -11.2310  -24.3540    6.0570 C   0  0  0  0  0
  -13.3860  -24.9310    6.2730 N   0  0  0  0  0
  -12.3820  -24.7590    5.3560 C   0  0  0  0  0
  -10.0580  -24.1100    5.3390 C   0  0  0  0  0
  -12.3910  -24.9250    3.9730 C   0  0  0  0  0
  -10.0670  -24.2760    3.9670 C   0  0  0  0  0
  -11.2280  -24.6810    3.2960 C   0  0  0  0  0
  -10.9150  -24.5960   12.1520 N   0  0  0  0  0
  -10.0900  -24.9740   13.3030 C   0  0  0  0  0
   -9.0240  -26.0050   12.8990 C   0  0  0  0  0
   -8.8470  -26.2900   11.7150 O   0  0  0  0  0
  -10.9770  -25.5300   14.4210 C   0  0  0  0  0
  -11.7430  -26.7780   14.0190 C   0  0  0  0  0
  -12.8680  -27.1050   14.9810 C   0  0  0  0  0
  -12.5830  -27.3030   16.1810 O   0  0  0  0  0
  -14.0320  -27.1630   14.5340 O   0  0  0  0  0
   -8.3020  -26.5460   13.8830 N   0  0  0  0  0
   -7.2380  -27.5230   13.6230 C   0  0  0  0  0
   -7.7450  -28.7460   12.8440 C   0  0  0  0  0
   -7.2030  -29.0850   11.7910 O   0  0  0  0  0
   -6.6090  -27.9730   14.9460 C   0  0  0  0  0
   -5.4740  -27.1020   15.3850 C   0  0  0  0  0
   -5.3020  -26.5340   16.6160 C   0  0  0  0  0
   -4.3480  -26.7010   14.5980 C   0  0  0  0  0
   -4.1390  -25.8030   16.6400 N   0  0  0  0  0
   -3.5360  -25.8900   15.4120 C   0  0  0  0  0
   -3.9480  -26.9490   13.2810 C   0  0  0  0  0
   -2.3490  -25.3260   14.9520 C   0  0  0  0  0
   -2.7690  -26.3870   12.8260 C   0  0  0  0  0
   -1.9810  -25.5850   13.6590 C   0  0  0  0  0
   -8.7700  -29.4160   13.3780 N   0  0  0  0  0
   -9.3360  -30.6230   12.7510 C   0  0  0  0  0
   -9.6790  -30.4140   11.2710 C   0  0  0  0  0
   -9.4430  -31.2960   10.4420 O   0  0  0  0  0
  -10.5880  -31.0660   13.5100 C   0  0  0  0  0
  -10.2800  -31.7970   14.8060 C   0  0  0  0  0
  -10.0850  -30.8510   15.9730 C   0  0  0  0  0
   -8.9610  -30.3330   16.1370 O   0  0  0  0  0
  -11.0570  -30.6280   16.7250 O   0  0  0  0  0
  -10.2410  -29.2530   10.9440 N   0  0  0  0  0
  -10.6100  -28.9460    9.5640 C   0  0  0  0  0
   -9.3610  -28.7490    8.7070 C   0  0  0  0  0
   -9.3490  -29.0990    7.5270 O   0  0  0  0  0
  -11.4900  -27.6940    9.5050 C   0  0  0  0  0
  -13.0490  -27.8240   10.4410 S   0  0  0  0  0
   -8.3070  -28.1920    9.3070 N   0  0  0  0  0
   -7.0530  -27.9600    8.5880 C   0  0  0  0  0
   -6.3710  -29.2860    8.2620 C   0  0  0  0  0
   -5.7790  -29.4440    7.1940 O   0  0  0  0  0
   -6.0900  -27.0930    9.4110 C   0  0  0  0  0
   -6.4080  -25.6160    9.4440 C   0  0  0  0  0
   -6.9130  -24.9470    8.3310 C   0  0  0  0  0
   -6.1800  -24.8900   10.6020 C   0  0  0  0  0
   -7.1840  -23.5910    8.3860 C   0  0  0  0  0
   -6.4460  -23.5360   10.6580 C   0  0  0  0  0
   -6.9490  -22.8860    9.5500 C   0  0  0  0  0
   -6.4500  -30.2320    9.1930 N   0  0  0  0  0
   -5.8360  -31.5410    9.0060 C   0  0  0  0  0
   -6.4870  -32.2840    7.8440 C   0  0  0  0  0
   -5.8150  -32.9810    7.0840 O   0  0  0  0  0
   -5.9500  -32.3690   10.2880 C   0  0  0  0  0
   -5.1160  -31.8190   11.4330 C   0  0  0  0  0
   -4.6760  -32.8960   12.4030 C   0  0  0  0  0
   -5.5050  -33.7670   12.7400 O   0  0  0  0  0
   -3.5010  -32.8680   12.8270 O   0  0  0  0  0
   -7.8030  -32.1250    7.7130 N   0  0  0  0  0
   -8.5580  -32.7730    6.6410 C   0  0  0  0  0
   -9.1960  -31.7250    5.7250 C   0  0  0  0  0
  -10.4140  -31.5280    5.7230 O   0  0  0  0  0
   -9.6280  -33.6940    7.2370 C   0  0  0  0  0
  -10.5580  -32.9890    8.2170 C   0  0  0  0  0
  -11.9750  -33.5630    8.1790 C   0  0  0  0  0
  -12.5460  -33.7000    9.5290 N   0  0  0  0  0
  -13.2040  -34.7780   10.0050 C   0  0  0  0  0
  -13.4480  -35.8650    9.2600 N   0  0  0  0  0
  -13.6430  -34.7510   11.2580 N   0  0  0  0  0
   -8.3550  -31.0480    4.9470 N   0  0  0  0  0
   -8.8210  -30.0180    4.0270 C   0  0  0  0  0
   -9.1730  -30.6210    2.6720 C   0  0  0  0  0
   -8.4540  -31.5410    2.2310 O   0  0  0  0  0
   -7.7520  -28.9380    3.8570 C   0  0  0  0  0
   -7.5130  -28.0770    5.0970 C   0  0  0  0  0
   -6.1460  -27.4160    5.0370 C   0  0  0  0  0
   -8.6040  -27.0280    5.2360 C   0  0  0  0  0
  -10.1680  -30.1700    2.0650 O   0  0  0  0  0
  -16.0155  -31.7637   16.5263 H   0  0  0  0  0
  -15.5161  -32.4692   15.1016 H   0  0  0  0  0
  -17.0913  -31.9516   15.2677 H   0  0  0  0  0
  -17.5238  -33.5645   16.9545 H   0  0  0  0  0
  -15.8050  -34.1293   16.7733 H   0  0  0  0  0
  -17.6203  -33.1235   13.9600 H   0  0  0  0  0
  -19.1088  -34.9695   12.9423 H   0  0  0  0  0
  -17.6120  -35.9805   13.1152 H   0  0  0  0  0
  -19.1692  -33.2989   11.4317 H   0  0  0  0  0
  -16.8736  -32.8906    9.6446 H   0  0  0  0  0
  -19.3147  -33.7885    8.2041 H   0  0  0  0  0
  -18.3059  -35.0587    9.0137 H   0  0  0  0  0
  -17.2889  -33.9214    5.3764 H   0  0  0  0  0
  -18.9059  -33.8948    6.0877 H   0  0  0  0  0
  -18.0471  -31.0954   11.2904 H   0  0  0  0  0
  -19.9363  -29.5213    9.5862 H   0  0  0  0  0
  -19.6183  -28.1697   11.9764 H   0  0  0  0  0
  -19.5186  -29.9274   12.4462 H   0  0  0  0  0
  -21.7100  -29.9716   12.4562 H   0  0  0  0  0
  -21.6629  -29.6562   10.6635 H   0  0  0  0  0
  -22.7235  -28.0835   10.1798 H   0  0  0  0  0
  -17.2857  -29.7194    8.6685 H   0  0  0  0  0
  -15.9700  -27.1988    9.4687 H   0  0  0  0  0
  -14.2926  -27.8829    7.7294 H   0  0  0  0  0
  -15.2806  -29.4142    7.5392 H   0  0  0  0  0
  -17.3176  -25.5532    8.7836 H   0  0  0  0  0
  -18.3256  -25.4710    6.0431 H   0  0  0  0  0
  -18.6192  -22.9412    6.8892 H   0  0  0  0  0
  -18.4448  -23.7877    8.4823 H   0  0  0  0  0
  -19.7627  -25.2600    5.8698 H   0  0  0  0  0
  -17.5091  -24.5066    4.2821 H   0  0  0  0  0
  -14.7146  -23.9735    4.2047 H   0  0  0  0  0
  -16.0698  -24.7095    2.2495 H   0  0  0  0  0
  -13.8273  -23.4270    2.1615 H   0  0  0  0  0
  -14.8488  -22.0788    1.4838 H   0  0  0  0  0
  -18.0504  -23.3294    2.5681 H   0  0  0  0  0
  -17.1047  -21.8588    2.2304 H   0  0  0  0  0
  -17.3616  -23.0665    0.9472 H   0  0  0  0  0
  -14.5545  -24.8622    0.3466 H   0  0  0  0  0
  -15.5528  -23.5447   -0.3157 H   0  0  0  0  0
  -13.7794  -23.3863   -0.2795 H   0  0  0  0  0
  -17.5100  -21.8010    4.5248 H   0  0  0  0  0
  -15.6426  -19.4806    4.5435 H   0  0  0  0  0
  -17.6214  -19.2881    3.1043 H   0  0  0  0  0
  -18.6832  -19.5943    4.5006 H   0  0  0  0  0
  -17.7042  -18.1083    4.4355 H   0  0  0  0  0
  -15.6133  -21.3617    6.7271 H   0  0  0  0  0
  -16.3296  -19.4273    8.8955 H   0  0  0  0  0
  -16.7546  -21.5736   10.2913 H   0  0  0  0  0
  -17.0533  -22.3248    8.6603 H   0  0  0  0  0
  -19.0511  -21.4012    8.5036 H   0  0  0  0  0
  -18.4376  -19.7966    9.0842 H   0  0  0  0  0
  -20.1651  -20.6197   10.5597 H   0  0  0  0  0
  -18.5596  -20.6539   11.3905 H   0  0  0  0  0
  -19.3313  -23.1659   10.1275 H   0  0  0  0  0
  -19.8414  -22.6071   14.1178 H   0  0  0  0  0
  -19.5676  -21.2012   13.0835 H   0  0  0  0  0
  -19.6565  -24.9372   11.4816 H   0  0  0  0  0
  -15.1019  -19.7879   10.9074 H   0  0  0  0  0
  -12.3311  -19.9201   10.4119 H   0  0  0  0  0
  -13.4626  -20.6951   13.0891 H   0  0  0  0  0
  -13.6838  -19.0086   12.4322 H   0  0  0  0  0
  -11.1274  -19.1215   12.1202 H   0  0  0  0  0
  -11.2390  -20.4235   13.3793 H   0  0  0  0  0
  -10.0720  -17.0932   13.0484 H   0  0  0  0  0
  -11.7081  -16.6325   12.5173 H   0  0  0  0  0
  -11.0600  -16.0034   14.0520 H   0  0  0  0  0
  -11.5450  -21.6386    9.3437 H   0  0  0  0  0
  -12.2116  -24.3661    9.9960 H   0  0  0  0  0
   -9.9434  -24.7151    8.6979 H   0  0  0  0  0
  -10.2018  -22.9436    8.3031 H   0  0  0  0  0
  -13.4760  -24.6974    8.4486 H   0  0  0  0  0
   -9.1501  -23.7937    5.8526 H   0  0  0  0  0
  -13.2936  -25.2385    3.4485 H   0  0  0  0  0
   -9.1563  -24.0888    3.3981 H   0  0  0  0  0
  -11.2040  -24.8041    2.2132 H   0  0  0  0  0
  -11.9203  -24.7656   12.1840 H   0  0  0  0  0
   -9.5760  -24.0847   13.6677 H   0  0  0  0  0
  -11.7087  -24.7622   14.6724 H   0  0  0  0  0
  -10.3267  -25.7977   15.2538 H   0  0  0  0  0
  -11.0454  -27.6155   14.0208 H   0  0  0  0  0
  -12.1816  -26.6012   13.0369 H   0  0  0  0  0
  -11.6355  -27.2088   16.3035 H   0  0  0  0  0
   -8.4959  -26.2717   14.8461 H   0  0  0  0  0
   -6.4890  -27.0301   13.0032 H   0  0  0  0  0
   -6.2161  -28.9791   14.7997 H   0  0  0  0  0
   -7.3812  -27.9213   15.7135 H   0  0  0  0  0
   -5.9875  -26.6448   17.4562 H   0  0  0  0  0
   -4.5543  -27.5738   12.6252 H   0  0  0  0  0
   -1.7342  -24.7001   15.5988 H   0  0  0  0  0
   -2.4481  -26.5720   11.8009 H   0  0  0  0  0
   -1.0562  -25.1582   13.2709 H   0  0  0  0  0
   -9.1754  -29.0797   14.2515 H   0  0  0  0  0
   -8.5708  -31.3976   12.8014 H   0  0  0  0  0
  -11.1363  -31.7541   12.8666 H   0  0  0  0  0
  -11.1528  -30.1692   13.7645 H   0  0  0  0  0
   -9.3536  -32.3540   14.6661 H   0  0  0  0  0
  -11.1258  -32.4450   15.0359 H   0  0  0  0  0
  -11.8183  -31.1258   16.4182 H   0  0  0  0  0
  -10.4181  -28.5619   11.6730 H   0  0  0  0  0
  -11.1773  -29.7889    9.1692 H   0  0  0  0  0
  -11.7567  -27.5396    8.4595 H   0  0  0  0  0
  -10.9175  -26.8796    9.9489 H   0  0  0  0  0
   -8.3767  -27.9220   10.2881 H   0  0  0  0  0
   -7.2999  -27.4354    7.6650 H   0  0  0  0  0
   -5.1103  -27.1885    8.9429 H   0  0  0  0  0
   -6.1566  -27.4472   10.4397 H   0  0  0  0  0
   -7.0964  -25.4970    7.4080 H   0  0  0  0  0
   -5.7844  -25.3957   11.4828 H   0  0  0  0  0
   -7.5831  -23.0792    7.5103 H   0  0  0  0  0
   -6.2586  -22.9811   11.5773 H   0  0  0  0  0
   -7.1606  -21.8176    9.5932 H   0  0  0  0  0
   -6.9524  -30.0371   10.0591 H   0  0  0  0  0
   -4.7817  -31.3921    8.7728 H   0  0  0  0  0
   -5.5856  -33.3721   10.0665 H   0  0  0  0  0
   -6.9938  -32.3501   10.6013 H   0  0  0  0  0
   -5.7293  -31.1040   11.9814 H   0  0  0  0  0
   -4.2211  -31.3645   11.0080 H   0  0  0  0  0
   -3.0407  -32.1189   12.4415 H   0  0  0  0  0
   -8.2989  -31.5338    8.3801 H   0  0  0  0  0
   -7.8738  -33.3747    6.0426 H   0  0  0  0  0
   -9.1132  -34.4840    7.7838 H   0  0  0  0  0
  -10.2387  -34.0634    6.4132 H   0  0  0  0  0
  -10.6099  -31.9362    7.9394 H   0  0  0  0  0
  -10.1614  -33.1284    9.2227 H   0  0  0  0  0
  -11.9317  -34.5523    7.7234 H   0  0  0  0  0
  -12.6055  -32.8814    7.6080 H   0  0  0  0  0
  -12.4342  -32.9082   10.1622 H   0  0  0  0  0
  -13.9621  -36.6510    9.6578 H   0  0  0  0  0
  -13.1196  -35.9063    8.2952 H   0  0  0  0  0
  -13.4802  -33.9278   11.8378 H   0  0  0  0  0
   -7.3575  -31.2555    4.9958 H   0  0  0  0  0
   -9.7195  -29.5665    4.4477 H   0  0  0  0  0
   -8.0979  -28.2700    3.0682 H   0  0  0  0  0
   -6.8145  -29.4502    3.6403 H   0  0  0  0  0
   -7.5423  -28.7251    5.9729 H   0  0  0  0  0
   -5.3743  -28.1841    4.9868 H   0  0  0  0  0
   -6.0885  -26.7830    4.1515 H   0  0  0  0  0
   -5.9981  -26.8084    5.9298 H   0  0  0  0  0
   -8.6045  -26.3871    4.3543 H   0  0  0  0  0
   -9.5713  -27.5218    5.3285 H   0  0  0  0  0
   -8.4158  -26.4254    6.1246 H   0  0  0  0  0
  -10.5694  -29.4707    2.5860 H   0  0  0  0  0
  1  2  1  0  0  0
  2  3  1  0  0  0
  3  4  2  0  0  0
  3  5  1  0  0  0
  5  6  1  0  0  0
  6  7  1  0  0  0
  7  8  2  0  0  0
  7  9  1  0  0  0
  9 10  1  0  0  0
 10 11  1  0  0  0
 10 13  1  0  0  0
 11 12  2  0  0  0
 11 17  1  0  0  0
 13 14  1  0  0  0
 14 15  2  0  0  0
 14 16  1  0  0  0
 17 18  1  0  0  0
 18 19  1  0  0  0
 18 21  1  0  0  0
 19 20  2  0  0  0
 19 26  1  0  0  0
 21 22  1  0  0  0
 22 23  1  0  0  0
 23 24  2  0  0  0
 23 25  1  0  0  0
 26 27  1  0  0  0
 27 28  1  0  0  0
 27 30  1  0  0  0
 28 29  2  0  0  0
 28 32  1  0  0  0
 30 31  1  0  0  0
 31123  1  0  0  0
 32 33  1  0  0  0
 33 34  1  0  0  0
 33 36  1  0  0  0
 34 35  2  0  0  0
 34 40  1  0  0  0
 36 37  1  0  0  0
 37 38  1  0  0  0
 37 39  2  0  0  0
 40 41  1  0  0  0
 41 42  1  0  0  0
 41 44  1  0  0  0
 42 43  2  0  0  0
 42 48  1  0  0  0
 44 45  1  0  0  0
 44 46  1  0  0  0
 45 47  1  0  0  0
 48 49  1  0  0  0
 49 50  1  0  0  0
 49 52  1  0  0  0
 50 51  2  0  0  0
 50 53  1  0  0  0
 53 54  1  0  0  0
 54 55  1  0  0  0
 54 57  1  0  0  0
 55 56  2  0  0  0
 55 64  1  0  0  0
 57 58  1  0  0  0
 58 59  1  0  0  0
 59 60  1  0  0  0
 60 61  1  0  0  0
 61 62  1  0  0  0
 61 63  2  0  0  0
 64 65  1  0  0  0
 65 66  1  0  0  0
 65 68  1  0  0  0
 66 67  2  0  0  0
 66 72  1  0  0  0
 68 69  1  0  0  0
 69 70  1  0  0  0
 70 71  1  0  0  0
 72 73  1  0  0  0
 73 74  1  0  0  0
 73 76  1  0  0  0
 74 75  2  0  0  0
 74 86  1  0  0  0
 76 77  1  0  0  0
 77 78  4  0  0  0
 77 79  4  0  0  0
 78 80  4  0  0  0
 79 81  4  0  0  0
 79 82  4  0  0  0
 80 81  4  0  0  0
 81 83  4  0  0  0
 82 84  4  0  0  0
 83 85  4  0  0  0
 84 85  4  0  0  0
 86 87  1  0  0  0
 87 88  1  0  0  0
 87 90  1  0  0  0
 88 89  2  0  0  0
 88 95  1  0  0  0
 90 91  1  0  0  0
 91 92  1  0  0  0
 92 93  1  0  0  0
 92 94  2  0  0  0
 95 96  1  0  0  0
 96 97  1  0  0  0
 96 99  1  0  0  0
 97 98  2  0  0  0
 97109  1  0  0  0
 99100  1  0  0  0
100101  4  0  0  0
100102  4  0  0  0
101103  4  0  0  0
102104  4  0  0  0
102105  4  0  0  0
103104  4  0  0  0
104106  4  0  0  0
105107  4  0  0  0
106108  4  0  0  0
107108  4  0  0  0
109110  1  0  0  0
110111  1  0  0  0
110113  1  0  0  0
111112  2  0  0  0
111118  1  0  0  0
113114  1  0  0  0
114115  1  0  0  0
115116  2  0  0  0
115117  1  0  0  0
118119  1  0  0  0
119120  1  0  0  0
119122  1  0  0  0
120121  2  0  0  0
120124  1  0  0  0
122123  1  0  0  0
124125  1  0  0  0
125126  1  0  0  0
125128  1  0  0  0
126127  2  0  0  0
126135  1  0  0  0
128129  1  0  0  0
129130  4  0  0  0
129131  4  0  0  0
130132  4  0  0  0
131133  4  0  0  0
132134  4  0  0  0
133134  4  0  0  0
135136  1  0  0  0
136137  1  0  0  0
136139  1  0  0  0
137138  2  0  0  0
137144  1  0  0  0
139140  1  0  0  0
140141  1  0  0  0
141142  2  0  0  0
141143  1  0  0  0
144145  1  0  0  0
145146  1  0  0  0
145148  1  0  0  0
146147  2  0  0  0
146155  1  0  0  0
148149  1  0  0  0
149150  1  0  0  0
150151  1  0  0  0
151152  1  0  0  0
152153  1  0  0  0
152154  2  0  0  0
155156  1  0  0  0
156157  1  0  0  0
156159  1  0  0  0
157158  2  0  0  0
157163  1  0  0  0
159160  1  0  0  0
160161  1  0  0  0
160162  1  0  0  0
  1164  1  0  0  0
  1165  1  0  0  0
  1166  1  0  0  0
  2167  1  0  0  0
  2168  1  0  0  0
  5169  1  0  0  0
  6170  1  0  0  0
  6171  1  0  0  0
  9172  1  0  0  0
 10173  1  0  0  0
 13174  1  0  0  0
 13175  1  0  0  0
 16176  1  0  0  0
 16177  1  0  0  0
 17178  1  0  0  0
 18179  1  0  0  0
 21180  1  0  0  0
 21181  1  0  0  0
 22182  1  0  0  0
 22183  1  0  0  0
 25184  1  0  0  0
 26185  1  0  0  0
 27186  1  0  0  0
 30187  1  0  0  0
 30188  1  0  0  0
 32189  1  0  0  0
 33190  1  0  0  0
 36191  1  0  0  0
 36192  1  0  0  0
 38193  1  0  0  0
 40194  1  0  0  0
 41195  1  0  0  0
 44196  1  0  0  0
 45197  1  0  0  0
 45198  1  0  0  0
 46199  1  0  0  0
 46200  1  0  0  0
 46201  1  0  0  0
 47202  1  0  0  0
 47203  1  0  0  0
 47204  1  0  0  0
 48205  1  0  0  0
 49206  1  0  0  0
 52207  1  0  0  0
 52208  1  0  0  0
 52209  1  0  0  0
 53210  1  0  0  0
 54211  1  0  0  0
 57212  1  0  0  0
 57213  1  0  0  0
 58214  1  0  0  0
 58215  1  0  0  0
 59216  1  0  0  0
 59217  1  0  0  0
 60218  1  0  0  0
 62219  1  0  0  0
 62220  1  0  0  0
 63221  1  0  0  0
 64222  1  0  0  0
 65223  1  0  0  0
 68224  1  0  0  0
 68225  1  0  0  0
 69226  1  0  0  0
 69227  1  0  0  0
 71228  1  0  0  0
 71229  1  0  0  0
 71230  1  0  0  0
 72231  1  0  0  0
 73232  1  0  0  0
 76233  1  0  0  0
 76234  1  0  0  0
 78235  1  0  0  0
 82236  1  0  0  0
 83237  1  0  0  0
 84238  1  0  0  0
 85239  1  0  0  0
 86240  1  0  0  0
 87241  1  0  0  0
 90242  1  0  0  0
 90243  1  0  0  0
 91244  1  0  0  0
 91245  1  0  0  0
 93246  1  0  0  0
 95247  1  0  0  0
 96248  1  0  0  0
 99249  1  0  0  0
 99250  1  0  0  0
101251  1  0  0  0
105252  1  0  0  0
106253  1  0  0  0
107254  1  0  0  0
108255  1  0  0  0
109256  1  0  0  0
110257  1  0  0  0
113258  1  0  0  0
113259  1  0  0  0
114260  1  0  0  0
114261  1  0  0  0
117262  1  0  0  0
118263  1  0  0  0
119264  1  0  0  0
122265  1  0  0  0
122266  1  0  0  0
124267  1  0  0  0
125268  1  0  0  0
128269  1  0  0  0
128270  1  0  0  0
130271  1  0  0  0
131272  1  0  0  0
132273  1  0  0  0
133274  1  0  0  0
134275  1  0  0  0
135276  1  0  0  0
136277  1  0  0  0
139278  1  0  0  0
139279  1  0  0  0
140280  1  0  0  0
140281  1  0  0  0
143282  1  0  0  0
144283  1  0  0  0
145284  1  0  0  0
148285  1  0  0  0
148286  1  0  0  0
149287  1  0  0  0
149288  1  0  0  0
150289  1  0  0  0
150290  1  0  0  0
151291  1  0  0  0
153292  1  0  0  0
153293  1  0  0  0
154294  1  0  0  0
155295  1  0  0  0
156296  1  0  0  0
159297  1  0  0  0
159298  1  0  0  0
160299  1  0  0  0
161300  1  0  0  0
161301  1  0  0  0
161302  1  0  0  0
162303  1  0  0  0
162304  1  0  0  0
162305  1  0  0  0
163306  1  0  0  0
M  END
$$$$
