### 
### Created by X-TOOL on Mon Sep 10 21:12:49 2018
### 

@<TRIPOS>MOLECULE
1kat_ligand
  304   309     1     0     0
SMALL
GAST_HUCK


@<TRIPOS>ATOM
      1 N         -16.2950  -32.3660   15.7520 N.4       1 GLY         0.2357
      2 CA        -16.6790  -33.7040   16.2800 C.3       1 GLY         0.0545
      3 C         -17.1120  -34.6720   15.1900 C.2       1 GLY         0.2234
      4 O         -17.0330  -35.8880   15.3760 O.2       1 GLY        -0.3911
      5 N         -17.5760  -34.1380   14.0560 N.am      1 GLY        -0.2639
      6 CA        -18.0190  -34.9820   12.9560 C.3       1 GLY         0.1202
      7 C         -17.5300  -34.4890   11.6060 C.2       1 GLY         0.2009
      8 O         -16.4740  -34.9070   11.1290 O.2       1 GLY        -0.3947
      9 N         -18.3050  -33.6040   10.9840 N.am      1 ASN        -0.2618
     10 CA        -17.9500  -33.0590    9.6780 C.3       1 ASN         0.1476
     11 C         -18.6460  -31.7120    9.4490 C.2       1 ASN         0.2063
     12 O         -19.2480  -31.4690    8.3990 O.2       1 ASN        -0.3942
     13 CB        -18.3280  -34.0590    8.5800 C.3       1 ASN         0.0773
     14 CG        -17.3600  -34.0340    7.4130 C.2       1 ASN         0.1780
     15 OD1       -16.1440  -34.0950    7.6000 O.2       1 ASN        -0.3970
     16 ND2       -17.8930  -33.9430    6.1980 N.am      1 ASN        -0.3007
     17 N         -18.5610  -30.8370   10.4480 N.am      1 GLU        -0.2635
     18 CA        -19.1820  -29.5180   10.3730 C.3       1 GLU         0.1325
     19 C         -18.1470  -28.4440   10.0030 C.2       1 GLU         0.2040
     20 O         -18.1650  -27.3320   10.5340 O.2       1 GLU        -0.3944
     21 CB        -19.8690  -29.1980   11.7160 C.3       1 GLU        -0.0008
     22 CG        -21.3940  -29.3000   11.6580 C.3       1 GLU         0.0044
     23 CD        -22.0940  -27.9680   11.8740 C.2       1 GLU         0.0350
     24 OE1       -21.9720  -27.4060   12.9810 O.co2     1 GLU        -0.5690
     25 OE2       -22.7650  -27.4910   10.9340 O.co2     1 GLU        -0.5690
     26 N         -17.2500  -28.7850    9.0760 N.am      1 CYS        -0.2629
     27 CA        -16.2160  -27.8500    8.6300 C.3       1 CYS         0.1406
     28 C         -16.7210  -26.9890    7.4740 C.2       1 CYS         0.2048
     29 O         -16.6170  -27.3760    6.3090 O.2       1 CYS        -0.3944
     30 CB        -14.9580  -28.6080    8.1980 C.3       1 CYS         0.0443
     31 SG        -14.0320  -29.3760    9.5710 S.3       1 CYS        -0.0882
     32 N         -17.2600  -25.8170    7.8000 N.am      1 ASP        -0.2621
     33 CA        -17.7710  -24.8990    6.7870 C.3       1 ASP         0.1423
     34 C         -16.6180  -24.1860    6.0800 C.2       1 ASP         0.2056
     35 O         -15.6720  -23.7310    6.7230 O.2       1 ASP        -0.3943
     36 CB        -18.7170  -23.8820    7.4310 C.3       1 ASP         0.0406
     37 CG        -20.1700  -24.3150    7.3600 C.2       1 ASP         0.0393
     38 OD1       -20.5210  -25.0670    6.4260 O.co2     1 ASP        -0.5688
     39 OD2       -20.9580  -23.9040    8.2360 O.co2     1 ASP        -0.5688
     40 N         -16.6970  -24.1100    4.7550 N.am      1 ILE        -0.2634
     41 CA        -15.6520  -23.4740    3.9600 C.3       1 ILE         0.1335
     42 C         -15.4970  -21.9880    4.3070 C.2       1 ILE         0.2041
     43 O         -14.3830  -21.4660    4.3330 O.2       1 ILE        -0.3944
     44 CB        -15.9270  -23.6460    2.4410 C.3       1 ILE        -0.0037
     45 CG1       -14.7330  -23.1540    1.6200 C.3       1 ILE        -0.0491
     46 CG2       -17.2030  -22.9230    2.0160 C.3       1 ILE        -0.0582
     47 CD1       -14.6490  -23.7810    0.2460 C.3       1 ILE        -0.0648
     48 N         -16.6150  -21.3130    4.5610 N.am      1 ALA        -0.2640
     49 CA        -16.5920  -19.8880    4.8910 C.3       1 ALA         0.1282
     50 C         -16.6600  -19.6520    6.3990 C.2       1 ALA         0.2036
     51 O         -17.2330  -18.6620    6.8540 O.2       1 ALA        -0.3944
     52 CB        -17.7320  -19.1680    4.1820 C.3       1 ALA        -0.0244
     53 N         -16.0670  -20.5610    7.1670 N.am      1 ARG        -0.2637
     54 CA        -16.0470  -20.4450    8.6260 C.3       1 ARG         0.1311
     55 C         -14.6450  -20.7220    9.1590 C.2       1 ARG         0.2039
     56 O         -13.8190  -21.3150    8.4660 O.2       1 ARG        -0.3944
     57 CB        -17.0550  -21.4120    9.2560 C.3       1 ARG        -0.0092
     58 CG        -18.4840  -20.8700    9.2680 C.3       1 ARG        -0.0156
     59 CD        -19.1820  -21.0880   10.6080 C.3       1 ARG         0.0627
     60 NE        -19.3670  -22.5090   10.9070 N.pl3     1 ARG        -0.2723
     61 CZ        -19.5800  -23.0080   12.1330 C.cat     1 ARG         0.2882
     62 NH1       -19.6700  -22.2100   13.1940 N.pl3     1 ARG        -0.2849
     63 NH2       -19.7150  -24.3180   12.2900 N.pl3     1 ARG        -0.2849
     64 N         -14.3730  -20.2760   10.3870 N.am      1 MET        -0.2637
     65 CA        -13.0590  -20.4650   11.0130 C.3       1 MET         0.1317
     66 C         -12.6350  -21.9360   11.0330 C.2       1 MET         0.2040
     67 O         -13.0220  -22.6980   11.9210 O.2       1 MET        -0.3944
     68 CB        -13.0740  -19.9120   12.4380 C.3       1 MET        -0.0034
     69 CG        -11.6970  -19.5300   12.9550 C.3       1 MET        -0.0024
     70 SD        -11.7630  -18.2750   14.2470 S.3       1 MET        -0.1639
     71 CE        -11.0840  -16.8620   13.3810 C.3       1 MET        -0.0181
     72 N         -11.8330  -22.3230   10.0430 N.am      1 TRP        -0.2627
     73 CA        -11.3530  -23.6980    9.9280 C.3       1 TRP         0.1352
     74 C         -10.3850  -24.0360   11.0640 C.2       1 TRP         0.2052
     75 O          -9.1840  -23.8080   10.9510 O.2       1 TRP        -0.3942
     76 CB        -10.6540  -23.8980    8.5730 C.3       1 TRP         0.0042
     77 CG        -11.5770  -24.2840    7.4450 C.2       1 TRP        -0.0418
     78 CD1       -12.8980  -24.6450    7.5260 C.2       1 TRP         0.0167
     79 CD2       -11.2310  -24.3540    6.0570 C.ar      1 TRP        -0.0214
     80 NE1       -13.3860  -24.9310    6.2730 N.pl3     1 TRP        -0.2890
     81 CE2       -12.3820  -24.7590    5.3560 C.ar      1 TRP         0.0603
     82 CE3       -10.0580  -24.1100    5.3390 C.ar      1 TRP        -0.0747
     83 CZ2       -12.3910  -24.9250    3.9730 C.ar      1 TRP        -0.0443
     84 CZ3       -10.0670  -24.2760    3.9670 C.ar      1 TRP        -0.0792
     85 CH2       -11.2280  -24.6810    3.2960 C.ar      1 TRP        -0.0768
     86 N         -10.9150  -24.5960   12.1520 N.am      1 GLU        -0.2635
     87 CA        -10.0900  -24.9740   13.3030 C.3       1 GLU         0.1325
     88 C          -9.0240  -26.0050   12.8990 C.2       1 GLU         0.2041
     89 O          -8.8470  -26.2900   11.7150 O.2       1 GLU        -0.3944
     90 CB        -10.9770  -25.5300   14.4210 C.3       1 GLU        -0.0008
     91 CG        -11.7430  -26.7780   14.0190 C.3       1 GLU         0.0044
     92 CD        -12.8680  -27.1050   14.9810 C.2       1 GLU         0.0350
     93 OE1       -12.5830  -27.3030   16.1810 O.co2     1 GLU        -0.5690
     94 OE2       -14.0320  -27.1630   14.5340 O.co2     1 GLU        -0.5690
     95 N          -8.3020  -26.5460   13.8830 N.am      1 TRP        -0.2627
     96 CA         -7.2380  -27.5230   13.6230 C.3       1 TRP         0.1352
     97 C          -7.7450  -28.7460   12.8440 C.2       1 TRP         0.2052
     98 O          -7.2030  -29.0850   11.7910 O.2       1 TRP        -0.3942
     99 CB         -6.6090  -27.9730   14.9460 C.3       1 TRP         0.0042
    100 CG         -5.4740  -27.1020   15.3850 C.2       1 TRP        -0.0418
    101 CD1        -5.3020  -26.5340   16.6160 C.2       1 TRP         0.0167
    102 CD2        -4.3480  -26.7010   14.5980 C.ar      1 TRP        -0.0214
    103 NE1        -4.1390  -25.8030   16.6400 N.pl3     1 TRP        -0.2890
    104 CE2        -3.5360  -25.8900   15.4120 C.ar      1 TRP         0.0603
    105 CE3        -3.9480  -26.9490   13.2810 C.ar      1 TRP        -0.0747
    106 CZ2        -2.3490  -25.3260   14.9520 C.ar      1 TRP        -0.0443
    107 CZ3        -2.7690  -26.3870   12.8260 C.ar      1 TRP        -0.0792
    108 CH2        -1.9810  -25.5850   13.6590 C.ar      1 TRP        -0.0768
    109 N          -8.7700  -29.4160   13.3780 N.am      1 GLU        -0.2635
    110 CA         -9.3360  -30.6230   12.7510 C.3       1 GLU         0.1325
    111 C          -9.6790  -30.4140   11.2710 C.2       1 GLU         0.2040
    112 O          -9.4430  -31.2960   10.4420 O.2       1 GLU        -0.3944
    113 CB        -10.5880  -31.0660   13.5100 C.3       1 GLU        -0.0008
    114 CG        -10.2800  -31.7970   14.8060 C.3       1 GLU         0.0044
    115 CD        -10.0850  -30.8510   15.9730 C.2       1 GLU         0.0350
    116 OE1        -8.9610  -30.3330   16.1370 O.co2     1 GLU        -0.5690
    117 OE2       -11.0570  -30.6280   16.7250 O.co2     1 GLU        -0.5690
    118 N         -10.2410  -29.2530   10.9440 N.am      1 CYS        -0.2629
    119 CA        -10.6100  -28.9460    9.5640 C.3       1 CYS         0.1406
    120 C          -9.3610  -28.7490    8.7070 C.2       1 CYS         0.2049
    121 O          -9.3490  -29.0990    7.5270 O.2       1 CYS        -0.3943
    122 CB        -11.4900  -27.6940    9.5050 C.3       1 CYS         0.0443
    123 SG        -13.0490  -27.8240   10.4410 S.3       1 CYS        -0.0882
    124 N          -8.3070  -28.1920    9.3070 N.am      1 PHE        -0.2619
    125 CA         -7.0530  -27.9600    8.5880 C.3       1 PHE         0.1404
    126 C          -6.3710  -29.2860    8.2620 C.2       1 PHE         0.2060
    127 O          -5.7790  -29.4440    7.1940 O.2       1 PHE        -0.3942
    128 CB         -6.0900  -27.0930    9.4110 C.3       1 PHE         0.0214
    129 CG         -6.4080  -25.6160    9.4440 C.ar      1 PHE        -0.0386
    130 CD1        -6.9130  -24.9470    8.3310 C.ar      1 PHE        -0.0601
    131 CD2        -6.1800  -24.8900   10.6020 C.ar      1 PHE        -0.0601
    132 CE1        -7.1840  -23.5910    8.3860 C.ar      1 PHE        -0.0686
    133 CE2        -6.4460  -23.5360   10.6580 C.ar      1 PHE        -0.0686
    134 CZ         -6.9490  -22.8860    9.5500 C.ar      1 PHE        -0.0687
    135 N          -6.4500  -30.2320    9.1930 N.am      1 GLU        -0.2635
    136 CA         -5.8360  -31.5410    9.0060 C.3       1 GLU         0.1325
    137 C          -6.4870  -32.2840    7.8440 C.2       1 GLU         0.2040
    138 O          -5.8150  -32.9810    7.0840 O.2       1 GLU        -0.3944
    139 CB         -5.9500  -32.3690   10.2880 C.3       1 GLU        -0.0008
    140 CG         -5.1160  -31.8190   11.4330 C.3       1 GLU         0.0044
    141 CD         -4.6760  -32.8960   12.4030 C.2       1 GLU         0.0350
    142 OE1        -5.5050  -33.7670   12.7400 O.co2     1 GLU        -0.5690
    143 OE2        -3.5010  -32.8680   12.8270 O.co2     1 GLU        -0.5690
    144 N          -7.8030  -32.1250    7.7130 N.am      1 ARG        -0.2637
    145 CA         -8.5580  -32.7730    6.6410 C.3       1 ARG         0.1310
    146 C          -9.1960  -31.7250    5.7250 C.2       1 ARG         0.2033
    147 O         -10.4140  -31.5280    5.7230 O.2       1 ARG        -0.3944
    148 CB         -9.6280  -33.6940    7.2370 C.3       1 ARG        -0.0092
    149 CG        -10.5580  -32.9890    8.2170 C.3       1 ARG        -0.0156
    150 CD        -11.9750  -33.5630    8.1790 C.3       1 ARG         0.0627
    151 NE        -12.5460  -33.7000    9.5290 N.pl3     1 ARG        -0.2723
    152 CZ        -13.2040  -34.7780   10.0050 C.cat     1 ARG         0.2882
    153 NH1       -13.4480  -35.8650    9.2600 N.pl3     1 ARG        -0.2849
    154 NH2       -13.6430  -34.7510   11.2580 N.pl3     1 ARG        -0.2849
    155 N          -8.3550  -31.0480    4.9470 N.am      1 LEU        -0.2695
    156 CA         -8.8210  -30.0180    4.0270 C.3       1 LEU         0.0946
    157 C          -9.1730  -30.6210    2.6720 C.2       1 LEU         0.0601
    158 O          -8.4540  -31.5410    2.2310 O.co2     1 LEU        -0.5666
    159 CB         -7.7520  -28.9380    3.8570 C.3       1 LEU        -0.0156
    160 CG         -7.5130  -28.0770    5.0970 C.3       1 LEU        -0.0431
    161 CD1        -6.1460  -27.4160    5.0370 C.3       1 LEU        -0.0625
    162 CD2        -8.6040  -27.0280    5.2360 C.3       1 LEU        -0.0625
    163 OXT       -10.1680  -30.1700    2.0650 O.co2     1 LEU        -0.5666
    164 H1        -16.0185  -31.7699   16.5164 H         1 GLY         0.2012
    165 H2        -17.0812  -31.9554   15.2731 H         1 GLY         0.2012
    166 H3        -15.5252  -32.4667   15.1091 H         1 GLY         0.2012
    167 H4        -17.5126  -33.5760   16.9862 H         1 GLY         0.1061
    168 H5        -15.8146  -34.1339   16.8072 H         1 GLY         0.1061
    169 H6        -17.6195  -33.1434   13.9619 H         1 GLY         0.1882
    170 H7        -19.1188  -34.9998   12.9469 H         1 GLY         0.0763
    171 H8        -17.6371  -36.0007   13.1181 H         1 GLY         0.0763
    172 H9        -19.1523  -33.3049   11.4229 H         1 ASN         0.1885
    173 H10       -16.8622  -32.8985    9.6475 H         1 ASN         0.0826
    174 H11       -19.3338  -33.8122    8.2092 H         1 ASN         0.0551
    175 H12       -18.3342  -35.0708    9.0114 H         1 ASN         0.0551
    176 H13       -17.3008  -33.9225    5.3925 H         1 ASN         0.1814
    177 H14       -18.8860  -33.8950    6.0899 H         1 ASN         0.1814
    178 H15       -18.0572  -31.0903   11.2739 H         1 GLU         0.1883
    179 H16       -19.9502  -29.5381    9.5860 H         1 GLU         0.0801
    180 H17       -19.5991  -28.1730   12.0101 H         1 GLU         0.0330
    181 H18       -19.5009  -29.9058   12.4733 H         1 GLU         0.0330
    182 H19       -21.7271  -30.0001   12.4383 H         1 GLU         0.0433
    183 H20       -21.6807  -29.6889   10.6698 H         1 GLU         0.0433
    184 H21       -17.2850  -29.7011    8.6765 H         1 CYS         0.1884
    185 H22       -15.9577  -27.1903    9.4714 H         1 CYS         0.0808
    186 H23       -14.2894  -27.9010    7.6851 H         1 CYS         0.0432
    187 H24       -15.2580  -29.4023    7.4986 H         1 CYS         0.0432
    188 H25       -17.3164  -25.5584    8.7643 H         1 ASP         0.1884
    189 H26       -18.3339  -25.4781    6.0402 H         1 ASP         0.0819
    190 H27       -18.6096  -22.9199    6.9086 H         1 ASP         0.0478
    191 H28       -18.4367  -23.7589    8.4875 H         1 ASP         0.0478
    192 H29       -17.4932  -24.4988    4.2914 H         1 ILE         0.1883
    193 H30       -14.7014  -23.9760    4.1930 H         1 ILE         0.0803
    194 H31       -16.0623  -24.7190    2.2403 H         1 ILE         0.0345
    195 H32       -13.8102  -23.3928    2.1691 H         1 ILE         0.0267
    196 H33       -14.8172  -22.0637    1.5010 H         1 ILE         0.0267
    197 H34       -18.0491  -23.2892    2.6161 H         1 ILE         0.0235
    198 H35       -17.3974  -23.1177    0.9510 H         1 ILE         0.0235
    199 H36       -17.0818  -21.8413    2.1749 H         1 ILE         0.0235
    200 H37       -13.7718  -23.3834   -0.2854 H         1 ILE         0.0230
    201 H38       -15.5605  -23.5432   -0.3219 H         1 ILE         0.0230
    202 H39       -14.5535  -24.8723    0.3461 H         1 ILE         0.0230
    203 H40       -17.4924  -21.7914    4.5255 H         1 ALA         0.1883
    204 H41       -15.6420  -19.4703    4.5265 H         1 ALA         0.0797
    205 H42       -17.7050  -18.0983    4.4371 H         1 ALA         0.0277
    206 H43       -18.6926  -19.5973    4.5028 H         1 ALA         0.0277
    207 H44       -17.6215  -19.2884    3.0942 H         1 ALA         0.0277
    208 H45       -15.6222  -21.3460    6.7358 H         1 ARG         0.1883
    209 H46       -16.3297  -19.4177    8.8993 H         1 ARG         0.0800
    210 H47       -16.7478  -21.6102   10.2935 H         1 ARG         0.0313
    211 H48       -17.0424  -22.3515    8.6840 H         1 ARG         0.0313
    212 H49       -19.0612  -21.3802    8.4828 H         1 ARG         0.0301
    213 H50       -18.4535  -19.7907    9.0580 H         1 ARG         0.0301
    214 H51       -20.1676  -20.6005   10.5782 H         1 ARG         0.0689
    215 H52       -18.5725  -20.6345   11.4035 H         1 ARG         0.0689
    216 H53       -19.3310  -23.1724   10.1199 H         1 ARG         0.2642
    217 H54       -19.8339  -22.6118   14.1281 H         1 ARG         0.2615
    218 H55       -19.5757  -21.1905   13.0811 H         1 ARG         0.2615
    219 H56       -19.6470  -24.9441   11.4750 H         1 ARG         0.2615
    220 H57       -19.8879  -24.7093   13.2270 H         1 ARG         0.2615
    221 H58       -15.0876  -19.7975   10.8972 H         1 MET         0.1883
    222 H59       -12.3173  -19.9027   10.4268 H         1 MET         0.0800
    223 H60       -13.4956  -20.6788   13.1045 H         1 MET         0.0320
    224 H61       -13.7136  -19.0173   12.4575 H         1 MET         0.0320
    225 H62       -11.1016  -19.1405   12.1161 H         1 MET         0.0378
    226 H63       -11.2120  -20.4293   13.3624 H         1 MET         0.0378
    227 H64       -11.0593  -15.9947   14.0572 H         1 MET         0.0340
    228 H65       -11.7130  -16.6293   12.5091 H         1 MET         0.0340
    229 H66       -10.0627  -17.0940   13.0449 H         1 MET         0.0340
    230 H67       -11.5507  -21.6520    9.3574 H         1 TRP         0.1884
    231 H68       -12.2160  -24.3776    9.9868 H         1 TRP         0.0815
    232 H69        -9.9015  -24.6920    8.6883 H         1 TRP         0.0397
    233 H70       -10.1547  -22.9562    8.3015 H         1 TRP         0.0397
    234 H71       -13.4755  -24.6973    8.4478 H         1 TRP         0.0795
    235 H72       -14.3491  -25.2264    6.0583 H         1 TRP         0.2216
    236 H73        -9.1551  -23.7955    5.8497 H         1 TRP         0.0540
    237 H74       -13.2887  -25.2368    3.4514 H         1 TRP         0.0541
    238 H75        -9.1613  -24.0899    3.4012 H         1 TRP         0.0510
    239 H76       -11.2042  -24.8034    2.2192 H         1 TRP         0.0530
    240 H77       -11.9006  -24.7623   12.1834 H         1 GLU         0.1883
    241 H78        -9.5786  -24.0744   13.6762 H         1 GLU         0.0801
    242 H79       -11.7014  -24.7542   14.7097 H         1 GLU         0.0330
    243 H80       -10.3390  -25.7751   15.2829 H         1 GLU         0.0330
    244 H81       -11.0443  -27.6272   13.9920 H         1 GLU         0.0433
    245 H82       -12.1699  -26.6223   13.0172 H         1 GLU         0.0433
    246 H83        -8.4921  -26.2770   14.8272 H         1 TRP         0.1884
    247 H84        -6.4634  -27.0301   13.0172 H         1 TRP         0.0815
    248 H85        -6.2346  -29.0000   14.8237 H         1 TRP         0.0397
    249 H86        -7.3847  -27.9559   15.7257 H         1 TRP         0.0397
    250 H87        -5.9869  -26.6447   17.4554 H         1 TRP         0.0795
    251 H88        -3.7791  -25.2759   17.4484 H         1 TRP         0.2216
    252 H89        -4.5510  -27.5703   12.6288 H         1 TRP         0.0540
    253 H90        -1.7376  -24.7035   15.5952 H         1 TRP         0.0541
    254 H91        -2.4499  -26.5710   11.8065 H         1 TRP         0.0510
    255 H92        -1.0613  -25.1605   13.2730 H         1 TRP         0.0530
    256 H93        -9.1675  -29.0863   14.2343 H         1 GLU         0.1883
    257 H94        -8.5847  -31.4237   12.8167 H         1 GLU         0.0801
    258 H95       -11.1702  -31.7368   12.8611 H         1 GLU         0.0330
    259 H96       -11.1865  -30.1739   13.7465 H         1 GLU         0.0330
    260 H97        -9.3596  -32.3838   14.6700 H         1 GLU         0.0433
    261 H98       -11.1158  -32.4740   15.0365 H         1 GLU         0.0433
    262 H99       -10.4147  -28.5755   11.6587 H         1 CYS         0.1884
    263 H100      -11.1817  -29.7944    9.1598 H         1 CYS         0.0808
    264 H101      -11.7369  -27.4964    8.4514 H         1 CYS         0.0432
    265 H102      -10.9143  -26.8494    9.9114 H         1 CYS         0.0432
    266 H103       -8.3753  -27.9273   10.2689 H         1 PHE         0.1885
    267 H104       -7.2829  -27.4372    7.6479 H         1 PHE         0.0823
    268 H105       -5.0815  -27.2127    8.9885 H         1 PHE         0.0474
    269 H106       -6.1004  -27.4647   10.4462 H         1 PHE         0.0474
    270 H107       -7.0954  -25.4940    7.4131 H         1 PHE         0.0557
    271 H108       -5.7865  -25.3929   11.4780 H         1 PHE         0.0557
    272 H109       -7.5809  -23.0820    7.5151 H         1 PHE         0.0599
    273 H110       -6.2596  -22.9842   11.5722 H         1 PHE         0.0599
    274 H111       -7.1595  -21.8235    9.5930 H         1 PHE         0.0559
    275 H112       -6.9425  -30.0410   10.0421 H         1 GLU         0.1883
    276 H113       -4.7703  -31.3963    8.7750 H         1 GLU         0.0801
    277 H114       -5.6149  -33.3943   10.0727 H         1 GLU         0.0330
    278 H115       -7.0045  -32.3859   10.6005 H         1 GLU         0.0330
    279 H116       -5.7149  -31.0758   11.9798 H         1 GLU         0.0433
    280 H117       -4.2213  -31.3338   11.0158 H         1 GLU         0.0433
    281 H118       -8.2892  -31.5454    8.3670 H         1 ARG         0.1883
    282 H119       -7.8649  -33.3827    6.0428 H         1 ARG         0.0800
    283 H120       -9.1244  -34.5169    7.7653 H         1 ARG         0.0313
    284 H121      -10.2335  -34.1024    6.4145 H         1 ARG         0.0313
    285 H122      -10.6011  -31.9205    7.9592 H         1 ARG         0.0301
    286 H123      -10.1555  -33.1049    9.2341 H         1 ARG         0.0301
    287 H124      -11.9450  -34.5542    7.7029 H         1 ARG         0.0689
    288 H125      -12.6154  -32.8916    7.5881 H         1 ARG         0.0689
    289 H126      -12.4331  -32.9004   10.1684 H         1 ARG         0.2642
    290 H127      -13.9543  -36.6647    9.6662 H         1 ARG         0.2615
    291 H128      -13.1292  -35.9007    8.2812 H         1 ARG         0.2615
    292 H129      -13.4663  -33.9254   11.8479 H         1 ARG         0.2615
    293 H130      -14.1602  -35.5557   11.6400 H         1 ARG         0.2615
    294 H131       -7.3771  -31.2514    4.9948 H         1 LEU         0.1875
    295 H132       -9.7250  -29.5552    4.4497 H         1 LEU         0.0726
    296 H133       -8.0609  -28.2762    3.0345 H         1 LEU         0.0308
    297 H134       -6.8046  -29.4315    3.5945 H         1 LEU         0.0308
    298 H135       -7.5439  -28.7291    5.9823 H         1 LEU         0.0297
    299 H136       -5.9956  -26.8025    5.9375 H         1 LEU         0.0232
    300 H137       -6.0867  -26.7768    4.1438 H         1 LEU         0.0232
    301 H138       -5.3662  -28.1902    4.9863 H         1 LEU         0.0232
    302 H139       -9.5854  -27.5231    5.2779 H         1 LEU         0.0232
    303 H140       -8.5724  -26.3492    4.3710 H         1 LEU         0.0232
    304 H141       -8.4439  -26.4526    6.1597 H         1 LEU         0.0232
@<TRIPOS>BOND
     1    1    2 1  
     2    2    3 1  
     3    3    4 2  
     4    3    5 am 
     5    5    6 1  
     6    6    7 1  
     7    7    8 2  
     8    7    9 am 
     9    9   10 1  
    10   10   11 1  
    11   10   13 1  
    12   11   12 2  
    13   11   17 am 
    14   13   14 1  
    15   14   15 2  
    16   14   16 am 
    17   17   18 1  
    18   18   19 1  
    19   18   21 1  
    20   19   20 2  
    21   19   26 am 
    22   21   22 1  
    23   22   23 1  
    24   23   24 ar 
    25   23   25 ar 
    26   26   27 1  
    27   27   28 1  
    28   27   30 1  
    29   28   29 2  
    30   28   32 am 
    31   30   31 1  
    32   31  123 1  
    33   32   33 1  
    34   33   34 1  
    35   33   36 1  
    36   34   35 2  
    37   34   40 am 
    38   36   37 1  
    39   37   38 ar 
    40   37   39 ar 
    41   40   41 1  
    42   41   42 1  
    43   41   44 1  
    44   42   43 2  
    45   42   48 am 
    46   44   45 1  
    47   44   46 1  
    48   45   47 1  
    49   48   49 1  
    50   49   50 1  
    51   49   52 1  
    52   50   51 2  
    53   50   53 am 
    54   53   54 1  
    55   54   55 1  
    56   54   57 1  
    57   55   56 2  
    58   55   64 am 
    59   57   58 1  
    60   58   59 1  
    61   59   60 1  
    62   60   61 ar 
    63   61   62 ar 
    64   61   63 ar 
    65   64   65 1  
    66   65   66 1  
    67   65   68 1  
    68   66   67 2  
    69   66   72 am 
    70   68   69 1  
    71   69   70 1  
    72   70   71 1  
    73   72   73 1  
    74   73   74 1  
    75   73   76 1  
    76   74   75 2  
    77   74   86 am 
    78   76   77 1  
    79   77   78 2  
    80   77   79 1  
    81   78   80 1  
    82   79   81 ar 
    83   79   82 ar 
    84   80   81 1  
    85   81   83 ar 
    86   82   84 ar 
    87   83   85 ar 
    88   84   85 ar 
    89   86   87 1  
    90   87   88 1  
    91   87   90 1  
    92   88   89 2  
    93   88   95 am 
    94   90   91 1  
    95   91   92 1  
    96   92   93 ar 
    97   92   94 ar 
    98   95   96 1  
    99   96   97 1  
   100   96   99 1  
   101   97   98 2  
   102   97  109 am 
   103   99  100 1  
   104  100  101 2  
   105  100  102 1  
   106  101  103 1  
   107  102  104 ar 
   108  102  105 ar 
   109  103  104 1  
   110  104  106 ar 
   111  105  107 ar 
   112  106  108 ar 
   113  107  108 ar 
   114  109  110 1  
   115  110  111 1  
   116  110  113 1  
   117  111  112 2  
   118  111  118 am 
   119  113  114 1  
   120  114  115 1  
   121  115  116 ar 
   122  115  117 ar 
   123  118  119 1  
   124  119  120 1  
   125  119  122 1  
   126  120  121 2  
   127  120  124 am 
   128  122  123 1  
   129  124  125 1  
   130  125  126 1  
   131  125  128 1  
   132  126  127 2  
   133  126  135 am 
   134  128  129 1  
   135  129  130 ar 
   136  129  131 ar 
   137  130  132 ar 
   138  131  133 ar 
   139  132  134 ar 
   140  133  134 ar 
   141  135  136 1  
   142  136  137 1  
   143  136  139 1  
   144  137  138 2  
   145  137  144 am 
   146  139  140 1  
   147  140  141 1  
   148  141  142 ar 
   149  141  143 ar 
   150  144  145 1  
   151  145  146 1  
   152  145  148 1  
   153  146  147 2  
   154  146  155 am 
   155  148  149 1  
   156  149  150 1  
   157  150  151 1  
   158  151  152 ar 
   159  152  153 ar 
   160  152  154 ar 
   161  155  156 1  
   162  156  157 1  
   163  156  159 1  
   164  157  158 ar 
   165  157  163 ar 
   166  159  160 1  
   167  160  161 1  
   168  160  162 1  
   169    1  164 1  
   170    1  165 1  
   171    1  166 1  
   172    2  167 1  
   173    2  168 1  
   174    5  169 1  
   175    6  170 1  
   176    6  171 1  
   177    9  172 1  
   178   10  173 1  
   179   13  174 1  
   180   13  175 1  
   181   16  176 1  
   182   16  177 1  
   183   17  178 1  
   184   18  179 1  
   185   21  180 1  
   186   21  181 1  
   187   22  182 1  
   188   22  183 1  
   189   26  184 1  
   190   27  185 1  
   191   30  186 1  
   192   30  187 1  
   193   32  188 1  
   194   33  189 1  
   195   36  190 1  
   196   36  191 1  
   197   40  192 1  
   198   41  193 1  
   199   44  194 1  
   200   45  195 1  
   201   45  196 1  
   202   46  197 1  
   203   46  198 1  
   204   46  199 1  
   205   47  200 1  
   206   47  201 1  
   207   47  202 1  
   208   48  203 1  
   209   49  204 1  
   210   52  205 1  
   211   52  206 1  
   212   52  207 1  
   213   53  208 1  
   214   54  209 1  
   215   57  210 1  
   216   57  211 1  
   217   58  212 1  
   218   58  213 1  
   219   59  214 1  
   220   59  215 1  
   221   60  216 1  
   222   62  217 1  
   223   62  218 1  
   224   63  219 1  
   225   63  220 1  
   226   64  221 1  
   227   65  222 1  
   228   68  223 1  
   229   68  224 1  
   230   69  225 1  
   231   69  226 1  
   232   71  227 1  
   233   71  228 1  
   234   71  229 1  
   235   72  230 1  
   236   73  231 1  
   237   76  232 1  
   238   76  233 1  
   239   78  234 1  
   240   80  235 1  
   241   82  236 1  
   242   83  237 1  
   243   84  238 1  
   244   85  239 1  
   245   86  240 1  
   246   87  241 1  
   247   90  242 1  
   248   90  243 1  
   249   91  244 1  
   250   91  245 1  
   251   95  246 1  
   252   96  247 1  
   253   99  248 1  
   254   99  249 1  
   255  101  250 1  
   256  103  251 1  
   257  105  252 1  
   258  106  253 1  
   259  107  254 1  
   260  108  255 1  
   261  109  256 1  
   262  110  257 1  
   263  113  258 1  
   264  113  259 1  
   265  114  260 1  
   266  114  261 1  
   267  118  262 1  
   268  119  263 1  
   269  122  264 1  
   270  122  265 1  
   271  124  266 1  
   272  125  267 1  
   273  128  268 1  
   274  128  269 1  
   275  130  270 1  
   276  131  271 1  
   277  132  272 1  
   278  133  273 1  
   279  134  274 1  
   280  135  275 1  
   281  136  276 1  
   282  139  277 1  
   283  139  278 1  
   284  140  279 1  
   285  140  280 1  
   286  144  281 1  
   287  145  282 1  
   288  148  283 1  
   289  148  284 1  
   290  149  285 1  
   291  149  286 1  
   292  150  287 1  
   293  150  288 1  
   294  151  289 1  
   295  153  290 1  
   296  153  291 1  
   297  154  292 1  
   298  154  293 1  
   299  155  294 1  
   300  156  295 1  
   301  159  296 1  
   302  159  297 1  
   303  160  298 1  
   304  161  299 1  
   305  161  300 1  
   306  161  301 1  
   307  162  302 1  
   308  162  303 1  
   309  162  304 1  
@<TRIPOS>SUBSTRUCTURE
     1 GLY         1

