4qhp_ligand
  -I-interpret- 

 56 57  0  0  0  0  0  0  0  0999 V2000
    9.5130   44.0830   -4.2180 P   0  0  0  0  0
   12.0150   43.7110   -3.1070 C   0  0  0  0  0
   11.2550   44.4260   -4.2150 C   0  0  0  0  0
   13.5400   43.9440   -3.1020 C   0  0  0  0  0
   14.4690   42.7690   -3.0460 C   0  0  0  0  0
   11.4100   45.9550   -4.1390 N   0  3  0  0  0
    9.2580   42.3180   -4.3730 C   0  0  0  0  0
    8.9030   44.9290   -5.3160 O   0  0  0  0  0
    8.0320   41.7310   -3.6440 C   0  0  0  0  0
    8.9630   44.5330   -2.9180 O   0  0  0  0  0
    8.1520   40.1680   -3.4450 C   0  0  0  0  0
    6.7910   41.9440   -4.4280 C   0  0  0  0  0
   14.4610   41.7510   -4.0150 C   0  0  0  0  0
    5.4630   41.8740   -3.7260 C   0  0  0  0  0
   15.3670   40.6450   -3.9890 C   0  0  0  0  0
   16.3080   40.5580   -2.9620 C   0  0  0  0  0
   16.3440   41.5690   -1.9860 C   0  0  0  0  0
   15.4340   42.6530   -2.0290 C   0  0  0  0  0
    1.5570   41.7570   -1.6650 C   0  0  0  0  0
    7.1790   39.4310   -3.7550 O   0  0  0  0  0
    9.2560   39.7870   -2.9990 O   0  0  0  0  0
    0.3780   41.6370   -2.4970 N   0  3  0  0  0
    5.3400   42.0040   -2.3370 C   0  0  0  0  0
    4.0880   41.9650   -1.7080 C   0  0  0  0  0
    2.8940   41.7920   -2.4350 C   0  0  0  0  0
    3.0220   41.6630   -3.8090 C   0  0  0  0  0
    4.2740   41.7040   -4.4240 C   0  0  0  0  0
   11.8617   42.6428   -3.2607 H   0  0  0  0  0
   11.6351   44.1025   -2.1633 H   0  0  0  0  0
   11.7039   44.0364   -5.1287 H   0  0  0  0  0
   13.7321   44.4914   -2.1792 H   0  0  0  0  0
   13.7498   44.4157   -4.0620 H   0  0  0  0  0
   10.8847   46.3870   -4.8992 H   0  0  0  0  0
   11.0511   46.2879   -3.2441 H   0  0  0  0  0
   12.3965   46.2002   -4.2235 H   0  0  0  0  0
   10.1310   41.8468   -3.9213 H   0  0  0  0  0
    9.0961   42.1292   -5.4343 H   0  0  0  0  0
    9.2509   44.6481   -6.1655 H   0  0  0  0  0
    7.9945   42.2421   -2.6820 H   0  0  0  0  0
    6.7707   41.1264   -5.1486 H   0  0  0  0  0
    6.8619   42.9688   -4.7924 H   0  0  0  0  0
   13.7313   41.8071   -4.8227 H   0  0  0  0  0
   15.3232   39.8784   -4.7627 H   0  0  0  0  0
   17.0035   39.7199   -2.9174 H   0  0  0  0  0
   17.0821   41.5178   -1.1856 H   0  0  0  0  0
   15.4825   43.4177   -1.2537 H   0  0  0  0  0
    1.5837   40.8744   -1.0259 H   0  0  0  0  0
    1.4735   42.7052   -1.1339 H   0  0  0  0  0
    6.4542   39.9757   -4.0706 H   0  0  0  0  0
   -0.4534   41.6218   -1.9063 H   0  0  0  0  0
    0.3300   42.4327   -3.1333 H   0  0  0  0  0
    0.4298   40.7722   -3.0354 H   0  0  0  0  0
    6.2369   42.1384   -1.7323 H   0  0  0  0  0
    4.0368   42.0717   -0.6244 H   0  0  0  0  0
    2.1294   41.5272   -4.4197 H   0  0  0  0  0
    4.3214   41.5971   -5.5077 H   0  0  0  0  0
  1  3  1  0  0  0
  7  1  1  0  0  0
  1  8  1  0  0  0
  1 10  2  0  0  0
  3  2  1  0  0  0
  2  4  1  0  0  0
  3  6  1  0  0  0
  4  5  1  0  0  0
  5 13  4  0  0  0
  5 18  4  0  0  0
  9  7  1  0  0  0
  9 11  1  0  0  0
 12  9  1  0  0  0
 11 20  1  0  0  0
 11 21  2  0  0  0
 14 12  1  0  0  0
 13 15  4  0  0  0
 23 14  4  0  0  0
 14 27  4  0  0  0
 15 16  4  0  0  0
 17 16  4  0  0  0
 18 17  4  0  0  0
 19 22  1  0  0  0
 25 19  1  0  0  0
 24 23  4  0  0  0
 24 25  4  0  0  0
 25 26  4  0  0  0
 26 27  4  0  0  0
  2 28  1  0  0  0
  2 29  1  0  0  0
  3 30  1  0  0  0
  4 31  1  0  0  0
  4 32  1  0  0  0
  6 33  1  0  0  0
  6 34  1  0  0  0
  6 35  1  0  0  0
  7 36  1  0  0  0
  7 37  1  0  0  0
  8 38  1  0  0  0
  9 39  1  0  0  0
 12 40  1  0  0  0
 12 41  1  0  0  0
 13 42  1  0  0  0
 15 43  1  0  0  0
 16 44  1  0  0  0
 17 45  1  0  0  0
 18 46  1  0  0  0
 19 47  1  0  0  0
 19 48  1  0  0  0
 20 49  1  0  0  0
 22 50  1  0  0  0
 22 51  1  0  0  0
 22 52  1  0  0  0
 23 53  1  0  0  0
 24 54  1  0  0  0
 26 55  1  0  0  0
 27 56  1  0  0  0
M  END
$$$$
