### 
### Created by X-TOOL on Mon Sep 10 21:13:16 2018
### 

@<TRIPOS>MOLECULE
4qhp_ligand
   54    55     1     0     0
SMALL
GAST_HUCK


@<TRIPOS>ATOM
      1 P11         9.5130   44.0830   -4.2180 P.3       1 32Q         0.0376
      2 C1         12.0150   43.7110   -3.1070 C.3       1 32Q         0.0167
      3 C3         11.2550   44.4260   -4.2150 C.3       1 32Q         0.0390
      4 C6         13.5400   43.9440   -3.1020 C.3       1 32Q        -0.0124
      5 C8         14.4690   42.7690   -3.0460 C.ar      1 32Q        -0.0428
      6 N10        11.4100   45.9550   -4.1390 N.4       1 32Q         0.2337
      7 C11         9.2580   42.3180   -4.3730 C.3       1 32Q         0.0346
      8 O12         8.9030   44.9290   -5.3160 O.co2     1 32Q        -0.6154
      9 C13         8.0320   41.7310   -3.6440 C.3       1 32Q         0.0365
     10 O13         8.9630   44.5330   -2.9180 O.co2     1 32Q        -0.6154
     11 C15         8.1520   40.1680   -3.4450 C.2       1 32Q         0.0412
     12 C16         6.7910   41.9440   -4.4280 C.3       1 32Q        -0.0064
     13 C17        14.4610   41.7510   -4.0150 C.ar      1 32Q        -0.0603
     14 C18         5.4630   41.8740   -3.7260 C.ar      1 32Q        -0.0478
     15 C19        15.3670   40.6450   -3.9890 C.ar      1 32Q        -0.0686
     16 C20        16.3080   40.5580   -2.9620 C.ar      1 32Q        -0.0687
     17 C21        16.3440   41.5690   -1.9860 C.ar      1 32Q        -0.0686
     18 C22        15.4340   42.6530   -2.0290 C.ar      1 32Q        -0.0603
     19 C23         1.5570   41.7570   -1.6650 C.3       1 32Q        -0.0046
     20 O23         7.1790   39.4310   -3.7550 O.co2     1 32Q        -0.5685
     21 O24         9.2560   39.7870   -2.9990 O.co2     1 32Q        -0.5685
     22 N24         0.3780   41.6370   -2.4970 N.4       1 32Q         0.2299
     23 C36         5.3400   42.0040   -2.3370 C.ar      1 32Q        -0.0665
     24 C37         4.0880   41.9650   -1.7080 C.ar      1 32Q        -0.0618
     25 C38         2.8940   41.7920   -2.4350 C.ar      1 32Q        -0.0054
     26 C39         3.0220   41.6630   -3.8090 C.ar      1 32Q        -0.0618
     27 C40         4.2740   41.7040   -4.4240 C.ar      1 32Q        -0.0665
     28 H          11.8360   42.6309   -3.2134 H         1 32Q         0.0359
     29 H          11.6147   44.0558   -2.1422 H         1 32Q         0.0359
     30 H          11.6749   44.0806   -5.1712 H         1 32Q         0.1066
     31 H          13.7645   44.5705   -2.2262 H         1 32Q         0.0428
     32 H          13.7814   44.4983   -4.0209 H         1 32Q         0.0428
     33 H          12.3893   46.1936   -4.1350 H         1 32Q         0.2013
     34 H          10.9779   46.2950   -3.2942 H         1 32Q         0.2013
     35 H          10.9644   46.3781   -4.9381 H         1 32Q         0.2013
     36 H          10.1533   41.8154   -3.9782 H         1 32Q         0.0489
     37 H           9.1510   42.0889   -5.4435 H         1 32Q         0.0489
     38 H           7.9409   42.2212   -2.6635 H         1 32Q         0.0502
     39 H           6.7764   41.1823   -5.2214 H         1 32Q         0.0434
     40 H           6.8636   42.9438   -4.8808 H         1 32Q         0.0434
     41 H          13.7353   41.8068   -4.8183 H         1 32Q         0.0557
     42 H          15.3234   39.8826   -4.7584 H         1 32Q         0.0599
     43 H          16.9997   39.7246   -2.9177 H         1 32Q         0.0559
     44 H          17.0781   41.5181   -1.1900 H         1 32Q         0.0599
     45 H          15.4822   43.4135   -1.2580 H         1 32Q         0.0557
     46 H           1.5801   40.8975   -0.9789 H         1 32Q         0.0965
     47 H           1.4725   42.6875   -1.0845 H         1 32Q         0.0965
     48 H          -0.4443   41.6219   -1.9142 H         1 32Q         0.2007
     49 H           0.4281   40.7826   -3.0296 H         1 32Q         0.2007
     50 H           0.3294   42.4229   -3.1263 H         1 32Q         0.2007
     51 H           6.2319   42.1376   -1.7356 H         1 32Q         0.0540
     52 H           4.0371   42.0711   -0.6304 H         1 32Q         0.0542
     53 H           2.1343   41.5279   -4.4163 H         1 32Q         0.0542
     54 H           4.3212   41.5977   -5.5018 H         1 32Q         0.0540
@<TRIPOS>BOND
     1    1    3 1  
     2    7    1 1  
     3    1    8 ar 
     4    1   10 ar 
     5    3    2 1  
     6    2    4 1  
     7    3    6 1  
     8    4    5 1  
     9    5   13 ar 
    10    5   18 ar 
    11    9    7 1  
    12    9   11 1  
    13   12    9 1  
    14   11   20 ar 
    15   11   21 ar 
    16   14   12 1  
    17   13   15 ar 
    18   23   14 ar 
    19   14   27 ar 
    20   15   16 ar 
    21   17   16 ar 
    22   18   17 ar 
    23   19   22 1  
    24   25   19 1  
    25   24   23 ar 
    26   24   25 ar 
    27   25   26 ar 
    28   26   27 ar 
    29    2   28 1  
    30    2   29 1  
    31    3   30 1  
    32    4   31 1  
    33    4   32 1  
    34    6   33 1  
    35    6   34 1  
    36    6   35 1  
    37    7   36 1  
    38    7   37 1  
    39    9   38 1  
    40   12   39 1  
    41   12   40 1  
    42   13   41 1  
    43   15   42 1  
    44   16   43 1  
    45   17   44 1  
    46   18   45 1  
    47   19   46 1  
    48   19   47 1  
    49   22   48 1  
    50   22   49 1  
    51   22   50 1  
    52   23   51 1  
    53   24   52 1  
    54   26   53 1  
    55   27   54 1  
@<TRIPOS>SUBSTRUCTURE
     1 32Q         1

