5ggj_ligand
  -I-interpret- 

 36 37  0  0  0  0  0  0  0  0999 V2000
   16.2940  -11.7360    0.1040 C   0  0  0  0  0
   17.3020  -11.0470   -0.8470 C   0  0  0  0  0
   17.5440   -9.5380   -0.6710 C   0  0  0  0  0
   16.8080   -8.9240    0.5130 C   0  0  0  0  0
   16.7330   -9.9660    1.6100 C   0  0  0  0  0
   16.2190   -9.4140    2.9280 C   0  0  0  0  0
   17.7660  -13.6430    0.5250 C   0  0  0  0  0
   18.9330  -13.7050    1.2670 C   0  0  0  0  0
   19.9080  -14.5820    0.8780 C   0  0  0  0  0
   19.6730  -15.3770   -0.2220 C   0  0  0  0  0
   18.5020  -15.3340   -0.9670 C   0  0  0  0  0
   17.5200  -14.4530   -0.5730 C   0  0  0  0  0
   20.7020  -16.2250   -0.5710 N   0  0  0  0  0
   16.8350  -12.7660    0.9270 O   0  0  0  0  0
   16.9530  -11.3010   -2.2230 O   0  0  0  0  0
   17.2020   -8.8280   -1.8710 O   0  0  0  0  0
   17.5120   -7.7630    0.9500 O   0  0  0  0  0
   15.7820  -10.8970    1.1260 O   0  0  0  0  0
   14.8290   -9.0900    2.8120 O   0  0  0  0  0
   20.8180  -16.6230   -1.9010 O   0  0  0  0  0
   21.6170  -16.6000    0.4130 O   0  0  0  0  0
   15.5693  -12.0759   -0.6358 H   0  0  0  0  0
   18.2463  -11.5083   -0.5580 H   0  0  0  0  0
   18.6089   -9.4371   -0.4613 H   0  0  0  0  0
   15.7976   -8.6222    0.2370 H   0  0  0  0  0
   17.7236  -10.3723    1.8142 H   0  0  0  0  0
   16.7779   -8.5136    3.1830 H   0  0  0  0  0
   16.3492  -10.1648    3.7074 H   0  0  0  0  0
   19.0718  -13.0693    2.1415 H   0  0  0  0  0
   20.8482  -14.6501    1.4253 H   0  0  0  0  0
   18.3646  -15.9773   -1.8361 H   0  0  0  0  0
   16.5736  -14.3939   -1.1105 H   0  0  0  0  0
   16.7995  -12.2408   -2.3448 H   0  0  0  0  0
   17.6672   -9.2170   -2.6152 H   0  0  0  0  0
   17.5437   -7.1218    0.2362 H   0  0  0  0  0
   14.5118   -8.7420    3.6486 H   0  0  0  0  0
  1  2  1  0  0  0
 14  1  1  0  0  0
  1 18  1  0  0  0
  2  3  1  0  0  0
  2 15  1  0  0  0
  3  4  1  0  0  0
  3 16  1  0  0  0
  5  4  1  0  0  0
  4 17  1  0  0  0
  5  6  1  0  0  0
 18  5  1  0  0  0
  6 19  1  0  0  0
  7  8  4  0  0  0
  7 12  4  0  0  0
  7 14  1  0  0  0
  8  9  4  0  0  0
  9 10  4  0  0  0
 10 11  4  0  0  0
 10 13  1  0  0  0
 11 12  4  0  0  0
 13 20  2  0  0  0
 13 21  2  0  0  0
  1 22  1  0  0  0
  2 23  1  0  0  0
  3 24  1  0  0  0
  4 25  1  0  0  0
  5 26  1  0  0  0
  6 27  1  0  0  0
  6 28  1  0  0  0
  8 29  1  0  0  0
  9 30  1  0  0  0
 11 31  1  0  0  0
 12 32  1  0  0  0
 15 33  1  0  0  0
 16 34  1  0  0  0
 17 35  1  0  0  0
 19 36  1  0  0  0
M  END
$$$$
