4o0j_ligand
  -I-interpret- 

 62 64  0  0  0  0  0  0  0  0999 V2000
   48.2310  -15.4000   28.0770 N   0  0  0  0  0
   47.3890  -16.4580   28.1640 C   0  0  0  0  0
   46.0040  -16.2920   28.4130 C   0  0  0  0  0
   45.5480  -14.9720   28.5380 C   0  0  0  0  0
   46.4480  -13.8870   28.4120 C   0  0  0  0  0
   47.8240  -14.1320   28.1660 C   0  0  0  0  0
   44.1230  -14.7390   28.7480 C   0  0  0  0  0
   43.7010  -14.4000   30.0360 C   0  0  0  0  0
   42.3620  -14.1600   30.2710 C   0  0  0  0  0
   41.4860  -14.2760   29.1910 C   0  0  0  0  0
   41.8820  -14.5640   27.8960 C   0  0  0  0  0
   43.2420  -14.8440   27.6680 C   0  0  0  0  0
   39.7920  -13.9330   29.5820 Cl  0  0  0  0  0
   45.0380  -17.4760   28.5180 C   0  0  0  0  0
   48.9770  -13.1310   28.0780 C   0  0  0  0  0
   48.0620  -17.7990   28.0120 C   0  0  0  0  0
   48.1770  -18.4730   26.8020 C   0  0  0  0  0
   48.8370  -19.7290   26.7750 C   0  0  0  0  0
   49.3990  -20.2720   27.9450 C   0  0  0  0  0
   49.3080  -19.5650   29.1500 C   0  0  0  0  0
   48.6400  -18.3330   29.1490 C   0  0  0  0  0
   50.1060  -21.6160   27.9080 C   0  0  0  0  0
   49.8930  -20.0890   30.4570 C   0  0  0  0  0
   45.9110  -12.5080   28.6170 C   0  0  0  0  0
   46.4080  -12.0920   29.9890 C   0  0  0  0  0
   46.4160  -11.5840   27.6770 O   0  0  0  0  0
   45.8060  -11.4180   26.3880 C   0  0  0  0  0
   46.0160  -12.6140   25.5070 C   0  0  0  0  0
   46.5280  -10.2230   25.7180 C   0  0  0  0  0
   44.3240  -11.1740   26.6170 C   0  0  0  0  0
   46.6550  -10.8980   30.1860 O   0  0  0  0  0
   46.5860  -12.9290   30.9030 O   0  0  0  0  0
   44.4233  -14.3256   30.8489 H   0  0  0  0  0
   42.0022  -13.8898   31.2638 H   0  0  0  0  0
   41.1620  -14.5736   27.0777 H   0  0  0  0  0
   43.5976  -15.1339   26.6793 H   0  0  0  0  0
   45.0469  -18.0346   27.5821 H   0  0  0  0  0
   45.3508  -18.1272   29.3342 H   0  0  0  0  0
   44.0313  -17.1058   28.7122 H   0  0  0  0  0
   49.6782  -13.3139   28.8922 H   0  0  0  0  0
   49.4882  -13.2507   27.1228 H   0  0  0  0  0
   48.5834  -12.1176   28.1565 H   0  0  0  0  0
   47.7667  -18.0436   25.8880 H   0  0  0  0  0
   48.9094  -20.2794   25.8370 H   0  0  0  0  0
   48.5734  -17.7733   30.0819 H   0  0  0  0  0
   49.4073  -22.3836   27.5754 H   0  0  0  0  0
   50.9468  -21.5639   27.2163 H   0  0  0  0  0
   50.4694  -21.8615   28.9059 H   0  0  0  0  0
   49.4275  -21.0428   30.7053 H   0  0  0  0  0
   50.9682  -20.2268   30.3429 H   0  0  0  0  0
   49.7000  -19.3707   31.2538 H   0  0  0  0  0
   44.8261  -12.5140   28.5121 H   0  0  0  0  0
   47.0844  -12.7724   25.3602 H   0  0  0  0  0
   45.5786  -13.4933   25.9799 H   0  0  0  0  0
   45.5370  -12.4422   24.5431 H   0  0  0  0  0
   46.3980   -9.3314   26.3313 H   0  0  0  0  0
   47.5902  -10.4487   25.6233 H   0  0  0  0  0
   46.1023  -10.0508   24.7295 H   0  0  0  0  0
   43.8925  -12.0289   27.1376 H   0  0  0  0  0
   44.1940  -10.2758   27.2207 H   0  0  0  0  0
   43.8260  -11.0428   25.6563 H   0  0  0  0  0
   46.3474  -13.8031   30.5858 H   0  0  0  0  0
  1  2  4  0  0  0
  1  6  4  0  0  0
  2  3  4  0  0  0
  2 16  1  0  0  0
  3  4  4  0  0  0
  3 14  1  0  0  0
  4  5  4  0  0  0
  4  7  1  0  0  0
  5  6  4  0  0  0
  5 24  1  0  0  0
  6 15  1  0  0  0
  7  8  4  0  0  0
  7 12  4  0  0  0
  8  9  4  0  0  0
  9 10  4  0  0  0
 10 11  4  0  0  0
 10 13  1  0  0  0
 11 12  4  0  0  0
 16 17  4  0  0  0
 16 21  4  0  0  0
 17 18  4  0  0  0
 18 19  4  0  0  0
 19 20  4  0  0  0
 19 22  1  0  0  0
 20 21  4  0  0  0
 20 23  1  0  0  0
 24 25  1  0  0  0
 24 26  1  0  0  0
 25 31  2  0  0  0
 25 32  1  0  0  0
 26 27  1  0  0  0
 27 28  1  0  0  0
 27 29  1  0  0  0
 27 30  1  0  0  0
  8 33  1  0  0  0
  9 34  1  0  0  0
 11 35  1  0  0  0
 12 36  1  0  0  0
 14 37  1  0  0  0
 14 38  1  0  0  0
 14 39  1  0  0  0
 15 40  1  0  0  0
 15 41  1  0  0  0
 15 42  1  0  0  0
 17 43  1  0  0  0
 18 44  1  0  0  0
 21 45  1  0  0  0
 22 46  1  0  0  0
 22 47  1  0  0  0
 22 48  1  0  0  0
 23 49  1  0  0  0
 23 50  1  0  0  0
 23 51  1  0  0  0
 24 52  1  0  0  0
 28 53  1  0  0  0
 28 54  1  0  0  0
 28 55  1  0  0  0
 29 56  1  0  0  0
 29 57  1  0  0  0
 29 58  1  0  0  0
 30 59  1  0  0  0
 30 60  1  0  0  0
 30 61  1  0  0  0
 32 62  1  0  0  0
M  END
$$$$
