3nus_ligand
  -I-interpret- 

 16 17  0  0  0  0  0  0  0  0999 V2000
  -41.6470   16.7550   12.7440 C   0  0  0  0  0
  -42.6540   15.9820   12.2070 C   0  0  0  0  0
  -40.3940   16.2470   13.0120 C   0  0  0  0  0
  -42.4820   14.6480   11.9040 C   0  0  0  0  0
  -40.1960   14.9090   12.7170 C   0  0  0  0  0
  -41.2270   14.1640   12.1840 C   0  0  0  0  0
  -39.1000   14.0160   12.8290 C   0  0  0  0  0
  -39.4300   12.7990   12.3950 N   0  0  0  0  0
  -40.7100   12.9160   12.0150 N   0  0  0  0  0
  -37.8980   14.4010   13.3140 N   0  0  0  0  0
  -41.8483   17.8034   12.9641 H   0  0  0  0  0
  -43.6229   16.4428   12.0146 H   0  0  0  0  0
  -39.6016   16.8655   13.4335 H   0  0  0  0  0
  -43.2734   14.0306   11.4790 H   0  0  0  0  0
  -37.7547   15.3648   13.6155 H   0  0  0  0  0
  -37.1346   13.7276   13.3784 H   0  0  0  0  0
  1  2  4  0  0  0
  1  3  4  0  0  0
  2  4  4  0  0  0
  3  5  4  0  0  0
  4  6  4  0  0  0
  5  6  4  0  0  0
  5  7  4  0  0  0
  6  9  4  0  0  0
  7  8  4  0  0  0
  7 10  1  0  0  0
  8  9  4  0  0  0
  1 11  1  0  0  0
  2 12  1  0  0  0
  3 13  1  0  0  0
  4 14  1  0  0  0
 10 15  1  0  0  0
 10 16  1  0  0  0
M  END
$$$$
