2qd8_ligand
  -I-interpret- 

 76 80  0  0  0  0  0  0  0  0999 V2000
   20.7090   27.7160   14.8540 C   0  0  0  0  0
   21.5860   28.7490   14.7200 O   0  0  0  0  0
   22.8190   28.2580   15.1430 C   0  0  0  0  0
   22.6870   26.9580   15.5850 O   0  0  0  0  0
   21.3650   26.6280   15.4210 C   0  0  0  0  0
   20.6830   25.4480   15.6980 C   0  0  0  0  0
   19.3350   25.4000   15.4050 C   0  0  0  0  0
   18.6950   26.4650   14.7960 C   0  0  0  0  0
   19.3760   27.6400   14.5180 C   0  0  0  0  0
   18.4100   23.9910   15.8940 S   0  0  0  0  0
   17.2920   23.8100   14.9690 O   0  0  0  0  0
   19.3530   22.8500   16.0300 O   0  0  0  0  0
   17.7780   24.2250   17.3930 N   0  0  0  0  0
   18.7330   24.4620   18.4530 C   0  0  0  0  0
   18.3290   23.8850   19.8230 C   0  0  0  0  0
   18.2060   22.3750   19.7590 C   0  0  0  0  0
   19.4010   24.2830   20.8460 C   0  0  0  0  0
   16.5280   24.9640   17.4540 C   0  0  0  0  0
   15.3760   24.0910   17.9560 C   0  0  0  0  0
   14.2200   24.8620   18.2540 O   0  0  0  0  0
   14.9920   22.9510   17.0200 C   0  0  0  0  0
   14.1330   22.0470   17.7640 N   0  0  0  0  0
   14.4210   20.7930   18.0960 C   0  0  0  0  0
   15.4840   20.2190   17.8230 O   0  0  0  0  0
   13.4160   20.1810   18.7560 O   0  0  0  0  0
   13.6080   18.7930   19.0350 C   0  0  0  0  0
   13.0130   18.5840   20.4330 C   0  0  0  0  0
   11.5790   18.5830   20.2550 O   0  0  0  0  0
   11.3230   18.0010   18.9890 C   0  0  0  0  0
   10.3890   18.8400   18.2990 O   0  0  0  0  0
   11.0500   19.4490   17.2120 C   0  0  0  0  0
   12.2280   18.5370   16.8290 C   0  0  0  0  0
   12.6220   17.9720   18.1950 C   0  0  0  0  0
   14.2230   23.4030   15.7760 C   0  0  0  0  0
   12.5820   21.7530   14.7410 C   0  0  0  0  0
   12.2640   20.6450   13.9600 C   0  0  0  0  0
   13.2560   19.9650   13.3040 C   0  0  0  0  0
   14.5520   20.4170   13.4440 C   0  0  0  0  0
   14.8770   21.5280   14.2140 C   0  0  0  0  0
   13.8760   22.2150   14.8920 C   0  0  0  0  0
   23.1886   28.8773   15.9603 H   0  0  0  0  0
   23.5185   28.2818   14.3074 H   0  0  0  0  0
   21.1959   24.5897   16.1320 H   0  0  0  0  0
   17.6411   26.3789   14.5313 H   0  0  0  0  0
   18.8694   28.4817   14.0458 H   0  0  0  0  0
   18.8115   25.5424   18.5741 H   0  0  0  0  0
   19.6601   23.9685   18.1614 H   0  0  0  0  0
   17.3578   24.2844   20.1153 H   0  0  0  0  0
   17.4459   22.1044   19.0261 H   0  0  0  0  0
   19.1641   21.9458   19.4660 H   0  0  0  0  0
   17.9199   21.9932   20.7390 H   0  0  0  0  0
   20.3644   23.8772   20.5374 H   0  0  0  0  0
   19.4637   25.3698   20.9004 H   0  0  0  0  0
   19.1337   23.8838   21.8244 H   0  0  0  0  0
   16.2842   25.3085   16.4490 H   0  0  0  0  0
   16.6550   25.7956   18.1471 H   0  0  0  0  0
   15.7648   23.6367   18.8673 H   0  0  0  0  0
   13.5212   24.2818   18.5648 H   0  0  0  0  0
   15.9170   22.4888   16.6753 H   0  0  0  0  0
   13.2255   22.4076   18.0587 H   0  0  0  0  0
   14.6534   18.5240   18.8838 H   0  0  0  0  0
   13.3267   19.3709   21.1189 H   0  0  0  0  0
   13.3582   17.6493   20.8749 H   0  0  0  0  0
   10.9285   16.9912   19.1021 H   0  0  0  0  0
   11.4061   20.4420   17.4862 H   0  0  0  0  0
   10.3700   19.5729   16.3692 H   0  0  0  0  0
   13.0384   19.0572   16.3184 H   0  0  0  0  0
   11.9716   17.7731   16.0950 H   0  0  0  0  0
   13.1074   17.0133   18.0121 H   0  0  0  0  0
   14.8482   24.0920   15.2082 H   0  0  0  0  0
   13.2989   23.8872   16.0915 H   0  0  0  0  0
   11.7768   22.2781   15.2549 H   0  0  0  0  0
   11.2277   20.3193   13.8707 H   0  0  0  0  0
   13.0283   19.0935   12.6902 H   0  0  0  0  0
   15.3517   19.8826   12.9313 H   0  0  0  0  0
   15.9129   21.8594   14.2860 H   0  0  0  0  0
  1  2  1  0  0  0
  5  1  4  0  0  0
  9  1  4  0  0  0
  2  3  1  0  0  0
  4  3  1  0  0  0
  5  4  1  0  0  0
  6  5  4  0  0  0
  7  6  4  0  0  0
  7  8  4  0  0  0
 10  7  1  0  0  0
  8  9  4  0  0  0
 10 11  2  0  0  0
 10 12  2  0  0  0
 13 10  1  0  0  0
 13 14  1  0  0  0
 18 13  1  0  0  0
 14 15  1  0  0  0
 15 16  1  0  0  0
 15 17  1  0  0  0
 19 18  1  0  0  0
 19 20  1  0  0  0
 21 19  1  0  0  0
 21 22  1  0  0  0
 34 21  1  0  0  0
 22 23  1  0  0  0
 23 24  2  0  0  0
 23 25  1  0  0  0
 25 26  1  0  0  0
 26 27  1  0  0  0
 26 33  1  0  0  0
 27 28  1  0  0  0
 29 28  1  0  0  0
 29 30  1  0  0  0
 33 29  1  0  0  0
 31 30  1  0  0  0
 32 31  1  0  0  0
 33 32  1  0  0  0
 40 34  1  0  0  0
 35 36  4  0  0  0
 35 40  4  0  0  0
 36 37  4  0  0  0
 37 38  4  0  0  0
 38 39  4  0  0  0
 39 40  4  0  0  0
  3 41  1  0  0  0
  3 42  1  0  0  0
  6 43  1  0  0  0
  8 44  1  0  0  0
  9 45  1  0  0  0
 14 46  1  0  0  0
 14 47  1  0  0  0
 15 48  1  0  0  0
 16 49  1  0  0  0
 16 50  1  0  0  0
 16 51  1  0  0  0
 17 52  1  0  0  0
 17 53  1  0  0  0
 17 54  1  0  0  0
 18 55  1  0  0  0
 18 56  1  0  0  0
 19 57  1  0  0  0
 20 58  1  0  0  0
 21 59  1  0  0  0
 22 60  1  0  0  0
 26 61  1  0  0  0
 27 62  1  0  0  0
 27 63  1  0  0  0
 29 64  1  0  0  0
 31 65  1  0  0  0
 31 66  1  0  0  0
 32 67  1  0  0  0
 32 68  1  0  0  0
 33 69  1  0  0  0
 34 70  1  0  0  0
 34 71  1  0  0  0
 35 72  1  0  0  0
 36 73  1  0  0  0
 37 74  1  0  0  0
 38 75  1  0  0  0
 39 76  1  0  0  0
M  END
$$$$
