6nsv_ligand
  -I-interpret- 

100104  0  0  0  0  0  0  0  0999 V2000
   -3.5250    5.8150    2.8100 C   0  0  0  0  0
   -4.0680    6.1140    3.8300 O   0  0  0  0  0
   -3.2930    4.3730    2.4940 C   0  0  0  0  0
   -2.9420    6.7110    2.0600 N   0  0  0  0  0
   -2.9310    8.1040    2.4080 C   0  0  0  0  0
   -4.3350    8.6540    2.4080 C   0  0  0  0  0
   -4.6320    9.4760    3.2100 O   0  0  0  0  0
   -2.1140    8.9610    1.4260 C   0  0  0  0  0
   -0.7620    9.5820    1.7110 C   0  0  0  0  0
   -0.4220   10.6050    0.6260 C   0  0  0  0  0
   -0.6400   10.2620    3.0480 C   0  0  0  0  0
   -5.1360    8.3500    1.5420 N   0  0  0  0  0
   -6.4490    8.9490    1.3340 C   0  0  0  0  0
   -7.5490    8.2250    2.1020 C   0  0  0  0  0
   -8.7340    8.3430    1.7790 O   0  0  0  0  0
   -6.7360    9.0180   -0.1690 C   0  0  0  0  0
   -5.9240   10.0770   -0.8920 C   0  0  0  0  0
   -4.8280    9.8900   -1.6950 C   0  0  0  0  0
   -6.1600   11.4890   -0.8700 C   0  0  0  0  0
   -4.3800   11.0990   -2.1760 N   0  0  0  0  0
   -5.1800   12.0940   -1.6830 C   0  0  0  0  0
   -7.1070   12.2990   -0.2480 C   0  0  0  0  0
   -5.1270   13.4680   -1.8910 C   0  0  0  0  0
   -7.0530   13.6660   -0.4610 C   0  0  0  0  0
   -6.0780   14.2330   -1.2700 C   0  0  0  0  0
   -7.1800    7.5160    3.1490 N   0  0  0  0  0
   -8.1360    6.7770    3.9400 C   0  0  0  0  0
   -7.8780    7.0800    5.4040 C   0  0  0  0  0
   -6.7600    7.4490    5.7770 O   0  0  0  0  0
   -7.9650    5.2780    3.6940 C   0  0  0  0  0
   -8.3520    4.8670    2.3310 C   0  0  0  0  0
   -7.5180    4.6480    1.2810 C   0  0  0  0  0
   -9.6800    4.6390    1.8510 C   0  0  0  0  0
   -8.2420    4.2910    0.1690 N   0  0  0  0  0
   -9.5730    4.2760    0.4920 C   0  0  0  0  0
  -10.9470    4.7010    2.4350 C   0  0  0  0  0
  -10.6850    3.9780   -0.2890 C   0  0  0  0  0
  -12.0510    4.4070    1.6560 C   0  0  0  0  0
  -11.9130    4.0480    0.3090 C   0  0  0  0  0
   -8.8980    6.9700    6.2480 N   0  0  0  0  0
   -8.6800    7.2020    7.6720 C   0  0  0  0  0
   -7.7980    6.1200    8.2780 C   0  0  0  0  0
   -7.6550    5.0220    7.7380 O   0  0  0  0  0
  -10.0970    7.1640    8.2650 C   0  0  0  0  0
  -10.8880    6.3870    7.3130 C   0  0  0  0  0
  -10.3210    6.7020    5.9590 C   0  0  0  0  0
   -7.2030    6.4520    9.4290 N   0  0  0  0  0
   -6.4330    5.4840   10.2160 C   0  0  0  0  0
   -7.2600    4.9390   11.3790 C   0  0  0  0  0
   -6.8230    4.0150   12.0520 O   0  0  0  0  0
   -5.1860    6.1380   10.8060 C   0  0  0  0  0
   -4.2790    6.7160    9.7620 C   0  0  0  0  0
   -4.0260    6.0310    8.7420 O   0  0  0  0  0
   -3.8360    7.8650    9.9540 O   0  0  0  0  0
   -8.3620    5.4010   11.7000 O   0  0  0  0  0
   -2.6706    3.9278    3.2703 H   0  0  0  0  0
   -4.2501    3.8532    2.4513 H   0  0  0  0  0
   -2.7896    4.2899    1.5308 H   0  0  0  0  0
   -2.4804    6.4122    1.2009 H   0  0  0  0  0
   -2.4737    8.1582    3.3960 H   0  0  0  0  0
   -2.7480    9.8398    1.3089 H   0  0  0  0  0
   -1.8739    8.2426    0.6422 H   0  0  0  0  0
   -0.0664    8.7428    1.7218 H   0  0  0  0  0
   -0.3937   10.1083   -0.3438 H   0  0  0  0  0
   -1.1824   11.3859    0.6136 H   0  0  0  0  0
    0.5515   11.0473    0.8377 H   0  0  0  0  0
   -1.3724   11.0666    3.1132 H   0  0  0  0  0
   -0.8233    9.5370    3.8410 H   0  0  0  0  0
    0.3638   10.6732    3.1548 H   0  0  0  0  0
   -4.8620    7.6053    0.9012 H   0  0  0  0  0
   -6.4388    9.9616    1.7373 H   0  0  0  0  0
   -7.7888    9.2728   -0.2903 H   0  0  0  0  0
   -6.4705    8.0518   -0.5981 H   0  0  0  0  0
   -4.3770    8.9235   -1.9197 H   0  0  0  0  0
   -7.8747   11.8657    0.3931 H   0  0  0  0  0
   -4.3603   13.9174   -2.5221 H   0  0  0  0  0
   -7.7914   14.3102    0.0164 H   0  0  0  0  0
   -6.0691   15.3133   -1.4145 H   0  0  0  0  0
   -6.1938    7.4882    3.4077 H   0  0  0  0  0
   -9.1502    7.0662    3.6646 H   0  0  0  0  0
   -8.6126    4.7515    4.3950 H   0  0  0  0  0
   -6.9095    5.0393    3.8246 H   0  0  0  0  0
   -6.4326    4.7418    1.3157 H   0  0  0  0  0
  -11.0633    4.9755    3.4834 H   0  0  0  0  0
  -10.5815    3.6993   -1.3377 H   0  0  0  0  0
  -13.0462    4.4554    2.0979 H   0  0  0  0  0
  -12.8042    3.8194   -0.2755 H   0  0  0  0  0
   -8.1638    8.1407    7.8732 H   0  0  0  0  0
  -10.5030    8.1661    8.4028 H   0  0  0  0  0
  -10.1062    6.7144    9.2579 H   0  0  0  0  0
  -11.9452    6.6459    7.3707 H   0  0  0  0  0
  -10.8324    5.3199    7.5283 H   0  0  0  0  0
  -10.4611    5.8915    5.2438 H   0  0  0  0  0
  -10.8197    7.5434    5.4779 H   0  0  0  0  0
   -7.2877    7.4095    9.7702 H   0  0  0  0  0
   -6.1567    4.6746    9.5403 H   0  0  0  0  0
   -4.6290    5.3689   11.3412 H   0  0  0  0  0
   -5.5122    6.9537   11.4513 H   0  0  0  0  0
   -4.4717    5.1833    8.8085 H   0  0  0  0  0
   -8.5949    6.1150   11.1020 H   0  0  0  0  0
  1  2  2  0  0  0
  1  3  1  0  0  0
  1  4  1  0  0  0
  4  5  1  0  0  0
  5  6  1  0  0  0
  5  8  1  0  0  0
  6  7  2  0  0  0
  6 12  1  0  0  0
  8  9  1  0  0  0
  9 10  1  0  0  0
  9 11  1  0  0  0
 12 13  1  0  0  0
 13 14  1  0  0  0
 13 16  1  0  0  0
 14 15  2  0  0  0
 14 26  1  0  0  0
 16 17  1  0  0  0
 17 18  4  0  0  0
 17 19  4  0  0  0
 18 20  4  0  0  0
 19 21  4  0  0  0
 19 22  4  0  0  0
 20 21  4  0  0  0
 21 23  4  0  0  0
 22 24  4  0  0  0
 23 25  4  0  0  0
 24 25  4  0  0  0
 26 27  1  0  0  0
 27 28  1  0  0  0
 27 30  1  0  0  0
 28 29  2  0  0  0
 28 40  1  0  0  0
 30 31  1  0  0  0
 31 32  4  0  0  0
 31 33  4  0  0  0
 32 34  4  0  0  0
 33 35  4  0  0  0
 33 36  4  0  0  0
 34 35  4  0  0  0
 35 37  4  0  0  0
 36 38  4  0  0  0
 37 39  4  0  0  0
 38 39  4  0  0  0
 40 41  1  0  0  0
 40 46  1  0  0  0
 41 42  1  0  0  0
 41 44  1  0  0  0
 42 43  2  0  0  0
 42 47  1  0  0  0
 44 45  1  0  0  0
 45 46  1  0  0  0
 47 48  1  0  0  0
 48 49  1  0  0  0
 48 51  1  0  0  0
 49 50  2  0  0  0
 49 55  1  0  0  0
 51 52  1  0  0  0
 52 53  1  0  0  0
 52 54  2  0  0  0
  3 56  1  0  0  0
  3 57  1  0  0  0
  3 58  1  0  0  0
  4 59  1  0  0  0
  5 60  1  0  0  0
  8 61  1  0  0  0
  8 62  1  0  0  0
  9 63  1  0  0  0
 10 64  1  0  0  0
 10 65  1  0  0  0
 10 66  1  0  0  0
 11 67  1  0  0  0
 11 68  1  0  0  0
 11 69  1  0  0  0
 12 70  1  0  0  0
 13 71  1  0  0  0
 16 72  1  0  0  0
 16 73  1  0  0  0
 18 74  1  0  0  0
 22 75  1  0  0  0
 23 76  1  0  0  0
 24 77  1  0  0  0
 25 78  1  0  0  0
 26 79  1  0  0  0
 27 80  1  0  0  0
 30 81  1  0  0  0
 30 82  1  0  0  0
 32 83  1  0  0  0
 36 84  1  0  0  0
 37 85  1  0  0  0
 38 86  1  0  0  0
 39 87  1  0  0  0
 41 88  1  0  0  0
 44 89  1  0  0  0
 44 90  1  0  0  0
 45 91  1  0  0  0
 45 92  1  0  0  0
 46 93  1  0  0  0
 46 94  1  0  0  0
 47 95  1  0  0  0
 48 96  1  0  0  0
 51 97  1  0  0  0
 51 98  1  0  0  0
 53 99  1  0  0  0
 55100  1  0  0  0
M  END
$$$$
