3byu_ligand
  -I-interpret- 

 77 81  0  0  0  0  0  0  0  0999 V2000
   16.4110   -2.6680   42.8290 C   0  0  0  0  0
   15.5150   -1.7630   42.1840 C   0  0  0  0  0
   16.0080   -0.7930   41.2340 C   0  0  0  0  0
   15.0810   -0.0140   40.5860 N   0  0  0  0  0
   15.2360    0.7860   39.4390 C   0  0  0  0  0
   14.0420    1.4690   39.0110 C   0  0  0  0  0
   13.2190    2.0870   40.0040 C   0  0  0  0  0
   12.0590    2.7960   39.6250 C   0  0  0  0  0
   11.7300    2.8830   38.2460 C   0  0  0  0  0
   12.5280    2.2750   37.1970 C   0  0  0  0  0
   13.7110    1.5480   37.5940 C   0  0  0  0  0
   12.0700    2.4480   35.7070 C   0  0  0  0  0
   11.1300    3.3030   35.4990 F   0  0  0  0  0
   11.5220    1.3120   35.2520 F   0  0  0  0  0
   13.0950    2.9440   34.9770 F   0  0  0  0  0
   17.3920   -0.6740   40.9050 C   0  0  0  0  0
   18.2550   -1.5890   41.5620 C   0  0  0  0  0
   17.7970   -2.5650   42.4910 C   0  0  0  0  0
   18.8380   -3.4970   43.0680 C   0  0  0  0  0
   23.1340   -3.3940   38.5690 N   0  0  0  0  0
   21.8460   -3.2760   38.8860 C   0  0  0  0  0
   21.4490   -2.5430   40.0720 C   0  0  0  0  0
   22.4320   -1.9440   40.9170 C   0  0  0  0  0
   23.6340   -2.1080   40.5390 N   0  0  0  0  0
   23.9770   -2.8070   39.4000 C   0  0  0  0  0
   20.1570   -2.4150   40.3940 N   0  0  0  0  0
   19.6470   -1.4760   41.2770 C   0  0  0  0  0
   20.2570   -0.5640   41.8300 O   0  0  0  0  0
   25.2210   -2.8840   39.1070 N   0  0  0  0  0
   16.2740    0.9610   38.7930 O   0  0  0  0  0
   14.5690    0.8760   36.5390 C   0  0  0  0  0
   27.0160    0.1090   40.4560 C   0  0  0  0  0
   28.3450   -0.5490   40.3810 C   0  0  0  0  0
   28.4850   -1.9620   39.8900 C   0  0  0  0  0
   27.2970   -2.7580   39.4580 C   0  0  0  0  0
   26.1090   -2.0060   39.5660 C   0  0  0  0  0
   25.8810   -0.6230   40.0290 C   0  0  0  0  0
   30.1370    1.0030   42.9610 C   0  0  0  0  0
   31.4820    0.7410   42.3210 N   0  3  0  0  0
   31.5920   -0.5110   41.4800 C   0  0  0  0  0
   30.8280   -0.0750   40.3670 C   0  0  0  0  0
   29.3840    0.2420   40.7710 N   0  0  0  0  0
   29.3780    1.4240   41.7860 C   0  0  0  0  0
   32.1540    0.3250   43.5220 C   0  0  0  0  0
   16.0544   -3.4056   43.5479 H   0  0  0  0  0
   14.4496   -1.8043   42.4104 H   0  0  0  0  0
   14.1465   -0.0156   40.9947 H   0  0  0  0  0
   13.4886    2.0102   41.0573 H   0  0  0  0  0
   11.4270    3.2683   40.3770 H   0  0  0  0  0
   10.8335    3.4338   37.9613 H   0  0  0  0  0
   17.7606    0.0688   40.1976 H   0  0  0  0  0
   18.8459   -3.4031   44.1539 H   0  0  0  0  0
   18.5972   -4.5238   42.7925 H   0  0  0  0  0
   19.8189   -3.2338   42.6721 H   0  0  0  0  0
   21.0869   -3.7326   38.2509 H   0  0  0  0  0
   22.1711   -1.3884   41.8177 H   0  0  0  0  0
   19.4966   -3.0575   39.9563 H   0  0  0  0  0
   25.5409   -3.6414   38.5034 H   0  0  0  0  0
   15.5793    1.2829   36.5810 H   0  0  0  0  0
   14.6000   -0.1972   36.7272 H   0  0  0  0  0
   14.1421    1.0611   35.5533 H   0  0  0  0  0
   26.9165    1.1281   40.8297 H   0  0  0  0  0
   29.4750   -2.4162   39.8481 H   0  0  0  0  0
   27.3426   -3.7881   39.1046 H   0  0  0  0  0
   24.8832   -0.1844   40.0417 H   0  0  0  0  0
   30.1568    1.7323   43.7708 H   0  0  0  0  0
   29.7142    0.1484   43.4892 H   0  0  0  0  0
   31.7722    1.5255   41.7373 H   0  0  0  0  0
   31.2422   -1.4265   41.9570 H   0  0  0  0  0
   32.6081   -0.8329   41.2520 H   0  0  0  0  0
   30.8128   -0.8719   39.6235 H   0  0  0  0  0
   31.2832    0.8315   39.9680 H   0  0  0  0  0
   29.8296    2.3100   41.3397 H   0  0  0  0  0
   28.3558    1.6791   42.0657 H   0  0  0  0  0
   32.1297    1.1360   44.2499 H   0  0  0  0  0
   31.6509   -0.5499   43.9339 H   0  0  0  0  0
   33.1891    0.0746   43.2895 H   0  0  0  0  0
  1  2  4  0  0  0
 18  1  4  0  0  0
  3  2  4  0  0  0
  3  4  1  0  0  0
 16  3  4  0  0  0
  4  5  1  0  0  0
  5  6  1  0  0  0
  5 30  2  0  0  0
  6  7  4  0  0  0
  6 11  4  0  0  0
  7  8  4  0  0  0
  8  9  4  0  0  0
 10  9  4  0  0  0
 11 10  4  0  0  0
 10 12  1  0  0  0
 11 31  1  0  0  0
 12 13  1  0  0  0
 12 14  1  0  0  0
 12 15  1  0  0  0
 17 16  4  0  0  0
 17 18  4  0  0  0
 27 17  1  0  0  0
 18 19  1  0  0  0
 20 21  4  0  0  0
 25 20  4  0  0  0
 21 22  4  0  0  0
 23 22  4  0  0  0
 22 26  1  0  0  0
 24 23  4  0  0  0
 25 24  4  0  0  0
 29 25  1  0  0  0
 26 27  1  0  0  0
 27 28  2  0  0  0
 36 29  1  0  0  0
 33 32  4  0  0  0
 32 37  4  0  0  0
 33 34  4  0  0  0
 42 33  1  0  0  0
 34 35  4  0  0  0
 35 36  4  0  0  0
 37 36  4  0  0  0
 39 38  1  0  0  0
 38 43  1  0  0  0
 40 39  1  0  0  0
 39 44  1  0  0  0
 41 40  1  0  0  0
 41 42  1  0  0  0
 42 43  1  0  0  0
  1 45  1  0  0  0
  2 46  1  0  0  0
  4 47  1  0  0  0
  7 48  1  0  0  0
  8 49  1  0  0  0
  9 50  1  0  0  0
 16 51  1  0  0  0
 19 52  1  0  0  0
 19 53  1  0  0  0
 19 54  1  0  0  0
 21 55  1  0  0  0
 23 56  1  0  0  0
 26 57  1  0  0  0
 29 58  1  0  0  0
 31 59  1  0  0  0
 31 60  1  0  0  0
 31 61  1  0  0  0
 32 62  1  0  0  0
 34 63  1  0  0  0
 35 64  1  0  0  0
 37 65  1  0  0  0
 38 66  1  0  0  0
 38 67  1  0  0  0
 39 68  1  0  0  0
 40 69  1  0  0  0
 40 70  1  0  0  0
 41 71  1  0  0  0
 41 72  1  0  0  0
 43 73  1  0  0  0
 43 74  1  0  0  0
 44 75  1  0  0  0
 44 76  1  0  0  0
 44 77  1  0  0  0
M  END
$$$$
