5dh3_ligand
  -I-interpret- 

 44 47  0  0  0  0  0  0  0  0999 V2000
   28.7940   18.8670   41.7040 C   0  0  0  0  0
   27.7320   18.3350   41.0140 C   0  0  0  0  0
   26.4990   18.9310   41.1210 C   0  0  0  0  0
   26.3920   20.0490   41.9280 N   0  0  0  0  0
   28.6430   19.9470   42.4770 N   0  0  0  0  0
   26.5950   17.1930   39.2370 C   0  0  0  0  0
   27.6990   17.2690   40.2180 N   0  0  0  0  0
   28.5600   16.2500   40.2560 C   0  0  0  0  0
   28.3500   15.3540   39.4530 O   0  0  0  0  0
   29.6040   16.1360   41.0680 C   0  0  0  0  0
   30.2750   14.7170   41.4070 S   0  0  0  0  0
   31.4320   15.2720   42.3930 C   0  0  0  0  0
   31.2880   16.5950   42.4560 C   0  0  0  0  0
   30.2820   17.0800   41.7160 C   0  0  0  0  0
   30.0270   18.3910   41.7100 N   0  0  0  0  0
   31.1400   19.3510   41.7280 C   0  0  0  0  0
   27.4470   20.5310   42.5830 C   0  0  0  0  0
   27.2320   21.6040   43.3290 N   0  0  0  0  0
   28.1750   22.1400   44.0930 C   0  0  0  0  0
   27.8040   23.2080   44.8880 C   0  0  0  0  0
   28.7210   23.8310   45.7100 C   0  0  0  0  0
   30.0280   23.3920   45.7510 C   0  0  0  0  0
   31.1480   24.2040   46.8090 S   0  0  0  0  0
   32.4490   24.5010   46.0610 O   0  0  0  0  0
   30.5200   25.5170   47.2820 O   0  0  0  0  0
   31.4670   23.2580   48.0980 N   0  0  0  0  0
   30.4080   22.3180   44.9540 C   0  0  0  0  0
   29.4840   21.6920   44.1220 C   0  0  0  0  0
   25.6342   18.5361   40.5879 H   0  0  0  0  0
   27.0087   17.1264   38.2308 H   0  0  0  0  0
   25.9892   16.3102   39.4413 H   0  0  0  0  0
   25.9762   18.0866   39.3184 H   0  0  0  0  0
   32.1859   14.6765   42.9078 H   0  0  0  0  0
   31.9355   17.2306   43.0600 H   0  0  0  0  0
   31.7345   19.1993   42.6289 H   0  0  0  0  0
   31.7651   19.1971   40.8485 H   0  0  0  0  0
   30.7428   20.3660   41.7199 H   0  0  0  0  0
   26.3073   22.0342   43.3157 H   0  0  0  0  0
   26.7736   23.5629   44.8655 H   0  0  0  0  0
   28.4113   24.6730   46.3291 H   0  0  0  0  0
   32.4244   22.9631   48.2897 H   0  0  0  0  0
   30.7091   22.9611   48.7127 H   0  0  0  0  0
   31.4383   21.9631   44.9809 H   0  0  0  0  0
   29.7900   20.8533   43.4966 H   0  0  0  0  0
  1  2  4  0  0  0
  1  5  4  0  0  0
  1 15  1  0  0  0
  2  3  4  0  0  0
  2  7  1  0  0  0
  3  4  4  0  0  0
  4 17  4  0  0  0
  5 17  4  0  0  0
  7  6  1  0  0  0
  7  8  1  0  0  0
  8  9  2  0  0  0
  8 10  1  0  0  0
 10 11  4  0  0  0
 10 14  4  0  0  0
 11 12  4  0  0  0
 12 13  4  0  0  0
 13 14  4  0  0  0
 14 15  1  0  0  0
 15 16  1  0  0  0
 17 18  1  0  0  0
 18 19  1  0  0  0
 19 20  4  0  0  0
 19 28  4  0  0  0
 20 21  4  0  0  0
 21 22  4  0  0  0
 22 23  1  0  0  0
 22 27  4  0  0  0
 23 24  2  0  0  0
 23 25  2  0  0  0
 23 26  1  0  0  0
 27 28  4  0  0  0
  3 29  1  0  0  0
  6 30  1  0  0  0
  6 31  1  0  0  0
  6 32  1  0  0  0
 12 33  1  0  0  0
 13 34  1  0  0  0
 16 35  1  0  0  0
 16 36  1  0  0  0
 16 37  1  0  0  0
 18 38  1  0  0  0
 20 39  1  0  0  0
 21 40  1  0  0  0
 26 41  1  0  0  0
 26 42  1  0  0  0
 27 43  1  0  0  0
 28 44  1  0  0  0
M  END
$$$$
