2w08_ligand
  -I-interpret- 

 23 22  0  0  0  0  0  0  0  0999 V2000
   20.2600   15.2810   54.5620 N   0  3  0  0  0
   18.8860   15.3250   54.0400 C   0  0  0  0  0
   17.8960   15.1610   55.1950 C   0  0  0  0  0
   17.9310   13.7350   55.7490 C   0  0  0  0  0
   18.1930   16.1160   56.2180 O   0  0  0  0  0
   17.0290   16.6210   57.2100 P   0  0  0  0  0
   16.9190   15.5260   58.3970 O   0  0  0  0  0
   15.7240   16.8440   56.5380 O   0  0  0  0  0
   17.5780   17.9650   57.9260 O   0  0  0  0  0
   18.6450   16.6680   53.3480 C   0  0  0  0  0
   19.4490   17.5910   53.6040 O   0  0  0  0  0
   17.6880   16.7500   52.5890 O   0  0  0  0  0
   20.4188   14.3850   55.0229 H   0  0  0  0  0
   20.9190   15.3896   53.7910 H   0  0  0  0  0
   20.3920   16.0379   55.2328 H   0  0  0  0  0
   18.7443   14.5168   53.3225 H   0  0  0  0  0
   16.8870   15.3417   54.8245 H   0  0  0  0  0
   18.9241   13.5252   56.1462 H   0  0  0  0  0
   17.1921   13.6373   56.5443 H   0  0  0  0  0
   17.7016   13.0303   54.9497 H   0  0  0  0  0
   17.7802   15.4105   58.8051 H   0  0  0  0  0
   18.4205   17.7803   58.3476 H   0  0  0  0  0
   20.1084   17.2760   54.2265 H   0  0  0  0  0
  1  2  1  0  0  0
  2  3  1  0  0  0
  2 10  1  0  0  0
  3  4  1  0  0  0
  3  5  1  0  0  0
  5  6  1  0  0  0
  6  7  1  0  0  0
  6  8  2  0  0  0
  6  9  1  0  0  0
 10 11  1  0  0  0
 10 12  2  0  0  0
  1 13  1  0  0  0
  1 14  1  0  0  0
  1 15  1  0  0  0
  2 16  1  0  0  0
  3 17  1  0  0  0
  4 18  1  0  0  0
  4 19  1  0  0  0
  4 20  1  0  0  0
  7 21  1  0  0  0
  9 22  1  0  0  0
 11 23  1  0  0  0
M  END
$$$$
