3wd2_ligand
  -I-interpret- 

 66 67  0  0  0  0  0  0  0  0999 V2000
  -20.5830   -7.0540  -31.3050 C   0  0  0  0  0
  -21.0110   -6.1550  -30.2030 N   0  0  0  0  0
  -20.3360   -5.0190  -29.9600 C   0  0  0  0  0
  -19.3410   -4.6340  -30.5960 O   0  0  0  0  0
  -20.8010   -4.2960  -28.9120 N   0  0  0  0  0
  -20.3210   -3.1210  -28.4650 C   0  0  0  0  0
  -19.2580   -2.4960  -29.0320 N   0  0  0  0  0
  -20.9510   -2.6270  -27.3870 N   0  0  0  0  0
  -20.5680   -1.4040  -26.6610 C   0  0  0  0  0
  -20.7970   -0.2260  -27.5600 C   0  0  0  0  0
  -21.6240    0.8740  -26.9100 C   0  0  0  0  0
  -21.8650    1.8750  -28.0350 C   0  0  0  0  0
  -20.9330    1.4300  -29.1110 N   0  0  0  0  0
  -20.7810    1.9630  -30.3190 C   0  0  0  0  0
  -21.3870    2.9630  -30.6930 O   0  0  0  0  0
  -19.7510    1.2290  -31.2310 C   0  0  0  0  0
  -19.4750    2.0530  -32.4260 N   0  0  0  0  0
  -19.2490    1.5140  -33.4150 N   0  0  0  0  0
  -18.9220    1.1750  -34.4680 N   0  0  0  0  0
  -21.5790    3.2950  -27.5460 C   0  0  0  0  0
  -20.4700    3.7920  -27.7460 O   0  0  0  0  0
  -22.5810    3.9460  -26.9280 N   0  0  0  0  0
  -22.3730    5.3460  -26.4530 C   0  0  0  0  0
  -21.7520    6.2110  -27.5890 C   0  0  0  0  0
  -21.0120    7.3600  -27.2970 C   0  0  0  0  0
  -20.4460    8.1030  -28.3490 C   0  0  0  0  0
  -20.6150    7.7320  -29.6870 C   0  0  0  0  0
  -21.3550    6.5920  -29.9900 C   0  0  0  0  0
  -21.9120    5.8470  -28.9380 C   0  0  0  0  0
  -23.8980    3.3130  -26.6770 C   0  0  0  0  0
  -24.9340    3.4760  -27.8270 C   0  0  0  0  0
  -24.5470    3.5420  -29.1720 C   0  0  0  0  0
  -25.5070    3.6770  -30.1840 C   0  0  0  0  0
  -26.8630    3.7410  -29.8630 C   0  0  0  0  0
  -27.2620    3.6710  -28.5290 C   0  0  0  0  0
  -26.3010    3.5370  -27.5200 C   0  0  0  0  0
  -20.6273   -6.5139  -32.2507 H   0  0  0  0  0
  -19.5615   -7.3883  -31.1235 H   0  0  0  0  0
  -21.2472   -7.9173  -31.3467 H   0  0  0  0  0
  -21.8184   -6.4003  -29.6299 H   0  0  0  0  0
  -18.7867   -2.9166  -29.8328 H   0  0  0  0  0
  -21.7618   -3.1411  -27.0424 H   0  0  0  0  0
  -19.5176   -1.4548  -26.3744 H   0  0  0  0  0
  -21.1685   -1.3044  -25.7568 H   0  0  0  0  0
  -21.3458   -0.5791  -28.4331 H   0  0  0  0  0
  -19.8224    0.1956  -27.8060 H   0  0  0  0  0
  -21.1123    1.3256  -26.0601 H   0  0  0  0  0
  -22.5557    0.4947  -26.4903 H   0  0  0  0  0
  -22.8946    1.9025  -28.3918 H   0  0  0  0  0
  -20.3452    0.6248  -28.8952 H   0  0  0  0  0
  -20.1604    0.2672  -31.5399 H   0  0  0  0  0
  -18.8252    1.0699  -30.6781 H   0  0  0  0  0
  -21.6949    5.3368  -25.5996 H   0  0  0  0  0
  -23.3339    5.7718  -26.1643 H   0  0  0  0  0
  -20.8746    7.6776  -26.2634 H   0  0  0  0  0
  -19.8599    8.9918  -28.1151 H   0  0  0  0  0
  -20.1721    8.3290  -30.4842 H   0  0  0  0  0
  -21.4993    6.2834  -31.0254 H   0  0  0  0  0
  -22.4896    4.9537  -29.1757 H   0  0  0  0  0
  -24.3210    3.8025  -25.7998 H   0  0  0  0  0
  -23.7176    2.2440  -26.5643 H   0  0  0  0  0
  -23.4902    3.4879  -29.4335 H   0  0  0  0  0
  -25.1928    3.7322  -31.2263 H   0  0  0  0  0
  -27.6077    3.8453  -30.6521 H   0  0  0  0  0
  -28.3202    3.7205  -28.2722 H   0  0  0  0  0
  -26.6202    3.4792  -26.4794 H   0  0  0  0  0
  1  2  1  0  0  0
  2  3  1  0  0  0
  3  4  2  0  0  0
  3  5  1  0  0  0
  5  6  4  0  0  0
  6  7  2  0  0  0
  6  8  1  0  0  0
  8  9  1  0  0  0
  9 10  1  0  0  0
 10 11  1  0  0  0
 11 12  1  0  0  0
 12 13  1  0  0  0
 12 20  1  0  0  0
 13 14  1  0  0  0
 14 15  2  0  0  0
 14 16  1  0  0  0
 16 17  1  0  0  0
 17 18  2  0  0  0
 18 19  3  0  0  0
 20 21  2  0  0  0
 20 22  1  0  0  0
 22 23  1  0  0  0
 22 30  1  0  0  0
 23 24  1  0  0  0
 24 25  4  0  0  0
 24 29  4  0  0  0
 25 26  4  0  0  0
 26 27  4  0  0  0
 27 28  4  0  0  0
 28 29  4  0  0  0
 30 31  1  0  0  0
 31 32  4  0  0  0
 31 36  4  0  0  0
 32 33  4  0  0  0
 33 34  4  0  0  0
 34 35  4  0  0  0
 35 36  4  0  0  0
  1 37  1  0  0  0
  1 38  1  0  0  0
  1 39  1  0  0  0
  2 40  1  0  0  0
  7 41  1  0  0  0
  8 42  1  0  0  0
  9 43  1  0  0  0
  9 44  1  0  0  0
 10 45  1  0  0  0
 10 46  1  0  0  0
 11 47  1  0  0  0
 11 48  1  0  0  0
 12 49  1  0  0  0
 13 50  1  0  0  0
 16 51  1  0  0  0
 16 52  1  0  0  0
 23 53  1  0  0  0
 23 54  1  0  0  0
 25 55  1  0  0  0
 26 56  1  0  0  0
 27 57  1  0  0  0
 28 58  1  0  0  0
 29 59  1  0  0  0
 30 60  1  0  0  0
 30 61  1  0  0  0
 32 62  1  0  0  0
 33 63  1  0  0  0
 34 64  1  0  0  0
 35 65  1  0  0  0
 36 66  1  0  0  0
M  END
$$$$
