3lpp_ligand
  -I-interpret- 

 51 51  0  0  0  0  0  0  0  0999 V2000
   42.6470   59.5550   72.8240 O   0  0  0  0  0
   40.0720   55.7350   84.0270 O   0  0  0  0  0
   41.2560   57.7780   74.3250 O   0  0  0  0  0
   36.5150   59.1090   83.8500 O   0  0  0  0  0
   37.6510   58.0580   78.7070 O   0  0  0  0  0
   38.7030   59.3910   73.9830 O   0  0  0  0  0
   39.1760   58.8960   84.8880 O   0  0  0  0  0
   39.6160   57.1640   75.9630 O   0  0  0  0  0
   41.6450   61.4230   76.9670 O   0  0  0  0  0
   41.1400   61.0200   79.2730 O   0  0  0  0  0
   43.1830   60.1080   78.3000 O   0  0  0  0  0
   41.4410   60.0520   73.4210 C   0  0  0  0  0
   40.7500   56.6760   83.1940 C   0  0  0  0  0
   37.4150   58.0280   81.7850 C   0  0  0  0  0
   39.5710   58.4240   80.1450 C   0  0  0  0  0
   41.0030   59.0560   77.6610 O   0  0  0  0  0
   41.0630   59.1770   74.6210 C   0  0  0  0  0
   37.6700   58.8820   83.0350 C   0  0  0  0  0
   39.0800   58.0570   78.7400 C   0  0  0  0  0
   39.6290   59.4520   75.0930 C   0  0  0  0  0
   38.7240   58.1130   83.8030 C   0  0  0  0  0
   39.1640   58.5140   76.2170 C   0  0  0  0  0
   39.8110   57.8080   82.7770 C   0  0  0  0  0
   39.5880   58.9840   77.6190 C   0  0  0  0  0
   38.9440   57.4870   81.3760 S   0  0  0  0  0
   41.7600   60.4420   78.0570 S   0  0  0  0  0
   42.8811   60.1050   72.0728 H   0  0  0  0  0
   40.6791   55.0344   84.2764 H   0  0  0  0  0
   41.0125   57.2534   75.0912 H   0  0  0  0  0
   36.7591   59.6479   84.6060 H   0  0  0  0  0
   37.3523   57.8274   77.8243 H   0  0  0  0  0
   37.8137   59.5656   74.2997 H   0  0  0  0  0
   39.8445   58.4094   85.3758 H   0  0  0  0  0
   39.3187   56.5894   76.6723 H   0  0  0  0  0
   41.2070   60.3908   79.9949 H   0  0  0  0  0
   40.6361   60.0267   72.6864 H   0  0  0  0  0
   41.5984   61.0773   73.7557 H   0  0  0  0  0
   41.1014   56.1633   82.2986 H   0  0  0  0  0
   41.5857   57.0999   83.7509 H   0  0  0  0  0
   36.9379   58.5893   80.9816 H   0  0  0  0  0
   36.7146   57.2129   81.9674 H   0  0  0  0  0
   39.2502   59.4485   80.3337 H   0  0  0  0  0
   40.6504   58.2723   80.1516 H   0  0  0  0  0
   41.7306   59.4413   75.4411 H   0  0  0  0  0
   37.9769   59.8866   82.7440 H   0  0  0  0  0
   39.4914   57.0667   78.5448 H   0  0  0  0  0
   39.6390   60.4597   75.5085 H   0  0  0  0  0
   38.3621   57.1851   84.2458 H   0  0  0  0  0
   38.0742   58.5352   76.2121 H   0  0  0  0  0
   40.5075   58.6370   82.6516 H   0  0  0  0  0
   39.1394   59.9617   77.7951 H   0  0  0  0  0
 12  1  1  0  0  0
 13  2  1  0  0  0
 17  3  1  0  0  0
 18  4  1  0  0  0
 19  5  1  0  0  0
 20  6  1  0  0  0
 21  7  1  0  0  0
 22  8  1  0  0  0
 26  9  2  0  0  0
 26 10  1  0  0  0
 26 11  2  0  0  0
 17 12  1  0  0  0
 23 13  1  0  0  0
 14 18  1  0  0  0
 25 14  1  0  0  0
 19 15  1  0  0  0
 15 25  1  0  0  0
 24 16  1  0  0  0
 16 26  1  0  0  0
 20 17  1  0  0  0
 18 21  1  0  0  0
 24 19  1  0  0  0
 22 20  1  0  0  0
 21 23  1  0  0  0
 22 24  1  0  0  0
 23 25  1  0  0  0
  1 27  1  0  0  0
  2 28  1  0  0  0
  3 29  1  0  0  0
  4 30  1  0  0  0
  5 31  1  0  0  0
  6 32  1  0  0  0
  7 33  1  0  0  0
  8 34  1  0  0  0
 10 35  1  0  0  0
 12 36  1  0  0  0
 12 37  1  0  0  0
 13 38  1  0  0  0
 13 39  1  0  0  0
 14 40  1  0  0  0
 14 41  1  0  0  0
 15 42  1  0  0  0
 15 43  1  0  0  0
 17 44  1  0  0  0
 18 45  1  0  0  0
 19 46  1  0  0  0
 20 47  1  0  0  0
 21 48  1  0  0  0
 22 49  1  0  0  0
 23 50  1  0  0  0
 24 51  1  0  0  0
M  END
$$$$
