1q9m_ligand
  -I-interpret- 

 41 43  0  0  0  0  0  0  0  0999 V2000
   21.2990   -2.8180   30.9530 C   0  0  0  0  0
   21.5640   -4.0410   31.5900 C   0  0  0  0  0
   21.8630   -4.0770   32.9630 C   0  0  0  0  0
   21.8910   -2.9020   33.6920 C   0  0  0  0  0
   21.6310   -1.6860   33.0560 C   0  0  0  0  0
   21.3410   -1.6540   31.6960 C   0  0  0  0  0
   20.9030   -2.7440   29.5030 C   0  0  0  0  0
   21.3560   -4.0000   28.7650 C   0  0  0  0  0
   20.1770   -4.8200   28.4000 C   0  0  0  0  0
   20.1950   -5.9360   27.9030 O   0  0  0  0  0
   19.1120   -4.1240   28.7500 N   0  0  0  0  0
   19.3520   -2.8330   29.3920 C   0  0  0  0  0
   22.1350   -5.2500   33.6380 O   0  0  0  0  0
   21.9570   -6.4230   32.8320 C   0  0  0  0  0
   21.0770   -7.4060   33.5940 C   0  0  0  0  0
   21.8990   -8.5680   34.0920 C   0  0  0  0  0
   23.3220   -8.3570   33.6020 C   0  0  0  0  0
   23.3140   -7.1040   32.7520 C   0  0  0  0  0
   22.1320   -2.9990   35.0530 O   0  0  0  0  0
   23.0780   -2.0460   35.5180 C   0  0  0  0  0
   21.5377   -4.9676   31.0166 H   0  0  0  0  0
   21.6554   -0.7583   33.6277 H   0  0  0  0  0
   21.1443   -0.6983   31.2102 H   0  0  0  0  0
   21.3329   -1.8270   29.1000 H   0  0  0  0  0
   22.0130   -4.5812   29.4121 H   0  0  0  0  0
   21.8900   -3.7130   27.8591 H   0  0  0  0  0
   18.1675   -4.4700   28.5808 H   0  0  0  0  0
   18.9323   -2.0051   28.8205 H   0  0  0  0  0
   18.8652   -2.7604   30.3645 H   0  0  0  0  0
   21.5352   -6.1586   31.8623 H   0  0  0  0  0
   20.3007   -7.7798   32.9263 H   0  0  0  0  0
   20.6296   -6.8955   34.4468 H   0  0  0  0  0
   21.4995   -9.5094   33.7149 H   0  0  0  0  0
   21.8720   -8.6178   35.1805 H   0  0  0  0  0
   23.6623   -9.2150   33.0223 H   0  0  0  0  0
   24.0081   -8.2496   34.4422 H   0  0  0  0  0
   24.0787   -6.4194   33.1190 H   0  0  0  0  0
   23.5164   -7.3748   31.7158 H   0  0  0  0  0
   24.0262   -2.1953   35.0015 H   0  0  0  0  0
   22.7078   -1.0407   35.3172 H   0  0  0  0  0
   23.2231   -2.1736   36.5907 H   0  0  0  0  0
  1  2  4  0  0  0
  1  6  4  0  0  0
  1  7  1  0  0  0
  2  3  4  0  0  0
  3  4  4  0  0  0
  3 13  1  0  0  0
  4  5  4  0  0  0
  4 19  1  0  0  0
  5  6  4  0  0  0
  7  8  1  0  0  0
  7 12  1  0  0  0
  8  9  1  0  0  0
  9 10  2  0  0  0
  9 11  1  0  0  0
 11 12  1  0  0  0
 13 14  1  0  0  0
 14 15  1  0  0  0
 14 18  1  0  0  0
 15 16  1  0  0  0
 16 17  1  0  0  0
 17 18  1  0  0  0
 19 20  1  0  0  0
  2 21  1  0  0  0
  5 22  1  0  0  0
  6 23  1  0  0  0
  7 24  1  0  0  0
  8 25  1  0  0  0
  8 26  1  0  0  0
 11 27  1  0  0  0
 12 28  1  0  0  0
 12 29  1  0  0  0
 14 30  1  0  0  0
 15 31  1  0  0  0
 15 32  1  0  0  0
 16 33  1  0  0  0
 16 34  1  0  0  0
 17 35  1  0  0  0
 17 36  1  0  0  0
 18 37  1  0  0  0
 18 38  1  0  0  0
 20 39  1  0  0  0
 20 40  1  0  0  0
 20 41  1  0  0  0
M  END
$$$$
