5fpp_ligand
  -I-interpret- 

 37 38  0  0  0  0  0  0  0  0999 V2000
   37.7030   18.5450    9.6960 O   0  0  0  0  0
   37.8770   19.6720   10.0020 C   0  0  0  0  0
   39.1210   20.0560   10.5450 N   0  0  0  0  0
   36.7370   20.7010    9.8010 C   0  0  0  0  0
   35.7230   20.4420    8.8740 C   0  0  0  0  0
   34.7380   21.3580    8.7180 C   0  0  0  0  0
   34.7270   22.5430    9.4640 N   0  0  0  0  0
   35.6960   22.7980   10.3530 C   0  0  0  0  0
   36.7070   21.9140   10.5500 C   0  0  0  0  0
   33.6380   23.5190    9.2670 C   0  0  0  0  0
   32.4940   23.0910    8.5520 O   0  0  0  0  0
   31.6670   22.1910    9.1010 C   0  0  0  0  0
   30.9250   22.5980   10.3120 N   0  0  0  0  0
   30.3020   21.6490   11.1470 C   0  0  0  0  0
   30.3570   20.2240   10.8570 C   0  0  0  0  0
   29.7430   19.3940   11.6130 N   0  0  0  0  0
   29.6870   18.1780   11.2940 O   0  0  0  0  0
   29.6140   22.0580   12.2760 C   0  0  0  0  0
   29.5200   23.4240   12.6170 C   0  0  0  0  0
   30.1580   24.3600   11.7580 C   0  0  0  0  0
   30.8510   23.9130   10.6160 C   0  0  0  0  0
   39.8588   19.3629   10.6697 H   0  0  0  0  0
   39.2827   21.0268   10.8130 H   0  0  0  0  0
   35.7253   19.5222    8.2892 H   0  0  0  0  0
   33.8382   20.8348    9.0415 H   0  0  0  0  0
   34.8535   21.6961    7.6882 H   0  0  0  0  0
   35.6724   23.7258   10.9246 H   0  0  0  0  0
   37.4908   22.1299   11.2760 H   0  0  0  0  0
   34.0706   24.3232    8.6718 H   0  0  0  0  0
   33.2820   23.7654   10.2673 H   0  0  0  0  0
   32.3007   21.3598    9.4101 H   0  0  0  0  0
   30.9080   21.9898    8.3450 H   0  0  0  0  0
   30.9208   19.8639    9.9964 H   0  0  0  0  0
   29.1369   21.3126   12.9123 H   0  0  0  0  0
   28.9787   23.7492   13.5054 H   0  0  0  0  0
   30.1108   25.4254   11.9835 H   0  0  0  0  0
   31.3364   24.6407    9.9657 H   0  0  0  0  0
  1  2  2  0  0  0
  2  3  1  0  0  0
  2  4  1  0  0  0
  4  5  2  0  0  0
  4  9  1  0  0  0
  5  6  1  0  0  0
  6  7  1  0  0  0
  7  8  1  0  0  0
  7 10  1  0  0  0
  8  9  2  0  0  0
 10 11  1  0  0  0
 11 12  1  0  0  0
 12 13  1  0  0  0
 13 14  1  0  0  0
 13 21  1  0  0  0
 14 15  2  0  0  0
 14 18  1  0  0  0
 15 16  1  0  0  0
 16 17  2  0  0  0
 18 19  2  0  0  0
 19 20  1  0  0  0
 20 21  2  0  0  0
  3 22  1  0  0  0
  3 23  1  0  0  0
  5 24  1  0  0  0
  6 25  1  0  0  0
  6 26  1  0  0  0
  8 27  1  0  0  0
  9 28  1  0  0  0
 10 29  1  0  0  0
 10 30  1  0  0  0
 12 31  1  0  0  0
 12 32  1  0  0  0
 15 33  1  0  0  0
 18 34  1  0  0  0
 19 35  1  0  0  0
 20 36  1  0  0  0
 21 37  1  0  0  0
M  END
$$$$
