6q9u_ligand
  -I-interpret- 

 64 68  0  0  0  0  0  0  0  0999 V2000
   -9.6170    1.6470    2.5020 C   0  0  0  0  0
  -11.9180    1.9760    2.1690 C   0  0  0  0  0
   -7.0570   -1.0550   -0.2700 C   0  0  0  0  0
   -9.2210   -2.3880    0.2120 C   0  0  0  0  0
  -12.5160   -2.1820    2.3030 C   0  0  0  0  0
  -14.2440    2.3270    1.5150 C   0  0  0  0  0
   -7.0570   -1.7390    2.7940 C   0  0  0  0  0
   -7.2580   -1.3680    4.1480 C   0  0  0  0  0
   -6.2290   -1.9910    4.9480 C   0  0  0  0  0
   -5.8540   -2.6430    2.6870 C   0  0  0  0  0
   -6.2960   -4.0570    2.2910 C   0  0  0  0  0
   -5.8880   -4.6690    1.0900 C   0  0  0  0  0
   -7.1260   -6.6680    1.7160 C   0  0  0  0  0
   -7.5200   -6.0660    2.9170 C   0  0  0  0  0
   -6.3140   -5.9790    0.7990 C   0  0  0  0  0
   -7.1000   -4.7670    3.1980 C   0  0  0  0  0
  -12.7180    4.2840    1.9250 C   0  0  0  0  0
   -7.5950   -8.0040    1.4760 C   0  0  0  0  0
  -10.6610    2.4480    2.2320 N   0  0  0  0  0
  -12.1430    0.6550    2.3860 N   0  0  0  0  0
  -11.1360   -0.2090    2.6560 C   0  0  0  0  0
   -9.8320    0.2920    2.7220 C   0  0  0  0  0
   -8.7560   -0.4740    2.9900 N   0  0  0  0  0
   -8.2610   -0.6190    4.2340 N   0  0  0  0  0
   -8.0370   -1.1270    2.1010 C   0  0  0  0  0
   -8.3220   -1.1880    0.6070 C   0  0  0  0  0
  -11.3560   -1.5690    2.8870 O   0  0  0  0  0
  -12.9320    2.8340    1.8850 N   0  0  0  0  0
   -5.4120   -2.7100    4.1110 N   0  0  0  0  0
   -6.1960   -1.8200    6.1510 O   0  0  0  0  0
   -7.9780   -9.0780    1.2930 N   0  0  0  0  0
   -4.3090   -3.4360    4.5180 C   0  0  0  0  0
   -2.9320   -3.3630    3.9090 C   0  0  0  0  0
   -2.0480   -4.9120    5.4970 C   0  0  0  0  0
   -3.2440   -5.0160    6.0750 C   0  0  0  0  0
   -1.9120   -4.1000    4.4270 N   0  0  0  0  0
   -4.3920   -4.2570    5.5750 C   0  0  0  0  0
   -2.6750   -2.6630    2.9370 O   0  0  0  0  0
   -3.4940   -6.0210    7.4770 Cl  0  0  0  0  0
   -8.6082    2.0572    2.5482 H   0  0  0  0  0
   -6.5758   -0.0979   -0.0686 H   0  0  0  0  0
   -6.3674   -1.8661   -0.0362 H   0  0  0  0  0
   -7.3384   -1.1075   -1.3217 H   0  0  0  0  0
   -8.7280   -3.3182    0.4946 H   0  0  0  0  0
  -10.1770   -2.3101    0.7298 H   0  0  0  0  0
   -9.3878   -2.3763   -0.8651 H   0  0  0  0  0
  -13.4130   -1.6862    2.6740 H   0  0  0  0  0
  -12.4687   -2.0863    1.2182 H   0  0  0  0  0
  -12.5436   -3.2371    2.5750 H   0  0  0  0  0
  -14.9871    2.6953    2.2223 H   0  0  0  0  0
  -14.4947    2.6698    0.5111 H   0  0  0  0  0
  -14.2300    1.2373    1.5353 H   0  0  0  0  0
   -5.1124   -2.2976    1.9667 H   0  0  0  0  0
   -5.2469   -4.1323    0.3907 H   0  0  0  0  0
   -8.1483   -6.6072    3.6245 H   0  0  0  0  0
   -6.0152   -6.4569   -0.1339 H   0  0  0  0  0
   -7.3995   -4.2958    4.1341 H   0  0  0  0  0
  -12.9072    4.7053    0.9377 H   0  0  0  0  0
  -13.3996    4.7307    2.6488 H   0  0  0  0  0
  -11.6886    4.4901    2.2182 H   0  0  0  0  0
   -8.9089   -0.2960    0.3879 H   0  0  0  0  0
   -1.1953   -5.4720    5.8809 H   0  0  0  0  0
   -0.9959   -4.0355    3.9832 H   0  0  0  0  0
   -5.3512   -4.3635    6.0816 H   0  0  0  0  0
  1 19  4  0  0  0
 22  1  4  0  0  0
 19  2  4  0  0  0
 20  2  4  0  0  0
  2 28  1  0  0  0
 26  3  1  0  0  0
 26  4  1  0  0  0
 27  5  1  0  0  0
 28  6  1  0  0  0
  7  8  4  0  0  0
 10  7  1  0  0  0
  7 25  4  0  0  0
  9  8  1  0  0  0
  8 24  4  0  0  0
 29  9  1  0  0  0
  9 30  2  0  0  0
 10 11  1  0  0  0
 29 10  1  0  0  0
 11 12  4  0  0  0
 11 16  4  0  0  0
 12 15  4  0  0  0
 14 13  4  0  0  0
 15 13  4  0  0  0
 13 18  1  0  0  0
 16 14  4  0  0  0
 28 17  1  0  0  0
 18 31  3  0  0  0
 21 20  4  0  0  0
 22 21  4  0  0  0
 21 27  1  0  0  0
 23 22  1  0  0  0
 24 23  4  0  0  0
 25 23  4  0  0  0
 25 26  1  0  0  0
 32 29  1  0  0  0
 33 32  1  0  0  0
 32 37  2  0  0  0
 36 33  1  0  0  0
 33 38  2  0  0  0
 34 35  2  0  0  0
 34 36  1  0  0  0
 35 37  1  0  0  0
 35 39  1  0  0  0
  1 40  1  0  0  0
  3 41  1  0  0  0
  3 42  1  0  0  0
  3 43  1  0  0  0
  4 44  1  0  0  0
  4 45  1  0  0  0
  4 46  1  0  0  0
  5 47  1  0  0  0
  5 48  1  0  0  0
  5 49  1  0  0  0
  6 50  1  0  0  0
  6 51  1  0  0  0
  6 52  1  0  0  0
 10 53  1  0  0  0
 12 54  1  0  0  0
 14 55  1  0  0  0
 15 56  1  0  0  0
 16 57  1  0  0  0
 17 58  1  0  0  0
 17 59  1  0  0  0
 17 60  1  0  0  0
 26 61  1  0  0  0
 34 62  1  0  0  0
 36 63  1  0  0  0
 37 64  1  0  0  0
M  END
$$$$
