4ih6_ligand
  -I-interpret- 

 45 46  0  0  0  0  0  0  0  0999 V2000
  -18.6950  -11.4410  -60.8030 N   0  0  0  0  0
  -20.0270  -11.1130  -60.5910 C   0  0  0  0  0
  -20.4440  -10.1050  -60.0480 O   0  0  0  0  0
  -20.7710  -12.1160  -61.0990 N   0  0  0  0  0
  -19.9800  -13.1890  -61.6790 C   0  0  0  0  0
  -18.5650  -12.6520  -61.4560 C   0  0  0  0  0
  -17.5070  -13.1700  -61.7620 O   0  0  0  0  0
  -20.3460  -13.4350  -63.1570 C   0  0  0  0  0
  -19.9160  -14.8160  -63.6250 C   0  0  0  0  0
  -19.8270  -12.3370  -64.0930 C   0  0  0  0  0
  -17.5550  -10.6030  -60.3970 C   0  0  0  0  0
  -17.4260   -9.3370  -61.2120 C   0  0  0  0  0
  -17.0170   -8.1490  -60.6220 C   0  0  0  0  0
  -16.9140   -6.9840  -61.3640 C   0  0  0  0  0
  -17.2230   -6.9670  -62.7230 C   0  0  0  0  0
  -17.6190   -8.1650  -63.3110 C   0  0  0  0  0
  -17.7200   -9.3290  -62.5690 C   0  0  0  0  0
  -17.1550   -5.6630  -63.5370 C   0  0  0  0  0
  -15.7180   -5.1240  -63.5570 C   0  0  0  0  0
  -17.5720   -5.8650  -65.0060 C   0  0  0  0  0
  -18.0930   -4.5970  -62.9360 C   0  0  0  0  0
  -21.7908  -12.1215  -61.0784 H   0  0  0  0  0
  -20.1323  -14.1751  -61.2403 H   0  0  0  0  0
  -21.4340  -13.3934  -63.2076 H   0  0  0  0  0
  -20.3110  -14.9989  -64.6243 H   0  0  0  0  0
  -18.8275  -14.8678  -63.6480 H   0  0  0  0  0
  -20.3023  -15.5680  -62.9370 H   0  0  0  0  0
  -18.7378  -12.3690  -64.1197 H   0  0  0  0  0
  -20.2213  -12.5001  -65.0960 H   0  0  0  0  0
  -20.1543  -11.3641  -63.7263 H   0  0  0  0  0
  -16.6465  -11.1863  -60.5472 H   0  0  0  0  0
  -17.7123  -10.3123  -59.3583 H   0  0  0  0  0
  -16.7734   -8.1327  -59.5597 H   0  0  0  0  0
  -16.5860   -6.0656  -60.8772 H   0  0  0  0  0
  -17.8538   -8.1868  -64.3752 H   0  0  0  0  0
  -18.0346  -10.2518  -63.0565 H   0  0  0  0  0
  -15.3916   -4.9252  -62.5362 H   0  0  0  0  0
  -15.0600   -5.8641  -64.0125 H   0  0  0  0  0
  -15.6854   -4.2013  -64.1364 H   0  0  0  0  0
  -16.9067   -6.5901  -65.4748 H   0  0  0  0  0
  -18.5973   -6.2330  -65.0440 H   0  0  0  0  0
  -17.5060   -4.9143  -65.5351 H   0  0  0  0  0
  -19.1178   -4.9681  -62.9483 H   0  0  0  0  0
  -17.7931   -4.3884  -61.9090 H   0  0  0  0  0
  -18.0289   -3.6835  -63.5272 H   0  0  0  0  0
  1  2  1  0  0  0
  1  6  1  0  0  0
  1 11  1  0  0  0
  2  3  2  0  0  0
  2  4  1  0  0  0
  4  5  1  0  0  0
  5  6  1  0  0  0
  5  8  1  0  0  0
  6  7  2  0  0  0
  8  9  1  0  0  0
  8 10  1  0  0  0
 11 12  1  0  0  0
 12 13  4  0  0  0
 12 17  4  0  0  0
 13 14  4  0  0  0
 14 15  4  0  0  0
 15 16  4  0  0  0
 15 18  1  0  0  0
 16 17  4  0  0  0
 18 19  1  0  0  0
 18 20  1  0  0  0
 18 21  1  0  0  0
  4 22  1  0  0  0
  5 23  1  0  0  0
  8 24  1  0  0  0
  9 25  1  0  0  0
  9 26  1  0  0  0
  9 27  1  0  0  0
 10 28  1  0  0  0
 10 29  1  0  0  0
 10 30  1  0  0  0
 11 31  1  0  0  0
 11 32  1  0  0  0
 13 33  1  0  0  0
 14 34  1  0  0  0
 16 35  1  0  0  0
 17 36  1  0  0  0
 19 37  1  0  0  0
 19 38  1  0  0  0
 19 39  1  0  0  0
 20 40  1  0  0  0
 20 41  1  0  0  0
 20 42  1  0  0  0
 21 43  1  0  0  0
 21 44  1  0  0  0
 21 45  1  0  0  0
M  END
$$$$
