1i7i_ligand
  -I-interpret- 

 52 53  0  0  0  0  0  0  0  0999 V2000
   18.3960   16.3430   16.4840 C   0  0  0  0  0
   18.8060   16.4240   17.9370 C   0  0  0  0  0
   19.2630   17.8180   18.4260 C   0  0  0  0  0
   20.4490   18.1410   17.6930 O   0  0  0  0  0
   20.6920   19.5210   17.5290 C   0  0  0  0  0
   22.0860   19.6460   16.9440 C   0  0  0  0  0
   19.4700   17.7540   19.9600 C   0  0  0  0  0
   18.3230   17.9030   20.6580 O   0  0  0  0  0
   20.5210   17.5850   20.5410 O   0  0  0  0  0
   19.3450   16.0130   15.4660 C   0  0  0  0  0
   18.9390   15.9390   14.1020 C   0  0  0  0  0
   17.5740   16.1940   13.7360 C   0  0  0  0  0
   16.6480   16.5200   14.7520 C   0  0  0  0  0
   17.0570   16.5930   16.1130 C   0  0  0  0  0
   17.2390   16.1010   12.3820 O   0  0  0  0  0
   18.2370   15.8860   11.3530 C   0  0  0  0  0
   17.6420   16.3750   10.0300 C   0  0  0  0  0
   17.6740   17.8740    9.9160 C   0  0  0  0  0
   18.7320   18.5310    9.2180 C   0  0  0  0  0
   18.7580   19.9510    9.1180 C   0  0  0  0  0
   17.7250   20.7240    9.7160 C   0  0  0  0  0
   16.6680   20.0780   10.4080 C   0  0  0  0  0
   16.6510   18.6630   10.5030 C   0  0  0  0  0
   17.8440   22.0760    9.5550 O   0  0  0  0  0
   17.2560   22.7890    8.2240 S   0  0  0  0  0
   17.5950   24.4670    8.7020 C   0  0  0  0  0
   18.1020   22.4590    7.1090 O   0  0  0  0  0
   15.8090   22.5980    8.1760 O   0  0  0  0  0
   19.6617   15.7591   18.0545 H   0  0  0  0  0
   17.9238   16.1647   18.5223 H   0  0  0  0  0
   18.5307   18.6056   18.2483 H   0  0  0  0  0
   20.6199   20.0460   18.4815 H   0  0  0  0  0
   19.9502   19.9724   16.8701 H   0  0  0  0  0
   22.8075   19.2015   17.6295 H   0  0  0  0  0
   22.1248   19.1265   15.9866 H   0  0  0  0  0
   22.3238   20.6995   16.7971 H   0  0  0  0  0
   17.5921   18.0260   20.0479 H   0  0  0  0  0
   20.3831   15.8173   15.7346 H   0  0  0  0  0
   19.6686   15.6875   13.3322 H   0  0  0  0  0
   15.6085   16.7178   14.4904 H   0  0  0  0  0
   16.3255   16.8457   16.8806 H   0  0  0  0  0
   18.4974   14.8296   11.2878 H   0  0  0  0  0
   19.1507   16.4326   11.5865 H   0  0  0  0  0
   16.6018   16.0525    9.9849 H   0  0  0  0  0
   18.2354   15.9591    9.2157 H   0  0  0  0  0
   19.5253   17.9414    8.7585 H   0  0  0  0  0
   19.5692   20.4453    8.5834 H   0  0  0  0  0
   15.8724   20.6668   10.8647 H   0  0  0  0  0
   15.8370   18.1725   11.0368 H   0  0  0  0  0
   17.1555   25.1471    7.9723 H   0  0  0  0  0
   17.1633   24.6578    9.6845 H   0  0  0  0  0
   18.6733   24.6215    8.7412 H   0  0  0  0  0
  1 14  4  0  0  0
  1 10  4  0  0  0
  1  2  1  0  0  0
  2  3  1  0  0  0
  3  7  1  0  0  0
  3  4  1  0  0  0
  4  5  1  0  0  0
  5  6  1  0  0  0
  7  9  2  0  0  0
  7  8  1  0  0  0
 10 11  4  0  0  0
 11 12  4  0  0  0
 12 15  1  0  0  0
 12 13  4  0  0  0
 13 14  4  0  0  0
 15 16  1  0  0  0
 16 17  1  0  0  0
 17 18  1  0  0  0
 18 23  4  0  0  0
 18 19  4  0  0  0
 19 20  4  0  0  0
 20 21  4  0  0  0
 21 24  1  0  0  0
 21 22  4  0  0  0
 22 23  4  0  0  0
 24 25  1  0  0  0
 25 28  2  0  0  0
 25 27  2  0  0  0
 25 26  1  0  0  0
  2 29  1  0  0  0
  2 30  1  0  0  0
  3 31  1  0  0  0
  5 32  1  0  0  0
  5 33  1  0  0  0
  6 34  1  0  0  0
  6 35  1  0  0  0
  6 36  1  0  0  0
  8 37  1  0  0  0
 10 38  1  0  0  0
 11 39  1  0  0  0
 13 40  1  0  0  0
 14 41  1  0  0  0
 16 42  1  0  0  0
 16 43  1  0  0  0
 17 44  1  0  0  0
 17 45  1  0  0  0
 19 46  1  0  0  0
 20 47  1  0  0  0
 22 48  1  0  0  0
 23 49  1  0  0  0
 26 50  1  0  0  0
 26 51  1  0  0  0
 26 52  1  0  0  0
M  END
$$$$
