### 
### Created by X-TOOL on Mon Sep 10 21:13:05 2018
### 

@<TRIPOS>MOLECULE
3tiw_ligand
  321   320     1     0     0
SMALL
GAST_HUCK


@<TRIPOS>ATOM
      1 N           0.4620   -9.6460  -26.7420 N.4       1 VAL         0.2381
      2 CA          0.9140   -9.5810  -25.3600 C.3       1 VAL         0.0673
      3 C           2.3450  -10.0900  -25.2260 C.2       1 VAL         0.2270
      4 O           2.8680  -10.7550  -26.1230 O.2       1 VAL        -0.3907
      5 CB          0.0090  -10.4080  -24.4350 C.3       1 VAL         0.0139
      6 CG1        -1.4290   -9.9770  -24.5940 C.3       1 VAL        -0.0553
      7 CG2         0.1570  -11.8900  -24.7360 C.3       1 VAL        -0.0553
      8 N           2.9800   -9.7720  -24.1030 N.am      1 THR        -0.2586
      9 CA          4.3410  -10.2150  -23.8700 C.3       1 THR         0.1566
     10 C           4.4560  -10.8280  -22.4900 C.2       1 THR         0.2065
     11 O           3.5960  -10.6250  -21.6400 O.2       1 THR        -0.3943
     12 CB          5.3800   -9.0730  -24.0520 C.3       1 THR         0.0924
     13 OG1         5.1140   -8.0170  -23.1280 O.3       1 THR        -0.3874
     14 CG2         5.3410   -8.5180  -25.4690 C.3       1 THR        -0.0346
     15 N           5.5230  -11.5920  -22.2940 N.am      1 LEU        -0.2636
     16 CA          5.7690  -12.3170  -21.0570 C.3       1 LEU         0.1312
     17 C           6.6980  -11.5050  -20.1700 C.2       1 LEU         0.2039
     18 O           7.7170  -10.9990  -20.6330 O.2       1 LEU        -0.3944
     19 CB          6.4080  -13.6650  -21.3810 C.3       1 LEU        -0.0101
     20 CG          6.6740  -14.6360  -20.2300 C.3       1 LEU        -0.0425
     21 CD1         5.4030  -14.9420  -19.4560 C.3       1 LEU        -0.0625
     22 CD2         7.3000  -15.9090  -20.7620 C.3       1 LEU        -0.0625
     23 N           6.3550  -11.3830  -18.8940 N.am      1 ARG        -0.2637
     24 CA          7.0890  -10.4840  -18.0140 C.3       1 ARG         0.1311
     25 C           8.5830  -10.7990  -17.9000 C.2       1 ARG         0.2039
     26 O           9.4110   -9.8920  -17.9200 O.2       1 ARG        -0.3944
     27 CB          6.4630  -10.4260  -16.6170 C.3       1 ARG        -0.0092
     28 CG          7.1320   -9.3990  -15.7330 C.3       1 ARG        -0.0156
     29 CD          6.4050   -9.2320  -14.4290 C.3       1 ARG         0.0627
     30 NE          6.7520  -10.2730  -13.4750 N.pl3     1 ARG        -0.2723
     31 CZ          6.2960  -10.3150  -12.2260 C.cat     1 ARG         0.2882
     32 NH1         6.6610  -11.2950  -11.4170 N.pl3     1 ARG        -0.2849
     33 NH2         5.4710   -9.3760  -11.7880 N.pl3     1 ARG        -0.2849
     34 N           8.9340  -12.0750  -17.7760 N.am      1 ARG        -0.2637
     35 CA         10.3260  -12.4120  -17.5130 C.3       1 ARG         0.1311
     36 C          11.2110  -11.9670  -18.6710 C.2       1 ARG         0.2039
     37 O          12.3630  -11.5760  -18.4740 O.2       1 ARG        -0.3944
     38 CB         10.4990  -13.8970  -17.1990 C.3       1 ARG        -0.0092
     39 CG         10.2270  -14.8490  -18.3380 C.3       1 ARG        -0.0156
     40 CD         10.7310  -16.2580  -18.0060 C.3       1 ARG         0.0627
     41 NE         10.4920  -17.2000  -19.0960 N.pl3     1 ARG        -0.2723
     42 CZ         11.1670  -17.2090  -20.2440 C.cat     1 ARG         0.2882
     43 NH1        12.1380  -16.3300  -20.4620 N.pl3     1 ARG        -0.2849
     44 NH2        10.8750  -18.1010  -21.1800 N.pl3     1 ARG        -0.2849
     45 N          10.6560  -11.9880  -19.8750 N.am      1 ARG        -0.2637
     46 CA         11.3950  -11.5300  -21.0400 C.3       1 ARG         0.1311
     47 C          11.6920  -10.0380  -21.0010 C.2       1 ARG         0.2039
     48 O          12.7390   -9.6040  -21.4570 O.2       1 ARG        -0.3944
     49 CB         10.6660  -11.9110  -22.3260 C.3       1 ARG        -0.0092
     50 CG         10.5780  -13.4060  -22.5350 C.3       1 ARG        -0.0156
     51 CD         10.4310  -13.7670  -23.9960 C.3       1 ARG         0.0627
     52 NE         10.4710  -15.2140  -24.1640 N.pl3     1 ARG        -0.2723
     53 CZ          9.4420  -15.9540  -24.5530 C.cat     1 ARG         0.2882
     54 NH1         8.2880  -15.3840  -24.8460 N.pl3     1 ARG        -0.2849
     55 NH2         9.5710  -17.2660  -24.6650 N.pl3     1 ARG        -0.2849
     56 N          10.7760   -9.2490  -20.4550 N.am      1 MET        -0.2637
     57 CA         11.0090   -7.8140  -20.3160 C.3       1 MET         0.1317
     58 C          12.1290   -7.5250  -19.3140 C.2       1 MET         0.2039
     59 O          13.0000   -6.6880  -19.5560 O.2       1 MET        -0.3944
     60 CB          9.7260   -7.1050  -19.8910 C.3       1 MET        -0.0034
     61 CG          9.8240   -5.5930  -19.9130 C.3       1 MET        -0.0024
     62 SD          8.2820   -4.8170  -19.4080 S.3       1 MET        -0.1639
     63 CE          8.1370   -5.4730  -17.7490 C.3       1 MET        -0.0181
     64 N          12.0920   -8.2320  -18.1920 N.am      1 LEU        -0.2637
     65 CA         13.1200   -8.1450  -17.1770 C.3       1 LEU         0.1312
     66 C          14.4900   -8.5690  -17.7070 C.2       1 LEU         0.2039
     67 O          15.4940   -7.9100  -17.4460 O.2       1 LEU        -0.3944
     68 CB         12.7300   -9.0070  -15.9810 C.3       1 LEU        -0.0101
     69 CG         11.8690   -8.3520  -14.9010 C.3       1 LEU        -0.0425
     70 CD1        10.7210   -7.5540  -15.4900 C.3       1 LEU        -0.0625
     71 CD2        11.3720   -9.4190  -13.9470 C.3       1 LEU        -0.0625
     72 N          14.5350   -9.6690  -18.4460 N.am      1 ALA        -0.2640
     73 CA         15.7840  -10.1320  -19.0410 C.3       1 ALA         0.1282
     74 C          16.3400   -9.1550  -20.0730 C.2       1 ALA         0.2036
     75 O          17.5320   -8.8750  -20.0730 O.2       1 ALA        -0.3944
     76 CB         15.6000  -11.5080  -19.6580 C.3       1 ALA        -0.0244
     77 N          15.4800   -8.6260  -20.9410 N.am      1 ALA        -0.2640
     78 CA         15.9330   -7.7460  -22.0250 C.3       1 ALA         0.1282
     79 C          16.5370   -6.4500  -21.5110 C.2       1 ALA         0.2036
     80 O          17.4820   -5.9310  -22.0930 O.2       1 ALA        -0.3944
     81 CB         14.8090   -7.4550  -22.9910 C.3       1 ALA        -0.0244
     82 N          15.9900   -5.9350  -20.4160 N.am      1 ALA        -0.2640
     83 CA         16.4930   -4.7160  -19.8090 C.3       1 ALA         0.1282
     84 C          17.8670   -4.9610  -19.2270 C.2       1 ALA         0.2036
     85 O          18.7280   -4.0950  -19.2850 O.2       1 ALA        -0.3944
     86 CB         15.5460   -4.2320  -18.7310 C.3       1 ALA        -0.0244
     87 N          18.0620   -6.1430  -18.6500 N.am      1 ALA        -0.2640
     88 CA         19.3340   -6.4970  -18.0320 C.3       1 ALA         0.1282
     89 C          20.3960   -6.7370  -19.0940 C.2       1 ALA         0.2036
     90 O          21.5530   -6.3520  -18.9280 O.2       1 ALA        -0.3944
     91 CB         19.1730   -7.7240  -17.1580 C.3       1 ALA        -0.0244
     92 N          19.9940   -7.3820  -20.1830 N.am      1 GLU        -0.2636
     93 CA         20.9010   -7.6500  -21.2850 C.3       1 GLU         0.1325
     94 C          21.3600   -6.3490  -21.9360 C.2       1 GLU         0.2040
     95 O          22.5090   -6.2320  -22.3420 O.2       1 GLU        -0.3944
     96 CB         20.2560   -8.6070  -22.2900 C.3       1 GLU        -0.0008
     97 CG         20.1460  -10.0140  -21.7340 C.3       1 GLU         0.0044
     98 CD         19.0270  -10.8320  -22.3460 C.2       1 GLU         0.0350
     99 OE1        18.2850  -10.3010  -23.1940 O.co2     1 GLU        -0.5690
    100 OE2        18.8860  -12.0150  -21.9720 O.co2     1 GLU        -0.5690
    101 N          20.4690   -5.3660  -22.0210 N.am      1 ARG        -0.2637
    102 CA         20.8380   -4.0570  -22.5410 C.3       1 ARG         0.1311
    103 C          21.8810   -3.4050  -21.6510 C.2       1 ARG         0.2039
    104 O          22.8330   -2.8040  -22.1370 O.2       1 ARG        -0.3944
    105 CB         19.6170   -3.1500  -22.6610 C.3       1 ARG        -0.0092
    106 CG         18.6950   -3.5300  -23.7960 C.3       1 ARG        -0.0156
    107 CD         17.6500   -2.4590  -24.0480 C.3       1 ARG         0.0627
    108 NE         16.2950   -2.9190  -23.7470 N.pl3     1 ARG        -0.2723
    109 CZ         15.6290   -2.6260  -22.6320 C.cat     1 ARG         0.2882
    110 NH1        16.1840   -1.8670  -21.6920 N.pl3     1 ARG        -0.2849
    111 NH2        14.4000   -3.0910  -22.4590 N.pl3     1 ARG        -0.2849
    112 N          21.6940   -3.5250  -20.3420 N.am      1 ARG        -0.2637
    113 CA         22.6660   -2.9900  -19.4020 C.3       1 ARG         0.1311
    114 C          24.0330   -3.6480  -19.5900 C.2       1 ARG         0.2039
    115 O          25.0670   -2.9810  -19.5470 O.2       1 ARG        -0.3944
    116 CB         22.1790   -3.1420  -17.9610 C.3       1 ARG        -0.0092
    117 CG         20.9250   -2.3610  -17.6870 C.3       1 ARG        -0.0156
    118 CD         20.7300   -2.1020  -16.2150 C.3       1 ARG         0.0627
    119 NE         20.4480   -3.3200  -15.4770 N.pl3     1 ARG        -0.2723
    120 CZ         19.2560   -3.8990  -15.4120 C.cat     1 ARG         0.2882
    121 NH1        19.0980   -5.0000  -14.7010 N.pl3     1 ARG        -0.2849
    122 NH2        18.2220   -3.3850  -16.0510 N.pl3     1 ARG        -0.2849
    123 N          24.0430   -4.9560  -19.8200 N.am      1 LEU        -0.2637
    124 CA         25.3100   -5.6600  -19.9770 C.3       1 LEU         0.1312
    125 C          25.9770   -5.4220  -21.3390 C.2       1 LEU         0.2039
    126 O          27.1980   -5.4880  -21.4490 O.2       1 LEU        -0.3944
    127 CB         25.1850   -7.1540  -19.6270 C.3       1 LEU        -0.0101
    128 CG         24.2710   -8.1650  -20.3320 C.3       1 LEU        -0.0425
    129 CD1        24.7830   -8.5160  -21.7150 C.3       1 LEU        -0.0625
    130 CD2        24.1510   -9.4370  -19.4960 C.3       1 LEU        -0.0625
    131 N          25.1870   -5.1170  -22.3650 N.am      1 GLN        -0.2636
    132 CA         25.7450   -4.7600  -23.6690 C.3       1 GLN         0.1330
    133 C          26.0700   -3.2630  -23.7490 C.2       1 GLN         0.2035
    134 O          25.8620   -2.6220  -24.7810 O.2       1 GLN        -0.3944
    135 CB         24.7950   -5.1550  -24.7990 C.3       1 GLN         0.0045
    136 CG         23.5700   -4.2710  -24.9180 C.3       1 GLN         0.0412
    137 CD         23.1090   -4.1070  -26.3540 C.2       1 GLN         0.1737
    138 OE1        22.9910   -5.0820  -27.0980 O.2       1 GLN        -0.3973
    139 NE2        22.8530   -2.8650  -26.7540 N.am      1 GLN        -0.3009
    140 N          26.5860   -2.7170  -22.6520 N.am      1 LYS        -0.2695
    141 CA         26.8840   -1.2940  -22.5600 C.3       1 LYS         0.0944
    142 C          27.7920   -1.0140  -21.3620 C.2       1 LYS         0.0601
    143 O          28.9386   -0.5158  -21.5192 O.co2     1 LYS        -0.5666
    144 CB         25.5840   -0.4930  -22.4440 C.3       1 LYS        -0.0177
    145 CG         25.6470    0.8940  -23.0580 C.3       1 LYS        -0.0446
    146 CD         26.6390    1.7840  -22.3250 C.3       1 LYS        -0.0125
    147 CE         27.3010    2.7740  -23.2740 C.3       1 LYS        -0.0354
    148 NZ         28.1210    2.0960  -24.3210 N.4       1 LYS         0.2185
    149 H           1.0828   -9.0879  -27.3281 H         1 VAL         0.2015
    150 H           0.4754  -10.6159  -27.0576 H         1 VAL         0.2015
    151 H          -0.4878   -9.2797  -26.8054 H         1 VAL         0.2015
    152 H           0.8698   -8.5330  -25.0636 H         1 VAL         0.1101
    153 H           0.3122  -10.2355  -23.4023 H         1 VAL         0.0376
    154 H          -1.7522  -10.1649  -25.6179 H         1 VAL         0.0236
    155 H          -2.0550  -10.5432  -23.9043 H         1 VAL         0.0236
    156 H          -1.5144   -8.9128  -24.3742 H         1 VAL         0.0236
    157 H          -0.4632  -12.4631  -24.0469 H         1 VAL         0.0236
    158 H          -0.1604  -12.0849  -25.7604 H         1 VAL         0.0236
    159 H           1.2004  -12.1814  -24.6159 H         1 VAL         0.0236
    160 H           2.5048   -9.2099  -23.3968 H         1 THR         0.1885
    161 H           4.5717  -10.9694  -24.6222 H         1 THR         0.0826
    162 H           6.3701   -9.4885  -23.8644 H         1 THR         0.0639
    163 H           5.1707   -8.3558  -22.2316 H         1 THR         0.2101
    164 H           5.5702   -9.3150  -26.1764 H         1 THR         0.0257
    165 H           4.3467   -8.1220  -25.6755 H         1 THR         0.0257
    166 H           6.0783   -7.7211  -25.5661 H         1 THR         0.0257
    167 H           6.2047  -11.6751  -23.0482 H         1 LEU         0.1883
    168 H           4.8273  -12.4808  -20.5332 H         1 LEU         0.0800
    169 H           7.3907  -13.4262  -21.7877 H         1 LEU         0.0315
    170 H           5.6920  -14.1742  -22.0261 H         1 LEU         0.0315
    171 H           7.3699  -14.1623  -19.5376 H         1 LEU         0.0298
    172 H           4.9994  -14.0177  -19.0426 H         1 LEU         0.0232
    173 H           4.6705  -15.3921  -20.1261 H         1 LEU         0.0232
    174 H           5.6304  -15.6350  -18.6459 H         1 LEU         0.0232
    175 H           6.6213  -16.3751  -21.4763 H         1 LEU         0.0232
    176 H           8.2418  -15.6703  -21.2562 H         1 LEU         0.0232
    177 H           7.4857  -16.5942  -19.9349 H         1 LEU         0.0232
    178 H           5.5714  -11.9229  -18.5267 H         1 ARG         0.1883
    179 H           7.0103   -9.5065  -18.4898 H         1 ARG         0.0800
    180 H           6.5832  -11.4040  -16.1510 H         1 ARG         0.0313
    181 H           5.4149  -10.1475  -16.7266 H         1 ARG         0.0313
    182 H           7.1277   -8.4417  -16.2541 H         1 ARG         0.0301
    183 H           8.1463   -9.7368  -15.5204 H         1 ARG         0.0301
    184 H           5.3345   -9.2925  -14.6253 H         1 ARG         0.0689
    185 H           6.6879   -8.2700  -14.0017 H         1 ARG         0.0689
    186 H           7.3819  -11.0144  -13.7814 H         1 ARG         0.2642
    187 H           7.2942  -12.0221  -11.7499 H         1 ARG         0.2615
    188 H           6.3094  -11.3240  -10.4600 H         1 ARG         0.2615
    189 H           5.1843   -8.6190  -12.4087 H         1 ARG         0.2615
    190 H           5.1224   -9.4098  -10.8300 H         1 ARG         0.2615
    191 H           8.2342  -12.8119  -17.8643 H         1 ARG         0.1883
    192 H          10.6432  -11.8687  -16.6229 H         1 ARG         0.0800
    193 H           9.7716  -14.1328  -16.4222 H         1 ARG         0.0313
    194 H          11.5462  -14.0332  -16.9291 H         1 ARG         0.0313
    195 H          10.7478  -14.4908  -19.2260 H         1 ARG         0.0301
    196 H           9.1513  -14.8928  -18.5087 H         1 ARG         0.0301
    197 H          10.1927  -16.6125  -17.1270 H         1 ARG         0.0689
    198 H          11.8061  -16.2023  -17.8353 H         1 ARG         0.0689
    199 H           9.7589  -17.8979  -18.9696 H         1 ARG         0.2642
    200 H          12.3720  -15.6408  -19.7474 H         1 ARG         0.2615
    201 H          12.6500  -16.3439  -21.3441 H         1 ARG         0.2615
    202 H          10.1323  -18.7820  -21.0216 H         1 ARG         0.2615
    203 H          11.3930  -18.1064  -22.0587 H         1 ARG         0.2615
    204 H           9.7010  -12.3289  -19.9848 H         1 ARG         0.1883
    205 H          12.3596  -12.0372  -21.0213 H         1 ARG         0.0800
    206 H          11.2260  -11.4914  -23.1617 H         1 ARG         0.0313
    207 H           9.6489  -11.5250  -22.2578 H         1 ARG         0.0313
    208 H           9.6999  -13.7730  -22.0036 H         1 ARG         0.0301
    209 H          11.4986  -13.8565  -22.1639 H         1 ARG         0.0301
    210 H          11.2510  -13.3200  -24.5580 H         1 ARG         0.0689
    211 H           9.4751  -13.3919  -24.3615 H         1 ARG         0.0689
    212 H          11.3515  -15.6904  -23.9688 H         1 ARG         0.2642
    213 H           8.1862  -14.3717  -24.7734 H         1 ARG         0.2615
    214 H           7.4981  -15.9559  -25.1450 H         1 ARG         0.2615
    215 H          10.4639  -17.7107  -24.4518 H         1 ARG         0.2615
    216 H           8.7776  -17.8327  -24.9645 H         1 ARG         0.2615
    217 H           9.8970   -9.6500  -20.1278 H         1 MET         0.1883
    218 H          11.3203   -7.4321  -21.2883 H         1 MET         0.0800
    219 H           9.5170   -7.4014  -18.8631 H         1 MET         0.0320
    220 H           8.9482   -7.3898  -20.5995 H         1 MET         0.0320
    221 H          10.0481   -5.2788  -20.9324 H         1 MET         0.0378
    222 H          10.6048   -5.2899  -19.2155 H         1 MET         0.0378
    223 H           8.0933   -6.5613  -17.7925 H         1 MET         0.0340
    224 H           9.0022   -5.1660  -17.1614 H         1 MET         0.0340
    225 H           7.2275   -5.0898  -17.2864 H         1 MET         0.0340
    226 H          11.3059   -8.8635  -18.0382 H         1 LEU         0.1883
    227 H          13.2009   -7.1016  -16.8722 H         1 LEU         0.0800
    228 H          13.6660   -9.2758  -15.4914 H         1 LEU         0.0315
    229 H          12.1291   -9.8214  -16.3858 H         1 LEU         0.0315
    230 H          12.4832   -7.6374  -14.3532 H         1 LEU         0.0298
    231 H          11.1184   -6.7670  -16.1309 H         1 LEU         0.0232
    232 H          10.0840   -8.2155  -16.0772 H         1 LEU         0.0232
    233 H          10.1387   -7.1082  -14.6836 H         1 LEU         0.0232
    234 H          10.7780  -10.1486  -14.4974 H         1 LEU         0.0232
    235 H          12.2244   -9.9169  -13.4848 H         1 LEU         0.0232
    236 H          10.7573   -8.9564  -13.1748 H         1 LEU         0.0232
    237 H          13.6794  -10.2021  -18.6016 H         1 ALA         0.1883
    238 H          16.5158  -10.1939  -18.2356 H         1 ALA         0.0797
    239 H          15.2918  -12.2128  -18.8858 H         1 ALA         0.0277
    240 H          14.8347  -11.4581  -20.4325 H         1 ALA         0.0277
    241 H          16.5420  -11.8369  -20.0968 H         1 ALA         0.0277
    242 H          14.4861   -8.8366  -20.8508 H         1 ALA         0.1883
    243 H          16.7220   -8.2831  -22.5514 H         1 ALA         0.0797
    244 H          14.4529   -8.3896  -23.4243 H         1 ALA         0.0277
    245 H          13.9929   -6.9650  -22.4599 H         1 ALA         0.0277
    246 H          15.1729   -6.8011  -23.7835 H         1 ALA         0.0277
    247 H          15.1941   -6.4093  -19.9894 H         1 ALA         0.1883
    248 H          16.5645   -3.9449  -20.5761 H         1 ALA         0.0797
    249 H          14.5686   -4.0328  -19.1705 H         1 ALA         0.0277
    250 H          15.4507   -4.9986  -17.9620 H         1 ALA         0.0277
    251 H          15.9395   -3.3174  -18.2874 H         1 ALA         0.0277
    252 H          17.3001   -6.8211  -18.6395 H         1 ALA         0.1883
    253 H          19.6561   -5.6648  -17.4060 H         1 ALA         0.0797
    254 H          18.4426   -7.5179  -16.3756 H         1 ALA         0.0277
    255 H          18.8287   -8.5598  -17.7672 H         1 ALA         0.0277
    256 H          20.1322   -7.9740  -16.7047 H         1 ALA         0.0277
    257 H          19.0258   -7.6964  -20.2469 H         1 GLU         0.1883
    258 H          21.7923   -8.1429  -20.8967 H         1 GLU         0.0801
    259 H          20.8799   -8.6385  -23.1833 H         1 GLU         0.0330
    260 H          19.2518   -8.2460  -22.5121 H         1 GLU         0.0330
    261 H          19.9363   -9.9252  -20.6681 H         1 GLU         0.0433
    262 H          21.0817  -10.5254  -21.9602 H         1 GLU         0.0433
    263 H          19.5097   -5.5318  -21.7165 H         1 ARG         0.1883
    264 H          21.2599   -4.2007  -23.5357 H         1 ARG         0.0800
    265 H          19.9767   -2.1395  -22.8547 H         1 ARG         0.0313
    266 H          19.0502   -3.2384  -21.7342 H         1 ARG         0.0313
    267 H          18.1834   -4.4549  -23.5296 H         1 ARG         0.0301
    268 H          19.2921   -3.6486  -24.7002 H         1 ARG         0.0301
    269 H          17.6885   -2.1927  -25.1043 H         1 ARG         0.0689
    270 H          17.8709   -1.6130  -23.3971 H         1 ARG         0.0689
    271 H          15.8278   -3.5048  -24.4391 H         1 ARG         0.2642
    272 H          17.1282   -1.5036  -21.8216 H         1 ARG         0.2615
    273 H          15.6656   -1.6482  -20.8413 H         1 ARG         0.2615
    274 H          13.9681   -3.6708  -23.1785 H         1 ARG         0.2615
    275 H          13.8861   -2.8691  -21.6064 H         1 ARG         0.2615
    276 H          20.8602   -3.9972  -19.9922 H         1 ARG         0.1883
    277 H          22.7761   -1.9252  -19.6075 H         1 ARG         0.0800
    278 H          22.9601   -2.7627  -17.3021 H         1 ARG         0.0313
    279 H          21.9604   -4.1963  -17.7912 H         1 ARG         0.0313
    280 H          20.0762   -2.9432  -18.0456 H         1 ARG         0.0301
    281 H          21.0051   -1.3995  -18.1941 H         1 ARG         0.0301
    282 H          19.8797   -1.4301  -16.0984 H         1 ARG         0.0689
    283 H          21.6510   -1.6722  -15.8212 H         1 ARG         0.0689
    284 H          21.2185   -3.7605  -14.9744 H         1 ARG         0.2642
    285 H          19.8914   -5.4038  -14.2031 H         1 ARG         0.2615
    286 H          18.1826   -5.4469  -14.6496 H         1 ARG         0.2615
    287 H          18.3346   -2.5340  -16.6020 H         1 ARG         0.2615
    288 H          17.3102   -3.8387  -15.9939 H         1 ARG         0.2615
    289 H          23.1636   -5.4684  -19.8869 H         1 LEU         0.1883
    290 H          25.9910   -5.2210  -19.2479 H         1 LEU         0.0800
    291 H          24.7542   -7.1176  -18.6264 H         1 LEU         0.0315
    292 H          26.1766   -7.5300  -19.8790 H         1 LEU         0.0315
    293 H          23.2912   -7.6999  -20.4405 H         1 LEU         0.0298
    294 H          24.8300   -7.6130  -22.3236 H         1 LEU         0.0232
    295 H          25.7784   -8.9523  -21.6326 H         1 LEU         0.0232
    296 H          24.1074   -9.2342  -22.1797 H         1 LEU         0.0232
    297 H          25.1389   -9.8784  -19.3645 H         1 LEU         0.0232
    298 H          23.7288   -9.1913  -18.5216 H         1 LEU         0.0232
    299 H          23.4999  -10.1461  -20.0072 H         1 LEU         0.0232
    300 H          24.1748   -5.1324  -22.2401 H         1 GLN         0.1883
    301 H          26.6750   -5.3163  -23.7865 H         1 GLN         0.0801
    302 H          24.4436   -6.1645  -24.5857 H         1 GLN         0.0337
    303 H          25.3499   -5.0631  -25.7327 H         1 GLN         0.0337
    304 H          23.8286   -3.2845  -24.5331 H         1 GLN         0.0504
    305 H          22.7615   -4.7394  -24.3567 H         1 GLN         0.0504
    306 H          22.5455   -2.6905  -27.7108 H         1 GLN         0.1814
    307 H          22.9641   -2.0868  -26.1041 H         1 GLN         0.1814
    308 H          26.7796   -3.3143  -21.8482 H         1 LYS         0.1875
    309 H          27.4068   -0.9862  -23.4655 H         1 LYS         0.0726
    310 O          27.3875   -1.2857  -20.2000 O.co2     1 LYS        -0.5666
    311 H          25.3809   -0.3639  -21.3809 H         1 LYS         0.0305
    312 H          24.8165   -1.0478  -22.9837 H         1 LYS         0.0305
    313 H          24.6585    1.3479  -22.9875 H         1 LYS         0.0269
    314 H          25.9698    0.7982  -24.0947 H         1 LYS         0.0269
    315 H          27.4125    1.1535  -21.8866 H         1 LYS         0.0317
    316 H          26.1025    2.3437  -21.5588 H         1 LYS         0.0317
    317 H          27.9623    3.4125  -22.6883 H         1 LYS         0.0813
    318 H          26.5148    3.3392  -23.7745 H         1 LYS         0.0813
    319 H          28.5419    2.7984  -24.9292 H         1 LYS         0.1994
    320 H          28.8556    1.5477  -23.8737 H         1 LYS         0.1994
    321 H          27.5239    1.4803  -24.8730 H         1 LYS         0.1994
@<TRIPOS>BOND
     1    1    2 1  
     2    2    3 1  
     3    2    5 1  
     4    3    4 2  
     5    3    8 am 
     6    5    6 1  
     7    5    7 1  
     8    8    9 1  
     9    9   10 1  
    10    9   12 1  
    11   10   11 2  
    12   10   15 am 
    13   12   13 1  
    14   12   14 1  
    15   15   16 1  
    16   16   17 1  
    17   16   19 1  
    18   17   18 2  
    19   17   23 am 
    20   19   20 1  
    21   20   21 1  
    22   20   22 1  
    23   23   24 1  
    24   24   25 1  
    25   24   27 1  
    26   25   26 2  
    27   25   34 am 
    28   27   28 1  
    29   28   29 1  
    30   29   30 1  
    31   30   31 ar 
    32   31   32 ar 
    33   31   33 ar 
    34   34   35 1  
    35   35   36 1  
    36   35   38 1  
    37   36   37 2  
    38   36   45 am 
    39   38   39 1  
    40   39   40 1  
    41   40   41 1  
    42   41   42 ar 
    43   42   43 ar 
    44   42   44 ar 
    45   45   46 1  
    46   46   47 1  
    47   46   49 1  
    48   47   48 2  
    49   47   56 am 
    50   49   50 1  
    51   50   51 1  
    52   51   52 1  
    53   52   53 ar 
    54   53   54 ar 
    55   53   55 ar 
    56   56   57 1  
    57   57   58 1  
    58   57   60 1  
    59   58   59 2  
    60   58   64 am 
    61   60   61 1  
    62   61   62 1  
    63   62   63 1  
    64   64   65 1  
    65   65   66 1  
    66   65   68 1  
    67   66   67 2  
    68   66   72 am 
    69   68   69 1  
    70   69   70 1  
    71   69   71 1  
    72   72   73 1  
    73   73   74 1  
    74   73   76 1  
    75   74   75 2  
    76   74   77 am 
    77   77   78 1  
    78   78   79 1  
    79   78   81 1  
    80   79   80 2  
    81   79   82 am 
    82   82   83 1  
    83   83   84 1  
    84   83   86 1  
    85   84   85 2  
    86   84   87 am 
    87   87   88 1  
    88   88   89 1  
    89   88   91 1  
    90   89   90 2  
    91   89   92 am 
    92   92   93 1  
    93   93   94 1  
    94   93   96 1  
    95   94   95 2  
    96   94  101 am 
    97   96   97 1  
    98   97   98 1  
    99   98   99 ar 
   100   98  100 ar 
   101  101  102 1  
   102  102  103 1  
   103  102  105 1  
   104  103  104 2  
   105  103  112 am 
   106  105  106 1  
   107  106  107 1  
   108  107  108 1  
   109  108  109 ar 
   110  109  110 ar 
   111  109  111 ar 
   112  112  113 1  
   113  113  114 1  
   114  113  116 1  
   115  114  115 2  
   116  114  123 am 
   117  116  117 1  
   118  117  118 1  
   119  118  119 1  
   120  119  120 ar 
   121  120  121 ar 
   122  120  122 ar 
   123  123  124 1  
   124  124  125 1  
   125  124  127 1  
   126  125  126 2  
   127  125  131 am 
   128  127  128 1  
   129  128  129 1  
   130  128  130 1  
   131  131  132 1  
   132  132  133 1  
   133  132  135 1  
   134  133  134 2  
   135  133  140 am 
   136  135  136 1  
   137  136  137 1  
   138  137  138 2  
   139  137  139 am 
   140  140  141 1  
   141  141  142 1  
   142  141  144 1  
   143  142  143 ar 
   144  144  145 1  
   145  145  146 1  
   146  146  147 1  
   147  147  148 1  
   148    1  149 1  
   149    1  150 1  
   150    1  151 1  
   151    2  152 1  
   152    5  153 1  
   153    6  154 1  
   154    6  155 1  
   155    6  156 1  
   156    7  157 1  
   157    7  158 1  
   158    7  159 1  
   159    8  160 1  
   160    9  161 1  
   161   12  162 1  
   162   13  163 1  
   163   14  164 1  
   164   14  165 1  
   165   14  166 1  
   166   15  167 1  
   167   16  168 1  
   168   19  169 1  
   169   19  170 1  
   170   20  171 1  
   171   21  172 1  
   172   21  173 1  
   173   21  174 1  
   174   22  175 1  
   175   22  176 1  
   176   22  177 1  
   177   23  178 1  
   178   24  179 1  
   179   27  180 1  
   180   27  181 1  
   181   28  182 1  
   182   28  183 1  
   183   29  184 1  
   184   29  185 1  
   185   30  186 1  
   186   32  187 1  
   187   32  188 1  
   188   33  189 1  
   189   33  190 1  
   190   34  191 1  
   191   35  192 1  
   192   38  193 1  
   193   38  194 1  
   194   39  195 1  
   195   39  196 1  
   196   40  197 1  
   197   40  198 1  
   198   41  199 1  
   199   43  200 1  
   200   43  201 1  
   201   44  202 1  
   202   44  203 1  
   203   45  204 1  
   204   46  205 1  
   205   49  206 1  
   206   49  207 1  
   207   50  208 1  
   208   50  209 1  
   209   51  210 1  
   210   51  211 1  
   211   52  212 1  
   212   54  213 1  
   213   54  214 1  
   214   55  215 1  
   215   55  216 1  
   216   56  217 1  
   217   57  218 1  
   218   60  219 1  
   219   60  220 1  
   220   61  221 1  
   221   61  222 1  
   222   63  223 1  
   223   63  224 1  
   224   63  225 1  
   225   64  226 1  
   226   65  227 1  
   227   68  228 1  
   228   68  229 1  
   229   69  230 1  
   230   70  231 1  
   231   70  232 1  
   232   70  233 1  
   233   71  234 1  
   234   71  235 1  
   235   71  236 1  
   236   72  237 1  
   237   73  238 1  
   238   76  239 1  
   239   76  240 1  
   240   76  241 1  
   241   77  242 1  
   242   78  243 1  
   243   81  244 1  
   244   81  245 1  
   245   81  246 1  
   246   82  247 1  
   247   83  248 1  
   248   86  249 1  
   249   86  250 1  
   250   86  251 1  
   251   87  252 1  
   252   88  253 1  
   253   91  254 1  
   254   91  255 1  
   255   91  256 1  
   256   92  257 1  
   257   93  258 1  
   258   96  259 1  
   259   96  260 1  
   260   97  261 1  
   261   97  262 1  
   262  101  263 1  
   263  102  264 1  
   264  105  265 1  
   265  105  266 1  
   266  106  267 1  
   267  106  268 1  
   268  107  269 1  
   269  107  270 1  
   270  108  271 1  
   271  110  272 1  
   272  110  273 1  
   273  111  274 1  
   274  111  275 1  
   275  112  276 1  
   276  113  277 1  
   277  116  278 1  
   278  116  279 1  
   279  117  280 1  
   280  117  281 1  
   281  118  282 1  
   282  118  283 1  
   283  119  284 1  
   284  121  285 1  
   285  121  286 1  
   286  122  287 1  
   287  122  288 1  
   288  123  289 1  
   289  124  290 1  
   290  127  291 1  
   291  127  292 1  
   292  128  293 1  
   293  129  294 1  
   294  129  295 1  
   295  129  296 1  
   296  130  297 1  
   297  130  298 1  
   298  130  299 1  
   299  131  300 1  
   300  132  301 1  
   301  135  302 1  
   302  135  303 1  
   303  136  304 1  
   304  136  305 1  
   305  139  306 1  
   306  139  307 1  
   307  140  308 1  
   308  141  309 1  
   309  142  310 ar 
   310  144  311 1  
   311  144  312 1  
   312  145  313 1  
   313  145  314 1  
   314  146  315 1  
   315  146  316 1  
   316  147  317 1  
   317  147  318 1  
   318  148  319 1  
   319  148  320 1  
   320  148  321 1  
@<TRIPOS>SUBSTRUCTURE
     1 VAL         1

