3tiw_ligand
  -I-interpret- 

318317  0  0  0  0  0  0  0  0999 V2000
    0.4620   -9.6460  -26.7420 N   0  3  0  0  0
    0.9140   -9.5810  -25.3600 C   0  0  0  0  0
    2.3450  -10.0900  -25.2260 C   0  0  0  0  0
    2.8680  -10.7550  -26.1230 O   0  0  0  0  0
    0.0090  -10.4080  -24.4350 C   0  0  0  0  0
   -1.4290   -9.9770  -24.5940 C   0  0  0  0  0
    0.1570  -11.8900  -24.7360 C   0  0  0  0  0
    2.9800   -9.7720  -24.1030 N   0  0  0  0  0
    4.3410  -10.2150  -23.8700 C   0  0  0  0  0
    4.4560  -10.8280  -22.4900 C   0  0  0  0  0
    3.5960  -10.6250  -21.6400 O   0  0  0  0  0
    5.3800   -9.0730  -24.0520 C   0  0  0  0  0
    5.1140   -8.0170  -23.1280 O   0  0  0  0  0
    5.3410   -8.5180  -25.4690 C   0  0  0  0  0
    5.5230  -11.5920  -22.2940 N   0  0  0  0  0
    5.7690  -12.3170  -21.0570 C   0  0  0  0  0
    6.6980  -11.5050  -20.1700 C   0  0  0  0  0
    7.7170  -10.9990  -20.6330 O   0  0  0  0  0
    6.4080  -13.6650  -21.3810 C   0  0  0  0  0
    6.6740  -14.6360  -20.2300 C   0  0  0  0  0
    5.4030  -14.9420  -19.4560 C   0  0  0  0  0
    7.3000  -15.9090  -20.7620 C   0  0  0  0  0
    6.3550  -11.3830  -18.8940 N   0  0  0  0  0
    7.0890  -10.4840  -18.0140 C   0  0  0  0  0
    8.5830  -10.7990  -17.9000 C   0  0  0  0  0
    9.4110   -9.8920  -17.9200 O   0  0  0  0  0
    6.4630  -10.4260  -16.6170 C   0  0  0  0  0
    7.1320   -9.3990  -15.7330 C   0  0  0  0  0
    6.4050   -9.2320  -14.4290 C   0  0  0  0  0
    6.7520  -10.2730  -13.4750 N   0  0  0  0  0
    6.2960  -10.3150  -12.2260 C   0  0  0  0  0
    6.6610  -11.2950  -11.4170 N   0  0  0  0  0
    5.4710   -9.3760  -11.7880 N   0  0  0  0  0
    8.9340  -12.0750  -17.7760 N   0  0  0  0  0
   10.3260  -12.4120  -17.5130 C   0  0  0  0  0
   11.2110  -11.9670  -18.6710 C   0  0  0  0  0
   12.3630  -11.5760  -18.4740 O   0  0  0  0  0
   10.4990  -13.8970  -17.1990 C   0  0  0  0  0
   10.2270  -14.8490  -18.3380 C   0  0  0  0  0
   10.7310  -16.2580  -18.0060 C   0  0  0  0  0
   10.4920  -17.2000  -19.0960 N   0  0  0  0  0
   11.1670  -17.2090  -20.2440 C   0  0  0  0  0
   12.1380  -16.3300  -20.4620 N   0  0  0  0  0
   10.8750  -18.1010  -21.1800 N   0  0  0  0  0
   10.6560  -11.9880  -19.8750 N   0  0  0  0  0
   11.3950  -11.5300  -21.0400 C   0  0  0  0  0
   11.6920  -10.0380  -21.0010 C   0  0  0  0  0
   12.7390   -9.6040  -21.4570 O   0  0  0  0  0
   10.6660  -11.9110  -22.3260 C   0  0  0  0  0
   10.5780  -13.4060  -22.5350 C   0  0  0  0  0
   10.4310  -13.7670  -23.9960 C   0  0  0  0  0
   10.4710  -15.2140  -24.1640 N   0  0  0  0  0
    9.4420  -15.9540  -24.5530 C   0  0  0  0  0
    8.2880  -15.3840  -24.8460 N   0  0  0  0  0
    9.5710  -17.2660  -24.6650 N   0  0  0  0  0
   10.7760   -9.2490  -20.4550 N   0  0  0  0  0
   11.0090   -7.8140  -20.3160 C   0  0  0  0  0
   12.1290   -7.5250  -19.3140 C   0  0  0  0  0
   13.0000   -6.6880  -19.5560 O   0  0  0  0  0
    9.7260   -7.1050  -19.8910 C   0  0  0  0  0
    9.8240   -5.5930  -19.9130 C   0  0  0  0  0
    8.2820   -4.8170  -19.4080 S   0  0  0  0  0
    8.1370   -5.4730  -17.7490 C   0  0  0  0  0
   12.0920   -8.2320  -18.1920 N   0  0  0  0  0
   13.1200   -8.1450  -17.1770 C   0  0  0  0  0
   14.4900   -8.5690  -17.7070 C   0  0  0  0  0
   15.4940   -7.9100  -17.4460 O   0  0  0  0  0
   12.7300   -9.0070  -15.9810 C   0  0  0  0  0
   11.8690   -8.3520  -14.9010 C   0  0  0  0  0
   10.7210   -7.5540  -15.4900 C   0  0  0  0  0
   11.3720   -9.4190  -13.9470 C   0  0  0  0  0
   14.5350   -9.6690  -18.4460 N   0  0  0  0  0
   15.7840  -10.1320  -19.0410 C   0  0  0  0  0
   16.3400   -9.1550  -20.0730 C   0  0  0  0  0
   17.5320   -8.8750  -20.0730 O   0  0  0  0  0
   15.6000  -11.5080  -19.6580 C   0  0  0  0  0
   15.4800   -8.6260  -20.9410 N   0  0  0  0  0
   15.9330   -7.7460  -22.0250 C   0  0  0  0  0
   16.5370   -6.4500  -21.5110 C   0  0  0  0  0
   17.4820   -5.9310  -22.0930 O   0  0  0  0  0
   14.8090   -7.4550  -22.9910 C   0  0  0  0  0
   15.9900   -5.9350  -20.4160 N   0  0  0  0  0
   16.4930   -4.7160  -19.8090 C   0  0  0  0  0
   17.8670   -4.9610  -19.2270 C   0  0  0  0  0
   18.7280   -4.0950  -19.2850 O   0  0  0  0  0
   15.5460   -4.2320  -18.7310 C   0  0  0  0  0
   18.0620   -6.1430  -18.6500 N   0  0  0  0  0
   19.3340   -6.4970  -18.0320 C   0  0  0  0  0
   20.3960   -6.7370  -19.0940 C   0  0  0  0  0
   21.5530   -6.3520  -18.9280 O   0  0  0  0  0
   19.1730   -7.7240  -17.1580 C   0  0  0  0  0
   19.9940   -7.3820  -20.1830 N   0  0  0  0  0
   20.9010   -7.6500  -21.2850 C   0  0  0  0  0
   21.3600   -6.3490  -21.9360 C   0  0  0  0  0
   22.5090   -6.2320  -22.3420 O   0  0  0  0  0
   20.2560   -8.6070  -22.2900 C   0  0  0  0  0
   20.1460  -10.0140  -21.7340 C   0  0  0  0  0
   19.0270  -10.8320  -22.3460 C   0  0  0  0  0
   18.2850  -10.3010  -23.1940 O   0  0  0  0  0
   18.8860  -12.0150  -21.9720 O   0  0  0  0  0
   20.4690   -5.3660  -22.0210 N   0  0  0  0  0
   20.8380   -4.0570  -22.5410 C   0  0  0  0  0
   21.8810   -3.4050  -21.6510 C   0  0  0  0  0
   22.8330   -2.8040  -22.1370 O   0  0  0  0  0
   19.6170   -3.1500  -22.6610 C   0  0  0  0  0
   18.6950   -3.5300  -23.7960 C   0  0  0  0  0
   17.6500   -2.4590  -24.0480 C   0  0  0  0  0
   16.2950   -2.9190  -23.7470 N   0  0  0  0  0
   15.6290   -2.6260  -22.6320 C   0  0  0  0  0
   16.1840   -1.8670  -21.6920 N   0  0  0  0  0
   14.4000   -3.0910  -22.4590 N   0  0  0  0  0
   21.6940   -3.5250  -20.3420 N   0  0  0  0  0
   22.6660   -2.9900  -19.4020 C   0  0  0  0  0
   24.0330   -3.6480  -19.5900 C   0  0  0  0  0
   25.0670   -2.9810  -19.5470 O   0  0  0  0  0
   22.1790   -3.1420  -17.9610 C   0  0  0  0  0
   20.9250   -2.3610  -17.6870 C   0  0  0  0  0
   20.7300   -2.1020  -16.2150 C   0  0  0  0  0
   20.4480   -3.3200  -15.4770 N   0  0  0  0  0
   19.2560   -3.8990  -15.4120 C   0  0  0  0  0
   19.0980   -5.0000  -14.7010 N   0  0  0  0  0
   18.2220   -3.3850  -16.0510 N   0  0  0  0  0
   24.0430   -4.9560  -19.8200 N   0  0  0  0  0
   25.3100   -5.6600  -19.9770 C   0  0  0  0  0
   25.9770   -5.4220  -21.3390 C   0  0  0  0  0
   27.1980   -5.4880  -21.4490 O   0  0  0  0  0
   25.1850   -7.1540  -19.6270 C   0  0  0  0  0
   24.2710   -8.1650  -20.3320 C   0  0  0  0  0
   24.7830   -8.5160  -21.7150 C   0  0  0  0  0
   24.1510   -9.4370  -19.4960 C   0  0  0  0  0
   25.1870   -5.1170  -22.3650 N   0  0  0  0  0
   25.7450   -4.7600  -23.6690 C   0  0  0  0  0
   26.0700   -3.2630  -23.7490 C   0  0  0  0  0
   25.8620   -2.6220  -24.7810 O   0  0  0  0  0
   24.7950   -5.1550  -24.7990 C   0  0  0  0  0
   23.5700   -4.2710  -24.9180 C   0  0  0  0  0
   23.1090   -4.1070  -26.3540 C   0  0  0  0  0
   22.9910   -5.0820  -27.0980 O   0  0  0  0  0
   22.8530   -2.8650  -26.7540 N   0  0  0  0  0
   26.5860   -2.7170  -22.6520 N   0  0  0  0  0
   26.8840   -1.2940  -22.5600 C   0  0  0  0  0
   27.7920   -1.0140  -21.3620 C   0  0  0  0  0
   28.9386   -0.5158  -21.5192 O   0  0  0  0  0
   25.5840   -0.4930  -22.4440 C   0  0  0  0  0
   25.6470    0.8940  -23.0580 C   0  0  0  0  0
   26.6390    1.7840  -22.3250 C   0  0  0  0  0
   27.3010    2.7740  -23.2740 C   0  0  0  0  0
   28.1210    2.0960  -24.3210 N   0  3  0  0  0
   27.3875   -1.2857  -20.2000 O   0  0  0  0  0
    1.0828   -9.0879  -27.3281 H   0  0  0  0  0
    0.4754  -10.6159  -27.0576 H   0  0  0  0  0
   -0.4878   -9.2797  -26.8054 H   0  0  0  0  0
    0.8698   -8.5330  -25.0636 H   0  0  0  0  0
    0.3122  -10.2355  -23.4023 H   0  0  0  0  0
   -1.7522  -10.1649  -25.6179 H   0  0  0  0  0
   -2.0550  -10.5432  -23.9043 H   0  0  0  0  0
   -1.5144   -8.9128  -24.3742 H   0  0  0  0  0
   -0.4632  -12.4631  -24.0469 H   0  0  0  0  0
   -0.1604  -12.0849  -25.7604 H   0  0  0  0  0
    1.2004  -12.1814  -24.6159 H   0  0  0  0  0
    2.5048   -9.2099  -23.3968 H   0  0  0  0  0
    4.5717  -10.9694  -24.6222 H   0  0  0  0  0
    6.3701   -9.4885  -23.8644 H   0  0  0  0  0
    5.7604   -7.3175  -23.2484 H   0  0  0  0  0
    5.5702   -9.3150  -26.1764 H   0  0  0  0  0
    4.3467   -8.1220  -25.6755 H   0  0  0  0  0
    6.0783   -7.7211  -25.5661 H   0  0  0  0  0
    6.2047  -11.6751  -23.0482 H   0  0  0  0  0
    4.8273  -12.4808  -20.5332 H   0  0  0  0  0
    7.3907  -13.4262  -21.7877 H   0  0  0  0  0
    5.6920  -14.1742  -22.0261 H   0  0  0  0  0
    7.3699  -14.1623  -19.5376 H   0  0  0  0  0
    4.9994  -14.0177  -19.0426 H   0  0  0  0  0
    4.6705  -15.3921  -20.1261 H   0  0  0  0  0
    5.6304  -15.6350  -18.6459 H   0  0  0  0  0
    6.6213  -16.3751  -21.4763 H   0  0  0  0  0
    8.2418  -15.6703  -21.2562 H   0  0  0  0  0
    7.4857  -16.5942  -19.9349 H   0  0  0  0  0
    5.5714  -11.9229  -18.5267 H   0  0  0  0  0
    7.0103   -9.5065  -18.4898 H   0  0  0  0  0
    6.5832  -11.4040  -16.1510 H   0  0  0  0  0
    5.4149  -10.1475  -16.7266 H   0  0  0  0  0
    7.1277   -8.4417  -16.2541 H   0  0  0  0  0
    8.1463   -9.7368  -15.5204 H   0  0  0  0  0
    5.3345   -9.2925  -14.6253 H   0  0  0  0  0
    6.6879   -8.2700  -14.0017 H   0  0  0  0  0
    7.3819  -11.0144  -13.7814 H   0  0  0  0  0
    7.2942  -12.0221  -11.7499 H   0  0  0  0  0
    5.1204   -9.4111  -10.8308 H   0  0  0  0  0
    5.1862   -8.6177  -12.4079 H   0  0  0  0  0
    8.2342  -12.8119  -17.8643 H   0  0  0  0  0
   10.6432  -11.8687  -16.6229 H   0  0  0  0  0
    9.7716  -14.1328  -16.4222 H   0  0  0  0  0
   11.5462  -14.0332  -16.9291 H   0  0  0  0  0
   10.7478  -14.4908  -19.2260 H   0  0  0  0  0
    9.1513  -14.8928  -18.5087 H   0  0  0  0  0
   10.1927  -16.6125  -17.1270 H   0  0  0  0  0
   11.8061  -16.2023  -17.8353 H   0  0  0  0  0
    9.7589  -17.8979  -18.9696 H   0  0  0  0  0
   12.6514  -16.3453  -21.3432 H   0  0  0  0  0
   12.3705  -15.6395  -19.7482 H   0  0  0  0  0
   10.1323  -18.7820  -21.0216 H   0  0  0  0  0
    9.7010  -12.3289  -19.9848 H   0  0  0  0  0
   12.3596  -12.0372  -21.0213 H   0  0  0  0  0
   11.2260  -11.4914  -23.1617 H   0  0  0  0  0
    9.6489  -11.5250  -22.2578 H   0  0  0  0  0
    9.6999  -13.7730  -22.0036 H   0  0  0  0  0
   11.4986  -13.8565  -22.1639 H   0  0  0  0  0
   11.2510  -13.3200  -24.5580 H   0  0  0  0  0
    9.4751  -13.3919  -24.3615 H   0  0  0  0  0
   11.3515  -15.6904  -23.9688 H   0  0  0  0  0
    8.1862  -14.3717  -24.7734 H   0  0  0  0  0
    8.7812  -17.8314  -24.9763 H   0  0  0  0  0
   10.4603  -17.7121  -24.4400 H   0  0  0  0  0
    9.8970   -9.6500  -20.1278 H   0  0  0  0  0
   11.3203   -7.4321  -21.2883 H   0  0  0  0  0
    9.5170   -7.4014  -18.8631 H   0  0  0  0  0
    8.9482   -7.3898  -20.5995 H   0  0  0  0  0
   10.0481   -5.2788  -20.9324 H   0  0  0  0  0
   10.6048   -5.2899  -19.2155 H   0  0  0  0  0
    8.0933   -6.5613  -17.7925 H   0  0  0  0  0
    9.0022   -5.1660  -17.1614 H   0  0  0  0  0
    7.2275   -5.0898  -17.2864 H   0  0  0  0  0
   11.3059   -8.8635  -18.0382 H   0  0  0  0  0
   13.2009   -7.1016  -16.8722 H   0  0  0  0  0
   13.6660   -9.2758  -15.4914 H   0  0  0  0  0
   12.1291   -9.8214  -16.3858 H   0  0  0  0  0
   12.4832   -7.6374  -14.3532 H   0  0  0  0  0
   11.1184   -6.7670  -16.1309 H   0  0  0  0  0
   10.0840   -8.2155  -16.0772 H   0  0  0  0  0
   10.1387   -7.1082  -14.6836 H   0  0  0  0  0
   10.7780  -10.1486  -14.4974 H   0  0  0  0  0
   12.2244   -9.9169  -13.4848 H   0  0  0  0  0
   10.7573   -8.9564  -13.1748 H   0  0  0  0  0
   13.6794  -10.2021  -18.6016 H   0  0  0  0  0
   16.5158  -10.1939  -18.2356 H   0  0  0  0  0
   15.2918  -12.2128  -18.8858 H   0  0  0  0  0
   14.8347  -11.4581  -20.4325 H   0  0  0  0  0
   16.5420  -11.8369  -20.0968 H   0  0  0  0  0
   14.4861   -8.8366  -20.8508 H   0  0  0  0  0
   16.7220   -8.2831  -22.5514 H   0  0  0  0  0
   14.4529   -8.3896  -23.4243 H   0  0  0  0  0
   13.9929   -6.9650  -22.4599 H   0  0  0  0  0
   15.1729   -6.8011  -23.7835 H   0  0  0  0  0
   15.1941   -6.4093  -19.9894 H   0  0  0  0  0
   16.5645   -3.9449  -20.5761 H   0  0  0  0  0
   14.5686   -4.0328  -19.1705 H   0  0  0  0  0
   15.4507   -4.9986  -17.9620 H   0  0  0  0  0
   15.9395   -3.3174  -18.2874 H   0  0  0  0  0
   17.3001   -6.8211  -18.6395 H   0  0  0  0  0
   19.6561   -5.6648  -17.4060 H   0  0  0  0  0
   18.4426   -7.5179  -16.3756 H   0  0  0  0  0
   18.8287   -8.5598  -17.7672 H   0  0  0  0  0
   20.1322   -7.9740  -16.7047 H   0  0  0  0  0
   19.0258   -7.6964  -20.2469 H   0  0  0  0  0
   21.7923   -8.1429  -20.8967 H   0  0  0  0  0
   20.8799   -8.6385  -23.1833 H   0  0  0  0  0
   19.2518   -8.2460  -22.5121 H   0  0  0  0  0
   19.9363   -9.9252  -20.6681 H   0  0  0  0  0
   21.0817  -10.5254  -21.9602 H   0  0  0  0  0
   19.5568  -12.2248  -21.3180 H   0  0  0  0  0
   19.5097   -5.5318  -21.7165 H   0  0  0  0  0
   21.2599   -4.2007  -23.5357 H   0  0  0  0  0
   19.9767   -2.1395  -22.8547 H   0  0  0  0  0
   19.0502   -3.2384  -21.7342 H   0  0  0  0  0
   18.1834   -4.4549  -23.5296 H   0  0  0  0  0
   19.2921   -3.6486  -24.7002 H   0  0  0  0  0
   17.6885   -2.1927  -25.1043 H   0  0  0  0  0
   17.8709   -1.6130  -23.3971 H   0  0  0  0  0
   15.8278   -3.5048  -24.4391 H   0  0  0  0  0
   15.6642   -1.6452  -20.8428 H   0  0  0  0  0
   17.1295   -1.5065  -21.8200 H   0  0  0  0  0
   13.9681   -3.6708  -23.1785 H   0  0  0  0  0
   20.8602   -3.9972  -19.9922 H   0  0  0  0  0
   22.7761   -1.9252  -19.6075 H   0  0  0  0  0
   22.9601   -2.7627  -17.3021 H   0  0  0  0  0
   21.9604   -4.1963  -17.7912 H   0  0  0  0  0
   20.0762   -2.9432  -18.0456 H   0  0  0  0  0
   21.0051   -1.3995  -18.1941 H   0  0  0  0  0
   19.8797   -1.4301  -16.0984 H   0  0  0  0  0
   21.6510   -1.6722  -15.8212 H   0  0  0  0  0
   21.2185   -3.7605  -14.9744 H   0  0  0  0  0
   18.1823   -5.4464  -14.6488 H   0  0  0  0  0
   19.8916   -5.4043  -14.2038 H   0  0  0  0  0
   18.3346   -2.5340  -16.6020 H   0  0  0  0  0
   23.1636   -5.4684  -19.8869 H   0  0  0  0  0
   25.9910   -5.2210  -19.2479 H   0  0  0  0  0
   24.7542   -7.1176  -18.6264 H   0  0  0  0  0
   26.1766   -7.5300  -19.8790 H   0  0  0  0  0
   23.2912   -7.6999  -20.4405 H   0  0  0  0  0
   24.8300   -7.6130  -22.3236 H   0  0  0  0  0
   25.7784   -8.9523  -21.6326 H   0  0  0  0  0
   24.1074   -9.2342  -22.1797 H   0  0  0  0  0
   25.1389   -9.8784  -19.3645 H   0  0  0  0  0
   23.7288   -9.1913  -18.5216 H   0  0  0  0  0
   23.4999  -10.1461  -20.0072 H   0  0  0  0  0
   24.1748   -5.1324  -22.2401 H   0  0  0  0  0
   26.6750   -5.3163  -23.7865 H   0  0  0  0  0
   24.4436   -6.1645  -24.5857 H   0  0  0  0  0
   25.3499   -5.0631  -25.7327 H   0  0  0  0  0
   23.8286   -3.2845  -24.5331 H   0  0  0  0  0
   22.7615   -4.7394  -24.3567 H   0  0  0  0  0
   22.5455   -2.6905  -27.7108 H   0  0  0  0  0
   22.9641   -2.0868  -26.1041 H   0  0  0  0  0
   26.7796   -3.3143  -21.8482 H   0  0  0  0  0
   27.4068   -0.9862  -23.4655 H   0  0  0  0  0
   25.3809   -0.3639  -21.3809 H   0  0  0  0  0
   24.8165   -1.0478  -22.9837 H   0  0  0  0  0
   24.6585    1.3479  -22.9875 H   0  0  0  0  0
   25.9698    0.7982  -24.0947 H   0  0  0  0  0
   27.4125    1.1535  -21.8866 H   0  0  0  0  0
   26.1025    2.3437  -21.5588 H   0  0  0  0  0
   27.9623    3.4125  -22.6883 H   0  0  0  0  0
   26.5148    3.3392  -23.7745 H   0  0  0  0  0
   28.5419    2.7984  -24.9292 H   0  0  0  0  0
   28.8556    1.5477  -23.8737 H   0  0  0  0  0
   27.5239    1.4803  -24.8730 H   0  0  0  0  0
   26.5029   -1.6553  -20.2486 H   0  0  0  0  0
  1  2  1  0  0  0
  2  3  1  0  0  0
  2  5  1  0  0  0
  3  4  2  0  0  0
  3  8  1  0  0  0
  5  6  1  0  0  0
  5  7  1  0  0  0
  8  9  1  0  0  0
  9 10  1  0  0  0
  9 12  1  0  0  0
 10 11  2  0  0  0
 10 15  1  0  0  0
 12 13  1  0  0  0
 12 14  1  0  0  0
 15 16  1  0  0  0
 16 17  1  0  0  0
 16 19  1  0  0  0
 17 18  2  0  0  0
 17 23  1  0  0  0
 19 20  1  0  0  0
 20 21  1  0  0  0
 20 22  1  0  0  0
 23 24  1  0  0  0
 24 25  1  0  0  0
 24 27  1  0  0  0
 25 26  2  0  0  0
 25 34  1  0  0  0
 27 28  1  0  0  0
 28 29  1  0  0  0
 29 30  1  0  0  0
 30 31  1  0  0  0
 31 32  2  0  0  0
 31 33  1  0  0  0
 34 35  1  0  0  0
 35 36  1  0  0  0
 35 38  1  0  0  0
 36 37  2  0  0  0
 36 45  1  0  0  0
 38 39  1  0  0  0
 39 40  1  0  0  0
 40 41  1  0  0  0
 41 42  1  0  0  0
 42 43  1  0  0  0
 42 44  2  0  0  0
 45 46  1  0  0  0
 46 47  1  0  0  0
 46 49  1  0  0  0
 47 48  2  0  0  0
 47 56  1  0  0  0
 49 50  1  0  0  0
 50 51  1  0  0  0
 51 52  1  0  0  0
 52 53  1  0  0  0
 53 54  2  0  0  0
 53 55  1  0  0  0
 56 57  1  0  0  0
 57 58  1  0  0  0
 57 60  1  0  0  0
 58 59  2  0  0  0
 58 64  1  0  0  0
 60 61  1  0  0  0
 61 62  1  0  0  0
 62 63  1  0  0  0
 64 65  1  0  0  0
 65 66  1  0  0  0
 65 68  1  0  0  0
 66 67  2  0  0  0
 66 72  1  0  0  0
 68 69  1  0  0  0
 69 70  1  0  0  0
 69 71  1  0  0  0
 72 73  1  0  0  0
 73 74  1  0  0  0
 73 76  1  0  0  0
 74 75  2  0  0  0
 74 77  1  0  0  0
 77 78  1  0  0  0
 78 79  1  0  0  0
 78 81  1  0  0  0
 79 80  2  0  0  0
 79 82  1  0  0  0
 82 83  1  0  0  0
 83 84  1  0  0  0
 83 86  1  0  0  0
 84 85  2  0  0  0
 84 87  1  0  0  0
 87 88  1  0  0  0
 88 89  1  0  0  0
 88 91  1  0  0  0
 89 90  2  0  0  0
 89 92  1  0  0  0
 92 93  1  0  0  0
 93 94  1  0  0  0
 93 96  1  0  0  0
 94 95  2  0  0  0
 94101  1  0  0  0
 96 97  1  0  0  0
 97 98  1  0  0  0
 98 99  2  0  0  0
 98100  1  0  0  0
101102  1  0  0  0
102103  1  0  0  0
102105  1  0  0  0
103104  2  0  0  0
103112  1  0  0  0
105106  1  0  0  0
106107  1  0  0  0
107108  1  0  0  0
108109  1  0  0  0
109110  1  0  0  0
109111  2  0  0  0
112113  1  0  0  0
113114  1  0  0  0
113116  1  0  0  0
114115  2  0  0  0
114123  1  0  0  0
116117  1  0  0  0
117118  1  0  0  0
118119  1  0  0  0
119120  1  0  0  0
120121  1  0  0  0
120122  2  0  0  0
123124  1  0  0  0
124125  1  0  0  0
124127  1  0  0  0
125126  2  0  0  0
125131  1  0  0  0
127128  1  0  0  0
128129  1  0  0  0
128130  1  0  0  0
131132  1  0  0  0
132133  1  0  0  0
132135  1  0  0  0
133134  2  0  0  0
133140  1  0  0  0
135136  1  0  0  0
136137  1  0  0  0
137138  2  0  0  0
137139  1  0  0  0
140141  1  0  0  0
141142  1  0  0  0
141144  1  0  0  0
142143  2  0  0  0
144145  1  0  0  0
145146  1  0  0  0
146147  1  0  0  0
147148  1  0  0  0
142149  1  0  0  0
  1150  1  0  0  0
  1151  1  0  0  0
  1152  1  0  0  0
  2153  1  0  0  0
  5154  1  0  0  0
  6155  1  0  0  0
  6156  1  0  0  0
  6157  1  0  0  0
  7158  1  0  0  0
  7159  1  0  0  0
  7160  1  0  0  0
  8161  1  0  0  0
  9162  1  0  0  0
 12163  1  0  0  0
 13164  1  0  0  0
 14165  1  0  0  0
 14166  1  0  0  0
 14167  1  0  0  0
 15168  1  0  0  0
 16169  1  0  0  0
 19170  1  0  0  0
 19171  1  0  0  0
 20172  1  0  0  0
 21173  1  0  0  0
 21174  1  0  0  0
 21175  1  0  0  0
 22176  1  0  0  0
 22177  1  0  0  0
 22178  1  0  0  0
 23179  1  0  0  0
 24180  1  0  0  0
 27181  1  0  0  0
 27182  1  0  0  0
 28183  1  0  0  0
 28184  1  0  0  0
 29185  1  0  0  0
 29186  1  0  0  0
 30187  1  0  0  0
 32188  1  0  0  0
 33189  1  0  0  0
 33190  1  0  0  0
 34191  1  0  0  0
 35192  1  0  0  0
 38193  1  0  0  0
 38194  1  0  0  0
 39195  1  0  0  0
 39196  1  0  0  0
 40197  1  0  0  0
 40198  1  0  0  0
 41199  1  0  0  0
 43200  1  0  0  0
 43201  1  0  0  0
 44202  1  0  0  0
 45203  1  0  0  0
 46204  1  0  0  0
 49205  1  0  0  0
 49206  1  0  0  0
 50207  1  0  0  0
 50208  1  0  0  0
 51209  1  0  0  0
 51210  1  0  0  0
 52211  1  0  0  0
 54212  1  0  0  0
 55213  1  0  0  0
 55214  1  0  0  0
 56215  1  0  0  0
 57216  1  0  0  0
 60217  1  0  0  0
 60218  1  0  0  0
 61219  1  0  0  0
 61220  1  0  0  0
 63221  1  0  0  0
 63222  1  0  0  0
 63223  1  0  0  0
 64224  1  0  0  0
 65225  1  0  0  0
 68226  1  0  0  0
 68227  1  0  0  0
 69228  1  0  0  0
 70229  1  0  0  0
 70230  1  0  0  0
 70231  1  0  0  0
 71232  1  0  0  0
 71233  1  0  0  0
 71234  1  0  0  0
 72235  1  0  0  0
 73236  1  0  0  0
 76237  1  0  0  0
 76238  1  0  0  0
 76239  1  0  0  0
 77240  1  0  0  0
 78241  1  0  0  0
 81242  1  0  0  0
 81243  1  0  0  0
 81244  1  0  0  0
 82245  1  0  0  0
 83246  1  0  0  0
 86247  1  0  0  0
 86248  1  0  0  0
 86249  1  0  0  0
 87250  1  0  0  0
 88251  1  0  0  0
 91252  1  0  0  0
 91253  1  0  0  0
 91254  1  0  0  0
 92255  1  0  0  0
 93256  1  0  0  0
 96257  1  0  0  0
 96258  1  0  0  0
 97259  1  0  0  0
 97260  1  0  0  0
100261  1  0  0  0
101262  1  0  0  0
102263  1  0  0  0
105264  1  0  0  0
105265  1  0  0  0
106266  1  0  0  0
106267  1  0  0  0
107268  1  0  0  0
107269  1  0  0  0
108270  1  0  0  0
110271  1  0  0  0
110272  1  0  0  0
111273  1  0  0  0
112274  1  0  0  0
113275  1  0  0  0
116276  1  0  0  0
116277  1  0  0  0
117278  1  0  0  0
117279  1  0  0  0
118280  1  0  0  0
118281  1  0  0  0
119282  1  0  0  0
121283  1  0  0  0
121284  1  0  0  0
122285  1  0  0  0
123286  1  0  0  0
124287  1  0  0  0
127288  1  0  0  0
127289  1  0  0  0
128290  1  0  0  0
129291  1  0  0  0
129292  1  0  0  0
129293  1  0  0  0
130294  1  0  0  0
130295  1  0  0  0
130296  1  0  0  0
131297  1  0  0  0
132298  1  0  0  0
135299  1  0  0  0
135300  1  0  0  0
136301  1  0  0  0
136302  1  0  0  0
139303  1  0  0  0
139304  1  0  0  0
140305  1  0  0  0
141306  1  0  0  0
144307  1  0  0  0
144308  1  0  0  0
145309  1  0  0  0
145310  1  0  0  0
146311  1  0  0  0
146312  1  0  0  0
147313  1  0  0  0
147314  1  0  0  0
148315  1  0  0  0
148316  1  0  0  0
148317  1  0  0  0
149318  1  0  0  0
M  END
$$$$
