2p09_ligand
  -I-interpret- 

 47 49  0  0  0  0  0  0  0  0999 V2000
   -3.2400   26.0270   20.6140 P   0  0  0  0  0
   -3.5630   25.4860   22.0040 O   0  0  0  0  0
   -3.8050   25.1340   19.5150 O   0  0  0  0  0
   -3.5840   27.5050   20.4060 O   0  0  0  0  0
   -0.7210   25.7520   19.1450 P   0  0  0  0  0
   -1.6470   25.3820   17.9860 O   0  0  0  0  0
    0.4760   24.8390   19.5070 O   0  0  0  0  0
   -1.5900   25.9870   20.5070 O   0  0  0  0  0
   -0.2770   28.6810   19.1860 P   0  0  0  0  0
   -1.7430   29.0980   19.4140 O   0  0  0  0  0
    0.6920   28.9140   20.3340 O   0  0  0  0  0
   -0.0910   27.1800   18.6420 O   0  0  0  0  0
    1.5790   33.1250   16.7850 N   0  0  0  0  0
    0.6150   33.2490   17.7370 C   0  0  0  0  0
    0.7750   34.4250   18.4050 N   0  0  0  0  0
    1.8340   35.0600   17.8760 C   0  0  0  0  0
    2.5310   36.3250   18.1300 C   0  0  0  0  0
    2.1010   37.1530   19.1260 N   0  0  0  0  0
    3.6300   36.6300   17.3590 N   0  0  0  0  0
    4.0480   35.7750   16.3690 C   0  0  0  0  0
    3.4490   34.5930   16.0920 N   0  0  0  0  0
    2.3640   34.1890   16.7960 C   0  0  0  0  0
    0.2570   29.4780   17.9420 O   0  0  0  0  0
   -0.3620   29.3290   16.6370 C   0  0  0  0  0
    0.5290   29.9810   15.5690 C   0  0  0  0  0
    0.4590   31.4100   15.6640 O   0  0  0  0  0
    2.0060   29.6410   15.6620 C   0  0  0  0  0
    2.5910   29.7290   14.3410 O   0  0  0  0  0
    2.5420   30.8290   16.4810 C   0  0  0  0  0
    3.9230   31.0820   16.3450 O   0  0  0  0  0
    1.7420   31.9900   15.8340 C   0  0  0  0  0
   -3.1928   26.0720   22.6682 H   0  0  0  0  0
   -3.2076   28.0237   21.1208 H   0  0  0  0  0
    0.9498   25.2150   20.2525 H   0  0  0  0  0
   -2.2559   28.9041   18.6260 H   0  0  0  0  0
   -0.1679   32.5170   17.9353 H   0  0  0  0  0
    1.2948   36.8920   19.6937 H   0  0  0  0  0
    2.5858   38.0329   19.3027 H   0  0  0  0  0
    4.9123   36.0649   15.7715 H   0  0  0  0  0
   -1.3381   29.8140   16.6408 H   0  0  0  0  0
   -0.4828   28.2695   16.4114 H   0  0  0  0  0
    0.1375   29.5845   14.6322 H   0  0  0  0  0
    2.2119   28.6535   16.0750 H   0  0  0  0  0
    3.5256   29.5153   14.3912 H   0  0  0  0  0
    2.4240   30.6691   17.5527 H   0  0  0  0  0
    4.1642   31.8355   16.8887 H   0  0  0  0  0
    2.2221   32.3710   14.9327 H   0  0  0  0  0
  1  2  1  0  0  0
  1  3  2  0  0  0
  1  4  1  0  0  0
  8  1  1  0  0  0
  5  6  2  0  0  0
  5  7  1  0  0  0
  5  8  1  0  0  0
 12  5  1  0  0  0
  9 10  1  0  0  0
  9 11  2  0  0  0
  9 12  1  0  0  0
 23  9  1  0  0  0
 13 14  4  0  0  0
 13 22  4  0  0  0
 31 13  1  0  0  0
 14 15  4  0  0  0
 16 15  4  0  0  0
 16 17  4  0  0  0
 22 16  4  0  0  0
 17 18  1  0  0  0
 17 19  4  0  0  0
 20 19  4  0  0  0
 21 20  4  0  0  0
 22 21  4  0  0  0
 24 23  1  0  0  0
 25 24  1  0  0  0
 26 25  1  0  0  0
 25 27  1  0  0  0
 26 31  1  0  0  0
 27 28  1  0  0  0
 27 29  1  0  0  0
 29 30  1  0  0  0
 29 31  1  0  0  0
  2 32  1  0  0  0
  4 33  1  0  0  0
  7 34  1  0  0  0
 10 35  1  0  0  0
 14 36  1  0  0  0
 18 37  1  0  0  0
 18 38  1  0  0  0
 20 39  1  0  0  0
 24 40  1  0  0  0
 24 41  1  0  0  0
 25 42  1  0  0  0
 27 43  1  0  0  0
 28 44  1  0  0  0
 29 45  1  0  0  0
 30 46  1  0  0  0
 31 47  1  0  0  0
M  END
$$$$
