1rww_ligand
  -I-interpret- 

 59 62  0  0  0  0  0  0  0  0999 V2000
   32.7740   61.5760    2.0540 O   0  0  0  0  0
   33.9600   61.3840    2.3970 C   0  0  0  0  0
   34.8810   62.1560    2.0490 O   0  0  0  0  0
   34.3050   60.1830    3.2540 C   0  0  0  0  0
   33.1080   59.7180    4.0860 C   0  0  0  0  0
   33.1900   58.2320    4.3470 C   0  0  0  0  0
   33.0140   57.4310    3.4430 O   0  0  0  0  0
   33.0030   60.4690    5.3280 N   0  0  0  0  0
   31.8130   60.8100    5.8320 C   0  0  0  0  0
   30.7920   60.2330    5.4880 O   0  0  0  0  0
   31.7030   61.9290    6.8350 C   0  0  0  0  0
   32.6670   62.9380    6.9110 C   0  0  0  0  0
   32.5570   63.9350    7.8080 N   0  0  0  0  0
   30.6170   61.9730    7.7040 C   0  0  0  0  0
   30.5290   63.0150    8.6220 C   0  0  0  0  0
   31.5170   63.9980    8.6600 C   0  0  0  0  0
   31.3840   65.1170    9.6750 C   0  0  0  0  0
   32.3750   66.1690    9.5010 N   0  0  0  0  0
   32.9000   66.8030   10.5530 C   0  0  0  0  0
   32.7330   66.3840   11.6880 O   0  0  0  0  0
   33.7220   68.0510   10.3720 C   0  0  0  0  0
   33.7760   68.9960   11.3970 C   0  0  0  0  0
   34.4310   68.2810    9.1960 C   0  0  0  0  0
   35.1910   69.4420    9.0420 C   0  0  0  0  0
   35.2510   70.3900   10.0680 C   0  0  0  0  0
   34.5400   70.1530   11.2470 C   0  0  0  0  0
   35.9740   71.5450    9.9820 N   0  0  0  0  0
   36.7340   71.9890    8.9400 C   0  0  0  0  0
   37.3870   73.2160    9.0840 C   0  0  0  0  0
   38.1420   73.6990    8.0840 N   0  0  0  0  0
   36.8670   71.3040    7.7910 N   0  0  0  0  0
   37.5890   71.8040    6.7740 C   0  0  0  0  0
   38.2500   73.0220    6.9270 C   0  0  0  0  0
   37.6860   71.1040    5.5700 C   0  0  0  0  0
   38.4370   71.6290    4.5180 C   0  0  0  0  0
   39.0930   72.8530    4.6690 C   0  0  0  0  0
   38.9960   73.5530    5.8710 C   0  0  0  0  0
   35.7136   61.8420    2.4093 H   0  0  0  0  0
   35.1071   60.4666    3.9354 H   0  0  0  0  0
   34.6038   59.3666    2.5964 H   0  0  0  0  0
   32.2010   59.9120    3.5135 H   0  0  0  0  0
   33.4084   57.8718    5.3523 H   0  0  0  0  0
   33.8528   60.7400    5.8228 H   0  0  0  0  0
   33.5207   62.9170    6.2336 H   0  0  0  0  0
   29.8467   61.2027    7.6661 H   0  0  0  0  0
   29.6867   63.0628    9.3122 H   0  0  0  0  0
   31.5311   64.6847   10.6647 H   0  0  0  0  0
   30.3992   65.5658    9.5450 H   0  0  0  0  0
   32.6734   66.4263    8.5602 H   0  0  0  0  0
   33.2187   68.8293   12.3188 H   0  0  0  0  0
   34.3924   67.5490    8.3893 H   0  0  0  0  0
   35.7410   69.6104    8.1161 H   0  0  0  0  0
   34.5829   70.8799   12.0581 H   0  0  0  0  0
   35.9417   72.1527   10.8005 H   0  0  0  0  0
   37.2833   73.7821   10.0097 H   0  0  0  0  0
   37.1755   70.1482    5.4520 H   0  0  0  0  0
   38.5120   71.0835    3.5773 H   0  0  0  0  0
   39.6809   73.2610    3.8469 H   0  0  0  0  0
   39.5008   74.5121    5.9869 H   0  0  0  0  0
  1  2  2  0  0  0
  2  3  1  0  0  0
  2  4  1  0  0  0
  4  5  1  0  0  0
  5  6  1  0  0  0
  5  8  1  0  0  0
  6  7  2  0  0  0
  8  9  1  0  0  0
  9 10  2  0  0  0
  9 11  1  0  0  0
 11 12  4  0  0  0
 11 14  4  0  0  0
 12 13  4  0  0  0
 13 16  4  0  0  0
 14 15  4  0  0  0
 15 16  4  0  0  0
 16 17  1  0  0  0
 17 18  1  0  0  0
 18 19  1  0  0  0
 19 20  2  0  0  0
 19 21  1  0  0  0
 21 22  4  0  0  0
 21 23  4  0  0  0
 22 26  4  0  0  0
 23 24  4  0  0  0
 24 25  4  0  0  0
 25 26  4  0  0  0
 25 27  1  0  0  0
 27 28  1  0  0  0
 28 29  4  0  0  0
 28 31  4  0  0  0
 29 30  4  0  0  0
 30 33  4  0  0  0
 31 32  4  0  0  0
 32 33  4  0  0  0
 32 34  4  0  0  0
 33 37  4  0  0  0
 34 35  4  0  0  0
 35 36  4  0  0  0
 36 37  4  0  0  0
  3 38  1  0  0  0
  4 39  1  0  0  0
  4 40  1  0  0  0
  5 41  1  0  0  0
  6 42  1  0  0  0
  8 43  1  0  0  0
 12 44  1  0  0  0
 14 45  1  0  0  0
 15 46  1  0  0  0
 17 47  1  0  0  0
 17 48  1  0  0  0
 18 49  1  0  0  0
 22 50  1  0  0  0
 23 51  1  0  0  0
 24 52  1  0  0  0
 26 53  1  0  0  0
 27 54  1  0  0  0
 29 55  1  0  0  0
 34 56  1  0  0  0
 35 57  1  0  0  0
 36 58  1  0  0  0
 37 59  1  0  0  0
M  END
$$$$
