4xkb_ligand
  -I-interpret- 

 66 70  0  0  0  0  0  0  0  0999 V2000
   -8.1560  -22.2200  -20.1330 C   0  0  0  0  0
   -3.9020  -21.1220  -17.5950 C   0  0  0  0  0
   -2.4320  -25.9260  -18.0420 C   0  0  0  0  0
   -6.7640  -27.0740  -20.3590 C   0  0  0  0  0
   -5.9590  -22.0680  -18.8200 N   0  0  0  0  0
   -7.0170  -21.5340  -19.4620 C   0  0  0  0  0
   -6.9190  -20.1470  -19.4010 C   0  0  0  0  0
   -5.7430  -19.8640  -18.7070 C   0  0  0  0  0
   -5.1730  -21.0740  -18.3620 C   0  0  0  0  0
   -5.1850  -18.5150  -18.3810 C   0  0  0  0  0
   -7.8470  -19.1160  -19.9550 C   0  0  0  0  0
   -7.5260  -18.5710  -21.2990 C   0  0  0  0  0
   -7.7100  -19.5490  -22.4040 C   0  0  0  0  0
   -6.7460  -19.8440  -23.1550 O   0  0  0  0  0
   -8.8420  -20.0780  -22.5680 O   0  0  0  0  0
   -3.5260  -23.6080  -17.9950 N   0  0  0  0  0
   -3.1500  -22.4010  -17.5470 C   0  0  0  0  0
   -1.8820  -22.4820  -16.9890 C   0  0  0  0  0
   -1.4900  -23.8080  -17.1150 C   0  0  0  0  0
   -2.5330  -24.4770  -17.7430 C   0  0  0  0  0
   -1.0860  -21.3740  -16.3780 C   0  0  0  0  0
   -4.7490  -26.1570  -19.0680 N   0  0  0  0  0
   -3.4970  -26.5680  -18.8480 C   0  0  0  0  0
   -3.2930  -27.7640  -19.5060 C   0  0  0  0  0
   -4.4820  -28.0730  -20.1500 C   0  0  0  0  0
   -5.3720  -27.0560  -19.8530 C   0  0  0  0  0
   -2.0370  -28.5630  -19.5360 C   0  0  0  0  0
   -7.1120  -24.5740  -20.0490 N   0  0  0  0  0
   -7.4810  -25.7880  -20.4870 C   0  0  0  0  0
   -8.7300  -25.7000  -21.1070 C   0  0  0  0  0
   -9.0930  -24.3710  -21.0270 C   0  0  0  0  0
   -8.0750  -23.6910  -20.3760 C   0  0  0  0  0
   -9.5340  -26.7870  -21.7460 C   0  0  0  0  0
  -10.3330  -23.7680  -21.5900 C   0  0  0  0  0
  -10.0560  -23.1160  -22.9050 C   0  0  0  0  0
  -11.1780  -22.8500  -23.8400 C   0  0  0  0  0
  -12.3230  -23.2610  -23.5540 O   0  0  0  0  0
  -10.9720  -22.2190  -24.9180 O   0  0  0  0  0
   -9.0361  -21.6563  -20.4423 H   0  0  0  0  0
   -3.5295  -20.2373  -17.0786 H   0  0  0  0  0
   -1.5878  -26.5096  -17.6747 H   0  0  0  0  0
   -7.2476  -28.0125  -20.6302 H   0  0  0  0  0
   -4.9959  -17.9685  -19.3049 H   0  0  0  0  0
   -5.9017  -17.9643  -17.7718 H   0  0  0  0  0
   -4.2522  -18.6327  -17.8296 H   0  0  0  0  0
   -7.7936  -18.2695  -19.2704 H   0  0  0  0  0
   -8.8131  -19.6101  -20.0576 H   0  0  0  0  0
   -6.4743  -18.2848  -21.2906 H   0  0  0  0  0
   -8.2073  -17.7404  -21.4837 H   0  0  0  0  0
   -9.4516  -19.7375  -21.9092 H   0  0  0  0  0
   -0.5457  -24.2407  -16.7847 H   0  0  0  0  0
   -0.8680  -21.6158  -15.3377 H   0  0  0  0  0
   -0.1525  -21.2531  -16.9276 H   0  0  0  0  0
   -1.6591  -20.4480  -16.4248 H   0  0  0  0  0
   -4.6775  -28.9478  -20.7701 H   0  0  0  0  0
   -2.2299  -29.5562  -19.1304 H   0  0  0  0  0
   -1.6882  -28.6508  -20.5650 H   0  0  0  0  0
   -1.2766  -28.0649  -18.9345 H   0  0  0  0  0
  -10.4986  -26.8664  -21.2446 H   0  0  0  0  0
   -9.6887  -26.5516  -22.7990 H   0  0  0  0  0
   -8.9987  -27.7325  -21.6586 H   0  0  0  0  0
  -10.7041  -23.0145  -20.8953 H   0  0  0  0  0
  -11.0716  -24.5560  -21.7371 H   0  0  0  0  0
   -9.4162  -23.8220  -23.4345 H   0  0  0  0  0
   -9.6698  -22.1295  -22.6487 H   0  0  0  0  0
  -10.0439  -21.9805  -24.9755 H   0  0  0  0  0
  6  1  1  0  0  0
  1 32  2  0  0  0
  2  9  2  0  0  0
 17  2  1  0  0  0
  3 20  2  0  0  0
 23  3  1  0  0  0
 26  4  2  0  0  0
  4 29  1  0  0  0
  5  6  2  0  0  0
  9  5  1  0  0  0
  7  6  1  0  0  0
  8  7  2  0  0  0
  7 11  1  0  0  0
  9  8  1  0  0  0
  8 10  1  0  0  0
 11 12  1  0  0  0
 12 13  1  0  0  0
 13 14  2  0  0  0
 13 15  1  0  0  0
 16 17  2  0  0  0
 20 16  1  0  0  0
 18 17  1  0  0  0
 19 18  2  0  0  0
 18 21  1  0  0  0
 20 19  1  0  0  0
 22 23  2  0  0  0
 22 26  1  0  0  0
 23 24  1  0  0  0
 24 25  2  0  0  0
 24 27  1  0  0  0
 25 26  1  0  0  0
 29 28  2  0  0  0
 28 32  1  0  0  0
 29 30  1  0  0  0
 30 31  2  0  0  0
 30 33  1  0  0  0
 31 32  1  0  0  0
 31 34  1  0  0  0
 34 35  1  0  0  0
 35 36  1  0  0  0
 36 37  2  0  0  0
 36 38  1  0  0  0
  1 39  1  0  0  0
  2 40  1  0  0  0
  3 41  1  0  0  0
  4 42  1  0  0  0
 10 43  1  0  0  0
 10 44  1  0  0  0
 10 45  1  0  0  0
 11 46  1  0  0  0
 11 47  1  0  0  0
 12 48  1  0  0  0
 12 49  1  0  0  0
 15 50  1  0  0  0
 19 51  1  0  0  0
 21 52  1  0  0  0
 21 53  1  0  0  0
 21 54  1  0  0  0
 25 55  1  0  0  0
 27 56  1  0  0  0
 27 57  1  0  0  0
 27 58  1  0  0  0
 33 59  1  0  0  0
 33 60  1  0  0  0
 33 61  1  0  0  0
 34 62  1  0  0  0
 34 63  1  0  0  0
 35 64  1  0  0  0
 35 65  1  0  0  0
 38 66  1  0  0  0
M  END
$$$$
