5nvv_ligand
  -I-interpret- 

 66 68  0  0  0  0  0  0  0  0999 V2000
   12.4800   50.0040   81.1180 C   0  0  0  0  0
   13.8710   50.5930   81.4010 C   0  0  0  0  0
   14.8160   50.5150   80.4410 N   0  0  0  0  0
   15.9980   51.0420   80.7600 C   0  0  0  0  0
   15.8910   51.6460   82.2890 S   0  0  0  0  0
   14.2580   51.1810   82.5460 C   0  0  0  0  0
   13.5140   51.4040   83.6510 C   0  0  0  0  0
   12.6360   50.4400   84.1710 C   0  0  0  0  0
   11.8660   50.7020   85.3050 C   0  0  0  0  0
   13.5850   52.6230   84.3180 C   0  0  0  0  0
   12.8080   52.8880   85.4630 C   0  0  0  0  0
   11.9300   51.9240   85.9730 C   0  0  0  0  0
   11.1120   52.1000   87.0990 C   0  0  0  0  0
   11.5940   53.2420   87.9130 N   0  0  0  0  0
   12.4080   53.1130   88.9720 C   0  0  0  0  0
   12.8360   52.0240   89.3400 O   0  0  0  0  0
   12.8290   54.3210   89.5750 C   0  0  0  0  0
   14.1620   54.7480   88.9150 C   0  0  0  0  0
   14.9970   55.3770   90.0150 C   0  0  0  0  0
   14.6820   56.7690   90.1190 O   0  0  0  0  0
   14.5780   54.5990   91.2710 C   0  0  0  0  0
   13.1430   54.2080   91.0430 N   0  0  0  0  0
   12.1790   53.8410   91.9180 C   0  0  0  0  0
   11.0270   53.6010   91.5680 O   0  0  0  0  0
   12.5450   53.7690   93.4230 C   0  0  0  0  0
   12.7090   52.3170   93.9400 C   0  0  0  0  0
   11.3850   51.4920   93.8960 C   0  0  0  0  0
   13.1960   52.3880   95.4100 C   0  0  0  0  0
   13.7700   51.5520   93.1110 C   0  0  0  0  0
   11.4160   54.4080   94.0950 N   0  0  0  0  0
   11.4220   55.5970   94.6920 C   0  0  0  0  0
   12.4140   56.3060   94.8690 O   0  0  0  0  0
   10.0500   55.9470   95.2650 C   0  0  0  0  0
   10.2460   57.1850   95.9420 O   0  0  0  0  0
   12.0417   50.5082   80.2567 H   0  0  0  0  0
   12.5739   48.9385   80.9080 H   0  0  0  0  0
   11.8413   50.1490   81.9893 H   0  0  0  0  0
   16.8808   51.0687   80.1212 H   0  0  0  0  0
   12.5543   49.4700   83.6805 H   0  0  0  0  0
   11.1951   49.9288   85.6793 H   0  0  0  0  0
   14.2597   53.3934   83.9448 H   0  0  0  0  0
   12.8914   53.8556   85.9580 H   0  0  0  0  0
   11.1412   51.1943   87.7047 H   0  0  0  0  0
   10.0929   52.3031   86.7699 H   0  0  0  0  0
   11.2891   54.1800   87.6528 H   0  0  0  0  0
   12.0028   55.0199   89.4442 H   0  0  0  0  0
   13.9895   55.4523   88.1012 H   0  0  0  0  0
   14.6736   53.8926   88.4738 H   0  0  0  0  0
   16.0722   55.3238   89.8442 H   0  0  0  0  0
   15.2114   57.1646   90.8153 H   0  0  0  0  0
   14.6885   55.2044   92.1707 H   0  0  0  0  0
   15.2097   53.7247   91.4280 H   0  0  0  0  0
   13.5046   54.2504   93.6112 H   0  0  0  0  0
   10.6339   51.9793   94.5177 H   0  0  0  0  0
   11.0271   51.4363   92.8679 H   0  0  0  0  0
   11.5725   50.4861   94.2718 H   0  0  0  0  0
   14.1499   52.9139   95.4504 H   0  0  0  0  0
   12.4594   52.9223   96.0100 H   0  0  0  0  0
   13.3200   51.3776   95.7995 H   0  0  0  0  0
   13.4593   51.5199   92.0667 H   0  0  0  0  0
   14.7293   52.0634   93.1905 H   0  0  0  0  0
   13.8656   50.5361   93.4944 H   0  0  0  0  0
   10.5364   53.8917   94.1077 H   0  0  0  0  0
    9.6792   55.1713   95.9350 H   0  0  0  0  0
    9.2918   56.0252   94.4858 H   0  0  0  0  0
    9.4163   57.4701   96.3318 H   0  0  0  0  0
  1  2  1  0  0  0
  2  3  4  0  0  0
  2  6  4  0  0  0
  3  4  4  0  0  0
  4  5  4  0  0  0
  5  6  4  0  0  0
  6  7  1  0  0  0
  7  8  4  0  0  0
  7 10  4  0  0  0
  8  9  4  0  0  0
  9 12  4  0  0  0
 10 11  4  0  0  0
 11 12  4  0  0  0
 12 13  1  0  0  0
 13 14  1  0  0  0
 14 15  1  0  0  0
 15 16  2  0  0  0
 15 17  1  0  0  0
 17 18  1  0  0  0
 17 22  1  0  0  0
 18 19  1  0  0  0
 19 20  1  0  0  0
 19 21  1  0  0  0
 21 22  1  0  0  0
 22 23  1  0  0  0
 23 24  2  0  0  0
 23 25  1  0  0  0
 25 26  1  0  0  0
 25 30  1  0  0  0
 26 27  1  0  0  0
 26 28  1  0  0  0
 26 29  1  0  0  0
 30 31  1  0  0  0
 31 32  2  0  0  0
 31 33  1  0  0  0
 33 34  1  0  0  0
  1 35  1  0  0  0
  1 36  1  0  0  0
  1 37  1  0  0  0
  4 38  1  0  0  0
  8 39  1  0  0  0
  9 40  1  0  0  0
 10 41  1  0  0  0
 11 42  1  0  0  0
 13 43  1  0  0  0
 13 44  1  0  0  0
 14 45  1  0  0  0
 17 46  1  0  0  0
 18 47  1  0  0  0
 18 48  1  0  0  0
 19 49  1  0  0  0
 20 50  1  0  0  0
 21 51  1  0  0  0
 21 52  1  0  0  0
 25 53  1  0  0  0
 27 54  1  0  0  0
 27 55  1  0  0  0
 27 56  1  0  0  0
 28 57  1  0  0  0
 28 58  1  0  0  0
 28 59  1  0  0  0
 29 60  1  0  0  0
 29 61  1  0  0  0
 29 62  1  0  0  0
 30 63  1  0  0  0
 33 64  1  0  0  0
 33 65  1  0  0  0
 34 66  1  0  0  0
M  END
$$$$
