3nnw_ligand
  -I-interpret- 

 54 56  0  0  0  0  0  0  0  0999 V2000
   15.1840   17.2740   26.2830 C   0  0  0  0  0
   15.8840   17.4720   27.4650 C   0  0  0  0  0
   15.6390   18.5200   28.3480 C   0  0  0  0  0
   14.6670   19.4500   28.0490 C   0  0  0  0  0
   13.9510   19.3070   26.8740 C   0  0  0  0  0
   14.2190   18.2510   26.0160 C   0  0  0  0  0
   12.9050   20.3290   26.5260 C   0  0  0  0  0
   13.5330   21.6070   25.9780 C   0  0  0  0  0
   14.4480   21.4820   25.0170 N   0  0  0  0  0
   13.1700   22.6880   26.3990 O   0  0  0  0  0
   15.4070   16.2570   25.4140 N   0  0  0  0  0
   15.4240   16.5250   24.0330 N   0  0  0  0  0
   15.6800   15.3330   23.4980 C   0  0  0  0  0
   15.8200   14.3360   24.4360 C   0  0  0  0  0
   15.6600   14.9550   25.6590 C   0  0  0  0  0
   15.7620   15.1040   21.9950 C   0  0  0  0  0
   15.8070   16.4900   21.3210 C   0  0  0  0  0
   14.5240   14.3360   21.5320 C   0  0  0  0  0
   16.9720   14.2380   21.6450 C   0  0  0  0  0
   15.6730   14.4550   26.9340 N   0  0  0  0  0
   16.4850   13.4900   27.3720 C   0  0  0  0  0
   16.3100   13.1580   28.6880 N   0  0  0  0  0
   17.0730   12.2890   29.4200 C   0  0  0  0  0
   17.2960   12.9290   26.6230 O   0  0  0  0  0
   18.4630   12.1430   29.2640 C   0  0  0  0  0
   19.1920   11.2480   30.0630 C   0  0  0  0  0
   18.5560   10.4590   31.0160 C   0  0  0  0  0
   17.1910   10.5950   31.1790 C   0  0  0  0  0
   16.4680   11.4980   30.4030 C   0  0  0  0  0
   14.6980   11.5900   30.6560 Cl  0  0  0  0  0
   16.2740    9.6390   32.4030 Cl  0  0  0  0  0
   16.6734   16.7640   27.7172 H   0  0  0  0  0
   16.2129   18.6045   29.2708 H   0  0  0  0  0
   14.4664   20.2815   28.7247 H   0  0  0  0  0
   13.6504   18.1787   25.0889 H   0  0  0  0  0
   12.3501   20.5772   27.4308 H   0  0  0  0  0
   12.2528   19.9088   25.7604 H   0  0  0  0  0
   14.8723   22.3133   24.6056 H   0  0  0  0  0
   14.7239   20.5550   24.6930 H   0  0  0  0  0
   16.0160   13.2797   24.2518 H   0  0  0  0  0
   14.9043   17.0456   21.5749 H   0  0  0  0  0
   16.6822   17.0357   21.6734 H   0  0  0  0  0
   15.8662   16.3651   20.2398 H   0  0  0  0  0
   14.4804   13.3758   22.0460 H   0  0  0  0  0
   13.6305   14.9152   21.7650 H   0  0  0  0  0
   14.5815   14.1714   20.4560 H   0  0  0  0  0
   17.8826   14.7375   21.9758 H   0  0  0  0  0
   16.8833   13.2732   22.1444 H   0  0  0  0  0
   17.0099   14.0879   20.5660 H   0  0  0  0  0
   15.0106   14.8508   27.6010 H   0  0  0  0  0
   15.5312   13.6038   29.1730 H   0  0  0  0  0
   18.9829   12.7345   28.5103 H   0  0  0  0  0
   20.2716   11.1702   29.9348 H   0  0  0  0  0
   19.1217    9.7498   31.6202 H   0  0  0  0  0
  1  2  4  0  0  0
  1  6  4  0  0  0
  1 11  1  0  0  0
  2  3  4  0  0  0
  3  4  4  0  0  0
  4  5  4  0  0  0
  5  6  4  0  0  0
  5  7  1  0  0  0
  7  8  1  0  0  0
  8  9  1  0  0  0
  8 10  2  0  0  0
 11 12  4  0  0  0
 11 15  4  0  0  0
 12 13  4  0  0  0
 13 14  4  0  0  0
 13 16  1  0  0  0
 14 15  4  0  0  0
 15 20  1  0  0  0
 16 17  1  0  0  0
 16 18  1  0  0  0
 16 19  1  0  0  0
 20 21  1  0  0  0
 21 22  1  0  0  0
 21 24  2  0  0  0
 22 23  1  0  0  0
 23 25  4  0  0  0
 23 29  4  0  0  0
 25 26  4  0  0  0
 26 27  4  0  0  0
 27 28  4  0  0  0
 28 29  4  0  0  0
 28 31  1  0  0  0
 29 30  1  0  0  0
  2 32  1  0  0  0
  3 33  1  0  0  0
  4 34  1  0  0  0
  6 35  1  0  0  0
  7 36  1  0  0  0
  7 37  1  0  0  0
  9 38  1  0  0  0
  9 39  1  0  0  0
 14 40  1  0  0  0
 17 41  1  0  0  0
 17 42  1  0  0  0
 17 43  1  0  0  0
 18 44  1  0  0  0
 18 45  1  0  0  0
 18 46  1  0  0  0
 19 47  1  0  0  0
 19 48  1  0  0  0
 19 49  1  0  0  0
 20 50  1  0  0  0
 22 51  1  0  0  0
 25 52  1  0  0  0
 26 53  1  0  0  0
 27 54  1  0  0  0
M  END
$$$$
