2qtu_ligand
  -I-interpret- 

 46 49  0  0  0  0  0  0  0  0999 V2000
   80.6000   42.5230   68.0700 C   0  0  0  0  0
   80.6450   42.5640   69.4510 C   0  0  0  0  0
   79.7810   41.7960   70.1760 C   0  0  0  0  0
   78.8430   40.9790   69.5460 C   0  0  0  0  0
   78.0110   40.2480   70.3720 O   0  0  0  0  0
   77.5250   39.0520   69.7450 C   0  0  0  0  0
   76.6120   38.2680   70.7200 C   0  0  0  0  0
   76.6030   38.5840   72.0860 C   0  0  0  0  0
   75.7930   37.8710   72.9670 C   0  0  0  0  0
   74.9850   36.8410   72.5040 C   0  0  0  0  0
   74.2130   36.1510   73.3720 O   0  0  0  0  0
   74.9820   36.5220   71.1520 C   0  0  0  0  0
   75.7910   37.2320   70.2650 C   0  0  0  0  0
   76.8140   39.3880   68.4170 C   0  0  0  0  0
   77.8040   40.0810   67.4280 C   0  0  0  0  0
   78.7970   40.9380   68.1610 C   0  0  0  0  0
   79.6760   41.7130   67.4260 C   0  0  0  0  0
   76.9030   40.9690   66.5510 C   0  0  0  0  0
   75.5620   41.1300   67.3020 C   0  0  0  0  0
   75.3010   42.4760   67.4700 F   0  0  0  0  0
   74.5270   40.5530   66.5830 F   0  0  0  0  0
   75.6920   40.4070   68.6630 C   0  0  0  0  0
   79.8260   41.8320   71.6730 C   0  0  0  0  0
   80.6290   40.7550   72.1170 O   0  0  0  0  0
   80.6160   40.8770   73.5180 C   0  0  0  0  0
   81.4450   43.2770   67.3500 O   0  0  0  0  0
   81.3660   43.2057   69.9575 H   0  0  0  0  0
   78.3684   38.4061   69.5009 H   0  0  0  0  0
   77.2326   39.3912   72.4603 H   0  0  0  0  0
   75.7935   38.1234   74.0274 H   0  0  0  0  0
   73.7200   35.4790   72.8956 H   0  0  0  0  0
   74.3469   35.7162   70.7840 H   0  0  0  0  0
   75.7830   36.9763   69.2054 H   0  0  0  0  0
   76.4312   38.4522   68.0096 H   0  0  0  0  0
   78.3816   39.3535   66.8577 H   0  0  0  0  0
   79.6425   41.6872   66.3368 H   0  0  0  0  0
   76.7459   40.5136   65.5732 H   0  0  0  0  0
   77.3679   41.9396   66.3781 H   0  0  0  0  0
   75.9186   41.0908   69.4811 H   0  0  0  0  0
   74.7606   39.9370   68.9788 H   0  0  0  0  0
   78.8191   41.7416   72.0805 H   0  0  0  0  0
   80.2470   42.7783   72.0126 H   0  0  0  0  0
   81.0315   41.8441   73.8011 H   0  0  0  0  0
   79.5901   40.8013   73.8785 H   0  0  0  0  0
   81.2163   40.0798   73.9564 H   0  0  0  0  0
   81.2836   43.1324   66.4148 H   0  0  0  0  0
  1  2  4  0  0  0
  1 17  4  0  0  0
  1 26  1  0  0  0
  2  3  4  0  0  0
  3  4  4  0  0  0
  3 23  1  0  0  0
  4  5  1  0  0  0
  4 16  4  0  0  0
  5  6  1  0  0  0
  6  7  1  0  0  0
  6 14  1  0  0  0
  7  8  4  0  0  0
  7 13  4  0  0  0
  8  9  4  0  0  0
  9 10  4  0  0  0
 10 11  1  0  0  0
 10 12  4  0  0  0
 12 13  4  0  0  0
 14 15  1  0  0  0
 14 22  1  0  0  0
 15 16  1  0  0  0
 15 18  1  0  0  0
 16 17  4  0  0  0
 18 19  1  0  0  0
 19 20  1  0  0  0
 19 21  1  0  0  0
 19 22  1  0  0  0
 23 24  1  0  0  0
 24 25  1  0  0  0
  2 27  1  0  0  0
  6 28  1  0  0  0
  8 29  1  0  0  0
  9 30  1  0  0  0
 11 31  1  0  0  0
 12 32  1  0  0  0
 13 33  1  0  0  0
 14 34  1  0  0  0
 15 35  1  0  0  0
 17 36  1  0  0  0
 18 37  1  0  0  0
 18 38  1  0  0  0
 22 39  1  0  0  0
 22 40  1  0  0  0
 23 41  1  0  0  0
 23 42  1  0  0  0
 25 43  1  0  0  0
 25 44  1  0  0  0
 25 45  1  0  0  0
 26 46  1  0  0  0
M  END
$$$$
