2or4_ligand
  -I-interpret- 

 21 21  0  0  0  0  0  0  0  0999 V2000
   16.9240   44.6790   40.8720 C   0  0  0  0  0
   15.9250   44.8060   41.9340 C   0  0  0  0  0
   14.4980   44.9880   41.5020 C   0  0  0  0  0
   13.6090   46.7560   39.9830 C   0  0  0  0  0
   14.1960   48.4700   41.1510 C   0  0  0  0  0
   16.3300   45.2530   43.2150 N   0  3  0  0  0
   14.6580   46.2750   40.7880 N   0  0  0  0  0
   13.4370   48.0850   40.1350 N   0  0  0  0  0
   17.7780   45.5660   40.9910 O   0  0  0  0  0
   16.8880   43.8860   39.8720 O   0  0  0  0  0
   13.0320   45.9570   39.2750 O   0  0  0  0  0
   14.3230   49.5500   41.6820 O   0  0  0  0  0
   15.0390   47.3800   41.6260 O   0  0  0  0  0
   15.8698   43.7662   42.2563 H   0  0  0  0  0
   13.7620   44.9872   42.3060 H   0  0  0  0  0
   14.0807   44.1733   40.9102 H   0  0  0  0  0
   17.3217   45.0535   43.3456 H   0  0  0  0  0
   16.1715   46.2579   43.2889 H   0  0  0  0  0
   15.7875   44.7685   43.9301 H   0  0  0  0  0
   12.8335   48.6839   39.5715 H   0  0  0  0  0
   16.1526   43.2774   39.9740 H   0  0  0  0  0
  1  2  1  0  0  0
  1  9  2  0  0  0
  1 10  1  0  0  0
  2  3  1  0  0  0
  2  6  1  0  0  0
  3  7  1  0  0  0
  7  4  1  0  0  0
  4  8  1  0  0  0
  4 11  2  0  0  0
  8  5  1  0  0  0
  5 12  2  0  0  0
  5 13  1  0  0  0
  7 13  1  0  0  0
  2 14  1  0  0  0
  3 15  1  0  0  0
  3 16  1  0  0  0
  6 17  1  0  0  0
  6 18  1  0  0  0
  6 19  1  0  0  0
  8 20  1  0  0  0
 10 21  1  0  0  0
M  END
$$$$
