5dxh_ligand
  -I-interpret- 

 48 52  0  0  0  0  0  0  0  0999 V2000
   -0.9830    0.3700    1.0860 C   0  0  0  0  0
    1.4540    0.4860    0.9700 C   0  0  0  0  0
    1.3810    1.8250    0.4760 C   0  0  0  0  0
   -3.9460    0.9970    0.1140 O   0  0  0  0  0
   -2.2000    2.4360    0.4410 N   0  0  0  0  0
   -1.0380    1.6970    0.6590 C   0  0  0  0  0
   -3.8270    4.5620   -0.1680 C   0  0  0  0  0
   -4.3390    3.1700   -0.1090 O   0  0  0  0  0
   -3.5000    2.1260    0.1460 C   0  0  0  0  0
    0.2680   -0.2290    1.2440 C   0  0  0  0  0
    2.5050    2.5610    0.2440 O   0  0  0  0  0
    3.5760    2.0860   -0.5640 C   0  0  0  0  0
    4.5950    1.4600    0.3530 C   0  0  0  0  0
    4.0770    0.1170    0.8190 C   0  0  0  0  0
    2.7530   -0.2250    1.1210 C   0  0  0  0  0
    2.7100   -1.8620    1.6150 S   0  0  0  0  0
    4.4390   -2.0710    1.4730 C   0  0  0  0  0
    4.9660   -0.9070    1.0320 C   0  0  0  0  0
    5.1860   -3.2910    1.8350 C   0  0  0  0  0
    6.4990   -3.4580    1.7360 N   0  0  0  0  0
    6.8100   -4.6380    2.1560 N   0  0  0  0  0
    5.7410   -5.2800    2.5400 C   0  0  0  0  0
    4.6700   -4.4480    2.3820 N   0  0  0  0  0
    3.3390   -4.7390    2.7250 C   0  0  0  0  0
    2.4880   -5.3560    1.8170 C   0  0  0  0  0
    1.1730   -5.6410    2.1770 C   0  0  0  0  0
    0.6890   -5.3080    3.4360 C   0  0  0  0  0
    1.5240   -4.6870    4.3530 C   0  0  0  0  0
    2.8400   -4.4160    3.9930 C   0  0  0  0  0
    3.8560   -3.6400    5.1500 Cl  0  0  0  0  0
    0.1290    2.4050    0.3680 C   0  0  0  0  0
   -1.8970   -0.1870    1.2918 H   0  0  0  0  0
   -2.0453    3.4411    0.5196 H   0  0  0  0  0
   -3.3779    4.8235    0.7901 H   0  0  0  0  0
   -3.0771    4.6389   -0.9553 H   0  0  0  0  0
   -4.6514    5.2422   -0.3820 H   0  0  0  0  0
    0.3299   -1.2629    1.5836 H   0  0  0  0  0
    4.0225    2.9071   -1.1249 H   0  0  0  0  0
    3.2127    1.3539   -1.2852 H   0  0  0  0  0
    4.7635    2.1081    1.2130 H   0  0  0  0  0
    5.5367    1.3267   -0.1795 H   0  0  0  0  0
    6.0351   -0.7883    0.8557 H   0  0  0  0  0
    5.7086   -6.3011    2.9201 H   0  0  0  0  0
    2.8494   -5.6172    0.8224 H   0  0  0  0  0
    0.5143   -6.1322    1.4608 H   0  0  0  0  0
   -0.3435   -5.5340    3.7022 H   0  0  0  0  0
    1.1542   -4.4152    5.3417 H   0  0  0  0  0
    0.0523    3.4437    0.0467 H   0  0  0  0  0
  6  1  4  0  0  0
  1 10  4  0  0  0
  3  2  4  0  0  0
 10  2  4  0  0  0
  2 15  1  0  0  0
  3 11  1  0  0  0
 31  3  4  0  0  0
  9  4  2  0  0  0
  5  6  1  0  0  0
  9  5  1  0  0  0
  6 31  4  0  0  0
  8  7  1  0  0  0
  8  9  1  0  0  0
 11 12  1  0  0  0
 12 13  1  0  0  0
 13 14  1  0  0  0
 14 15  4  0  0  0
 14 18  4  0  0  0
 15 16  4  0  0  0
 16 17  4  0  0  0
 17 18  4  0  0  0
 17 19  1  0  0  0
 19 20  4  0  0  0
 19 23  4  0  0  0
 20 21  4  0  0  0
 21 22  4  0  0  0
 22 23  4  0  0  0
 23 24  1  0  0  0
 24 25  4  0  0  0
 24 29  4  0  0  0
 25 26  4  0  0  0
 26 27  4  0  0  0
 27 28  4  0  0  0
 28 29  4  0  0  0
 29 30  1  0  0  0
  1 32  1  0  0  0
  5 33  1  0  0  0
  7 34  1  0  0  0
  7 35  1  0  0  0
  7 36  1  0  0  0
 10 37  1  0  0  0
 12 38  1  0  0  0
 12 39  1  0  0  0
 13 40  1  0  0  0
 13 41  1  0  0  0
 18 42  1  0  0  0
 22 43  1  0  0  0
 25 44  1  0  0  0
 26 45  1  0  0  0
 27 46  1  0  0  0
 28 47  1  0  0  0
 31 48  1  0  0  0
M  END
$$$$
