1c5q_ligand
  -I-interpret- 

 20 21  0  0  0  0  0  0  0  0999 V2000
   44.1310   -3.9270   25.1420 C   0  0  0  0  0
   43.9570   -3.2790   26.4120 C   0  0  0  0  0
   43.8910   -5.2050   24.9160 N   0  0  0  0  0
   44.5590   -3.1560   24.1610 N   0  0  0  0  0
   44.1630   -1.5820   26.6040 S   0  0  0  0  0
   43.7610   -1.8940   28.2420 C   0  0  0  0  0
   43.5070   -3.2050   28.5550 C   0  0  0  0  0
   43.6000   -4.1210   27.4660 C   0  0  0  0  0
   43.6750   -0.9380   29.2610 C   0  0  0  0  0
   43.3450   -1.3510   30.5550 C   0  0  0  0  0
   43.0830   -2.7060   30.8330 C   0  0  0  0  0
   43.1690   -3.6950   29.8180 C   0  0  0  0  0
   42.8350   -5.6220   30.4050 I   0  0  0  0  0
   44.0365   -5.5943   23.9845 H   0  0  0  0  0
   43.5600   -5.8034   25.6728 H   0  0  0  0  0
   44.7435   -2.1676   24.3325 H   0  0  0  0  0
   43.4351   -5.1984   27.4588 H   0  0  0  0  0
   43.8629    0.1144   29.0482 H   0  0  0  0  0
   43.2899   -0.6157   31.3578 H   0  0  0  0  0
   42.8091   -3.0012   31.8459 H   0  0  0  0  0
  1  4  2  0  0  0
  1  3  1  0  0  0
  1  2  1  0  0  0
  2  8  4  0  0  0
  2  5  4  0  0  0
  5  6  4  0  0  0
  6  9  4  0  0  0
  6  7  4  0  0  0
  7 12  4  0  0  0
  7  8  4  0  0  0
 12 11  4  0  0  0
 11 10  4  0  0  0
 10  9  4  0  0  0
 12 13  1  0  0  0
  3 14  1  0  0  0
  3 15  1  0  0  0
  4 16  1  0  0  0
  8 17  1  0  0  0
  9 18  1  0  0  0
 10 19  1  0  0  0
 11 20  1  0  0  0
M  END
$$$$
