5ar5_ligand
  -I-interpret- 

 55 58  0  0  0  0  0  0  0  0999 V2000
  -73.4100   19.5310   -6.1820 C   0  0  0  0  0
  -72.6800   19.3180   -7.3840 O   0  0  0  0  0
  -72.0090   20.5260   -7.7270 C   0  0  0  0  0
  -71.3340   20.3400   -9.0710 C   0  0  0  0  0
  -69.9490   19.9570   -8.9200 N   0  0  0  0  0
  -68.9560   20.7460   -9.3490 C   0  0  0  0  0
  -69.1170   21.6810  -10.1200 O   0  0  0  0  0
  -67.5950   20.4030   -8.8040 C   0  0  0  0  0
  -66.7570   21.4180   -8.3880 C   0  0  0  0  0
  -65.5070   21.1220   -7.8890 C   0  0  0  0  0
  -65.1200   19.8020   -7.8170 C   0  0  0  0  0
  -63.9710   19.1980   -7.3770 N   0  0  0  0  0
  -62.8370   19.9190   -6.8390 C   0  0  0  0  0
  -62.8540   19.9140   -5.3260 C   0  0  0  0  0
  -61.7120   20.5810   -4.8000 O   0  0  0  0  0
  -60.6660   19.6320   -4.5870 C   0  0  0  0  0
  -64.1800   17.8410   -7.5540 C   0  0  0  0  0
  -65.3590   17.5630   -8.0630 N   0  0  0  0  0
  -65.9580   18.7810   -8.2300 C   0  0  0  0  0
  -67.2090   19.0830   -8.7330 C   0  0  0  0  0
  -63.2190   16.7950   -7.2590 C   0  0  0  0  0
  -62.9470   15.6360   -7.9440 C   0  0  0  0  0
  -61.9680   14.9400   -7.2800 N   0  0  0  0  0
  -61.6550   15.6660   -6.2240 C   0  0  0  0  0
  -62.3940   16.8150   -6.1710 N   0  0  0  0  0
  -60.6670   15.2620   -5.2010 C   0  0  0  0  0
  -59.8490   14.1730   -5.4280 C   0  0  0  0  0
  -58.9560   13.7620   -4.4640 C   0  0  0  0  0
  -58.8800   14.4360   -3.2610 C   0  0  0  0  0
  -57.7580   13.8900   -2.0500 Cl  0  0  0  0  0
  -59.6870   15.5310   -3.0270 C   0  0  0  0  0
  -60.5810   15.9390   -3.9960 C   0  0  0  0  0
  -72.7215   19.8132   -5.3855 H   0  0  0  0  0
  -74.1362   20.3291   -6.3360 H   0  0  0  0  0
  -73.9297   18.6133   -5.9066 H   0  0  0  0  0
  -71.2643   20.7650   -6.9678 H   0  0  0  0  0
  -72.7255   21.3455   -7.7821 H   0  0  0  0  0
  -71.3735   21.2861   -9.6109 H   0  0  0  0  0
  -71.8538   19.5491   -9.6117 H   0  0  0  0  0
  -69.7229   19.0664   -8.4771 H   0  0  0  0  0
  -67.0846   22.4555   -8.4543 H   0  0  0  0  0
  -64.8381   21.9164   -7.5580 H   0  0  0  0  0
  -62.8854   20.9517   -7.1843 H   0  0  0  0  0
  -61.9224   19.4328   -7.1785 H   0  0  0  0  0
  -62.8451   18.8804   -4.9799 H   0  0  0  0  0
  -63.7497   20.4332   -4.9850 H   0  0  0  0  0
  -61.0035   18.8737   -3.8805 H   0  0  0  0  0
  -60.4081   19.1587   -5.5344 H   0  0  0  0  0
  -59.7909   20.1420   -4.1841 H   0  0  0  0  0
  -67.8784   18.2905   -9.0676 H   0  0  0  0  0
  -63.4314   15.3194   -8.8677 H   0  0  0  0  0
  -59.9105   13.6363   -6.3747 H   0  0  0  0  0
  -58.3091   12.9047   -4.6503 H   0  0  0  0  0
  -59.6186   16.0704   -2.0823 H   0  0  0  0  0
  -61.2237   16.7999   -3.8116 H   0  0  0  0  0
  1  2  1  0  0  0
  2  3  1  0  0  0
  3  4  1  0  0  0
  4  5  1  0  0  0
  5  6  1  0  0  0
  6  7  2  0  0  0
  6  8  1  0  0  0
  8  9  4  0  0  0
  8 20  4  0  0  0
  9 10  4  0  0  0
 10 11  4  0  0  0
 11 12  4  0  0  0
 11 19  4  0  0  0
 12 13  1  0  0  0
 12 17  4  0  0  0
 13 14  1  0  0  0
 14 15  1  0  0  0
 15 16  1  0  0  0
 17 18  4  0  0  0
 17 21  1  0  0  0
 18 19  4  0  0  0
 19 20  4  0  0  0
 21 22  4  0  0  0
 21 25  4  0  0  0
 22 23  4  0  0  0
 23 24  4  0  0  0
 24 25  4  0  0  0
 24 26  1  0  0  0
 26 27  4  0  0  0
 26 32  4  0  0  0
 27 28  4  0  0  0
 28 29  4  0  0  0
 29 30  1  0  0  0
 29 31  4  0  0  0
 31 32  4  0  0  0
  1 33  1  0  0  0
  1 34  1  0  0  0
  1 35  1  0  0  0
  3 36  1  0  0  0
  3 37  1  0  0  0
  4 38  1  0  0  0
  4 39  1  0  0  0
  5 40  1  0  0  0
  9 41  1  0  0  0
 10 42  1  0  0  0
 13 43  1  0  0  0
 13 44  1  0  0  0
 14 45  1  0  0  0
 14 46  1  0  0  0
 16 47  1  0  0  0
 16 48  1  0  0  0
 16 49  1  0  0  0
 20 50  1  0  0  0
 22 51  1  0  0  0
 27 52  1  0  0  0
 28 53  1  0  0  0
 31 54  1  0  0  0
 32 55  1  0  0  0
M  END
$$$$
