5z1s_ligand
  -I-interpret- 

 47 49  0  0  0  0  0  0  0  0999 V2000
   13.8960   10.2380    4.4900 C   0  0  0  0  0
   12.7690   10.2810    3.6210 O   0  0  0  0  0
   12.6540    9.2210    2.6910 C   0  0  0  0  0
   13.6890    8.2800    2.4470 C   0  0  0  0  0
   13.4100    7.2960    1.4900 C   0  0  0  0  0
   14.3940    6.3150    1.1560 N   0  0  0  0  0
   14.2300    5.6320   -0.0330 C   0  0  0  0  0
   15.0700    4.7850   -0.2860 O   0  0  0  0  0
   13.0580    5.8720   -0.8360 C   0  0  0  0  0
   13.3450    6.9770   -1.8000 C   0  0  0  0  0
   12.6180    4.6140   -1.5570 C   0  0  0  0  0
   11.9440    6.2690   -0.0310 O   0  0  0  0  0
   12.2080    7.3050    0.8520 C   0  0  0  0  0
   11.2430    8.2210    1.0720 C   0  0  0  0  0
   11.4570    9.2310    2.0020 C   0  0  0  0  0
   10.6030   10.2370    2.3090 N   0  0  0  0  0
    9.0390    9.8690    2.8130 S   0  0  0  0  0
    8.4060    8.9220    1.8950 O   0  0  0  0  0
    8.3200   11.1380    3.0470 O   0  0  0  0  0
    9.3100    9.0210    4.3100 C   0  0  0  0  0
    8.9830    7.6580    4.3930 C   0  0  0  0  0
    9.1230    7.0010    5.5470 C   0  0  0  0  0
    8.6480    5.1950    5.6870 Br  0  0  0  0  0
    9.6630    7.6180    6.6850 C   0  0  0  0  0
   10.0330    8.9520    6.6450 C   0  0  0  0  0
    9.8890    9.6360    5.4330 C   0  0  0  0  0
   10.1430   10.9430    5.2240 O   0  0  0  0  0
   10.6640   11.6810    6.3730 C   0  0  0  0  0
   13.8632    9.3224    5.0805 H   0  0  0  0  0
   14.8108   10.2573    3.8977 H   0  0  0  0  0
   13.8738   11.1015    5.1548 H   0  0  0  0  0
   14.6430    8.3209    2.9727 H   0  0  0  0  0
   15.1856    6.1268    1.7711 H   0  0  0  0  0
   12.4689    7.1485   -2.4254 H   0  0  0  0  0
   13.5826    7.8864   -1.2480 H   0  0  0  0  0
   14.1921    6.6993   -2.4273 H   0  0  0  0  0
   12.3648    3.8470   -0.8251 H   0  0  0  0  0
   11.7446    4.8350   -2.1706 H   0  0  0  0  0
   13.4292    4.2582   -2.1922 H   0  0  0  0  0
   10.3020    8.1695    0.5243 H   0  0  0  0  0
   10.9047   11.2086    2.2355 H   0  0  0  0  0
    8.6133    7.1340    3.5116 H   0  0  0  0  0
    9.7918    7.0458    7.6037 H   0  0  0  0  0
   10.4242    9.4534    7.5302 H   0  0  0  0  0
    9.9427   11.6367    7.1890 H   0  0  0  0  0
   11.6052   11.2344    6.6936 H   0  0  0  0  0
   10.8312   12.7203    6.0902 H   0  0  0  0  0
  1  2  1  0  0  0
  2  3  1  0  0  0
  3  4  4  0  0  0
  3 15  4  0  0  0
  4  5  4  0  0  0
  5  6  1  0  0  0
  5 13  4  0  0  0
  6  7  1  0  0  0
  7  8  2  0  0  0
  7  9  1  0  0  0
  9 10  1  0  0  0
  9 11  1  0  0  0
  9 12  1  0  0  0
 12 13  1  0  0  0
 13 14  4  0  0  0
 14 15  4  0  0  0
 15 16  1  0  0  0
 16 17  1  0  0  0
 17 18  2  0  0  0
 17 19  2  0  0  0
 17 20  1  0  0  0
 20 21  4  0  0  0
 20 26  4  0  0  0
 21 22  4  0  0  0
 22 23  1  0  0  0
 22 24  4  0  0  0
 24 25  4  0  0  0
 25 26  4  0  0  0
 26 27  1  0  0  0
 27 28  1  0  0  0
  1 29  1  0  0  0
  1 30  1  0  0  0
  1 31  1  0  0  0
  4 32  1  0  0  0
  6 33  1  0  0  0
 10 34  1  0  0  0
 10 35  1  0  0  0
 10 36  1  0  0  0
 11 37  1  0  0  0
 11 38  1  0  0  0
 11 39  1  0  0  0
 14 40  1  0  0  0
 16 41  1  0  0  0
 21 42  1  0  0  0
 24 43  1  0  0  0
 25 44  1  0  0  0
 28 45  1  0  0  0
 28 46  1  0  0  0
 28 47  1  0  0  0
M  END
$$$$
