1s63_ligand
  -I-interpret- 

 50 53  0  0  0  0  0  0  0  0999 V2000
   18.5610  135.2050   -0.0600 N   0  3  0  0  0
   17.2650  135.6440    0.4650 C   0  0  0  0  0
   19.7520  135.2070    0.7900 C   0  0  0  0  0
   18.9500  135.8920   -1.2990 C   0  0  0  0  0
   16.3280  135.0430   -0.5960 C   0  0  0  0  0
   19.5950  134.1260    1.8570 C   0  0  0  0  0
   17.8720  135.6640   -2.4020 C   0  0  0  0  0
   16.5930  135.2440   -2.0230 N   0  0  0  0  0
   20.1020  132.8670    1.7040 N   0  0  0  0  0
   18.9610  134.2450    3.0400 C   0  0  0  0  0
   18.1540  135.8470   -3.5710 O   0  0  0  0  0
   15.5650  135.0040   -2.9070 C   0  0  0  0  0
   20.8650  132.3200    0.5570 C   0  0  0  0  0
   19.8100  132.1530    2.7740 C   0  0  0  0  0
   19.0960  132.9550    3.6550 N   0  0  0  0  0
   15.0300  133.7270   -2.8320 C   0  0  0  0  0
   15.0300  135.9470   -3.8520 C   0  0  0  0  0
   20.0510  132.2060   -0.7400 C   0  0  0  0  0
   13.9770  133.3250   -3.6540 C   0  0  0  0  0
   13.9670  135.5450   -4.6930 C   0  0  0  0  0
   20.6160  132.5930   -1.9770 C   0  0  0  0  0
   18.7370  131.7180   -0.7350 C   0  0  0  0  0
   13.4400  134.2320   -4.5910 C   0  0  0  0  0
   13.3840  131.7160   -3.4630 Cl  0  0  0  0  0
   19.8810  132.4840   -3.1800 C   0  0  0  0  0
   18.0080  131.6100   -1.9240 C   0  0  0  0  0
   18.5870  131.9950   -3.1560 C   0  0  0  0  0
   17.8950  131.8790   -4.2840 C   0  0  0  0  0
   17.2860  131.7730   -5.2800 N   0  0  0  0  0
   18.3126  134.2233   -0.1824 H   0  0  0  0  0
   17.1717  136.7230    0.5882 H   0  0  0  0  0
   17.0586  135.3175    1.4843 H   0  0  0  0  0
   19.8660  136.1815    1.2647 H   0  0  0  0  0
   20.6373  135.0056    0.1868 H   0  0  0  0  0
   19.9037  135.4927   -1.6441 H   0  0  0  0  0
   19.0386  136.9604   -1.1020 H   0  0  0  0  0
   15.3751  135.5445   -0.4271 H   0  0  0  0  0
   16.4196  133.9660   -0.4554 H   0  0  0  0  0
   18.4577  135.1249    3.4407 H   0  0  0  0  0
   21.1797  131.3127    0.8299 H   0  0  0  0  0
   21.6892  133.0059    0.3613 H   0  0  0  0  0
   20.0827  131.1106    2.9388 H   0  0  0  0  0
   15.4425  133.0195   -2.1127 H   0  0  0  0  0
   15.4376  136.9557   -3.9188 H   0  0  0  0  0
   13.5525  136.2438   -5.4196 H   0  0  0  0  0
   21.6341  132.9814   -2.0037 H   0  0  0  0  0
   18.2775  131.4189    0.2071 H   0  0  0  0  0
   12.6187  133.9236   -5.2378 H   0  0  0  0  0
   20.3333  132.7848   -4.1250 H   0  0  0  0  0
   16.9878  131.2269   -1.9011 H   0  0  0  0  0
  1  2  1  0  0  0
  1  3  1  0  0  0
  1  4  1  0  0  0
  2  5  1  0  0  0
  3  6  1  0  0  0
  4  7  1  0  0  0
  5  8  1  0  0  0
  6  9  4  0  0  0
  6 10  4  0  0  0
  7  8  1  0  0  0
  7 11  2  0  0  0
  8 12  1  0  0  0
  9 13  1  0  0  0
  9 14  4  0  0  0
 10 15  4  0  0  0
 12 16  4  0  0  0
 12 17  4  0  0  0
 13 18  1  0  0  0
 14 15  4  0  0  0
 16 19  4  0  0  0
 17 20  4  0  0  0
 18 21  4  0  0  0
 18 22  4  0  0  0
 19 23  4  0  0  0
 19 24  1  0  0  0
 20 23  4  0  0  0
 21 25  4  0  0  0
 22 26  4  0  0  0
 25 27  4  0  0  0
 26 27  4  0  0  0
 27 28  1  0  0  0
 28 29  3  0  0  0
  1 30  1  0  0  0
  2 31  1  0  0  0
  2 32  1  0  0  0
  3 33  1  0  0  0
  3 34  1  0  0  0
  4 35  1  0  0  0
  4 36  1  0  0  0
  5 37  1  0  0  0
  5 38  1  0  0  0
 10 39  1  0  0  0
 13 40  1  0  0  0
 13 41  1  0  0  0
 14 42  1  0  0  0
 16 43  1  0  0  0
 17 44  1  0  0  0
 20 45  1  0  0  0
 21 46  1  0  0  0
 22 47  1  0  0  0
 23 48  1  0  0  0
 25 49  1  0  0  0
 26 50  1  0  0  0
M  END
$$$$
