6ugn_ligand
  -I-interpret- 

 25 26  0  0  0  0  0  0  0  0999 V2000
   15.3260    6.6580   15.9900 C   0  0  0  0  0
   18.6920    3.9120   13.6020 C   0  0  0  0  0
   15.8480    5.2710   15.6480 C   0  0  0  0  0
   16.9460    5.2340   14.8220 C   0  0  0  0  0
   17.4970    4.0220   14.5470 C   0  0  0  0  0
   16.8820    2.8810   15.0710 C   0  0  0  0  0
   15.8020    2.8550   15.9200 C   0  0  0  0  0
   15.2470    4.1170   16.1870 C   0  0  0  0  0
   16.9760    0.2790   15.0910 C   0  0  0  0  0
   17.5780    1.5800   14.6410 N   0  0  0  0  0
   15.7980    0.1980   15.9100 N   0  0  0  0  0
   17.4860   -0.6330   14.6230 O   0  0  0  0  0
   13.7640    1.4790   16.6290 O   0  0  0  0  0
   15.8080    1.3910   17.9610 O   0  0  0  0  0
   15.2230    1.4900   16.6370 S   0  0  0  0  0
   16.1081    7.2249   16.4950 H   0  0  0  0  0
   15.0370    7.1722   15.0734 H   0  0  0  0  0
   14.4601    6.5674   16.6458 H   0  0  0  0  0
   18.4153    4.3002   12.6218 H   0  0  0  0  0
   19.5243    4.4912   14.0019 H   0  0  0  0  0
   18.9861    2.8664   13.5104 H   0  0  0  0  0
   17.3624    6.1488   14.4002 H   0  0  0  0  0
   14.3555    4.2030   16.8083 H   0  0  0  0  0
   18.4218    1.5991   14.0683 H   0  0  0  0  0
   15.3254   -0.6984   16.0263 H   0  0  0  0  0
  3  1  1  0  0  0
  5  2  1  0  0  0
  4  3  4  0  0  0
  3  8  4  0  0  0
  4  5  4  0  0  0
  5  6  4  0  0  0
  6  7  4  0  0  0
  6 10  1  0  0  0
  7  8  4  0  0  0
  7 15  1  0  0  0
 10  9  1  0  0  0
  9 11  1  0  0  0
  9 12  2  0  0  0
 11 15  1  0  0  0
 15 13  2  0  0  0
 15 14  2  0  0  0
  1 16  1  0  0  0
  1 17  1  0  0  0
  1 18  1  0  0  0
  2 19  1  0  0  0
  2 20  1  0  0  0
  2 21  1  0  0  0
  4 22  1  0  0  0
  8 23  1  0  0  0
 10 24  1  0  0  0
 11 25  1  0  0  0
M  END
$$$$
