2xaf_ligand
  -I-interpret- 

106112  0  0  0  0  0  0  0  0999 V2000
   -6.6050   67.6720   88.7680 P   0  0  0  0  0
   -5.6220   68.1570   87.7260 O   0  0  0  0  0
   -7.8730   66.8980   88.4250 O   0  0  0  0  0
   -7.0410   68.9990   89.5720 O   0  0  0  0  0
   -6.1130   70.0720   89.7510 C   0  0  0  0  0
   -6.8370   71.4170   89.7010 C   0  0  0  0  0
   -5.9220   72.4730   89.9810 O   0  0  0  0  0
   -7.3820   71.7150   88.3140 C   0  0  0  0  0
   -8.7470   72.1740   88.3740 O   0  0  0  0  0
   -6.4480   72.7830   87.7820 C   0  0  0  0  0
   -7.0390   73.6180   86.8070 O   0  0  0  0  0
   -6.1220   73.5220   89.0460 C   0  0  0  0  0
   -4.9290   74.3920   88.9120 N   0  0  0  0  0
   -3.7600   74.1710   88.2780 C   0  0  0  0  0
   -2.9400   75.2460   88.4330 N   0  0  0  0  0
   -3.6160   76.1320   89.1830 C   0  0  0  0  0
   -3.2790   77.3980   89.6470 C   0  0  0  0  0
   -2.0780   77.9240   89.3320 N   0  0  0  0  0
   -4.1690   78.1090   90.3900 N   0  0  0  0  0
   -5.5180   77.5860   90.7370 C   0  0  0  0  0
   -5.8000   76.2480   90.2160 N   0  0  0  0  0
   -4.8720   75.5890   89.4760 C   0  0  0  0  0
   -7.8960   58.1820   85.7770 N   0  0  0  0  0
   -8.8520   57.2270   85.9480 C   0  0  0  0  0
   -9.2360   56.8750   87.2010 O   0  0  0  0  0
   -9.4470   56.6170   84.8940 N   0  0  0  0  0
   -9.1450   56.9430   83.6240 C   0  0  0  0  0
   -9.6860   56.3400   82.5460 O   0  0  0  0  0
   -8.0390   57.8580   83.3730 C   0  0  0  0  0
   -7.9320   58.3710   82.0080 N   0  0  0  0  0
   -7.2640   59.6070   81.9070 C   0  0  0  0  0
   -7.3640   60.2500   80.6750 C   0  0  0  0  0
   -6.8210   61.5060   80.4620 C   0  0  0  0  0
   -6.9200   62.1800   79.1140 C   0  0  0  0  0
   -6.1860   62.1270   81.5110 C   0  0  0  0  0
   -5.5890   63.4880   81.2770 C   0  0  0  0  0
   -6.1030   61.4920   82.7580 C   0  0  0  0  0
   -6.6600   60.2320   82.9990 C   0  0  0  0  0
   -6.5210   59.5600   84.2720 N   0  0  0  0  0
   -7.5290   58.6030   84.5350 C   0  0  0  0  0
   -6.0630   60.3580   85.4480 C   0  0  0  0  0
   -7.1070   61.1760   86.1980 C   0  0  0  0  0
   -7.8510   61.8850   85.2090 O   0  0  0  0  0
   -6.4210   62.1510   87.1620 C   0  0  0  0  0
   -5.5520   61.4320   88.0210 O   0  0  0  0  0
   -7.3420   62.9090   88.1070 C   0  0  0  0  0
   -8.4600   63.4140   87.3730 O   0  0  0  0  0
   -6.5470   64.0270   88.8120 C   0  0  0  0  0
   -7.2660   64.7720   89.8170 O   0  0  0  0  0
   -6.4390   65.7340   90.8220 P   0  0  0  0  0
   -5.2110   65.0930   91.4510 O   0  0  0  0  0
   -7.5200   66.3180   91.7090 O   0  0  0  0  0
   -5.7790   66.8890   89.9040 O   0  0  0  0  0
   -7.5380   57.2660   81.1160 C   0  0  0  0  0
   -8.2790   57.0810   80.1340 O   0  0  0  0  0
   -6.3750   56.3290   81.3800 C   0  0  0  0  0
   -5.8410   56.5920   82.7570 C   0  0  0  0  0
   -5.8440   55.4390   83.7300 C   0  0  0  0  0
   -4.6200   55.2200   84.3430 C   0  0  0  0  0
   -4.4120   54.2160   85.2810 C   0  0  0  0  0
   -6.9250   54.6290   84.0780 C   0  0  0  0  0
   -6.7290   53.6080   85.0230 C   0  0  0  0  0
   -5.4690   53.3940   85.6340 C   0  0  0  0  0
   -5.0690   52.0580   86.9470 Br  0  0  0  0  0
   -8.3482   66.6903   89.2329 H   0  0  0  0  0
   -5.3724   70.0377   88.9520 H   0  0  0  0  0
   -5.6298   69.9650   90.7222 H   0  0  0  0  0
   -7.6449   71.3561   90.4302 H   0  0  0  0  0
   -7.4118   70.8346   87.6720 H   0  0  0  0  0
   -9.3051   71.4712   88.7149 H   0  0  0  0  0
   -5.5849   72.3831   87.2499 H   0  0  0  0  0
   -6.3974   74.2689   86.5134 H   0  0  0  0  0
   -6.9074   74.2175   89.3418 H   0  0  0  0  0
   -3.5091   73.2664   87.7240 H   0  0  0  0  0
   -1.4238   77.3933   88.7568 H   0  0  0  0  0
   -1.8237   78.8526   89.6689 H   0  0  0  0  0
   -6.2363   78.1523   91.3299 H   0  0  0  0  0
   -9.9118   56.1952   87.1483 H   0  0  0  0  0
   -9.3263   56.7324   81.7471 H   0  0  0  0  0
   -7.8835   59.7511   79.8569 H   0  0  0  0  0
   -6.4292   61.5611   78.3629 H   0  0  0  0  0
   -7.9696   62.3098   78.8503 H   0  0  0  0  0
   -6.4324   63.1538   79.1594 H   0  0  0  0  0
   -4.8365   63.4230   80.4911 H   0  0  0  0  0
   -6.3742   64.1805   80.9736 H   0  0  0  0  0
   -5.1253   63.8431   82.1973 H   0  0  0  0  0
   -5.5843   61.9999   83.5711 H   0  0  0  0  0
   -5.3541   61.0840   85.0499 H   0  0  0  0  0
   -5.6907   59.6293   86.1681 H   0  0  0  0  0
   -7.7604   60.5384   86.7935 H   0  0  0  0  0
   -8.5249   62.4176   85.6378 H   0  0  0  0  0
   -5.9336   62.8659   86.4991 H   0  0  0  0  0
   -5.1227   62.0429   88.6244 H   0  0  0  0  0
   -7.7289   62.2462   88.8810 H   0  0  0  0  0
   -9.0421   63.8925   87.9678 H   0  0  0  0  0
   -6.2704   64.7427   88.0378 H   0  0  0  0  0
   -5.7186   63.5386   89.3252 H   0  0  0  0  0
   -4.6273   64.7748   90.7584 H   0  0  0  0  0
   -5.5907   56.4987   80.6423 H   0  0  0  0  0
   -6.7115   55.2948   81.3069 H   0  0  0  0  0
   -6.4981   57.3462   83.1900 H   0  0  0  0  0
   -4.7937   56.8620   82.6215 H   0  0  0  0  0
   -3.7824   55.8649   84.0771 H   0  0  0  0  0
   -3.4298   54.0774   85.7329 H   0  0  0  0  0
   -7.9040   54.7853   83.6250 H   0  0  0  0  0
   -7.5668   52.9649   85.2926 H   0  0  0  0  0
  1  2  2  0  0  0
  1  3  1  0  0  0
  1  4  1  0  0  0
 53  1  1  0  0  0
  4  5  1  0  0  0
  5  6  1  0  0  0
  6  7  1  0  0  0
  6  8  1  0  0  0
  7 12  1  0  0  0
  8  9  1  0  0  0
  8 10  1  0  0  0
 10 11  1  0  0  0
 10 12  1  0  0  0
 12 13  1  0  0  0
 13 14  4  0  0  0
 13 22  4  0  0  0
 14 15  4  0  0  0
 16 15  4  0  0  0
 16 17  4  0  0  0
 22 16  4  0  0  0
 17 18  1  0  0  0
 17 19  4  0  0  0
 20 19  4  0  0  0
 21 20  4  0  0  0
 22 21  4  0  0  0
 23 24  4  0  0  0
 40 23  4  0  0  0
 24 25  1  0  0  0
 24 26  4  0  0  0
 27 26  4  0  0  0
 27 28  1  0  0  0
 29 27  4  0  0  0
 29 30  1  0  0  0
 40 29  4  0  0  0
 31 30  1  0  0  0
 30 54  1  0  0  0
 31 32  4  0  0  0
 38 31  4  0  0  0
 32 33  4  0  0  0
 33 34  1  0  0  0
 35 33  4  0  0  0
 35 36  1  0  0  0
 37 35  4  0  0  0
 38 37  4  0  0  0
 39 38  1  0  0  0
 39 40  1  0  0  0
 41 39  1  0  0  0
 42 41  1  0  0  0
 42 43  1  0  0  0
 44 42  1  0  0  0
 44 45  1  0  0  0
 46 44  1  0  0  0
 46 47  1  0  0  0
 48 46  1  0  0  0
 49 48  1  0  0  0
 50 49  1  0  0  0
 50 51  1  0  0  0
 50 52  2  0  0  0
 50 53  1  0  0  0
 54 55  2  0  0  0
 54 56  1  0  0  0
 56 57  1  0  0  0
 57 58  1  0  0  0
 58 59  4  0  0  0
 58 61  4  0  0  0
 59 60  4  0  0  0
 60 63  4  0  0  0
 61 62  4  0  0  0
 62 63  4  0  0  0
 63 64  1  0  0  0
  3 65  1  0  0  0
  5 66  1  0  0  0
  5 67  1  0  0  0
  6 68  1  0  0  0
  8 69  1  0  0  0
  9 70  1  0  0  0
 10 71  1  0  0  0
 11 72  1  0  0  0
 12 73  1  0  0  0
 14 74  1  0  0  0
 18 75  1  0  0  0
 18 76  1  0  0  0
 20 77  1  0  0  0
 25 78  1  0  0  0
 28 79  1  0  0  0
 32 80  1  0  0  0
 34 81  1  0  0  0
 34 82  1  0  0  0
 34 83  1  0  0  0
 36 84  1  0  0  0
 36 85  1  0  0  0
 36 86  1  0  0  0
 37 87  1  0  0  0
 41 88  1  0  0  0
 41 89  1  0  0  0
 42 90  1  0  0  0
 43 91  1  0  0  0
 44 92  1  0  0  0
 45 93  1  0  0  0
 46 94  1  0  0  0
 47 95  1  0  0  0
 48 96  1  0  0  0
 48 97  1  0  0  0
 51 98  1  0  0  0
 56 99  1  0  0  0
 56100  1  0  0  0
 57101  1  0  0  0
 57102  1  0  0  0
 59103  1  0  0  0
 60104  1  0  0  0
 61105  1  0  0  0
 62106  1  0  0  0
M  END
$$$$
