### 
### Created by X-TOOL on Sun Sep  9 21:51:18 2018
### 

@<TRIPOS>MOLECULE
2xaf_ligand
  104   110     1     0     0
SMALL
GAST_HUCK


@<TRIPOS>ATOM
      1 PA         -6.6050   67.6720   88.7680 P.3       1 NON         0.2972
      2 O1A        -5.6220   68.1570   87.7260 O.co2     1 NON        -0.6127
      3 O2A        -7.8730   66.8980   88.4250 O.co2     1 NON        -0.6127
      4 O5B        -7.0410   68.9990   89.5720 O.3       1 NON        -0.2476
      5 C5B        -6.1130   70.0720   89.7510 C.3       1 NON         0.1128
      6 C4B        -6.8370   71.4170   89.7010 C.3       1 NON         0.1189
      7 O4B        -5.9220   72.4730   89.9810 O.3       1 NON        -0.3364
      8 C3B        -7.3820   71.7150   88.3140 C.3       1 NON         0.1149
      9 O3B        -8.7470   72.1740   88.3740 O.3       1 NON        -0.3864
     10 C2B        -6.4480   72.7830   87.7820 C.3       1 NON         0.1385
     11 O2B        -7.0390   73.6180   86.8070 O.3       1 NON        -0.3836
     12 C1B        -6.1220   73.5220   89.0460 C.3       1 NON         0.2010
     13 N9A        -4.9290   74.3920   88.9120 N.pl3     1 NON        -0.1919
     14 C8A        -3.7600   74.1710   88.2780 C.2       1 NON         0.1123
     15 N7A        -2.9400   75.2460   88.4330 N.2       1 NON        -0.2958
     16 C5A        -3.6160   76.1320   89.1830 C.ar      1 NON         0.1045
     17 C6A        -3.2790   77.3980   89.6470 C.ar      1 NON         0.1298
     18 N6A        -2.0780   77.9240   89.3320 N.pl3     1 NON        -0.3152
     19 N1A        -4.1690   78.1090   90.3900 N.ar      1 NON        -0.2698
     20 C2A        -5.5180   77.5860   90.7370 C.ar      1 NON         0.0533
     21 N3A        -5.8000   76.2480   90.2160 N.ar      1 NON        -0.2714
     22 C4A        -4.8720   75.5890   89.4760 C.ar      1 NON         0.1613
     23 N1         -7.8960   58.1820   85.7770 N.ar      1 NON        -0.2533
     24 C2         -8.8520   57.2270   85.9480 C.ar      1 NON         0.2008
     25 O2         -9.2360   56.8750   87.2010 O.3       1 NON        -0.3076
     26 N3         -9.4470   56.6170   84.8940 N.ar      1 NON        -0.2521
     27 C4         -9.1450   56.9430   83.6240 C.ar      1 NON         0.1800
     28 O4         -9.6860   56.3400   82.5460 O.3       1 NON        -0.3216
     29 C4X        -8.0390   57.8580   83.3730 C.ar      1 NON         0.1797
     30 N5         -7.9320   58.3710   82.0080 N.am      1 NON        -0.1791
     31 C5X        -7.2640   59.6070   81.9070 C.ar      1 NON         0.1011
     32 C6         -7.3640   60.2500   80.6750 C.ar      1 NON        -0.0499
     33 C7         -6.8210   61.5060   80.4620 C.ar      1 NON        -0.0681
     34 C7M        -6.9200   62.1800   79.1140 C.3       1 NON        -0.0422
     35 C8         -6.1860   62.1270   81.5110 C.ar      1 NON        -0.0682
     36 C8M        -5.5890   63.4880   81.2770 C.3       1 NON        -0.0429
     37 C9         -6.1030   61.4920   82.7580 C.ar      1 NON        -0.0540
     38 C9A        -6.6600   60.2320   82.9990 C.ar      1 NON         0.0805
     39 N10        -6.5210   59.5600   84.2720 N.pl3     1 NON        -0.2521
     40 C10        -7.5290   58.6030   84.5350 C.ar      1 NON         0.1569
     41 C1'        -6.0630   60.3580   85.4480 C.3       1 NON         0.0721
     42 C2'        -7.1070   61.1760   86.1980 C.3       1 NON         0.1067
     43 O2'        -7.8510   61.8850   85.2090 O.3       1 NON        -0.3868
     44 C3'        -6.4210   62.1510   87.1620 C.3       1 NON         0.1115
     45 O3'        -5.5520   61.4320   88.0210 O.3       1 NON        -0.3865
     46 C4'        -7.3420   62.9090   88.1070 C.3       1 NON         0.1118
     47 O4'        -8.4600   63.4140   87.3730 O.3       1 NON        -0.3865
     48 C5'        -6.5470   64.0270   88.8120 C.3       1 NON         0.1124
     49 O5'        -7.2660   64.7720   89.8170 O.3       1 NON        -0.2477
     50 P          -6.4390   65.7340   90.8220 P.3       1 NON         0.2972
     51 O1P        -5.2110   65.0930   91.4510 O.co2     1 NON        -0.6127
     52 O2P        -7.5200   66.3180   91.7090 O.co2     1 NON        -0.6127
     53 O3P        -5.7790   66.8890   89.9040 O.3       1 NON        -0.1319
     54 C1B        -7.5380   57.2660   81.1160 C.2       1 NON         0.2215
     55 O1B        -8.2790   57.0810   80.1340 O.2       1 NON        -0.3800
     56 C2B        -6.3750   56.3290   81.3800 C.3       1 NON         0.0562
     57 C3B        -5.8410   56.5920   82.7570 C.3       1 NON        -0.0002
     58 CB1        -5.8440   55.4390   83.7300 C.ar      1 NON        -0.0379
     59 CB6        -4.6200   55.2200   84.3430 C.ar      1 NON        -0.0573
     60 CB5        -4.4120   54.2160   85.2810 C.ar      1 NON        -0.0590
     61 CB2        -6.9250   54.6290   84.0780 C.ar      1 NON        -0.0573
     62 CB3        -6.7290   53.6080   85.0230 C.ar      1 NON        -0.0590
     63 CB4        -5.4690   53.3940   85.6340 C.ar      1 NON         0.0056
     64 BR         -5.0690   52.0580   86.9470 Br        1 NON        -0.0561
     65 H          -5.3724   70.0377   88.9520 H         1 NON         0.0648
     66 H          -5.6298   69.9650   90.7222 H         1 NON         0.0648
     67 H          -7.6449   71.3561   90.4302 H         1 NON         0.0651
     68 H          -7.4118   70.8346   87.6720 H         1 NON         0.0648
     69 H          -8.7907   72.9769   88.8985 H         1 NON         0.2100
     70 H          -5.5849   72.3831   87.2499 H         1 NON         0.0676
     71 H          -7.7985   74.0648   87.1879 H         1 NON         0.2101
     72 H          -6.9074   74.2175   89.3418 H         1 NON         0.0996
     73 H          -3.5091   73.2664   87.7240 H         1 NON         0.1349
     74 H          -1.4238   77.3933   88.7568 H         1 NON         0.1820
     75 H          -1.8237   78.8526   89.6689 H         1 NON         0.1820
     76 H          -6.2363   78.1523   91.3299 H         1 NON         0.0996
     77 H          -9.9119   56.1952   87.1482 H         1 NON         0.2554
     78 H          -9.3263   56.7324   81.7471 H         1 NON         0.2505
     79 H          -7.8835   59.7511   79.8569 H         1 NON         0.0394
     80 H          -6.4292   61.5611   78.3629 H         1 NON         0.0353
     81 H          -7.9696   62.3098   78.8503 H         1 NON         0.0353
     82 H          -6.4324   63.1538   79.1594 H         1 NON         0.0353
     83 H          -6.0518   64.2074   81.9526 H         1 NON         0.0349
     84 H          -4.5159   63.4498   81.4645 H         1 NON         0.0349
     85 H          -5.7683   63.7894   80.2450 H         1 NON         0.0349
     86 H          -5.5843   61.9999   83.5711 H         1 NON         0.0408
     87 H          -5.3541   61.0840   85.0499 H         1 NON         0.0587
     88 H          -5.6907   59.6293   86.1681 H         1 NON         0.0587
     89 H          -7.7604   60.5384   86.7935 H         1 NON         0.0643
     90 H          -8.5249   62.4176   85.6378 H         1 NON         0.2100
     91 H          -5.9336   62.8659   86.4991 H         1 NON         0.0647
     92 H          -5.1227   62.0429   88.6244 H         1 NON         0.2100
     93 H          -7.7289   62.2462   88.8810 H         1 NON         0.0647
     94 H          -8.9378   62.6820   86.9760 H         1 NON         0.2100
     95 H          -6.2704   64.7427   88.0378 H         1 NON         0.0647
     96 H          -5.7186   63.5386   89.3252 H         1 NON         0.0647
     97 H          -5.5907   56.4987   80.6423 H         1 NON         0.0532
     98 H          -6.7115   55.2948   81.3069 H         1 NON         0.0532
     99 H          -6.4981   57.3462   83.1900 H         1 NON         0.0457
    100 H          -4.7937   56.8620   82.6215 H         1 NON         0.0457
    101 H          -3.7824   55.8649   84.0771 H         1 NON         0.0564
    102 H          -3.4298   54.0774   85.7329 H         1 NON         0.0626
    103 H          -7.9040   54.7853   83.6250 H         1 NON         0.0564
    104 H          -7.5668   52.9649   85.2926 H         1 NON         0.0626
@<TRIPOS>BOND
     1    1    2 ar 
     2    1    3 ar 
     3    1    4 1  
     4   53    1 1  
     5    4    5 1  
     6    5    6 1  
     7    6    7 1  
     8    6    8 1  
     9    7   12 1  
    10    8    9 1  
    11    8   10 1  
    12   10   11 1  
    13   10   12 1  
    14   12   13 1  
    15   13   14 1  
    16   13   22 1  
    17   14   15 2  
    18   16   15 1  
    19   16   17 ar 
    20   22   16 ar 
    21   17   18 1  
    22   17   19 ar 
    23   20   19 ar 
    24   21   20 ar 
    25   22   21 ar 
    26   23   24 ar 
    27   40   23 ar 
    28   24   25 1  
    29   24   26 ar 
    30   27   26 ar 
    31   27   28 1  
    32   29   27 ar 
    33   29   30 1  
    34   40   29 ar 
    35   31   30 1  
    36   30   54 am 
    37   31   32 ar 
    38   38   31 ar 
    39   32   33 ar 
    40   33   34 1  
    41   35   33 ar 
    42   35   36 1  
    43   37   35 ar 
    44   38   37 ar 
    45   39   38 1  
    46   39   40 1  
    47   41   39 1  
    48   42   41 1  
    49   42   43 1  
    50   44   42 1  
    51   44   45 1  
    52   46   44 1  
    53   46   47 1  
    54   48   46 1  
    55   49   48 1  
    56   50   49 1  
    57   50   51 ar 
    58   50   52 ar 
    59   50   53 1  
    60   54   55 2  
    61   54   56 1  
    62   56   57 1  
    63   57   58 1  
    64   58   59 ar 
    65   58   61 ar 
    66   59   60 ar 
    67   60   63 ar 
    68   61   62 ar 
    69   62   63 ar 
    70   63   64 1  
    71    5   65 1  
    72    5   66 1  
    73    6   67 1  
    74    8   68 1  
    75    9   69 1  
    76   10   70 1  
    77   11   71 1  
    78   12   72 1  
    79   14   73 1  
    80   18   74 1  
    81   18   75 1  
    82   20   76 1  
    83   25   77 1  
    84   28   78 1  
    85   32   79 1  
    86   34   80 1  
    87   34   81 1  
    88   34   82 1  
    89   36   83 1  
    90   36   84 1  
    91   36   85 1  
    92   37   86 1  
    93   41   87 1  
    94   41   88 1  
    95   42   89 1  
    96   43   90 1  
    97   44   91 1  
    98   45   92 1  
    99   46   93 1  
   100   47   94 1  
   101   48   95 1  
   102   48   96 1  
   103   56   97 1  
   104   56   98 1  
   105   57   99 1  
   106   57  100 1  
   107   59  101 1  
   108   60  102 1  
   109   61  103 1  
   110   62  104 1  
@<TRIPOS>SUBSTRUCTURE
     1 NON         1

