5cyv_ligand
  -I-interpret- 

103106  0  0  0  0  0  0  0  0999 V2000
   99.4090  151.8010   81.3340 C   0  0  0  0  0
   98.3240  151.0580   80.8670 C   0  0  0  0  0
   98.2950  150.7830   79.4560 C   0  0  0  0  0
   98.0860  151.2770   83.0610 C   0  0  0  0  0
   99.2770  151.3180   78.6830 N   0  0  0  0  0
  100.3720  152.3060   80.5160 N   0  0  0  0  0
   92.2920  155.2070   76.4340 C   0  0  0  0  0
   91.7740  156.0870   75.5590 C   0  0  0  0  0
   90.3910  156.1440   75.4340 C   0  0  0  0  0
   89.9370  157.0220   74.4250 O   0  0  0  0  0
   89.5420  155.3330   76.1830 C   0  0  0  0  0
   90.0630  154.4370   77.0980 C   0  0  0  0  0
   91.4580  154.4210   77.2070 C   0  0  0  0  0
   92.2070  153.5310   78.0960 C   0  0  0  0  0
   91.4070  152.4530   78.7030 C   0  0  0  0  0
   92.1880  151.4330   79.4310 C   0  0  0  0  0
   93.3960  151.4650   79.6170 O   0  0  0  0  0
   91.1580  150.1020   79.9910 S   0  0  0  0  0
   92.3550  148.9410   80.7410 C   0  0  0  0  0
   93.1240  148.2770   79.5930 C   0  0  0  0  0
   93.8230  147.1200   80.1640 N   0  0  0  0  0
   95.1770  147.1800   80.7320 C   0  0  0  0  0
   95.7590  148.2660   80.7640 O   0  0  0  0  0
   95.6890  145.8440   81.2240 C   0  0  0  0  0
   97.2390  145.7180   80.9340 C   0  0  0  0  0
   97.9120  146.6580   81.8040 N   0  0  0  0  0
   98.9190  146.2060   82.6440 C   0  0  0  0  0
   99.2070  145.0430   82.5730 O   0  0  0  0  0
   99.5490  147.1410   83.6080 C   0  0  0  0  0
   98.7100  148.2790   83.6820 O   0  0  0  0  0
  100.9410  147.6010   83.1540 C   0  0  0  0  0
  100.9180  148.3480   81.8080 C   0  0  0  0  0
  101.9250  146.4210   83.0060 C   0  0  0  0  0
  101.5390  148.5830   84.1890 C   0  0  0  0  0
  101.5810  147.8820   85.4570 O   0  0  0  0  0
  102.8620  147.8280   86.4040 P   0  0  0  0  0
  102.7130  146.6040   87.2530 O   0  0  0  0  0
  104.1150  148.0720   85.6590 O   0  0  0  0  0
  102.7750  149.0840   87.3900 O   0  0  0  0  0
  101.6640  150.1090   87.8230 P   0  0  0  0  0
  102.3540  151.0420   88.8440 O   0  0  0  0  0
  100.4000  149.3850   88.2270 O   0  0  0  0  0
  101.3590  150.9690   86.4810 O   0  0  0  0  0
  102.3740  151.7300   85.8770 C   0  0  0  0  0
  101.7700  152.8400   85.0710 C   0  0  0  0  0
  101.1670  151.9120   83.9090 O   0  0  0  0  0
  100.7180  153.5510   85.6760 C   0  0  0  0  0
  101.0450  154.9510   85.3580 O   0  0  0  0  0
  101.5850  155.9420   86.5370 P   0  0  0  0  0
  100.5000  155.9170   87.5900 O   0  0  0  0  0
  101.7400  157.2790   85.8410 O   0  0  0  0  0
  102.8780  155.3410   86.9950 O   0  0  0  0  0
   99.4530  153.1730   84.8090 C   0  0  0  0  0
   98.5720  154.2540   84.6600 O   0  0  0  0  0
  100.1610  152.6930   83.4970 C   0  0  0  0  0
   99.2380  151.9140   82.7120 N   0  0  0  0  0
   97.5180  150.7190   81.9550 N   0  0  0  0  0
  100.2530  152.0430   79.1670 C   0  0  0  0  0
   97.2110  150.0180   78.9690 N   0  0  0  0  0
   97.6801  151.2219   84.0711 H   0  0  0  0  0
   93.3733  155.1131   76.5341 H   0  0  0  0  0
   92.4189  156.7356   74.9661 H   0  0  0  0  0
   88.9775  157.0082   74.3984 H   0  0  0  0  0
   88.4629  155.4049   76.0474 H   0  0  0  0  0
   89.4274  153.7844   77.6965 H   0  0  0  0  0
   92.5861  154.1442   78.9136 H   0  0  0  0  0
   92.9775  153.0528   77.4912 H   0  0  0  0  0
   90.9000  151.9386   77.8867 H   0  0  0  0  0
   90.7456  152.9228   79.4310 H   0  0  0  0  0
   91.8383  148.1916   81.3405 H   0  0  0  0  0
   93.0385  149.4704   81.4048 H   0  0  0  0  0
   93.8316  148.9752   79.1457 H   0  0  0  0  0
   92.4440  147.9662   78.7999 H   0  0  0  0  0
   93.3407  146.2212   80.1668 H   0  0  0  0  0
   95.1610  145.0444   80.7045 H   0  0  0  0  0
   95.5179  145.7679   82.2978 H   0  0  0  0  0
   97.4542  145.9391   79.8886 H   0  0  0  0  0
   97.5848  144.7020   81.1242 H   0  0  0  0  0
   97.6485  147.6434   81.7997 H   0  0  0  0  0
   99.6672  146.6338   84.5655 H   0  0  0  0  0
   99.0847  148.9118   84.2990 H   0  0  0  0  0
  100.5175  147.6909   81.0360 H   0  0  0  0  0
  100.2882  149.2333   81.8960 H   0  0  0  0  0
  101.9320  148.6468   81.5424 H   0  0  0  0  0
  102.0309  145.9154   83.9658 H   0  0  0  0  0
  101.5408  145.7200   82.2650 H   0  0  0  0  0
  102.8957  146.7973   82.6830 H   0  0  0  0  0
  100.9303  149.4840   84.2646 H   0  0  0  0  0
  102.5375  148.9011   83.8891 H   0  0  0  0  0
  101.8445  146.6035   87.6621 H   0  0  0  0  0
  103.1379  151.4268   88.4453 H   0  0  0  0  0
  102.9616  151.0882   85.2205 H   0  0  0  0  0
  103.0131  152.1549   86.6510 H   0  0  0  0  0
  102.4754  153.6360   84.8324 H   0  0  0  0  0
  100.5674  153.3676   86.7399 H   0  0  0  0  0
   99.7017  156.3147   87.2348 H   0  0  0  0  0
  100.8759  157.6028   85.5764 H   0  0  0  0  0
   98.7857  152.4215   85.2309 H   0  0  0  0  0
   97.8202  153.9818   84.1287 H   0  0  0  0  0
  100.5085  153.5257   82.8855 H   0  0  0  0  0
  100.9958  152.4522   78.4823 H   0  0  0  0  0
   96.4916  149.6861   79.6115 H   0  0  0  0  0
   97.1480  149.7977   77.9751 H   0  0  0  0  0
  1  2  4  0  0  0
  1  6  4  0  0  0
 56  1  4  0  0  0
  2  3  4  0  0  0
 57  2  4  0  0  0
  3  5  4  0  0  0
  3 59  1  0  0  0
 56  4  4  0  0  0
  4 57  4  0  0  0
 58  5  4  0  0  0
  6 58  4  0  0  0
  7  8  4  0  0  0
 13  7  4  0  0  0
  8  9  4  0  0  0
  9 10  1  0  0  0
 11  9  4  0  0  0
 12 11  4  0  0  0
 13 12  4  0  0  0
 14 13  1  0  0  0
 15 14  1  0  0  0
 16 15  1  0  0  0
 16 17  2  0  0  0
 18 16  1  0  0  0
 19 18  1  0  0  0
 20 19  1  0  0  0
 21 20  1  0  0  0
 22 21  1  0  0  0
 22 23  2  0  0  0
 24 22  1  0  0  0
 25 24  1  0  0  0
 26 25  1  0  0  0
 27 26  1  0  0  0
 27 28  2  0  0  0
 29 27  1  0  0  0
 29 30  1  0  0  0
 31 29  1  0  0  0
 31 32  1  0  0  0
 31 33  1  0  0  0
 34 31  1  0  0  0
 35 34  1  0  0  0
 36 35  1  0  0  0
 36 37  1  0  0  0
 36 38  2  0  0  0
 39 36  1  0  0  0
 40 39  1  0  0  0
 40 41  1  0  0  0
 40 42  2  0  0  0
 43 40  1  0  0  0
 44 43  1  0  0  0
 45 44  1  0  0  0
 46 45  1  0  0  0
 47 45  1  0  0  0
 55 46  1  0  0  0
 47 48  1  0  0  0
 53 47  1  0  0  0
 48 49  1  0  0  0
 49 50  1  0  0  0
 49 51  1  0  0  0
 49 52  2  0  0  0
 53 54  1  0  0  0
 55 53  1  0  0  0
 55 56  1  0  0  0
  4 60  1  0  0  0
  7 61  1  0  0  0
  8 62  1  0  0  0
 10 63  1  0  0  0
 11 64  1  0  0  0
 12 65  1  0  0  0
 14 66  1  0  0  0
 14 67  1  0  0  0
 15 68  1  0  0  0
 15 69  1  0  0  0
 19 70  1  0  0  0
 19 71  1  0  0  0
 20 72  1  0  0  0
 20 73  1  0  0  0
 21 74  1  0  0  0
 24 75  1  0  0  0
 24 76  1  0  0  0
 25 77  1  0  0  0
 25 78  1  0  0  0
 26 79  1  0  0  0
 29 80  1  0  0  0
 30 81  1  0  0  0
 32 82  1  0  0  0
 32 83  1  0  0  0
 32 84  1  0  0  0
 33 85  1  0  0  0
 33 86  1  0  0  0
 33 87  1  0  0  0
 34 88  1  0  0  0
 34 89  1  0  0  0
 37 90  1  0  0  0
 41 91  1  0  0  0
 44 92  1  0  0  0
 44 93  1  0  0  0
 45 94  1  0  0  0
 47 95  1  0  0  0
 50 96  1  0  0  0
 51 97  1  0  0  0
 53 98  1  0  0  0
 54 99  1  0  0  0
 55100  1  0  0  0
 58101  1  0  0  0
 59102  1  0  0  0
 59103  1  0  0  0
M  END
$$$$
