### 
### Created by X-TOOL on Mon Sep 10 21:13:21 2018
### 

@<TRIPOS>MOLECULE
5cyv_ligand
   99   102     1     0     0
SMALL
GAST_HUCK


@<TRIPOS>ATOM
      1 C4         99.4090  151.8010   81.3340 C.ar      1 WCA         0.1613
      2 C5         98.3240  151.0580   80.8670 C.ar      1 WCA         0.1045
      3 C6         98.2950  150.7830   79.4560 C.ar      1 WCA         0.1298
      4 C8         98.0860  151.2770   83.0610 C.2       1 WCA         0.1123
      5 N1         99.2770  151.3180   78.6830 N.ar      1 WCA        -0.2698
      6 N3        100.3720  152.3060   80.5160 N.ar      1 WCA        -0.2714
      7 CAV        92.2920  155.2070   76.4340 C.ar      1 WCA        -0.0686
      8 CAT        91.7740  156.0870   75.5590 C.ar      1 WCA        -0.0398
      9 CBS        90.3910  156.1440   75.4340 C.ar      1 WCA         0.0805
     10 OAJ        89.9370  157.0220   74.4250 O.3       1 WCA        -0.3376
     11 CAU        89.5420  155.3330   76.1830 C.ar      1 WCA        -0.0398
     12 CAW        90.0630  154.4370   77.0980 C.ar      1 WCA        -0.0686
     13 CBT        91.4580  154.4210   77.2070 C.ar      1 WCA        -0.0514
     14 CAR        92.2070  153.5310   78.0960 C.3       1 WCA        -0.0075
     15 CAQ        91.4070  152.4530   78.7030 C.3       1 WCA         0.0399
     16 CBP        92.1880  151.4330   79.4310 C.2       1 WCA         0.1659
     17 OAD        93.3960  151.4650   79.6170 O.2       1 WCA        -0.3790
     18 SBO        91.1580  150.1020   79.9910 S.3       1 WCA        -0.0481
     19 CBA        92.3550  148.9410   80.7410 C.3       1 WCA         0.0336
     20 CAY        93.1240  148.2770   79.5930 C.3       1 WCA         0.0422
     21 NBH        93.8230  147.1200   80.1640 N.am      1 WCA        -0.2860
     22 CBQ        95.1770  147.1800   80.7320 C.2       1 WCA         0.1779
     23 OAE        95.7590  148.2660   80.7640 O.2       1 WCA        -0.3970
     24 CBB        95.6890  145.8440   81.2240 C.3       1 WCA         0.0574
     25 CAZ        97.2390  145.7180   80.9340 C.3       1 WCA         0.0477
     26 NBI        97.9120  146.6580   81.8040 N.am      1 WCA        -0.2826
     27 CBR        98.9190  146.2060   82.6440 C.2       1 WCA         0.2057
     28 OAF        99.2070  145.0430   82.5730 O.2       1 WCA        -0.3942
     29 CBX        99.5490  147.1410   83.6080 C.3       1 WCA         0.1510
     30 OAK        98.7100  148.2790   83.6820 O.3       1 WCA        -0.3708
     31 CCD       100.9410  147.6010   83.1540 C.3       1 WCA         0.0367
     32 CAA       100.9180  148.3480   81.8080 C.3       1 WCA        -0.0528
     33 CAB       101.9250  146.4210   83.0060 C.3       1 WCA        -0.0528
     34 CBD       101.5390  148.5830   84.1890 C.3       1 WCA         0.0936
     35 OBK       101.5810  147.8820   85.4570 O.3       1 WCA        -0.2496
     36 PCG       102.8620  147.8280   86.4040 P.3       1 WCA         0.2971
     37 OAP       102.7130  146.6040   87.2530 O.co2     1 WCA        -0.6127
     38 OAI       104.1150  148.0720   85.6590 O.co2     1 WCA        -0.6127
     39 OBN       102.7750  149.0840   87.3900 O.3       1 WCA        -0.1319
     40 PCF       101.6640  150.1090   87.8230 P.3       1 WCA         0.2972
     41 OAO       102.3540  151.0420   88.8440 O.co2     1 WCA        -0.6127
     42 OAH       100.4000  149.3850   88.2270 O.co2     1 WCA        -0.6127
     43 O5'       101.3590  150.9690   86.4810 O.3       1 WCA        -0.2476
     44 C5'       102.3740  151.7300   85.8770 C.3       1 WCA         0.1131
     45 C4'       101.7700  152.8400   85.0710 C.3       1 WCA         0.1235
     46 O4'       101.1670  151.9120   83.9090 O.3       1 WCA        -0.3360
     47 C3'       100.7180  153.5510   85.6760 C.3       1 WCA         0.1487
     48 O3'       101.0450  154.9510   85.3580 O.3       1 WCA        -0.2674
     49 PCE       101.5850  155.9420   86.5370 P.3       1 WCA         0.2013
     50 OAM       100.5000  155.9170   87.5900 O.co2     1 WCA        -0.5537
     51 OAN       101.7400  157.2790   85.8410 O.co2     1 WCA        -0.5537
     52 OAG       102.8780  155.3410   86.9950 O.co2     1 WCA        -0.5537
     53 C2'        99.4530  153.1730   84.8090 C.3       1 WCA         0.1432
     54 O2'        98.5720  154.2540   84.6600 O.3       1 WCA        -0.3832
     55 C1'       100.1610  152.6930   83.4970 C.3       1 WCA         0.2013
     56 N9         99.2380  151.9140   82.7120 N.pl3     1 WCA        -0.1919
     57 N7         97.5180  150.7190   81.9550 N.2       1 WCA        -0.2958
     58 C2        100.2530  152.0430   79.1670 C.ar      1 WCA         0.0533
     59 N6         97.2110  150.0180   78.9690 N.pl3     1 WCA        -0.3152
     60 H1         97.6805  151.2219   84.0702 H         1 WCA         0.1349
     61 H2         93.3674  155.1137   76.5335 H         1 WCA         0.0530
     62 H3         92.4154  156.7320   74.9693 H         1 WCA         0.0525
     63 H4         88.9875  157.0084   74.3986 H         1 WCA         0.2458
     64 H5         88.4688  155.4045   76.0481 H         1 WCA         0.0525
     65 H6         89.4309  153.7880   77.6933 H         1 WCA         0.0530
     66 H7         92.6358  154.1379   78.9070 H         1 WCA         0.0430
     67 H8         93.0189  153.0696   77.5147 H         1 WCA         0.0430
     68 H9         90.8496  151.9478   77.9004 H         1 WCA         0.0523
     69 H10        90.6988  152.9098   79.4100 H         1 WCA         0.0523
     70 H11        91.8227  148.1784   81.3285 H         1 WCA         0.0424
     71 H12        93.0511  149.4874   81.3943 H         1 WCA         0.0424
     72 H13        93.8496  148.9840   79.1644 H         1 WCA         0.0529
     73 H14        92.4254  147.9484   78.8094 H         1 WCA         0.0529
     74 H15        93.3501  146.2389   80.1668 H         1 WCA         0.1851
     75 H16        95.1544  145.0353   80.7043 H         1 WCA         0.0522
     76 H17        95.5134  145.7630   82.3069 H         1 WCA         0.0522
     77 H18        97.4472  145.9620   79.8818 H         1 WCA         0.0545
     78 H19        97.5810  144.6946   81.1477 H         1 WCA         0.0545
     79 H20        97.6537  147.6241   81.7997 H         1 WCA         0.1853
     80 H21        99.6288  146.6573   84.5927 H         1 WCA         0.0844
     81 H22        99.0808  148.9053   84.2926 H         1 WCA         0.2133
     82 H23       101.9409  148.6501   81.5388 H         1 WCA         0.0238
     83 H24       100.2828  149.2418   81.8954 H         1 WCA         0.0238
     84 H25       100.5140  147.6859   81.0280 H         1 WCA         0.0238
     85 H26       101.9696  145.8601   83.9512 H         1 WCA         0.0238
     86 H27       102.9256  146.8065   82.7609 H         1 WCA         0.0238
     87 H28       101.5810  145.7555   82.2006 H         1 WCA         0.0238
     88 H29       100.9048  149.4779   84.2721 H         1 WCA         0.0628
     89 H30       102.5542  148.8797   83.8868 H         1 WCA         0.0628
     90 H31       102.9707  151.0833   85.2169 H         1 WCA         0.0648
     91 H32       103.0225  152.1567   86.6564 H         1 WCA         0.0648
     92 H33       102.5330  153.5477   84.7146 H         1 WCA         0.0654
     93 H34       100.5926  153.3544   86.7510 H         1 WCA         0.0704
     94 H35        98.8954  152.3426   85.2666 H         1 WCA         0.0680
     95 H36        99.0224  154.9711   84.2295 H         1 WCA         0.2101
     96 H37       100.5344  153.5462   82.9117 H         1 WCA         0.0996
     97 H38       100.9917  152.4500   78.4860 H         1 WCA         0.0996
     98 H39        97.1474  149.7956   77.9653 H         1 WCA         0.1820
     99 H40        96.4846  149.6829   79.6178 H         1 WCA         0.1820
@<TRIPOS>BOND
     1    1    2 ar 
     2    1    6 ar 
     3   56    1 1  
     4    2    3 ar 
     5   57    2 1  
     6    3    5 ar 
     7    3   59 1  
     8   56    4 1  
     9    4   57 2  
    10   58    5 ar 
    11    6   58 ar 
    12    7    8 ar 
    13   13    7 ar 
    14    8    9 ar 
    15    9   10 1  
    16   11    9 ar 
    17   12   11 ar 
    18   13   12 ar 
    19   14   13 1  
    20   15   14 1  
    21   16   15 1  
    22   16   17 2  
    23   18   16 1  
    24   19   18 1  
    25   20   19 1  
    26   21   20 1  
    27   22   21 am 
    28   22   23 2  
    29   24   22 1  
    30   25   24 1  
    31   26   25 1  
    32   27   26 am 
    33   27   28 2  
    34   29   27 1  
    35   29   30 1  
    36   31   29 1  
    37   31   32 1  
    38   31   33 1  
    39   34   31 1  
    40   35   34 1  
    41   36   35 1  
    42   36   37 ar 
    43   36   38 ar 
    44   39   36 1  
    45   40   39 1  
    46   40   41 ar 
    47   40   42 ar 
    48   43   40 1  
    49   44   43 1  
    50   45   44 1  
    51   46   45 1  
    52   47   45 1  
    53   55   46 1  
    54   47   48 1  
    55   53   47 1  
    56   48   49 1  
    57   49   50 ar 
    58   49   51 ar 
    59   49   52 ar 
    60   53   54 1  
    61   55   53 1  
    62   55   56 1  
    63    4   60 1  
    64    7   61 1  
    65    8   62 1  
    66   10   63 1  
    67   11   64 1  
    68   12   65 1  
    69   14   66 1  
    70   14   67 1  
    71   15   68 1  
    72   15   69 1  
    73   19   70 1  
    74   19   71 1  
    75   20   72 1  
    76   20   73 1  
    77   21   74 1  
    78   24   75 1  
    79   24   76 1  
    80   25   77 1  
    81   25   78 1  
    82   26   79 1  
    83   29   80 1  
    84   30   81 1  
    85   32   82 1  
    86   32   83 1  
    87   32   84 1  
    88   33   85 1  
    89   33   86 1  
    90   33   87 1  
    91   34   88 1  
    92   34   89 1  
    93   44   90 1  
    94   44   91 1  
    95   45   92 1  
    96   47   93 1  
    97   53   94 1  
    98   54   95 1  
    99   55   96 1  
   100   58   97 1  
   101   59   98 1  
   102   59   99 1  
@<TRIPOS>SUBSTRUCTURE
     1 WCA         1

