6qg7_ligand
  -I-interpret- 

 54 58  0  0  0  0  0  0  0  0999 V2000
  -24.1940    8.2710   -4.7680 C   0  0  0  0  0
  -24.5320    7.0390   -5.1610 C   0  0  0  0  0
  -24.0480    6.0130   -4.4110 C   0  0  0  0  0
  -23.2600    6.1940   -3.3430 N   0  0  0  0  0
  -23.3980    8.5070   -3.7150 N   0  0  0  0  0
  -21.4360   14.3480   -7.2520 C   0  0  0  0  0
  -22.3630   13.1560   -7.0010 C   0  0  0  0  0
  -23.4060   13.5880   -5.9790 C   0  0  0  0  0
  -23.2850   14.6800   -5.4230 O   0  0  0  0  0
  -24.5420   12.8790   -5.9000 N   0  0  0  0  0
  -24.8280   11.5330   -6.4320 C   0  0  0  0  0
  -25.5250   13.3240   -4.9050 C   0  0  0  0  0
  -25.2020   12.4560   -3.7230 C   0  0  0  0  0
  -25.3810   10.9810   -4.1300 C   0  0  0  0  0
  -24.4680   10.5790   -5.2960 C   0  0  0  0  0
  -24.6950    9.1470   -5.6230 N   0  0  0  0  0
  -25.3150    8.5890   -6.4430 N   0  0  0  0  0
  -22.9020    7.4680   -2.9490 C   0  0  0  0  0
  -24.3240    4.7550   -4.7110 N   0  0  0  0  0
  -25.3650    7.2700   -6.2150 C   0  0  0  0  0
  -25.9510    6.3770   -7.0650 C   0  0  0  0  0
  -26.1610    6.5530   -8.4510 C   0  0  0  0  0
  -25.8630    7.7400   -9.1150 C   0  0  0  0  0
  -26.1190    7.9000  -10.4720 C   0  0  0  0  0
  -26.6780    6.8670  -11.2090 C   0  0  0  0  0
  -26.9790    5.6770  -10.5690 C   0  0  0  0  0
  -26.7270    5.5200   -9.2130 C   0  0  0  0  0
  -27.0600    4.2970   -8.6570 C   0  0  0  0  0
  -26.8300    4.0980   -7.3160 C   0  0  0  0  0
  -26.2390    5.1090   -6.5880 C   0  0  0  0  0
  -22.0189   15.1856   -7.6351 H   0  0  0  0  0
  -20.9551   14.6358   -6.3171 H   0  0  0  0  0
  -20.6762   14.0684   -7.9818 H   0  0  0  0  0
  -21.7940   12.3053   -6.6260 H   0  0  0  0  0
  -22.8455   12.8487   -7.9288 H   0  0  0  0  0
  -24.2541   11.3234   -7.3346 H   0  0  0  0  0
  -25.8703   11.4293   -6.7336 H   0  0  0  0  0
  -26.5555   13.2191   -5.2445 H   0  0  0  0  0
  -25.4590   14.3894   -4.6846 H   0  0  0  0  0
  -25.8689   12.6952   -2.8947 H   0  0  0  0  0
  -24.1740   12.6304   -3.4054 H   0  0  0  0  0
  -26.4142   10.8427   -4.4484 H   0  0  0  0  0
  -25.1229   10.3612   -3.2713 H   0  0  0  0  0
  -23.4039   10.6618   -5.0749 H   0  0  0  0  0
  -22.2643    7.6448   -2.0829 H   0  0  0  0  0
  -24.9098    4.5398   -5.5178 H   0  0  0  0  0
  -23.9511    3.9999   -4.1356 H   0  0  0  0  0
  -25.4181    8.5640   -8.5571 H   0  0  0  0  0
  -25.8785    8.8444  -10.9602 H   0  0  0  0  0
  -26.8769    6.9898  -12.2736 H   0  0  0  0  0
  -27.4180    4.8555  -11.1352 H   0  0  0  0  0
  -27.4957    3.5077   -9.2696 H   0  0  0  0  0
  -27.1094    3.1592   -6.8377 H   0  0  0  0  0
  -25.9770    4.8925   -5.5523 H   0  0  0  0  0
  1  2  4  0  0  0
  1  5  4  0  0  0
 16  1  4  0  0  0
  2  3  4  0  0  0
  2 20  4  0  0  0
  3  4  4  0  0  0
  3 19  1  0  0  0
 18  4  4  0  0  0
  5 18  4  0  0  0
  7  6  1  0  0  0
  8  7  1  0  0  0
  8  9  2  0  0  0
 10  8  1  0  0  0
 11 10  1  0  0  0
 10 12  1  0  0  0
 15 11  1  0  0  0
 13 12  1  0  0  0
 14 13  1  0  0  0
 15 14  1  0  0  0
 15 16  1  0  0  0
 16 17  4  0  0  0
 17 20  4  0  0  0
 20 21  1  0  0  0
 21 22  4  0  0  0
 21 30  4  0  0  0
 22 23  4  0  0  0
 22 27  4  0  0  0
 23 24  4  0  0  0
 24 25  4  0  0  0
 25 26  4  0  0  0
 26 27  4  0  0  0
 27 28  4  0  0  0
 28 29  4  0  0  0
 29 30  4  0  0  0
  6 31  1  0  0  0
  6 32  1  0  0  0
  6 33  1  0  0  0
  7 34  1  0  0  0
  7 35  1  0  0  0
 11 36  1  0  0  0
 11 37  1  0  0  0
 12 38  1  0  0  0
 12 39  1  0  0  0
 13 40  1  0  0  0
 13 41  1  0  0  0
 14 42  1  0  0  0
 14 43  1  0  0  0
 15 44  1  0  0  0
 18 45  1  0  0  0
 19 46  1  0  0  0
 19 47  1  0  0  0
 23 48  1  0  0  0
 24 49  1  0  0  0
 25 50  1  0  0  0
 26 51  1  0  0  0
 28 52  1  0  0  0
 29 53  1  0  0  0
 30 54  1  0  0  0
M  END
$$$$
