1hmr_ligand
  -I-interpret- 

 56 55  0  0  0  0  0  0  0  0999 V2000
   19.6520   33.3030   53.6450 C   0  0  0  0  0
   18.9220   33.3060   52.3730 C   0  0  0  0  0
   19.0110   34.3390   51.7310 O   0  0  0  0  0
   18.2470   32.3160   52.1830 O   0  0  0  0  0
   20.8140   34.2570   53.8010 C   0  0  0  0  0
   21.6480   34.1750   54.9910 C   0  0  0  0  0
   22.7520   35.1680   55.1020 C   0  0  0  0  0
   23.1580   35.5220   56.5270 C   0  0  0  0  0
   23.7060   34.4290   57.3550 C   0  0  0  0  0
   23.3620   34.6370   58.8590 C   0  0  0  0  0
   21.9690   34.3740   59.1720 C   0  0  0  0  0
   21.5120   34.6910   60.4940 C   0  0  0  0  0
   20.0350   34.5380   60.6500 C   0  0  0  0  0
   19.2440   34.8740   59.4230 C   0  0  0  0  0
   17.9140   34.2150   59.3610 C   0  0  0  0  0
   17.1850   34.3750   58.0750 C   0  0  0  0  0
   17.0930   35.7700   57.5950 C   0  0  0  0  0
   16.2220   35.9090   56.3530 C   0  0  0  0  0
   15.9690   37.3870   56.0920 C   0  0  0  0  0
   17.1450   38.1910   56.5440 C   0  0  0  0  0
   18.9241   33.6100   54.3960 H   0  0  0  0  0
   20.0845   32.3059   53.7269 H   0  0  0  0  0
   19.6403   34.9258   52.1567 H   0  0  0  0  0
   20.3578   35.2458   53.8484 H   0  0  0  0  0
   21.4835   34.0175   52.9749 H   0  0  0  0  0
   22.1263   33.1962   54.9561 H   0  0  0  0  0
   20.9861   34.3655   55.8358 H   0  0  0  0  0
   22.3958   36.0879   54.6384 H   0  0  0  0  0
   23.6258   34.7217   54.6273 H   0  0  0  0  0
   22.2449   35.8463   57.0262 H   0  0  0  0  0
   23.9571   36.2578   56.4362 H   0  0  0  0  0
   24.7903   34.4179   57.2440 H   0  0  0  0  0
   23.2671   33.4877   57.0242 H   0  0  0  0  0
   23.5624   35.6807   59.1012 H   0  0  0  0  0
   23.9667   33.9364   59.4349 H   0  0  0  0  0
   21.8458   33.2957   59.0713 H   0  0  0  0  0
   21.3937   35.0139   58.5030 H   0  0  0  0  0
   21.7616   35.7335   60.6917 H   0  0  0  0  0
   21.9934   34.0011   61.1872 H   0  0  0  0  0
   19.7227   35.2311   61.4312 H   0  0  0  0  0
   19.8445   33.4887   60.8755 H   0  0  0  0  0
   19.8173   34.5259   58.5638 H   0  0  0  0  0
   19.0710   35.9501   59.4349 H   0  0  0  0  0
   17.2980   34.6824   60.1292 H   0  0  0  0  0
   18.0886   33.1468   59.4900 H   0  0  0  0  0
   16.1658   34.0253   58.2393 H   0  0  0  0  0
   17.7377   33.8133   57.3219 H   0  0  0  0  0
   18.0987   36.1018   57.3370 H   0  0  0  0  0
   16.6427   36.3674   58.3878 H   0  0  0  0  0
   15.2737   35.3944   56.5082 H   0  0  0  0  0
   16.7282   35.4646   55.4960 H   0  0  0  0  0
   15.0835   37.7033   56.6433 H   0  0  0  0  0
   15.8156   37.5427   55.0241 H   0  0  0  0  0
   17.3015   38.0351   57.6114 H   0  0  0  0  0
   18.0322   37.8748   55.9954 H   0  0  0  0  0
   16.9560   39.2475   56.3537 H   0  0  0  0  0
  1  5  1  0  0  0
  1  2  1  0  0  0
  2  4  2  0  0  0
  2  3  1  0  0  0
  5  6  1  0  0  0
  6  7  1  0  0  0
  7  8  1  0  0  0
  8  9  1  0  0  0
  9 10  1  0  0  0
 10 11  1  0  0  0
 11 12  1  0  0  0
 12 13  1  0  0  0
 13 14  1  0  0  0
 14 15  1  0  0  0
 15 16  1  0  0  0
 16 17  1  0  0  0
 17 18  1  0  0  0
 18 19  1  0  0  0
 19 20  1  0  0  0
  1 21  1  0  0  0
  1 22  1  0  0  0
  3 23  1  0  0  0
  5 24  1  0  0  0
  5 25  1  0  0  0
  6 26  1  0  0  0
  6 27  1  0  0  0
  7 28  1  0  0  0
  7 29  1  0  0  0
  8 30  1  0  0  0
  8 31  1  0  0  0
  9 32  1  0  0  0
  9 33  1  0  0  0
 10 34  1  0  0  0
 10 35  1  0  0  0
 11 36  1  0  0  0
 11 37  1  0  0  0
 12 38  1  0  0  0
 12 39  1  0  0  0
 13 40  1  0  0  0
 13 41  1  0  0  0
 14 42  1  0  0  0
 14 43  1  0  0  0
 15 44  1  0  0  0
 15 45  1  0  0  0
 16 46  1  0  0  0
 16 47  1  0  0  0
 17 48  1  0  0  0
 17 49  1  0  0  0
 18 50  1  0  0  0
 18 51  1  0  0  0
 19 52  1  0  0  0
 19 53  1  0  0  0
 20 54  1  0  0  0
 20 55  1  0  0  0
 20 56  1  0  0  0
M  END
$$$$
