6hov_ligand
  -I-interpret- 

 24 24  0  0  0  0  0  0  0  0999 V2000
   13.4960    4.7320    0.0130 C   0  0  0  0  0
   12.7630    4.0240   -0.9250 C   0  0  0  0  0
   11.4590    4.4120   -1.1920 C   0  0  0  0  0
   12.9310    5.8150    0.6810 C   0  0  0  0  0
   11.6200    6.2000    0.4090 C   0  0  0  0  0
   10.8870    5.4870   -0.5240 C   0  0  0  0  0
   13.0640    6.6230    2.8930 C   0  0  0  0  0
    9.4530    5.8950   -0.8720 C   0  0  0  0  0
    8.8050    6.7960   -0.1680 C   0  0  0  0  0
    7.3800    7.1990   -0.5790 C   0  0  0  0  0
    6.7870    6.7220   -1.5980 O   0  0  0  0  0
    6.7890    8.0600    0.1080 O   0  0  0  0  0
   14.8090    4.3480    0.2830 O   0  0  0  0  0
   13.6790    6.5170    1.6350 O   0  0  0  0  0
   13.2048    3.1743   -1.4456 H   0  0  0  0  0
   10.8761    3.8672   -1.9346 H   0  0  0  0  0
   11.1770    7.0521    0.9245 H   0  0  0  0  0
   12.1127    7.1446    2.7881 H   0  0  0  0  0
   12.8903    5.6254    3.2963 H   0  0  0  0  0
   13.7133    7.1810    3.5676 H   0  0  0  0  0
    8.9581    5.4275   -1.7232 H   0  0  0  0  0
    9.2753    7.2545    0.7019 H   0  0  0  0  0
    7.3557    6.0772   -2.0251 H   0  0  0  0  0
   15.1809    4.9304    0.9494 H   0  0  0  0  0
  1  2  4  0  0  0
  1  4  4  0  0  0
  1 13  1  0  0  0
  2  3  4  0  0  0
  3  6  4  0  0  0
  4  5  4  0  0  0
  4 14  1  0  0  0
  5  6  4  0  0  0
  6  8  1  0  0  0
 14  7  1  0  0  0
  8  9  2  0  0  0
  9 10  1  0  0  0
 10 11  1  0  0  0
 10 12  2  0  0  0
  2 15  1  0  0  0
  3 16  1  0  0  0
  5 17  1  0  0  0
  7 18  1  0  0  0
  7 19  1  0  0  0
  7 20  1  0  0  0
  8 21  1  0  0  0
  9 22  1  0  0  0
 11 23  1  0  0  0
 13 24  1  0  0  0
M  END
$$$$
