2zxa_ligand
  -I-interpret- 

 34 34  0  0  0  0  0  0  0  0999 V2000
   -1.7240   27.5490   30.6290 C   0  0  0  0  0
   -1.8180   26.5340   29.4880 C   0  0  0  0  0
   -2.0170   25.3470   29.7370 O   0  0  0  0  0
   -1.6370   27.0190   28.2630 N   0  0  0  0  0
   -1.6920   26.1940   27.0460 C   0  0  0  0  0
   -1.3680   27.0890   25.8470 C   0  0  0  0  0
    0.0770   27.3700   25.7690 N   0  3  0  0  0
    0.3170   28.4330   24.7770 C   0  0  0  0  0
    1.8100   28.7510   24.6800 C   0  0  0  0  0
   -0.2240   28.0720   23.3880 C   0  0  0  0  0
    0.5760   27.0630   22.7670 O   0  0  0  0  0
   -1.6710   27.5860   23.4720 C   0  0  0  0  0
   -2.0780   27.0950   22.1970 O   0  0  0  0  0
   -1.7510   26.4610   24.5050 C   0  0  0  0  0
   -3.0880   25.9600   24.5090 O   0  0  0  0  0
   -2.6580   27.5496   31.1909 H   0  0  0  0  0
   -0.9012   27.2758   31.2897 H   0  0  0  0  0
   -1.5460   28.5421   30.2164 H   0  0  0  0  0
   -1.4500   28.0166   28.1617 H   0  0  0  0  0
   -2.6852   25.7597   26.9321 H   0  0  0  0  0
   -0.9702   25.3799   27.1120 H   0  0  0  0  0
   -1.9516   27.9947   26.0121 H   0  0  0  0  0
    0.5735   26.5243   25.4884 H   0  0  0  0  0
    0.4143   27.6744   26.6822 H   0  0  0  0  0
   -0.2242   29.3130   25.1247 H   0  0  0  0  0
    2.1728   29.0854   25.6519 H   0  0  0  0  0
    2.3520   27.8552   24.3770 H   0  0  0  0  0
    1.9653   29.5382   23.9422 H   0  0  0  0  0
   -0.1847   28.9780   22.7833 H   0  0  0  0  0
    0.2149   26.8576   21.9015 H   0  0  0  0  0
   -2.3259   28.4059   23.7667 H   0  0  0  0  0
   -2.9866   26.7894   22.2482 H   0  0  0  0  0
   -1.0848   25.6254   24.2903 H   0  0  0  0  0
   -3.1609   25.2510   25.1521 H   0  0  0  0  0
  1  2  1  0  0  0
  2  3  2  0  0  0
  2  4  1  0  0  0
  4  5  1  0  0  0
  5  6  1  0  0  0
  6  7  1  0  0  0
  6 14  1  0  0  0
  7  8  1  0  0  0
  8  9  1  0  0  0
  8 10  1  0  0  0
 10 11  1  0  0  0
 10 12  1  0  0  0
 12 13  1  0  0  0
 12 14  1  0  0  0
 14 15  1  0  0  0
  1 16  1  0  0  0
  1 17  1  0  0  0
  1 18  1  0  0  0
  4 19  1  0  0  0
  5 20  1  0  0  0
  5 21  1  0  0  0
  6 22  1  0  0  0
  7 23  1  0  0  0
  7 24  1  0  0  0
  8 25  1  0  0  0
  9 26  1  0  0  0
  9 27  1  0  0  0
  9 28  1  0  0  0
 10 29  1  0  0  0
 11 30  1  0  0  0
 12 31  1  0  0  0
 13 32  1  0  0  0
 14 33  1  0  0  0
 15 34  1  0  0  0
M  END
$$$$
