5svx_ligand
  -I-interpret- 

193192  0  0  0  0  0  0  0  0999 V2000
   81.5020   72.7940    6.7940 N   0  3  0  0  0
   80.2970   73.0170    7.5860 C   0  0  0  0  0
   79.2940   71.9080    7.3250 C   0  0  0  0  0
   79.3440   71.2570    6.2820 O   0  0  0  0  0
   79.6900   74.3650    7.2570 C   0  0  0  0  0
   78.3840   71.7070    8.2730 N   0  0  0  0  0
   77.3140   70.7300    8.1210 C   0  0  0  0  0
   76.1380   71.3510    7.3840 C   0  0  0  0  0
   75.5650   72.3350    7.8510 O   0  0  0  0  0
   76.8510   70.2180    9.4810 C   0  0  0  0  0
   75.9030   69.0350    9.3980 C   0  0  0  0  0
   75.2050   68.7680   10.7250 C   0  0  0  0  0
   74.6420   67.4210   10.7550 N   0  0  0  0  0
   75.2540   66.3610   11.2760 C   0  0  0  0  0
   76.4480   66.4770   11.8420 N   0  0  0  0  0
   74.6620   65.1780   11.2430 N   0  0  0  0  0
   75.7730   70.7750    6.2430 N   0  0  0  0  0
   74.6560   71.2890    5.4630 C   0  0  0  0  0
   73.6110   70.2190    5.1870 C   0  0  0  0  0
   73.8620   69.0230    5.3240 O   0  0  0  0  0
   75.1210   71.8720    4.1170 C   0  0  0  0  0
   75.7500   70.8480    3.3400 O   0  0  0  0  0
   76.0970   73.0210    4.3350 C   0  0  0  0  0
   72.4240   70.6790    4.8140 N   0  0  0  0  0
   71.3700   69.8190    4.3380 C   0  0  0  0  0
   70.3970   69.3340    5.4270 C   0  0  0  0  0
   69.5340   70.4610    5.9510 C   0  0  0  0  0
   68.7100   69.9740    7.1310 C   0  0  0  0  0
   67.7610   71.0880    7.5610 C   0  0  0  0  0
   66.6210   70.7070    8.4820 N   0  3  0  0  0
   70.5650   70.5620    3.2910 C   0  0  0  0  0
   70.6360   71.7860    3.1490 O   0  0  0  0  0
   67.1260   69.9920    9.6860 C   0  0  0  0  0
   65.6250   69.8230    7.8050 C   0  0  0  0  0
   65.9450   71.9750    8.8960 C   0  0  0  0  0
   69.7710   69.7960    2.5460 N   0  0  0  0  0
   68.8830   70.3440    1.5280 C   0  0  0  0  0
   67.4400   69.9590    1.8380 C   0  0  0  0  0
   67.1720   68.8240    2.2250 O   0  0  0  0  0
   69.2620   69.8370    0.1330 C   0  0  0  0  0
   70.7600   69.8490   -0.1720 C   0  0  0  0  0
   71.2480   71.1890   -0.6730 C   0  0  0  0  0
   72.0450   71.8600   -0.0130 O   0  0  0  0  0
   70.7890   71.5800   -1.8590 N   0  0  0  0  0
   66.5180   70.9030    1.6640 N   0  0  0  0  0
   65.0890   70.6360    1.8340 C   0  0  0  0  0
   64.2830   71.0690    0.6140 C   0  0  0  0  0
   64.7170   71.9140   -0.1710 O   0  0  0  0  0
   64.5060   71.3660    3.0530 C   0  0  0  0  0
   64.5830   72.7820    2.8440 O   0  0  0  0  0
   65.2510   70.9940    4.3170 C   0  0  0  0  0
   63.0930   70.4980    0.4820 N   0  0  0  0  0
   62.1690   70.8790   -0.5760 C   0  0  0  0  0
   61.7190   72.3270   -0.4150 C   0  0  0  0  0
   61.4690   72.7920    0.6970 O   0  0  0  0  0
   60.9640   69.9500   -0.5790 C   0  0  0  0  0
   61.6280   73.0300   -1.5390 N   0  0  0  0  0
   61.1530   74.4090   -1.5750 C   0  0  0  0  0
   60.1490   74.5220   -2.7230 C   0  0  0  0  0
   60.5330   74.6070   -3.8910 O   0  0  0  0  0
   62.3280   75.3810   -1.7520 C   0  0  0  0  0
   61.9680   76.8590   -1.6630 C   0  0  0  0  0
   63.2220   77.7280   -1.6970 C   0  0  0  0  0
   63.9840   77.5340   -2.9280 N   0  0  0  0  0
   65.2660   77.8550   -3.0940 C   0  0  0  0  0
   65.9710   78.3880   -2.1060 N   0  0  0  0  0
   65.8530   77.6280   -4.2600 N   0  0  0  0  0
   58.8630   74.5000   -2.3830 N   0  0  0  0  0
   57.7990   74.4250   -3.3860 C   0  0  0  0  0
   57.8470   75.5820   -4.3810 C   0  0  0  0  0
   57.5410   75.4090   -5.5620 O   0  0  0  0  0
   56.4250   74.4040   -2.7110 C   0  0  0  0  0
   56.2940   73.4110   -1.5680 C   0  0  0  0  0
   56.1390   74.1250   -0.2350 C   0  0  0  0  0
   54.7660   74.7690   -0.0990 C   0  0  0  0  0
   54.6100   75.4770    1.2010 N   0  3  0  0  0
   58.2310   76.7610   -3.9000 N   0  0  0  0  0
   58.2280   77.9640   -4.7280 C   0  0  0  0  0
   59.2080   77.8610   -5.8990 C   0  0  0  0  0
   59.1120   78.6260   -6.8600 O   0  0  0  0  0
   58.5570   79.1930   -3.8770 C   0  0  0  0  0
   59.9190   79.2030   -3.4890 O   0  0  0  0  0
   60.1420   76.9160   -5.8150 N   0  0  0  0  0
   61.1180   76.6980   -6.8770 C   0  0  0  0  0
   61.2500   75.2160   -7.2110 C   0  0  0  0  0
   62.1720   74.8140   -7.9220 O   0  0  0  0  0
   62.5060   77.2440   -6.4890 C   0  0  0  0  0
   62.9780   76.5590   -5.3170 O   0  0  0  0  0
   62.4310   78.7380   -6.2170 C   0  0  0  0  0
   60.4360   74.4010   -6.7740 O   0  0  0  0  0
   81.8973   71.8832    7.0277 H   0  0  0  0  0
   81.2650   72.8188    5.8022 H   0  0  0  0  0
   82.1831   73.5247    7.0004 H   0  0  0  0  0
   80.5643   73.0095    8.6427 H   0  0  0  0  0
   79.4021   74.3856    6.2059 H   0  0  0  0  0
   78.8100   74.5274    7.8793 H   0  0  0  0  0
   80.4226   75.1487    7.4499 H   0  0  0  0  0
   78.4365   72.2533    9.1328 H   0  0  0  0  0
   77.7009   69.8904    7.5435 H   0  0  0  0  0
   76.3148   71.0314    9.9699 H   0  0  0  0  0
   77.7369   69.8880   10.0236 H   0  0  0  0  0
   76.4838   68.1510    9.1348 H   0  0  0  0  0
   75.1412   69.2608    8.6519 H   0  0  0  0  0
   74.3966   69.4889   10.8475 H   0  0  0  0  0
   75.9340   68.8615   11.5299 H   0  0  0  0  0
   73.7165   67.2835   10.3488 H   0  0  0  0  0
   76.9021   65.6584   12.2471 H   0  0  0  0  0
   76.9121   67.3848   11.8722 H   0  0  0  0  0
   73.7394   65.0811   10.8190 H   0  0  0  0  0
   76.2844   69.9585    5.9079 H   0  0  0  0  0
   74.2110   72.0781    6.0691 H   0  0  0  0  0
   74.2493   72.2530    3.5850 H   0  0  0  0  0
   76.0385   71.2158    2.5015 H   0  0  0  0  0
   75.6078   73.8075    4.9096 H   0  0  0  0  0
   76.9675   72.6579    4.8814 H   0  0  0  0  0
   76.4117   73.4169    3.3694 H   0  0  0  0  0
   72.2501   71.6827    4.8662 H   0  0  0  0  0
   71.8658   68.9337    3.9399 H   0  0  0  0  0
   70.9815   68.9357    6.2563 H   0  0  0  0  0
   69.7449   68.5768    4.9916 H   0  0  0  0  0
   68.8649   70.7996    5.1600 H   0  0  0  0  0
   70.1726   71.2836    6.2729 H   0  0  0  0  0
   69.3692   69.7105    7.9582 H   0  0  0  0  0
   68.1379   69.0920    6.8431 H   0  0  0  0  0
   67.2938   71.4495    6.6449 H   0  0  0  0  0
   68.3706   71.7968    8.1214 H   0  0  0  0  0
   67.6454   69.0849    9.3771 H   0  0  0  0  0
   67.8144   70.6393   10.2293 H   0  0  0  0  0
   66.2866   69.7301   10.3302 H   0  0  0  0  0
   65.2072   70.3424    6.9426 H   0  0  0  0  0
   66.1176   68.9080    7.4761 H   0  0  0  0  0
   64.8260   69.5759    8.5041 H   0  0  0  0  0
   66.6601   72.6141    9.4139 H   0  0  0  0  0
   65.5690   72.4901    8.0121 H   0  0  0  0  0
   65.1149   71.7417    9.5628 H   0  0  0  0  0
   69.7845   68.7868    2.6931 H   0  0  0  0  0
   68.9842   71.4292    1.5383 H   0  0  0  0  0
   68.7887   70.5065   -0.5852 H   0  0  0  0  0
   68.9370   68.7982    0.0760 H   0  0  0  0  0
   70.9462   69.1133   -0.9544 H   0  0  0  0  0
   71.2900   69.6269    0.7542 H   0  0  0  0  0
   71.0958   72.4675   -2.2573 H   0  0  0  0  0
   70.1303   70.9922   -2.3700 H   0  0  0  0  0
   66.8169   71.8429    1.4038 H   0  0  0  0  0
   65.0109   69.5579    1.9742 H   0  0  0  0  0
   63.4647   71.0659    3.1705 H   0  0  0  0  0
   64.2183   73.2372    3.6065 H   0  0  0  0  0
   65.1709   69.9195    4.4815 H   0  0  0  0  0
   66.3004   71.2697    4.2132 H   0  0  0  0  0
   64.8163   71.5259    5.1633 H   0  0  0  0  0
   62.8173   69.7704    1.1415 H   0  0  0  0  0
   62.6885   70.7902   -1.5301 H   0  0  0  0  0
   61.2970   68.9257   -0.7463 H   0  0  0  0  0
   60.4541   70.0153    0.3822 H   0  0  0  0  0
   60.2807   70.2459   -1.3750 H   0  0  0  0  0
   61.9024   72.5859   -2.4153 H   0  0  0  0  0
   60.6680   74.6749   -0.6358 H   0  0  0  0  0
   62.7224   75.2152   -2.7545 H   0  0  0  0  0
   63.0254   75.1797   -0.9388 H   0  0  0  0  0
   61.4441   77.0362   -0.7237 H   0  0  0  0  0
   61.3387   77.1183   -2.5143 H   0  0  0  0  0
   63.8551   77.4486   -0.8548 H   0  0  0  0  0
   62.9160   78.7729   -1.6449 H   0  0  0  0  0
   63.4962   77.1204   -3.7226 H   0  0  0  0  0
   66.9544   78.6187   -2.2479 H   0  0  0  0  0
   65.5301   78.5674   -1.2039 H   0  0  0  0  0
   65.3234   77.2095   -5.0247 H   0  0  0  0  0
   58.6110   74.5364   -1.3953 H   0  0  0  0  0
   57.9612   73.4992   -3.9380 H   0  0  0  0  0
   55.7023   74.1091   -3.4718 H   0  0  0  0  0
   56.2635   75.3961   -2.2894 H   0  0  0  0  0
   57.1959   72.8000   -1.5327 H   0  0  0  0  0
   55.4092   72.7978   -1.7393 H   0  0  0  0  0
   56.8940   74.9088   -0.1749 H   0  0  0  0  0
   56.2557   73.3921    0.5633 H   0  0  0  0  0
   54.0133   73.9824   -0.1518 H   0  0  0  0  0
   54.6501   75.4982   -0.9009 H   0  0  0  0  0
   53.6798   75.8925    1.2510 H   0  0  0  0  0
   54.7282   74.8120    1.9653 H   0  0  0  0  0
   55.3155   76.2100    1.2744 H   0  0  0  0  0
   58.5352   76.8266   -2.9286 H   0  0  0  0  0
   57.2266   78.0669   -5.1459 H   0  0  0  0  0
   57.9411   79.1667   -2.9781 H   0  0  0  0  0
   58.3589   80.0868   -4.4685 H   0  0  0  0  0
   60.0936   79.9836   -2.9581 H   0  0  0  0  0
   60.1762   76.3268   -4.9831 H   0  0  0  0  0
   60.7523   77.2362   -7.7515 H   0  0  0  0  0
   63.1972   77.0753   -7.3148 H   0  0  0  0  0
   63.8426   76.8991   -5.0754 H   0  0  0  0  0
   62.0845   79.2523   -7.1134 H   0  0  0  0  0
   61.7349   78.9225   -5.3988 H   0  0  0  0  0
   63.4200   79.1065   -5.9445 H   0  0  0  0  0
   59.7814   74.8584   -6.2412 H   0  0  0  0  0
  1  2  1  0  0  0
  2  3  1  0  0  0
  2  5  1  0  0  0
  3  4  2  0  0  0
  3  6  1  0  0  0
  6  7  1  0  0  0
  7  8  1  0  0  0
  7 10  1  0  0  0
  8  9  2  0  0  0
  8 17  1  0  0  0
 10 11  1  0  0  0
 11 12  1  0  0  0
 12 13  1  0  0  0
 13 14  1  0  0  0
 14 15  1  0  0  0
 14 16  2  0  0  0
 17 18  1  0  0  0
 18 19  1  0  0  0
 18 21  1  0  0  0
 19 20  2  0  0  0
 19 24  1  0  0  0
 21 22  1  0  0  0
 21 23  1  0  0  0
 24 25  1  0  0  0
 25 26  1  0  0  0
 25 31  1  0  0  0
 26 27  1  0  0  0
 27 28  1  0  0  0
 28 29  1  0  0  0
 29 30  1  0  0  0
 30 33  1  0  0  0
 30 34  1  0  0  0
 30 35  1  0  0  0
 31 32  2  0  0  0
 31 36  1  0  0  0
 36 37  1  0  0  0
 37 38  1  0  0  0
 37 40  1  0  0  0
 38 39  2  0  0  0
 38 45  1  0  0  0
 40 41  1  0  0  0
 41 42  1  0  0  0
 42 43  2  0  0  0
 42 44  1  0  0  0
 45 46  1  0  0  0
 46 47  1  0  0  0
 46 49  1  0  0  0
 47 48  2  0  0  0
 47 52  1  0  0  0
 49 50  1  0  0  0
 49 51  1  0  0  0
 52 53  1  0  0  0
 53 54  1  0  0  0
 53 56  1  0  0  0
 54 55  2  0  0  0
 54 57  1  0  0  0
 57 58  1  0  0  0
 58 59  1  0  0  0
 58 61  1  0  0  0
 59 60  2  0  0  0
 59 68  1  0  0  0
 61 62  1  0  0  0
 62 63  1  0  0  0
 63 64  1  0  0  0
 64 65  1  0  0  0
 65 66  1  0  0  0
 65 67  2  0  0  0
 68 69  1  0  0  0
 69 70  1  0  0  0
 69 72  1  0  0  0
 70 71  2  0  0  0
 70 77  1  0  0  0
 72 73  1  0  0  0
 73 74  1  0  0  0
 74 75  1  0  0  0
 75 76  1  0  0  0
 77 78  1  0  0  0
 78 79  1  0  0  0
 78 81  1  0  0  0
 79 80  2  0  0  0
 79 83  1  0  0  0
 81 82  1  0  0  0
 83 84  1  0  0  0
 84 85  1  0  0  0
 84 87  1  0  0  0
 85 86  2  0  0  0
 85 90  1  0  0  0
 87 88  1  0  0  0
 87 89  1  0  0  0
  1 91  1  0  0  0
  1 92  1  0  0  0
  1 93  1  0  0  0
  2 94  1  0  0  0
  5 95  1  0  0  0
  5 96  1  0  0  0
  5 97  1  0  0  0
  6 98  1  0  0  0
  7 99  1  0  0  0
 10100  1  0  0  0
 10101  1  0  0  0
 11102  1  0  0  0
 11103  1  0  0  0
 12104  1  0  0  0
 12105  1  0  0  0
 13106  1  0  0  0
 15107  1  0  0  0
 15108  1  0  0  0
 16109  1  0  0  0
 17110  1  0  0  0
 18111  1  0  0  0
 21112  1  0  0  0
 22113  1  0  0  0
 23114  1  0  0  0
 23115  1  0  0  0
 23116  1  0  0  0
 24117  1  0  0  0
 25118  1  0  0  0
 26119  1  0  0  0
 26120  1  0  0  0
 27121  1  0  0  0
 27122  1  0  0  0
 28123  1  0  0  0
 28124  1  0  0  0
 29125  1  0  0  0
 29126  1  0  0  0
 33127  1  0  0  0
 33128  1  0  0  0
 33129  1  0  0  0
 34130  1  0  0  0
 34131  1  0  0  0
 34132  1  0  0  0
 35133  1  0  0  0
 35134  1  0  0  0
 35135  1  0  0  0
 36136  1  0  0  0
 37137  1  0  0  0
 40138  1  0  0  0
 40139  1  0  0  0
 41140  1  0  0  0
 41141  1  0  0  0
 44142  1  0  0  0
 44143  1  0  0  0
 45144  1  0  0  0
 46145  1  0  0  0
 49146  1  0  0  0
 50147  1  0  0  0
 51148  1  0  0  0
 51149  1  0  0  0
 51150  1  0  0  0
 52151  1  0  0  0
 53152  1  0  0  0
 56153  1  0  0  0
 56154  1  0  0  0
 56155  1  0  0  0
 57156  1  0  0  0
 58157  1  0  0  0
 61158  1  0  0  0
 61159  1  0  0  0
 62160  1  0  0  0
 62161  1  0  0  0
 63162  1  0  0  0
 63163  1  0  0  0
 64164  1  0  0  0
 66165  1  0  0  0
 66166  1  0  0  0
 67167  1  0  0  0
 68168  1  0  0  0
 69169  1  0  0  0
 72170  1  0  0  0
 72171  1  0  0  0
 73172  1  0  0  0
 73173  1  0  0  0
 74174  1  0  0  0
 74175  1  0  0  0
 75176  1  0  0  0
 75177  1  0  0  0
 76178  1  0  0  0
 76179  1  0  0  0
 76180  1  0  0  0
 77181  1  0  0  0
 78182  1  0  0  0
 81183  1  0  0  0
 81184  1  0  0  0
 82185  1  0  0  0
 83186  1  0  0  0
 84187  1  0  0  0
 87188  1  0  0  0
 88189  1  0  0  0
 89190  1  0  0  0
 89191  1  0  0  0
 89192  1  0  0  0
 90193  1  0  0  0
M  END
$$$$
