### 
### Created by X-TOOL on Mon Sep 10 21:13:26 2018
### 

@<TRIPOS>MOLECULE
5svx_ligand
  194   193     1     0     0
SMALL
GAST_HUCK


@<TRIPOS>ATOM
      1 N          81.5020   72.7940    6.7940 N.4       1 ALA         0.2377
      2 CA         80.2970   73.0170    7.5860 C.3       1 ALA         0.0621
      3 C          79.2940   71.9080    7.3250 C.2       1 ALA         0.2264
      4 O          79.3440   71.2570    6.2820 O.2       1 ALA        -0.3907
      5 CB         79.6900   74.3650    7.2570 C.3       1 ALA        -0.0040
      6 N          78.3840   71.7070    8.2730 N.am      1 ARG        -0.2610
      7 CA         77.3140   70.7300    8.1210 C.3       1 ARG         0.1312
      8 C          76.1380   71.3510    7.3840 C.2       1 ARG         0.2040
      9 O          75.5650   72.3350    7.8510 O.2       1 ARG        -0.3944
     10 CB         76.8510   70.2180    9.4810 C.3       1 ARG        -0.0092
     11 CG         75.9030   69.0350    9.3980 C.3       1 ARG        -0.0156
     12 CD         75.2050   68.7680   10.7250 C.3       1 ARG         0.0627
     13 NE         74.6420   67.4210   10.7550 N.pl3     1 ARG        -0.2723
     14 CZ         75.2540   66.3610   11.2760 C.cat     1 ARG         0.2882
     15 NH1        76.4480   66.4770   11.8420 N.pl3     1 ARG        -0.2849
     16 NH2        74.6620   65.1780   11.2430 N.pl3     1 ARG        -0.2849
     17 N          75.7730   70.7750    6.2430 N.am      1 THR        -0.2613
     18 CA         74.6560   71.2890    5.4630 C.3       1 THR         0.1565
     19 C          73.6110   70.2190    5.1870 C.2       1 THR         0.2065
     20 O          73.8620   69.0230    5.3240 O.2       1 THR        -0.3943
     21 CB         75.1210   71.8720    4.1170 C.3       1 THR         0.0924
     22 OG1        75.7500   70.8480    3.3400 O.3       1 THR        -0.3874
     23 CG2        76.0970   73.0210    4.3350 C.3       1 THR        -0.0346
     24 N          72.4240   70.6790    4.8140 N.am      1 M3L        -0.2637
     25 CA         71.3700   69.8190    4.3380 C.3       1 M3L         0.1310
     26 CB         70.3970   69.3340    5.4270 C.3       1 M3L        -0.0122
     27 CG         69.5340   70.4610    5.9510 C.3       1 M3L        -0.0440
     28 CD         68.7100   69.9740    7.1310 C.3       1 M3L        -0.0123
     29 CE         67.7610   71.0880    7.5610 C.3       1 M3L        -0.0309
     30 NZ         66.6210   70.7070    8.4820 N.4       1 M3L         0.2369
     31 C          70.5650   70.5620    3.2910 C.2       1 M3L         0.2039
     32 O          70.6360   71.7860    3.1490 O.2       1 M3L        -0.3944
     33 CM1        67.1260   69.9920    9.6860 C.3       1 M3L        -0.0418
     34 CM2        65.6250   69.8230    7.8050 C.3       1 M3L        -0.0418
     35 CM3        65.9450   71.9750    8.8960 C.3       1 M3L        -0.0418
     36 N          69.7710   69.7960    2.5460 N.am      1 GLN        -0.2636
     37 CA         68.8830   70.3440    1.5280 C.3       1 GLN         0.1330
     38 C          67.4400   69.9590    1.8380 C.2       1 GLN         0.2041
     39 O          67.1720   68.8240    2.2250 O.2       1 GLN        -0.3944
     40 CB         69.2620   69.8370    0.1330 C.3       1 GLN         0.0045
     41 CG         70.7600   69.8490   -0.1720 C.3       1 GLN         0.0412
     42 CD         71.2480   71.1890   -0.6730 C.2       1 GLN         0.1737
     43 OE1        72.0450   71.8600   -0.0130 O.2       1 GLN        -0.3973
     44 NE2        70.7890   71.5800   -1.8590 N.am      1 GLN        -0.3009
     45 N          66.5180   70.9030    1.6640 N.am      1 THR        -0.2613
     46 CA         65.0890   70.6360    1.8340 C.3       1 THR         0.1565
     47 C          64.2830   71.0690    0.6140 C.2       1 THR         0.2065
     48 O          64.7170   71.9140   -0.1710 O.2       1 THR        -0.3943
     49 CB         64.5060   71.3660    3.0530 C.3       1 THR         0.0924
     50 OG1        64.5830   72.7820    2.8440 O.3       1 THR        -0.3874
     51 CG2        65.2510   70.9940    4.3170 C.3       1 THR        -0.0346
     52 N          63.0930   70.4980    0.4820 N.am      1 ALA        -0.2639
     53 CA         62.1690   70.8790   -0.5760 C.3       1 ALA         0.1282
     54 C          61.7190   72.3270   -0.4150 C.2       1 ALA         0.2036
     55 O          61.4690   72.7920    0.6970 O.2       1 ALA        -0.3944
     56 CB         60.9640   69.9500   -0.5790 C.3       1 ALA        -0.0244
     57 N          61.6280   73.0300   -1.5390 N.am      1 ARG        -0.2637
     58 CA         61.1530   74.4090   -1.5750 C.3       1 ARG         0.1311
     59 C          60.1490   74.5220   -2.7230 C.2       1 ARG         0.2039
     60 O          60.5330   74.6070   -3.8910 O.2       1 ARG        -0.3944
     61 CB         62.3280   75.3810   -1.7520 C.3       1 ARG        -0.0092
     62 CG         61.9680   76.8590   -1.6630 C.3       1 ARG        -0.0156
     63 CD         63.2220   77.7280   -1.6970 C.3       1 ARG         0.0627
     64 NE         63.9840   77.5340   -2.9280 N.pl3     1 ARG        -0.2723
     65 CZ         65.2660   77.8550   -3.0940 C.cat     1 ARG         0.2882
     66 NH1        65.9710   78.3880   -2.1060 N.pl3     1 ARG        -0.2849
     67 NH2        65.8530   77.6280   -4.2600 N.pl3     1 ARG        -0.2849
     68 N          58.8630   74.5000   -2.3830 N.am      1 LYS        -0.2637
     69 CA         57.7990   74.4250   -3.3860 C.3       1 LYS         0.1310
     70 C          57.8470   75.5820   -4.3810 C.2       1 LYS         0.2040
     71 O          57.5410   75.4090   -5.5620 O.2       1 LYS        -0.3944
     72 CB         56.4250   74.4040   -2.7110 C.3       1 LYS        -0.0122
     73 CG         56.2940   73.4110   -1.5680 C.3       1 LYS        -0.0440
     74 CD         56.1390   74.1250   -0.2350 C.3       1 LYS        -0.0124
     75 CE         54.7660   74.7690   -0.0990 C.3       1 LYS        -0.0354
     76 NZ         54.6100   75.4770    1.2010 N.4       1 LYS         0.2185
     77 N          58.2310   76.7610   -3.9000 N.am      1 SER        -0.2616
     78 CA         58.2280   77.9640   -4.7280 C.3       1 SER         0.1539
     79 C          59.2080   77.8610   -5.8990 C.2       1 SER         0.2057
     80 O          59.1120   78.6260   -6.8600 O.2       1 SER        -0.3943
     81 CB         58.5570   79.1930   -3.8770 C.3       1 SER         0.0843
     82 OG         59.9190   79.2030   -3.4890 O.3       1 SER        -0.3903
     83 N          60.1420   76.9160   -5.8150 N.am      1 THR        -0.2669
     84 CA         61.1180   76.6980   -6.8770 C.3       1 THR         0.1198
     85 C          61.2500   75.2160   -7.2110 C.2       1 THR         0.0626
     86 O          62.1720   74.8140   -7.9220 O.co2     1 THR        -0.5665
     87 CB         62.5060   77.2440   -6.4890 C.3       1 THR         0.0869
     88 OG1        62.9780   76.5590   -5.3170 O.3       1 THR        -0.3880
     89 CG2        62.4310   78.7380   -6.2170 C.3       1 THR        -0.0352
     90 OXT        60.4360   74.4010   -6.7740 O.co2     1 THR        -0.5665
     91 H1         82.1630   73.5338    6.9724 H         1 ALA         0.2015
     92 H2         81.2636   72.7854    5.8146 H         1 ALA         0.2015
     93 H3         81.9119   71.9088    7.0479 H         1 ALA         0.2015
     94 H4         80.5679   73.0045    8.6520 H         1 ALA         0.1095
     95 H5         78.7839   74.5166    7.8620 H         1 ALA         0.0310
     96 H6         79.4277   74.3983    6.1893 H         1 ALA         0.0310
     97 H7         80.4174   75.1592    7.4808 H         1 ALA         0.0310
     98 H8         78.4355   72.2426    9.1159 H         1 ARG         0.1884
     99 H9         77.6940   69.8809    7.5340 H         1 ARG         0.0800
    100 H10        76.3377   71.0381   10.0043 H         1 ARG         0.0313
    101 H11        77.7370   69.9130   10.0572 H         1 ARG         0.0313
    102 H12        76.4757   68.1405    9.1119 H         1 ARG         0.0301
    103 H13        75.1415   69.2433    8.6320 H         1 ARG         0.0301
    104 H14        74.3951   69.5000   10.8598 H         1 ARG         0.0689
    105 H15        75.9334   68.8723   11.5426 H         1 ARG         0.0689
    106 H16        73.7074   67.2822   10.3449 H         1 ARG         0.2642
    107 H17        76.9111   65.6484   12.2417 H         1 ARG         0.2615
    108 H18        76.9120   67.3957   11.8818 H         1 ARG         0.2615
    109 H19        73.7348   65.0781   10.8056 H         1 ARG         0.2615
    110 H20        75.1284   64.3571   11.6547 H         1 ARG         0.2615
    111 H21        76.2744   69.9745    5.9145 H         1 THR         0.1884
    112 H22        74.1831   72.0933    6.0456 H         1 THR         0.0826
    113 H23        74.2437   72.2495    3.5712 H         1 THR         0.0639
    114 H24        75.1300   70.1457    3.1825 H         1 THR         0.2101
    115 H25        76.4153   73.4214    3.3612 H         1 THR         0.0257
    116 H26        76.9760   72.6559    4.8863 H         1 THR         0.0257
    117 H27        75.6045   73.8155    4.9148 H         1 THR         0.0257
    118 H28        72.2535   71.6630    4.8652 H         1 M3L         0.1883
    119 H29        71.8361   68.9353    3.8777 H         1 M3L         0.0800
    120 H30        70.9773   68.9124    6.2610 H         1 M3L         0.0312
    121 H31        69.7465   68.5552    5.0023 H         1 M3L         0.0312
    122 H32        68.8601   70.8060    5.1530 H         1 M3L         0.0269
    123 H33        70.1768   71.2933    6.2735 H         1 M3L         0.0269
    124 H34        69.3774   69.7142    7.9659 H         1 M3L         0.0317
    125 H35        68.1296   69.0874    6.8359 H         1 M3L         0.0317
    126 H36        67.3206   71.5182    6.6494 H         1 M3L         0.0815
    127 H37        68.3604   71.8536    8.0753 H         1 M3L         0.0815
    128 H38        66.2798   69.7271   10.3369 H         1 M3L         0.0778
    129 H39        67.8209   70.6442   10.2352 H         1 M3L         0.0778
    130 H40        67.6504   69.0762    9.3756 H         1 M3L         0.0778
    131 H41        65.2349   70.3288    6.9094 H         1 M3L         0.0778
    132 H42        64.7959   69.6087    8.4954 H         1 M3L         0.0778
    133 H43        66.1108   68.8807    7.5116 H         1 M3L         0.0778
    134 H44        66.6722   72.6319    9.3957 H         1 M3L         0.0778
    135 H45        65.1234   71.7430    9.5896 H         1 M3L         0.0778
    136 H46        65.5422   72.4829    8.0073 H         1 M3L         0.0778
    137 H47        69.7842   68.8065    2.6902 H         1 GLN         0.1883
    138 H48        68.9700   71.4405    1.5395 H         1 GLN         0.0801
    139 H49        68.7571   70.4718   -0.6100 H         1 GLN         0.0337
    140 H50        68.9021   68.8021    0.0362 H         1 GLN         0.0337
    141 H51        70.9677   69.0902   -0.9408 H         1 GLN         0.0504
    142 H52        71.3075   69.5980    0.7484 H         1 GLN         0.0504
    143 H53        71.0770   72.4577   -2.2420 H         1 GLN         0.1814
    144 H54        70.1561   70.9961   -2.3674 H         1 GLN         0.1814
    145 H55        66.8111   71.8244    1.4089 H         1 THR         0.1884
    146 H56        64.9622   69.5527    1.9767 H         1 THR         0.0826
    147 H57        63.4508   71.0772    3.1673 H         1 THR         0.0639
    148 H58        64.0864   73.0139    2.0680 H         1 THR         0.2101
    149 H59        64.8132   71.5302    5.1719 H         1 THR         0.0257
    150 H60        66.3103   71.2718    4.2135 H         1 THR         0.0257
    151 H61        65.1709   69.9098    4.4842 H         1 THR         0.0257
    152 H62        62.8227   69.7846    1.1286 H         1 ALA         0.1883
    153 H63        62.6876   70.7824   -1.5412 H         1 ALA         0.0797
    154 H64        60.2736   70.2476   -1.3820 H         1 ALA         0.0277
    155 H65        60.4485   70.0150    0.3905 H         1 ALA         0.0277
    156 H66        61.2987   68.9158   -0.7478 H         1 ALA         0.0277
    157 H67        61.8970   72.5946   -2.3981 H         1 ARG         0.1883
    158 H68        60.6451   74.6439   -0.6280 H         1 ARG         0.0800
    159 H69        62.7742   75.1987   -2.7407 H         1 ARG         0.0313
    160 H70        63.0698   75.1640   -0.9693 H         1 ARG         0.0313
    161 H71        61.4283   77.0422   -0.7222 H         1 ARG         0.0301
    162 H72        61.3228   77.1244   -2.5135 H         1 ARG         0.0301
    163 H73        63.8592   77.4671   -0.8392 H         1 ARG         0.0689
    164 H74        62.9249   78.7847   -1.6252 H         1 ARG         0.0689
    165 H75        63.4914   77.1163   -3.7304 H         1 ARG         0.2642
    166 H76        66.9614   78.6300   -2.2523 H         1 ARG         0.2615
    167 H77        65.5284   78.5601   -1.1920 H         1 ARG         0.2615
    168 H78        65.3156   77.2143   -5.0352 H         1 ARG         0.2615
    169 H79        66.8467   77.8653   -4.3912 H         1 ARG         0.2615
    170 H80        58.6160   74.5357   -1.4146 H         1 LYS         0.1883
    171 H81        57.9286   73.4867   -3.9453 H         1 LYS         0.0800
    172 H82        55.6729   74.1508   -3.4727 H         1 LYS         0.0312
    173 H83        56.2221   75.4102   -2.3156 H         1 LYS         0.0312
    174 H84        57.1951   72.7809   -1.5349 H         1 LYS         0.0269
    175 H85        55.4107   72.7788   -1.7413 H         1 LYS         0.0269
    176 H86        56.9089   74.9068   -0.1574 H         1 LYS         0.0317
    177 H87        56.2732   73.3961    0.5778 H         1 LYS         0.0317
    178 H88        53.9972   73.9856   -0.1715 H         1 LYS         0.0813
    179 H89        54.6303   75.4926   -0.9163 H         1 LYS         0.0813
    180 H90        53.6910   75.8880    1.2515 H         1 LYS         0.1994
    181 H91        55.3067   76.2017    1.2747 H         1 LYS         0.1994
    182 H92        54.7266   74.8207    1.9572 H         1 LYS         0.1994
    183 H93        58.5292   76.8253   -2.9477 H         1 SER         0.1884
    184 H94        57.2163   78.0888   -5.1413 H         1 SER         0.0823
    185 H95        57.9279   79.1825   -2.9747 H         1 SER         0.0606
    186 H96        58.3447   80.1004   -4.4615 H         1 SER         0.0606
    187 H97        60.0918   79.9754   -2.9637 H         1 SER         0.2097
    188 H98        60.1755   76.3383   -4.9994 H         1 THR         0.1876
    189 H99        60.7705   77.2306   -7.7745 H         1 THR         0.0752
    190 H100       63.2065   77.0662   -7.3182 H         1 THR         0.0632
    191 H101       63.0421   75.6289   -5.4995 H         1 THR         0.2100
    192 H102       63.4285   79.1111   -5.9419 H         1 THR         0.0256
    193 H103       61.7288   78.9256   -5.3913 H         1 THR         0.0256
    194 H104       62.0815   79.2582   -7.1210 H         1 THR         0.0256
@<TRIPOS>BOND
     1    1    2 1  
     2    2    3 1  
     3    2    5 1  
     4    3    4 2  
     5    3    6 am 
     6    6    7 1  
     7    7    8 1  
     8    7   10 1  
     9    8    9 2  
    10    8   17 am 
    11   10   11 1  
    12   11   12 1  
    13   12   13 1  
    14   13   14 ar 
    15   14   15 ar 
    16   14   16 ar 
    17   17   18 1  
    18   18   19 1  
    19   18   21 1  
    20   19   20 2  
    21   19   24 am 
    22   21   22 1  
    23   21   23 1  
    24   24   25 1  
    25   25   26 1  
    26   25   31 1  
    27   26   27 1  
    28   27   28 1  
    29   28   29 1  
    30   29   30 1  
    31   30   33 1  
    32   30   34 1  
    33   30   35 1  
    34   31   32 2  
    35   31   36 am 
    36   36   37 1  
    37   37   38 1  
    38   37   40 1  
    39   38   39 2  
    40   38   45 am 
    41   40   41 1  
    42   41   42 1  
    43   42   43 2  
    44   42   44 am 
    45   45   46 1  
    46   46   47 1  
    47   46   49 1  
    48   47   48 2  
    49   47   52 am 
    50   49   50 1  
    51   49   51 1  
    52   52   53 1  
    53   53   54 1  
    54   53   56 1  
    55   54   55 2  
    56   54   57 am 
    57   57   58 1  
    58   58   59 1  
    59   58   61 1  
    60   59   60 2  
    61   59   68 am 
    62   61   62 1  
    63   62   63 1  
    64   63   64 1  
    65   64   65 ar 
    66   65   66 ar 
    67   65   67 ar 
    68   68   69 1  
    69   69   70 1  
    70   69   72 1  
    71   70   71 2  
    72   70   77 am 
    73   72   73 1  
    74   73   74 1  
    75   74   75 1  
    76   75   76 1  
    77   77   78 1  
    78   78   79 1  
    79   78   81 1  
    80   79   80 2  
    81   79   83 am 
    82   81   82 1  
    83   83   84 1  
    84   84   85 1  
    85   84   87 1  
    86   85   86 ar 
    87   85   90 ar 
    88   87   88 1  
    89   87   89 1  
    90    1   91 1  
    91    1   92 1  
    92    1   93 1  
    93    2   94 1  
    94    5   95 1  
    95    5   96 1  
    96    5   97 1  
    97    6   98 1  
    98    7   99 1  
    99   10  100 1  
   100   10  101 1  
   101   11  102 1  
   102   11  103 1  
   103   12  104 1  
   104   12  105 1  
   105   13  106 1  
   106   15  107 1  
   107   15  108 1  
   108   16  109 1  
   109   16  110 1  
   110   17  111 1  
   111   18  112 1  
   112   21  113 1  
   113   22  114 1  
   114   23  115 1  
   115   23  116 1  
   116   23  117 1  
   117   24  118 1  
   118   25  119 1  
   119   26  120 1  
   120   26  121 1  
   121   27  122 1  
   122   27  123 1  
   123   28  124 1  
   124   28  125 1  
   125   29  126 1  
   126   29  127 1  
   127   33  128 1  
   128   33  129 1  
   129   33  130 1  
   130   34  131 1  
   131   34  132 1  
   132   34  133 1  
   133   35  134 1  
   134   35  135 1  
   135   35  136 1  
   136   36  137 1  
   137   37  138 1  
   138   40  139 1  
   139   40  140 1  
   140   41  141 1  
   141   41  142 1  
   142   44  143 1  
   143   44  144 1  
   144   45  145 1  
   145   46  146 1  
   146   49  147 1  
   147   50  148 1  
   148   51  149 1  
   149   51  150 1  
   150   51  151 1  
   151   52  152 1  
   152   53  153 1  
   153   56  154 1  
   154   56  155 1  
   155   56  156 1  
   156   57  157 1  
   157   58  158 1  
   158   61  159 1  
   159   61  160 1  
   160   62  161 1  
   161   62  162 1  
   162   63  163 1  
   163   63  164 1  
   164   64  165 1  
   165   66  166 1  
   166   66  167 1  
   167   67  168 1  
   168   67  169 1  
   169   68  170 1  
   170   69  171 1  
   171   72  172 1  
   172   72  173 1  
   173   73  174 1  
   174   73  175 1  
   175   74  176 1  
   176   74  177 1  
   177   75  178 1  
   178   75  179 1  
   179   76  180 1  
   180   76  181 1  
   181   76  182 1  
   182   77  183 1  
   183   78  184 1  
   184   81  185 1  
   185   81  186 1  
   186   82  187 1  
   187   83  188 1  
   188   84  189 1  
   189   87  190 1  
   190   88  191 1  
   191   89  192 1  
   192   89  193 1  
   193   89  194 1  
@<TRIPOS>SUBSTRUCTURE
     1 ALA         1

