4zjj_ligand
  -I-interpret- 

 61 64  0  0  0  0  0  0  0  0999 V2000
   13.4030   46.4810   47.1040 C   0  0  0  0  0
   11.3400   45.3200   46.2940 C   0  0  0  0  0
   10.8480   45.1040   47.5840 C   0  0  0  0  0
   14.1050   44.7730   39.7490 C   0  0  0  0  0
   13.1240   43.5600   41.6050 C   0  0  0  0  0
   15.6010   43.5640   41.3550 C   0  0  0  0  0
   18.1490   43.6830   40.8100 C   0  0  0  0  0
   18.5370   44.2620   42.1630 C   0  0  0  0  0
   18.9780   44.3300   39.7120 C   0  0  0  0  0
   18.3940   42.1860   40.8030 C   0  0  0  0  0
   11.6070   47.2040   43.9070 C   0  0  0  0  0
   11.1130   48.2910   43.1820 C   0  0  0  0  0
   11.0480   49.5370   43.7690 C   0  0  0  0  0
   11.4700   49.7460   45.0650 C   0  0  0  0  0
   11.9720   48.6760   45.7940 C   0  0  0  0  0
   12.0290   47.3930   45.2420 C   0  0  0  0  0
   10.3850   50.8690   42.8560 Cl  0  0  0  0  0
   12.3870   46.2770   46.0620 N   0  0  0  0  0
   14.3330   45.3000   47.2820 C   0  0  0  0  0
   11.6120   45.8510   43.2950 C   0  0  0  0  0
   11.2130   44.7280   43.8860 N   0  0  0  0  0
   10.7180   44.6800   45.2030 C   0  0  0  0  0
    9.5810   43.8940   45.4180 C   0  0  0  0  0
    9.1300   43.7340   46.7040 C   0  0  0  0  0
    8.0380   42.9410   46.9090 F   0  0  0  0  0
    9.7380   44.3070   47.7940 C   0  0  0  0  0
   12.0710   45.8040   42.0110 N   0  0  0  0  0
   12.1370   44.6310   41.1370 C   0  0  0  0  0
   14.3600   43.9270   40.9250 N   0  0  0  0  0
   12.5900   44.9570   39.7510 C   0  0  0  0  0
   15.7630   42.9370   42.3970 O   0  0  0  0  0
   16.7150   43.9430   40.5510 N   0  0  0  0  0
   12.8783   46.6293   48.0478 H   0  0  0  0  0
   14.0116   47.3344   46.8049 H   0  0  0  0  0
   11.3454   45.5695   48.4349 H   0  0  0  0  0
   14.4656   44.3187   38.8262 H   0  0  0  0  0
   14.6375   45.7228   39.7990 H   0  0  0  0  0
   12.7946   42.5496   41.3627 H   0  0  0  0  0
   13.2324   43.5328   42.6893 H   0  0  0  0  0
   19.5936   44.0699   42.3495 H   0  0  0  0  0
   18.3565   45.3369   42.1620 H   0  0  0  0  0
   17.9378   43.7924   42.9431 H   0  0  0  0  0
   18.7980   45.4050   39.7082 H   0  0  0  0  0
   20.0351   44.1380   39.8957 H   0  0  0  0  0
   18.6932   43.9092   38.7477 H   0  0  0  0  0
   19.4500   41.9911   40.9899 H   0  0  0  0  0
   17.7932   41.7171   41.5823 H   0  0  0  0  0
   18.1142   41.7779   39.8318 H   0  0  0  0  0
   10.7793   48.1544   42.1534 H   0  0  0  0  0
   11.4103   50.7385   45.5116 H   0  0  0  0  0
   12.3268   48.8390   46.8117 H   0  0  0  0  0
   13.7522   44.4205   47.5601 H   0  0  0  0  0
   14.8587   45.1089   46.3465 H   0  0  0  0  0
   15.0554   45.5231   48.0672 H   0  0  0  0  0
    9.0652   43.4196   44.5832 H   0  0  0  0  0
    9.3547   44.1375   48.8002 H   0  0  0  0  0
   12.4051   46.6832   41.6163 H   0  0  0  0  0
   11.1096   44.2680   41.1652 H   0  0  0  0  0
   12.1127   44.3079   39.0169 H   0  0  0  0  0
   12.3158   45.9753   39.4754 H   0  0  0  0  0
   16.4984   44.4542   39.6953 H   0  0  0  0  0
 18  1  1  0  0  0
  1 19  1  0  0  0
  2  3  4  0  0  0
  2 18  1  0  0  0
 22  2  4  0  0  0
  3 26  4  0  0  0
 29  4  1  0  0  0
  4 30  1  0  0  0
 28  5  1  0  0  0
  5 29  1  0  0  0
 29  6  1  0  0  0
  6 31  2  0  0  0
  6 32  1  0  0  0
  7  8  1  0  0  0
  7  9  1  0  0  0
  7 10  1  0  0  0
 32  7  1  0  0  0
 11 12  4  0  0  0
 11 16  4  0  0  0
 20 11  1  0  0  0
 12 13  4  0  0  0
 13 14  4  0  0  0
 13 17  1  0  0  0
 15 14  4  0  0  0
 16 15  4  0  0  0
 16 18  1  0  0  0
 20 21  2  0  0  0
 27 20  1  0  0  0
 21 22  1  0  0  0
 22 23  4  0  0  0
 23 24  4  0  0  0
 24 25  1  0  0  0
 24 26  4  0  0  0
 27 28  1  0  0  0
 28 30  1  0  0  0
  1 33  1  0  0  0
  1 34  1  0  0  0
  3 35  1  0  0  0
  4 36  1  0  0  0
  4 37  1  0  0  0
  5 38  1  0  0  0
  5 39  1  0  0  0
  8 40  1  0  0  0
  8 41  1  0  0  0
  8 42  1  0  0  0
  9 43  1  0  0  0
  9 44  1  0  0  0
  9 45  1  0  0  0
 10 46  1  0  0  0
 10 47  1  0  0  0
 10 48  1  0  0  0
 12 49  1  0  0  0
 14 50  1  0  0  0
 15 51  1  0  0  0
 19 52  1  0  0  0
 19 53  1  0  0  0
 19 54  1  0  0  0
 23 55  1  0  0  0
 26 56  1  0  0  0
 27 57  1  0  0  0
 28 58  1  0  0  0
 30 59  1  0  0  0
 30 60  1  0  0  0
 32 61  1  0  0  0
M  END
$$$$
