1y3n_ligand
  -I-interpret- 

 40 41  0  0  0  0  0  0  0  0999 V2000
  -14.7140   -8.1860   24.9430 C   0  0  0  0  0
  -13.1820   -8.0830   24.9120 C   0  0  0  0  0
  -12.7880   -6.7860   25.3210 O   0  0  0  0  0
  -12.6140   -9.0900   25.8690 C   0  0  0  0  0
  -11.1880   -9.1130   25.8680 O   0  0  0  0  0
  -13.2830   -9.2040   27.1900 C   0  0  0  0  0
  -14.6870   -8.9270   27.2730 C   0  0  0  0  0
  -15.2290   -8.0450   26.2840 O   0  0  0  0  0
  -15.2500   -8.7510   28.5800 C   0  0  0  0  0
  -16.0910   -7.8330   28.7200 O   0  0  0  0  0
  -14.8600   -9.4670   29.5180 O   0  0  0  0  0
  -18.7700   -5.9440   22.3480 C   0  0  0  0  0
  -18.8900   -6.3390   23.8300 C   0  0  0  0  0
  -19.4980   -7.6150   23.9400 O   0  0  0  0  0
  -17.5160   -6.3640   24.5120 C   0  0  0  0  0
  -17.6460   -6.9140   25.8160 O   0  0  0  0  0
  -16.5360   -7.2050   23.6860 C   0  0  0  0  0
  -15.2140   -7.1080   24.2340 O   0  0  0  0  0
  -16.4930   -6.6840   22.2610 C   0  0  0  0  0
  -17.8050   -6.7720   21.6710 O   0  0  0  0  0
  -15.4760   -7.4500   21.4330 C   0  0  0  0  0
  -14.2690   -7.1340   21.5530 O   0  0  0  0  0
  -15.8700   -8.3760   20.6930 O   0  0  0  0  0
  -18.3570   -4.6250   22.2500 O   0  0  0  0  0
  -15.0010   -9.1555   24.5357 H   0  0  0  0  0
  -12.8184   -8.2729   23.9021 H   0  0  0  0  0
  -13.1483   -6.1366   24.7126 H   0  0  0  0  0
  -12.8993  -10.0549   25.4498 H   0  0  0  0  0
  -10.8684   -9.0330   24.9663 H   0  0  0  0  0
  -12.7188   -9.4920   28.0770 H   0  0  0  0  0
  -16.2462   -7.4107   27.8720 H   0  0  0  0  0
  -19.7473   -6.0762   21.8839 H   0  0  0  0  0
  -19.5069   -5.5921   24.3296 H   0  0  0  0  0
  -19.5698   -7.8552   24.8667 H   0  0  0  0  0
  -17.1312   -5.3468   24.5849 H   0  0  0  0  0
  -16.7862   -6.9296   26.2427 H   0  0  0  0  0
  -16.8717   -8.2418   23.7054 H   0  0  0  0  0
  -16.1836   -5.6390   22.2791 H   0  0  0  0  0
  -14.1909   -6.4008   22.1678 H   0  0  0  0  0
  -18.2832   -4.3819   21.3242 H   0  0  0  0  0
  1  2  1  0  0  0
  1  8  1  0  0  0
 18  1  1  0  0  0
  2  3  1  0  0  0
  2  4  1  0  0  0
  4  5  1  0  0  0
  4  6  1  0  0  0
  7  6  2  0  0  0
  8  7  1  0  0  0
  7  9  1  0  0  0
  9 10  1  0  0  0
  9 11  2  0  0  0
 13 12  1  0  0  0
 12 20  1  0  0  0
 12 24  1  0  0  0
 13 14  1  0  0  0
 15 13  1  0  0  0
 15 16  1  0  0  0
 17 15  1  0  0  0
 17 18  1  0  0  0
 17 19  1  0  0  0
 19 20  1  0  0  0
 19 21  1  0  0  0
 21 22  1  0  0  0
 21 23  2  0  0  0
  1 25  1  0  0  0
  2 26  1  0  0  0
  3 27  1  0  0  0
  4 28  1  0  0  0
  5 29  1  0  0  0
  6 30  1  0  0  0
 10 31  1  0  0  0
 12 32  1  0  0  0
 13 33  1  0  0  0
 14 34  1  0  0  0
 15 35  1  0  0  0
 16 36  1  0  0  0
 17 37  1  0  0  0
 19 38  1  0  0  0
 22 39  1  0  0  0
 24 40  1  0  0  0
M  END
$$$$
