3il6_ligand
  -I-interpret- 

 61 64  0  0  0  0  0  0  0  0999 V2000
 -139.8340  138.9180   93.6360 C   0  0  0  0  0
 -139.2360  138.5250   92.3670 C   0  0  0  0  0
 -139.0470  139.5350   91.3580 C   0  0  0  0  0
 -139.4350  140.8810   91.5770 C   0  0  0  0  0
 -140.0190  141.2590   92.8070 C   0  0  0  0  0
 -140.2150  140.2930   93.8290 C   0  0  0  0  0
 -140.1090  138.0050   94.8170 C   0  0  0  0  0
 -139.7580  136.7100   94.6420 O   0  0  0  0  0
 -140.6030  138.3570   95.8710 O   0  0  0  0  0
 -138.8720  137.1640   92.1570 N   0  0  0  0  0
 -138.2790  136.5190   91.0890 C   0  0  0  0  0
 -137.8850  137.0300   90.0320 O   0  0  0  0  0
 -138.1730  135.0370   91.2590 C   0  0  0  0  0
 -137.9430  134.3930   92.5080 C   0  0  0  0  0
 -137.8890  132.9630   92.5740 C   0  0  0  0  0
 -138.0640  132.1340   91.3940 C   0  0  0  0  0
 -138.2890  132.8290   90.1410 C   0  0  0  0  0
 -138.3440  134.2520   90.0900 C   0  0  0  0  0
 -138.4590  132.0650   88.9760 O   0  0  0  0  0
 -137.5740  132.1680   87.8810 C   0  0  0  0  0
 -136.2580  132.7620   87.9190 C   0  0  0  0  0
 -135.4610  132.8060   86.7430 C   0  0  0  0  0
 -135.9570  132.2620   85.5270 C   0  0  0  0  0
 -137.2510  131.6730   85.4830 C   0  0  0  0  0
 -138.0560  131.6270   86.6560 C   0  0  0  0  0
 -138.0260  130.7120   91.4340 N   0  0  0  0  0
 -136.7660  130.0950   90.9160 C   0  0  0  0  0
 -136.9910  128.5800   90.6790 C   0  0  0  0  0
 -137.4040  127.9070   92.0110 C   0  0  0  0  0
 -138.6800  128.5700   92.5680 C   0  0  0  0  0
 -138.4350  130.0920   92.7570 C   0  0  0  0  0
 -139.0860  127.9230   93.8940 C   0  0  0  0  0
 -135.7200  127.9360   90.1380 C   0  0  0  0  0
 -138.5958  139.2586   90.4051 H   0  0  0  0  0
 -139.2826  141.6253   90.7954 H   0  0  0  0  0
 -140.3195  142.2938   92.9715 H   0  0  0  0  0
 -140.6614  140.5975   94.7756 H   0  0  0  0  0
 -139.3857  136.5963   93.7645 H   0  0  0  0  0
 -139.0901  136.5508   92.9424 H   0  0  0  0  0
 -137.8083  134.9869   93.4120 H   0  0  0  0  0
 -137.7116  132.4835   93.5367 H   0  0  0  0  0
 -138.5208  134.7465   89.1348 H   0  0  0  0  0
 -135.8754  133.1773   88.8513 H   0  0  0  0  0
 -134.4692  133.2570   86.7736 H   0  0  0  0  0
 -135.3443  132.2963   84.6262 H   0  0  0  0  0
 -137.6270  131.2559   84.5488 H   0  0  0  0  0
 -139.0470  131.1750   86.6159 H   0  0  0  0  0
 -135.9675  130.2337   91.6449 H   0  0  0  0  0
 -136.4879  130.5721   89.9762 H   0  0  0  0  0
 -137.7855  128.4458   89.9450 H   0  0  0  0  0
 -136.5969  128.0217   92.7345 H   0  0  0  0  0
 -137.5999  126.8499   91.8314 H   0  0  0  0  0
 -139.4947  128.4260   91.8584 H   0  0  0  0  0
 -139.3518  130.5646   93.1095 H   0  0  0  0  0
 -137.6401  130.2421   93.4876 H   0  0  0  0  0
 -139.2783  126.8619   93.7352 H   0  0  0  0  0
 -138.2795  128.0431   94.6174 H   0  0  0  0  0
 -139.9883  128.4047   94.2706 H   0  0  0  0  0
 -135.4483  128.4084   89.1940 H   0  0  0  0  0
 -134.9123  128.0685   90.8578 H   0  0  0  0  0
 -135.8936  126.8721   89.9766 H   0  0  0  0  0
  1  2  4  0  0  0
  1  6  4  0  0  0
  1  7  1  0  0  0
  2  3  4  0  0  0
  2 10  1  0  0  0
  3  4  4  0  0  0
  4  5  4  0  0  0
  5  6  4  0  0  0
  7  8  1  0  0  0
  7  9  2  0  0  0
 10 11  1  0  0  0
 11 12  2  0  0  0
 11 13  1  0  0  0
 13 14  4  0  0  0
 13 18  4  0  0  0
 14 15  4  0  0  0
 15 16  4  0  0  0
 16 17  4  0  0  0
 16 26  1  0  0  0
 17 18  4  0  0  0
 17 19  1  0  0  0
 19 20  1  0  0  0
 20 21  4  0  0  0
 20 25  4  0  0  0
 21 22  4  0  0  0
 22 23  4  0  0  0
 23 24  4  0  0  0
 24 25  4  0  0  0
 26 27  1  0  0  0
 26 31  1  0  0  0
 27 28  1  0  0  0
 28 29  1  0  0  0
 28 33  1  0  0  0
 29 30  1  0  0  0
 30 31  1  0  0  0
 30 32  1  0  0  0
  3 34  1  0  0  0
  4 35  1  0  0  0
  5 36  1  0  0  0
  6 37  1  0  0  0
  8 38  1  0  0  0
 10 39  1  0  0  0
 14 40  1  0  0  0
 15 41  1  0  0  0
 18 42  1  0  0  0
 21 43  1  0  0  0
 22 44  1  0  0  0
 23 45  1  0  0  0
 24 46  1  0  0  0
 25 47  1  0  0  0
 27 48  1  0  0  0
 27 49  1  0  0  0
 28 50  1  0  0  0
 29 51  1  0  0  0
 29 52  1  0  0  0
 30 53  1  0  0  0
 31 54  1  0  0  0
 31 55  1  0  0  0
 32 56  1  0  0  0
 32 57  1  0  0  0
 32 58  1  0  0  0
 33 59  1  0  0  0
 33 60  1  0  0  0
 33 61  1  0  0  0
M  END
$$$$
