2ay5_ligand
  -I-interpret- 

 24 25  0  0  0  0  0  0  0  0999 V2000
  102.7500   47.2000   13.0140 C   0  0  0  0  0
  103.1190   46.6940   14.0900 O   0  0  0  0  0
  102.1640   48.3010   12.9540 O   0  0  0  0  0
  102.9580   46.4340   11.7300 C   0  0  0  0  0
  101.6630   46.2530   10.9590 C   0  0  0  0  0
   99.0480   44.9850   13.2310 N   0  0  0  0  0
   99.8030   45.9970   12.6880 C   0  0  0  0  0
  100.6350   45.5030   11.7270 C   0  0  0  0  0
  100.3750   44.0950   11.6520 C   0  0  0  0  0
  100.8880   43.0560   10.8750 C   0  0  0  0  0
  100.4030   41.7710   11.0750 C   0  0  0  0  0
   99.4160   41.5110   12.0370 C   0  0  0  0  0
   98.8920   42.5130   12.8140 C   0  0  0  0  0
   99.3810   43.8080   12.6110 C   0  0  0  0  0
  101.9676   48.5082   12.0374 H   0  0  0  0  0
  103.3456   45.4467   11.9813 H   0  0  0  0  0
  103.6504   46.9981   11.1052 H   0  0  0  0  0
  101.8882   45.6828   10.0578 H   0  0  0  0  0
  101.2618   47.2433   10.7434 H   0  0  0  0  0
   99.7451   47.0446   12.9833 H   0  0  0  0  0
  101.6550   43.2497   10.1252 H   0  0  0  0  0
  100.7956   40.9504   10.4746 H   0  0  0  0  0
   99.0574   40.4904   12.1702 H   0  0  0  0  0
   98.1246   42.3081   13.5604 H   0  0  0  0  0
  1  2  2  0  0  0
  1  3  1  0  0  0
  4  1  1  0  0  0
  5  4  1  0  0  0
  8  5  1  0  0  0
  7  6  4  0  0  0
  6 14  4  0  0  0
  7  8  4  0  0  0
  8  9  4  0  0  0
  9 10  4  0  0  0
  9 14  4  0  0  0
 10 11  4  0  0  0
 11 12  4  0  0  0
 12 13  4  0  0  0
 13 14  4  0  0  0
  3 15  1  0  0  0
  4 16  1  0  0  0
  4 17  1  0  0  0
  5 18  1  0  0  0
  5 19  1  0  0  0
  7 20  1  0  0  0
 10 21  1  0  0  0
 11 22  1  0  0  0
 12 23  1  0  0  0
 13 24  1  0  0  0
M  END
$$$$
