5wlv_ligand
  -I-interpret- 

 60 61  0  0  0  0  0  0  0  0999 V2000
   -5.2970    2.3500   16.0930 C   0  0  0  0  0
   -4.0130    2.3740   15.6780 C   0  0  0  0  0
   -3.5320    3.4540   15.0120 C   0  0  0  0  0
   -4.3650    4.5060   14.7890 C   0  0  0  0  0
   -5.6560    4.4780   15.1910 C   0  0  0  0  0
   -6.1360    3.3910   15.8480 C   0  0  0  0  0
   -5.9520    0.9040   17.0000 S   0  0  0  0  0
   -5.4790    0.9490   18.3360 O   0  0  0  0  0
   -7.3390    1.0310   16.9350 O   0  0  0  0  0
   -5.3240   -0.4890   16.2970 N   0  0  0  0  0
   -3.8760    5.7230   14.0460 C   0  0  0  0  0
   -4.8710    5.8690   12.9210 C   0  0  0  0  0
   -4.6570    7.0460   12.1450 N   0  0  0  0  0
   -5.6450    7.5120   11.1890 C   0  0  0  0  0
   -6.6130    6.9200   10.9540 O   0  0  0  0  0
   -5.1330    8.7330   10.4260 C   0  0  0  0  0
   -5.8690    9.3750    9.4830 C   0  0  0  0  0
   -5.3320   10.4300    8.7650 C   0  0  0  0  0
   -4.0170   10.8150    8.9520 C   0  0  0  0  0
   -3.2720   10.1450    9.8850 C   0  0  0  0  0
   -3.8210    9.0720   10.5900 C   0  0  0  0  0
   -3.4780   11.8710    8.2070 O   0  0  0  0  0
   -3.6070   11.6880    6.8240 C   0  0  0  0  0
   -2.5100   12.4240    6.0870 C   0  0  0  0  0
   -1.3240   11.7230    6.2290 O   0  0  0  0  0
   -2.4430   13.8440    6.6560 C   0  0  0  0  0
   -1.6850   14.0470    7.8920 N   0  3  0  0  0
   -0.4350   14.6500    7.5020 C   0  0  0  0  0
   -0.0680   15.9460    8.1980 C   0  0  0  0  0
    0.7820   13.7570    7.4940 C   0  0  0  0  0
   -3.3609    1.5239   15.8783 H   0  0  0  0  0
   -2.4997    3.4780   14.6630 H   0  0  0  0  0
   -6.3098    5.3262   14.9880 H   0  0  0  0  0
   -7.1757    3.3538   16.1732 H   0  0  0  0  0
   -4.7231   -1.1084   16.8408 H   0  0  0  0  0
   -5.5440   -0.7144   15.3269 H   0  0  0  0  0
   -2.8525    5.6118   13.6880 H   0  0  0  0  0
   -3.8272    6.6087   14.6794 H   0  0  0  0  0
   -5.8660    5.9351   13.3612 H   0  0  0  0  0
   -4.7584    5.0086   12.2613 H   0  0  0  0  0
   -3.7911    7.5718   12.2642 H   0  0  0  0  0
   -6.8933    9.0566    9.2891 H   0  0  0  0  0
   -5.9525   10.9629    8.0445 H   0  0  0  0  0
   -2.2439   10.4511   10.0787 H   0  0  0  0  0
   -3.1968    8.5005   11.2769 H   0  0  0  0  0
   -4.5727   12.0792    6.5038 H   0  0  0  0  0
   -3.5322   10.6240    6.5993 H   0  0  0  0  0
   -2.7047   12.4967    5.0170 H   0  0  0  0  0
   -0.6229   12.1848    5.7634 H   0  0  0  0  0
   -3.4720   14.1100    6.8979 H   0  0  0  0  0
   -1.9307   14.4376    5.8989 H   0  0  0  0  0
   -1.5315   13.1639    8.3787 H   0  0  0  0  0
   -2.1949   14.6449    8.5423 H   0  0  0  0  0
   -0.6940   14.8717    6.4667 H   0  0  0  0  0
   -0.8365   16.6933    8.0004 H   0  0  0  0  0
    0.0043   15.7725    9.2717 H   0  0  0  0  0
    0.8911   16.3007    7.8205 H   0  0  0  0  0
    0.9466   13.3603    8.4958 H   0  0  0  0  0
    0.6225   12.9338    6.7976 H   0  0  0  0  0
    1.6526   14.3343    7.1829 H   0  0  0  0  0
  1  2  4  0  0  0
  1  6  4  0  0  0
  1  7  1  0  0  0
  2  3  4  0  0  0
  3  4  4  0  0  0
  4  5  4  0  0  0
  4 11  1  0  0  0
  5  6  4  0  0  0
  7  8  2  0  0  0
  7  9  2  0  0  0
  7 10  1  0  0  0
 11 12  1  0  0  0
 12 13  1  0  0  0
 13 14  1  0  0  0
 14 15  2  0  0  0
 14 16  1  0  0  0
 16 17  4  0  0  0
 16 21  4  0  0  0
 17 18  4  0  0  0
 18 19  4  0  0  0
 19 20  4  0  0  0
 19 22  1  0  0  0
 20 21  4  0  0  0
 22 23  1  0  0  0
 23 24  1  0  0  0
 24 25  1  0  0  0
 24 26  1  0  0  0
 26 27  1  0  0  0
 27 28  1  0  0  0
 28 29  1  0  0  0
 28 30  1  0  0  0
  2 31  1  0  0  0
  3 32  1  0  0  0
  5 33  1  0  0  0
  6 34  1  0  0  0
 10 35  1  0  0  0
 10 36  1  0  0  0
 11 37  1  0  0  0
 11 38  1  0  0  0
 12 39  1  0  0  0
 12 40  1  0  0  0
 13 41  1  0  0  0
 17 42  1  0  0  0
 18 43  1  0  0  0
 20 44  1  0  0  0
 21 45  1  0  0  0
 23 46  1  0  0  0
 23 47  1  0  0  0
 24 48  1  0  0  0
 25 49  1  0  0  0
 26 50  1  0  0  0
 26 51  1  0  0  0
 27 52  1  0  0  0
 27 53  1  0  0  0
 28 54  1  0  0  0
 29 55  1  0  0  0
 29 56  1  0  0  0
 29 57  1  0  0  0
 30 58  1  0  0  0
 30 59  1  0  0  0
 30 60  1  0  0  0
M  END
$$$$
