4pv5_ligand
  -I-interpret- 

 80 84  0  0  0  0  0  0  0  0999 V2000
   15.7620    3.0170   23.5270 C   0  0  0  0  0
   16.7300    2.6540   24.6520 C   0  0  0  0  0
   16.7250    1.1640   24.9150 C   0  0  0  0  0
   15.3500    0.6260   25.3530 C   0  0  0  0  0
   14.2890    1.7550   25.1290 C   0  0  0  0  0
   12.8600    1.3740   25.5180 C   0  0  0  0  0
   12.0690    2.6470   25.8190 C   0  0  0  0  0
   11.9860    3.6010   24.6170 C   0  0  0  0  0
   13.4060    3.8080   23.9900 C   0  0  0  0  0
   14.3190    2.5370   23.7720 C   0  0  0  0  0
   13.3100    4.7610   22.8020 C   0  0  0  0  0
   12.2860    5.8090   22.8740 C   0  0  0  0  0
   11.3990    5.9500   23.8660 C   0  0  0  0  0
   11.4570    5.0190   25.0820 C   0  0  0  0  0
   10.0820    4.8500   25.7600 C   0  0  0  0  0
    9.2360    6.1080   25.7740 C   0  0  0  0  0
    8.9890    6.6670   24.3690 C   0  0  0  0  0
   10.3510    7.0580   23.7400 C   0  0  0  0  0
   13.8940    1.6890   22.5590 C   0  0  0  0  0
   10.8820    8.4200   24.2260 C   0  0  0  0  0
    9.9100    9.6000   24.0110 C   0  0  0  0  0
    8.5230    9.0740   23.6150 C   0  0  0  0  0
    8.0820    7.9020   24.4710 C   0  0  0  0  0
   15.0670   -0.6890   24.6290 C   0  0  0  0  0
   15.4050    0.3150   26.8480 C   0  0  0  0  0
   11.0060    2.9820   23.6020 C   0  0  0  0  0
   12.3890    5.6790   26.0950 C   0  0  0  0  0
    8.2880    5.6090   23.5070 C   0  0  0  0  0
   10.2980   10.5240   22.8630 C   0  0  0  0  0
    9.8110   10.4230   25.3020 C   0  0  0  0  0
   17.2100    0.4730   23.7580 O   0  0  0  0  0
   14.0260    4.6760   21.8160 O   0  0  0  0  0
   11.4000   10.2120   22.2200 O   0  0  0  0  0
    9.5820   11.4650   22.5630 O   0  0  0  0  0
   16.1184    2.5281   22.6203 H   0  0  0  0  0
   15.7362    4.1045   23.4578 H   0  0  0  0  0
   16.4184    3.1696   25.5603 H   0  0  0  0  0
   17.7358    2.9528   24.3568 H   0  0  0  0  0
   17.3909    0.9791   25.7579 H   0  0  0  0  0
   14.6558    2.4826   25.8530 H   0  0  0  0  0
   12.8777    0.7352   26.4010 H   0  0  0  0  0
   12.3878    0.8335   24.6976 H   0  0  0  0  0
   12.5804    3.1727   26.6254 H   0  0  0  0  0
   11.0525    2.3524   26.0798 H   0  0  0  0  0
   13.9998    4.2810   24.7721 H   0  0  0  0  0
   12.2444    6.5285   22.0562 H   0  0  0  0  0
   10.2675    4.5761   26.7986 H   0  0  0  0  0
    9.5330    4.1001   25.1905 H   0  0  0  0  0
    9.7704    6.8655   26.3474 H   0  0  0  0  0
    8.2691    5.8573   26.2102 H   0  0  0  0  0
   10.1510    7.1800   22.6755 H   0  0  0  0  0
   12.8709    1.3410   22.7011 H   0  0  0  0  0
   13.9505    2.2959   21.6553 H   0  0  0  0  0
   14.5609    0.8320   22.4649 H   0  0  0  0  0
   11.7800    8.6370   23.6476 H   0  0  0  0  0
   11.0460    8.3335   25.3001 H   0  0  0  0  0
    8.5740    8.7351   22.5803 H   0  0  0  0  0
    7.8042    9.8816   23.7535 H   0  0  0  0  0
    8.1095    8.2349   25.5086 H   0  0  0  0  0
    7.0938    7.6035   24.1209 H   0  0  0  0  0
   15.8647   -1.3999   24.8445 H   0  0  0  0  0
   14.1151   -1.0939   24.9726 H   0  0  0  0  0
   15.0200   -0.5082   23.5551 H   0  0  0  0  0
   14.4493   -0.1012   27.1666 H   0  0  0  0  0
   16.1989   -0.4072   27.0386 H   0  0  0  0  0
   15.6060    1.2323   27.4015 H   0  0  0  0  0
   11.3769    2.0058   23.2896 H   0  0  0  0  0
   10.0269    2.8682   24.0672 H   0  0  0  0  0
   10.9233    3.6356   22.7336 H   0  0  0  0  0
   12.4743    5.0433   26.9763 H   0  0  0  0  0
   13.3732    5.8147   25.6467 H   0  0  0  0  0
   11.9826    6.6486   26.3828 H   0  0  0  0  0
    8.9184    4.7225   23.4380 H   0  0  0  0  0
    7.3345    5.3437   23.9636 H   0  0  0  0  0
    8.1148    6.0118   22.5091 H   0  0  0  0  0
    9.4412    9.7892   26.1080 H   0  0  0  0  0
   10.7972   10.8068   25.5632 H   0  0  0  0  0
    9.1245   11.2557   25.1488 H   0  0  0  0  0
   18.0661    0.8292   23.5094 H   0  0  0  0  0
   11.7993    9.4400   22.6276 H   0  0  0  0  0
  1  2  1  0  0  0
  1 10  1  0  0  0
  2  3  1  0  0  0
  3  4  1  0  0  0
  3 31  1  0  0  0
  4  5  1  0  0  0
  4 24  1  0  0  0
  4 25  1  0  0  0
  5  6  1  0  0  0
  5 10  1  0  0  0
  6  7  1  0  0  0
  7  8  1  0  0  0
  8  9  1  0  0  0
  8 14  1  0  0  0
  8 26  1  0  0  0
  9 10  1  0  0  0
  9 11  1  0  0  0
 10 19  1  0  0  0
 11 12  1  0  0  0
 11 32  2  0  0  0
 12 13  2  0  0  0
 13 14  1  0  0  0
 13 18  1  0  0  0
 14 15  1  0  0  0
 14 27  1  0  0  0
 15 16  1  0  0  0
 16 17  1  0  0  0
 17 18  1  0  0  0
 17 23  1  0  0  0
 17 28  1  0  0  0
 18 20  1  0  0  0
 20 21  1  0  0  0
 21 22  1  0  0  0
 21 29  1  0  0  0
 21 30  1  0  0  0
 22 23  1  0  0  0
 29 33  1  0  0  0
 29 34  2  0  0  0
  1 35  1  0  0  0
  1 36  1  0  0  0
  2 37  1  0  0  0
  2 38  1  0  0  0
  3 39  1  0  0  0
  5 40  1  0  0  0
  6 41  1  0  0  0
  6 42  1  0  0  0
  7 43  1  0  0  0
  7 44  1  0  0  0
  9 45  1  0  0  0
 12 46  1  0  0  0
 15 47  1  0  0  0
 15 48  1  0  0  0
 16 49  1  0  0  0
 16 50  1  0  0  0
 18 51  1  0  0  0
 19 52  1  0  0  0
 19 53  1  0  0  0
 19 54  1  0  0  0
 20 55  1  0  0  0
 20 56  1  0  0  0
 22 57  1  0  0  0
 22 58  1  0  0  0
 23 59  1  0  0  0
 23 60  1  0  0  0
 24 61  1  0  0  0
 24 62  1  0  0  0
 24 63  1  0  0  0
 25 64  1  0  0  0
 25 65  1  0  0  0
 25 66  1  0  0  0
 26 67  1  0  0  0
 26 68  1  0  0  0
 26 69  1  0  0  0
 27 70  1  0  0  0
 27 71  1  0  0  0
 27 72  1  0  0  0
 28 73  1  0  0  0
 28 74  1  0  0  0
 28 75  1  0  0  0
 30 76  1  0  0  0
 30 77  1  0  0  0
 30 78  1  0  0  0
 31 79  1  0  0  0
 33 80  1  0  0  0
M  END
$$$$
