4yyi_ligand
  -I-interpret- 

 84 83  0  0  0  0  0  0  0  0999 V2000
   45.6510  -22.7130  -19.5510 N   0  3  0  0  0
   46.7650  -23.1150  -20.4910 C   0  0  0  0  0
   48.0900  -22.3980  -20.1500 C   0  0  0  0  0
   49.1570  -22.9510  -20.3770 O   0  0  0  0  0
   53.2190  -14.6290  -22.2860 O   0  0  0  0  0
   52.1720  -14.5500  -22.7850 C   0  0  0  0  0
   52.2720  -13.6400  -24.0400 C   0  0  0  0  0
   51.1210  -15.2350  -22.5510 N   0  0  0  0  0
   51.1680  -16.1510  -21.3280 C   0  0  0  0  0
   49.9020  -16.9050  -21.3090 C   0  0  0  0  0
   50.0490  -18.0600  -20.2390 C   0  0  0  0  0
   48.7580  -18.8790  -20.0570 C   0  0  0  0  0
   49.0990  -20.2330  -19.3590 C   0  0  0  0  0
   47.9690  -21.1790  -19.5840 N   0  0  0  0  0
   49.3680  -19.9990  -17.8830 C   0  0  0  0  0
   48.4040  -20.0100  -17.0700 O   0  0  0  0  0
   50.6370  -19.7660  -17.5140 N   0  0  0  0  0
   51.1410  -19.6380  -16.0570 C   0  0  0  0  0
   51.2980  -20.8910  -15.1790 C   0  0  0  0  0
   51.2800  -22.0800  -15.6810 O   0  0  0  0  0
   51.4340  -20.5120  -13.9120 N   0  0  0  0  0
   51.5630  -21.4740  -12.7890 C   0  0  0  0  0
   50.3430  -21.2330  -11.9500 C   0  0  0  0  0
   49.2620  -21.1920  -12.5010 O   0  0  0  0  0
   53.2590  -26.2000   -5.9790 O   0  0  0  0  0
   52.2380  -25.9910   -5.2820 C   0  0  0  0  0
   52.1670  -26.4400   -3.7130 C   0  0  0  0  0
   51.0840  -25.4610   -5.4940 N   0  0  0  0  0
   50.6160  -24.9320   -6.8650 C   0  0  0  0  0
   50.3010  -23.4470   -6.7930 C   0  0  0  0  0
   50.0360  -22.9820   -8.2670 C   0  0  0  0  0
   49.6920  -21.4930   -8.3550 C   0  0  0  0  0
   49.2430  -21.0290   -9.7520 C   0  0  0  0  0
   50.4760  -21.0530  -10.6120 N   0  0  0  0  0
   48.8740  -19.6010   -9.5480 C   0  0  0  0  0
   49.4260  -18.7440  -10.1940 O   0  0  0  0  0
   47.9390  -19.2780   -8.6520 N   0  0  0  0  0
   47.9860  -17.9320   -8.0370 C   0  0  0  0  0
   46.6620  -17.3600   -7.5490 C   0  0  0  0  0
   45.8550  -16.8420   -8.3190 O   0  0  0  0  0
   46.3390  -17.3900   -6.3630 O   0  0  0  0  0
   44.7960  -23.2062  -19.8083 H   0  0  0  0  0
   45.9103  -22.9558  -18.5949 H   0  0  0  0  0
   45.4978  -21.7068  -19.6179 H   0  0  0  0  0
   46.4756  -22.8364  -21.5043 H   0  0  0  0  0
   46.9225  -24.1894  -20.3960 H   0  0  0  0  0
   52.6117  -12.6481  -23.7419 H   0  0  0  0  0
   52.9823  -14.0721  -24.7449 H   0  0  0  0  0
   51.2919  -13.5635  -24.5108 H   0  0  0  0  0
   50.2954  -15.1747  -23.1469 H   0  0  0  0  0
   51.2855  -15.5695  -20.4136 H   0  0  0  0  0
   52.0204  -16.8280  -21.3844 H   0  0  0  0  0
   49.6940  -17.3234  -22.2938 H   0  0  0  0  0
   49.0723  -16.2482  -21.0477 H   0  0  0  0  0
   50.2865  -17.5972  -19.2812 H   0  0  0  0  0
   50.8268  -18.7392  -20.5881 H   0  0  0  0  0
   48.3095  -19.0738  -21.0312 H   0  0  0  0  0
   48.0544  -18.3185  -19.4414 H   0  0  0  0  0
   50.0032  -20.6707  -19.7821 H   0  0  0  0  0
   47.0382  -20.8839  -19.2892 H   0  0  0  0  0
   51.3280  -19.6647  -18.2574 H   0  0  0  0  0
   50.3720  -19.0506  -15.5553 H   0  0  0  0  0
   52.1539  -19.2472  -16.1544 H   0  0  0  0  0
   51.4505  -19.5140  -13.7019 H   0  0  0  0  0
   52.4839  -21.3246  -12.2253 H   0  0  0  0  0
   51.6233  -22.5050  -13.1376 H   0  0  0  0  0
   52.3019  -27.5191   -3.6388 H   0  0  0  0  0
   52.9559  -25.9348   -3.1558 H   0  0  0  0  0
   51.1960  -26.1647   -3.3012 H   0  0  0  0  0
   50.4397  -25.3864   -4.7068 H   0  0  0  0  0
   49.7137  -25.4684   -7.1588 H   0  0  0  0  0
   51.4134  -25.0868   -7.5918 H   0  0  0  0  0
   51.1273  -22.8918   -6.3491 H   0  0  0  0  0
   49.4330  -23.2603   -6.1607 H   0  0  0  0  0
   49.1878  -23.5479   -8.6522 H   0  0  0  0  0
   50.9450  -23.1532   -8.8437 H   0  0  0  0  0
   50.5979  -20.9392   -8.1086 H   0  0  0  0  0
   48.8592  -21.3152   -7.6747 H   0  0  0  0  0
   48.4418  -21.6240  -10.1904 H   0  0  0  0  0
   51.3996  -20.9356  -10.1953 H   0  0  0  0  0
   47.2089  -19.9431   -8.3968 H   0  0  0  0  0
   48.3370  -17.2564   -8.8170 H   0  0  0  0  0
   48.6175  -18.0262   -7.1536 H   0  0  0  0  0
   46.2035  -16.8709   -9.2130 H   0  0  0  0  0
  2  1  1  0  0  0
  3  2  1  0  0  0
  3  4  2  0  0  0
 14  3  1  0  0  0
  6  5  2  0  0  0
  6  7  1  0  0  0
  8  6  1  0  0  0
  9  8  1  0  0  0
 10  9  1  0  0  0
 11 10  1  0  0  0
 12 11  1  0  0  0
 13 12  1  0  0  0
 13 14  1  0  0  0
 15 13  1  0  0  0
 15 16  2  0  0  0
 17 15  1  0  0  0
 18 17  1  0  0  0
 19 18  1  0  0  0
 19 20  2  0  0  0
 21 19  1  0  0  0
 22 21  1  0  0  0
 23 22  1  0  0  0
 23 24  2  0  0  0
 34 23  1  0  0  0
 26 25  2  0  0  0
 26 27  1  0  0  0
 28 26  1  0  0  0
 29 28  1  0  0  0
 30 29  1  0  0  0
 31 30  1  0  0  0
 32 31  1  0  0  0
 33 32  1  0  0  0
 33 34  1  0  0  0
 33 35  1  0  0  0
 35 36  2  0  0  0
 35 37  1  0  0  0
 37 38  1  0  0  0
 38 39  1  0  0  0
 39 40  1  0  0  0
 39 41  2  0  0  0
  1 42  1  0  0  0
  1 43  1  0  0  0
  1 44  1  0  0  0
  2 45  1  0  0  0
  2 46  1  0  0  0
  7 47  1  0  0  0
  7 48  1  0  0  0
  7 49  1  0  0  0
  8 50  1  0  0  0
  9 51  1  0  0  0
  9 52  1  0  0  0
 10 53  1  0  0  0
 10 54  1  0  0  0
 11 55  1  0  0  0
 11 56  1  0  0  0
 12 57  1  0  0  0
 12 58  1  0  0  0
 13 59  1  0  0  0
 14 60  1  0  0  0
 17 61  1  0  0  0
 18 62  1  0  0  0
 18 63  1  0  0  0
 21 64  1  0  0  0
 22 65  1  0  0  0
 22 66  1  0  0  0
 27 67  1  0  0  0
 27 68  1  0  0  0
 27 69  1  0  0  0
 28 70  1  0  0  0
 29 71  1  0  0  0
 29 72  1  0  0  0
 30 73  1  0  0  0
 30 74  1  0  0  0
 31 75  1  0  0  0
 31 76  1  0  0  0
 32 77  1  0  0  0
 32 78  1  0  0  0
 33 79  1  0  0  0
 34 80  1  0  0  0
 37 81  1  0  0  0
 38 82  1  0  0  0
 38 83  1  0  0  0
 40 84  1  0  0  0
M  END
$$$$
