### 
### Created by X-TOOL on Mon Sep 10 21:13:24 2018
### 

@<TRIPOS>MOLECULE
4yyi_ligand
   83    82     1     0     0
SMALL
GAST_HUCK


@<TRIPOS>ATOM
      1 N          45.6510  -22.7130  -19.5510 N.4       1 GLY         0.2357
      2 CA         46.7650  -23.1150  -20.4910 C.3       1 GLY         0.0545
      3 C          48.0900  -22.3980  -20.1500 C.2       1 GLY         0.2236
      4 O          49.1570  -22.9510  -20.3770 O.2       1 GLY        -0.3910
      5 OH         53.2190  -14.6290  -22.2860 O.2       1 ALY        -0.3974
      6 CH         52.1720  -14.5500  -22.7850 C.2       1 ALY         0.1729
      7 CH3        52.2720  -13.6400  -24.0400 C.3       1 ALY         0.0256
      8 NZ         51.1210  -15.2350  -22.5510 N.am      1 ALY        -0.2872
      9 CE         51.1680  -16.1510  -21.3280 C.3       1 ALY         0.0309
     10 CD         49.9020  -16.9050  -21.3090 C.3       1 ALY        -0.0325
     11 CG         50.0490  -18.0600  -20.2390 C.3       1 ALY        -0.0470
     12 CB         48.7580  -18.8790  -20.0570 C.3       1 ALY        -0.0123
     13 CA         49.0990  -20.2330  -19.3590 C.3       1 ALY         0.1311
     14 N          47.9690  -21.1790  -19.5840 N.am      1 ALY        -0.2613
     15 C          49.3680  -19.9990  -17.8830 C.2       1 ALY         0.2037
     16 O          48.4040  -20.0100  -17.0700 O.2       1 ALY        -0.3944
     17 N          50.6370  -19.7660  -17.5140 N.am      1 GLY        -0.2664
     18 CA         51.1410  -19.6380  -16.0570 C.3       1 GLY         0.1201
     19 C          51.2980  -20.8910  -15.1790 C.2       1 GLY         0.2005
     20 O          51.2800  -22.0800  -15.6810 O.2       1 GLY        -0.3947
     21 N          51.4340  -20.5120  -13.9120 N.am      1 GLY        -0.2666
     22 CA         51.5630  -21.4740  -12.7890 C.3       1 GLY         0.1201
     23 C          50.3430  -21.2330  -11.9500 C.2       1 GLY         0.2007
     24 O          49.2620  -21.1920  -12.5010 O.2       1 GLY        -0.3947
     25 OH         53.2590  -26.2000   -5.9790 O.2       1 ALY        -0.3974
     26 CH         52.2380  -25.9910   -5.2820 C.2       1 ALY         0.1729
     27 CH3        52.1670  -26.4400   -3.7130 C.3       1 ALY         0.0256
     28 NZ         51.0840  -25.4610   -5.4940 N.am      1 ALY        -0.2872
     29 CE         50.6160  -24.9320   -6.8650 C.3       1 ALY         0.0309
     30 CD         50.3010  -23.4470   -6.7930 C.3       1 ALY        -0.0325
     31 CG         50.0360  -22.9820   -8.2670 C.3       1 ALY        -0.0470
     32 CB         49.6920  -21.4930   -8.3550 C.3       1 ALY        -0.0123
     33 CA         49.2430  -21.0290   -9.7520 C.3       1 ALY         0.1309
     34 N          50.4760  -21.0530  -10.6120 N.am      1 ALY        -0.2640
     35 C          48.8740  -19.6010   -9.5480 C.2       1 ALY         0.2031
     36 O          49.4260  -18.7440  -10.1940 O.2       1 ALY        -0.3944
     37 N          47.9390  -19.2780   -8.6520 N.am      1 GLY        -0.2722
     38 CA         47.9860  -17.9320   -8.0370 C.3       1 GLY         0.0833
     39 C          46.6620  -17.3600   -7.5490 C.2       1 GLY         0.0570
     40 O          45.8550  -16.8420   -8.3190 O.co2     1 GLY        -0.5669
     41 OXT        46.3390  -17.3900   -6.3630 O.co2     1 GLY        -0.5669
     42 H1         44.8055  -23.1998  -19.8044 H         1 GLY         0.2012
     43 H2         45.4986  -21.7187  -19.6163 H         1 GLY         0.2012
     44 H3         45.9061  -22.9525  -18.6057 H         1 GLY         0.2012
     45 H4         46.4741  -22.8553  -21.5196 H         1 GLY         0.1061
     46 H5         46.9189  -24.2016  -20.4167 H         1 GLY         0.1061
     47 H6         51.2834  -13.5620  -24.5160 H         1 ALY         0.0467
     48 H7         52.9886  -14.0750  -24.7522 H         1 ALY         0.0467
     49 H8         52.6147  -12.6386  -23.7405 H         1 ALY         0.0467
     50 H9         50.3116  -15.1759  -23.1352 H         1 ALY         0.1850
     51 H10        51.2654  -15.5522  -20.4104 H         1 ALY         0.0520
     52 H11        52.0193  -16.8432  -21.4063 H         1 ALY         0.0520
     53 H12        49.7074  -17.3363  -22.3020 H         1 ALY         0.0285
     54 H13        49.0727  -16.2385  -21.0298 H         1 ALY         0.0285
     55 H14        50.3178  -17.6099  -19.2720 H         1 ALY         0.0268
     56 H15        50.8517  -18.7385  -20.5635 H         1 ALY         0.0268
     57 H16        48.3065  -19.0763  -21.0404 H         1 ALY         0.0312
     58 H17        48.0489  -18.3134  -19.4347 H         1 ALY         0.0312
     59 H18        50.0070  -20.6549  -19.8145 H         1 ALY         0.0800
     60 H19        47.0565  -20.8896  -19.2949 H         1 ALY         0.1884
     61 H20        51.3145  -19.6667  -18.2428 H         1 GLY         0.1881
     62 H21        50.4369  -18.9727  -15.5359 H         1 GLY         0.0763
     63 H22        52.1303  -19.1595  -16.1052 H         1 GLY         0.0763
     64 H23        51.4501  -19.5336  -13.7060 H         1 GLY         0.1881
     65 H24        52.4780  -21.2773  -12.2110 H         1 GLY         0.0763
     66 H25        51.5804  -22.5085  -13.1625 H         1 GLY         0.0763
     67 H26        51.1875  -26.1627   -3.2963 H         1 ALY         0.0467
     68 H27        52.9627  -25.9307   -3.1495 H         1 ALY         0.0467
     69 H28        52.3029  -27.5289   -3.6367 H         1 ALY         0.0467
     70 H29        50.4523  -25.3878   -4.7223 H         1 ALY         0.1850
     71 H30        49.7117  -25.4777   -7.1723 H         1 ALY         0.0520
     72 H31        51.4126  -25.0959   -7.6056 H         1 ALY         0.0520
     73 H32        51.1532  -22.8969   -6.3674 H         1 ALY         0.0285
     74 H33        49.4082  -23.2765   -6.1734 H         1 ALY         0.0285
     75 H34        49.1964  -23.5635   -8.6756 H         1 ALY         0.0268
     76 H35        50.9392  -23.1720   -8.8654 H         1 ALY         0.0268
     77 H36        50.5841  -20.9158   -8.0704 H         1 ALY         0.0312
     78 H37        48.8784  -21.2847   -7.6447 H         1 ALY         0.0312
     79 H38        48.4230  -21.6315  -10.1698 H         1 ALY         0.0800
     80 H39        51.3814  -20.9379  -10.2034 H         1 ALY         0.1883
     81 H40        47.2233  -19.9300   -8.4018 H         1 GLY         0.1873
     82 H41        48.3944  -17.2370   -8.7854 H         1 GLY         0.0689
     83 H42        48.6661  -17.9827   -7.1740 H         1 GLY         0.0689
@<TRIPOS>BOND
     1    2    1 1  
     2    3    2 1  
     3    3    4 2  
     4   14    3 am 
     5    6    5 2  
     6    6    7 1  
     7    8    6 am 
     8    9    8 1  
     9   10    9 1  
    10   11   10 1  
    11   12   11 1  
    12   13   12 1  
    13   13   14 1  
    14   15   13 1  
    15   15   16 2  
    16   17   15 am 
    17   18   17 1  
    18   19   18 1  
    19   19   20 2  
    20   21   19 am 
    21   22   21 1  
    22   23   22 1  
    23   23   24 2  
    24   34   23 am 
    25   26   25 2  
    26   26   27 1  
    27   28   26 am 
    28   29   28 1  
    29   30   29 1  
    30   31   30 1  
    31   32   31 1  
    32   33   32 1  
    33   33   34 1  
    34   33   35 1  
    35   35   36 2  
    36   35   37 am 
    37   37   38 1  
    38   38   39 1  
    39   39   40 ar 
    40   39   41 ar 
    41    1   42 1  
    42    1   43 1  
    43    1   44 1  
    44    2   45 1  
    45    2   46 1  
    46    7   47 1  
    47    7   48 1  
    48    7   49 1  
    49    8   50 1  
    50    9   51 1  
    51    9   52 1  
    52   10   53 1  
    53   10   54 1  
    54   11   55 1  
    55   11   56 1  
    56   12   57 1  
    57   12   58 1  
    58   13   59 1  
    59   14   60 1  
    60   17   61 1  
    61   18   62 1  
    62   18   63 1  
    63   21   64 1  
    64   22   65 1  
    65   22   66 1  
    66   27   67 1  
    67   27   68 1  
    68   27   69 1  
    69   28   70 1  
    70   29   71 1  
    71   29   72 1  
    72   30   73 1  
    73   30   74 1  
    74   31   75 1  
    75   31   76 1  
    76   32   77 1  
    77   32   78 1  
    78   33   79 1  
    79   34   80 1  
    80   37   81 1  
    81   38   82 1  
    82   38   83 1  
@<TRIPOS>SUBSTRUCTURE
     1 GLY         1

