4wvu_ligand
  -I-interpret- 

101105  0  0  0  0  0  0  0  0999 V2000
    4.1240    5.5690   15.7500 N   0  3  0  0  0
    4.4960    5.3800   17.1530 C   0  0  0  0  0
    4.0300    4.3620   14.9190 C   0  0  0  0  0
    3.3370    4.6940   13.6040 C   0  0  0  0  0
    5.4360    3.8380   14.6470 C   0  0  0  0  0
    6.4070    4.5880   14.7220 O   0  0  0  0  0
    5.5500    2.5350   14.3770 N   0  0  0  0  0
    6.8700    1.9730   14.1290 C   0  0  0  0  0
    6.8980    1.4560   12.6890 C   0  0  0  0  0
    5.9010    0.9470   12.2070 O   0  0  0  0  0
    7.2710    0.8870   15.1450 C   0  0  0  0  0
    7.1540    1.3980   16.5870 C   0  0  0  0  0
    6.4710   -0.3790   14.9700 C   0  0  0  0  0
    9.3890    1.6540   10.0520 C   0  0  0  0  0
    8.1020    1.0320   10.6230 C   0  0  0  0  0
    8.2170   -0.4870   10.7250 C   0  0  0  0  0
    9.9550    2.6260   11.0850 C   0  0  0  0  0
    9.3240    2.1580   12.3970 C   0  0  0  0  0
   14.8200    2.2460    8.7540 C   0  0  0  0  0
   14.9480    2.7270   10.1870 C   0  0  0  0  0
   14.2730    0.8340    8.6690 C   0  0  0  0  0
   14.7510   -0.0660    9.3600 O   0  0  0  0  0
    8.5880   -1.0160   11.7720 O   0  0  0  0  0
    8.0360    1.5820   11.9830 N   0  0  0  0  0
   11.4640    2.6170   11.1810 N   0  0  0  0  0
   12.3670    3.0740   10.2960 C   0  0  0  0  0
   13.5790    2.6930   10.7970 C   0  0  0  0  0
   13.3650    2.0640   11.9830 N   0  0  0  0  0
   12.0770    2.0180   12.2220 N   0  0  0  0  0
    7.8790   -1.1880    9.6410 N   0  0  0  0  0
    8.1840   -2.6090    9.5500 C   0  0  0  0  0
    8.4120   -2.9970    8.0900 C   0  0  0  0  0
    8.1690   -2.1970    7.1900 O   0  0  0  0  0
    7.1230   -3.4640   10.2770 C   0  0  0  0  0
    5.8020   -3.6050    9.5600 C   0  0  0  0  0
    5.5120   -4.7480    8.8230 C   0  0  0  0  0
    4.8470   -2.6000    9.6180 C   0  0  0  0  0
    4.3100   -4.8700    8.1440 C   0  0  0  0  0
    3.6380   -2.7260    8.9480 C   0  0  0  0  0
    3.3710   -3.8570    8.2020 C   0  0  0  0  0
    9.0740   -6.8550    7.1860 O   0  0  0  0  0
    9.0900   -6.0260    6.3130 C   0  0  0  0  0
    8.9730   -4.1900    7.8800 N   0  0  0  0  0
    8.7450   -6.2390    5.0840 O   0  0  0  0  0
    9.5100   -4.5920    6.5880 C   0  0  0  0  0
   11.0480   -4.4840    6.5770 C   0  0  0  0  0
   11.5300   -3.0930    6.9160 C   0  0  0  0  0
   12.5570   -0.5560    7.5230 C   0  0  0  0  0
   13.2380    0.6610    7.8090 N   0  0  0  0  0
   11.8950   -2.7660    8.2120 C   0  0  0  0  0
   11.6330   -2.1160    5.9380 C   0  0  0  0  0
   12.3900   -1.5100    8.5220 C   0  0  0  0  0
   12.1450   -0.8610    6.2300 C   0  0  0  0  0
    4.8663    6.1344   15.3381 H   0  0  0  0  0
    3.1878    5.9737   15.7615 H   0  0  0  0  0
    3.7578    4.7434   17.6407 H   0  0  0  0  0
    5.4770    4.9081   17.2070 H   0  0  0  0  0
    4.5292    6.3483   17.6524 H   0  0  0  0  0
    3.4492    3.6004   15.4394 H   0  0  0  0  0
    3.9094    5.4563   13.0755 H   0  0  0  0  0
    3.2739    3.7950   12.9909 H   0  0  0  0  0
    2.3335    5.0675   13.8078 H   0  0  0  0  0
    4.7218    1.9404   14.3449 H   0  0  0  0  0
    7.6176    2.7551   14.2612 H   0  0  0  0  0
    8.3159    0.6479   14.9472 H   0  0  0  0  0
    7.8111    2.2572   16.7211 H   0  0  0  0  0
    6.1233    1.6930   16.7841 H   0  0  0  0  0
    7.4447    0.6055   17.2766 H   0  0  0  0  0
    5.4121   -0.1600   15.1074 H   0  0  0  0  0
    6.6344   -0.7749   13.9677 H   0  0  0  0  0
    6.7902   -1.1140   15.7089 H   0  0  0  0  0
    9.1679    2.1826    9.1248 H   0  0  0  0  0
   10.1175    0.8721    9.8376 H   0  0  0  0  0
    7.2342    1.2486   10.0001 H   0  0  0  0  0
    9.7216    3.6569   10.8187 H   0  0  0  0  0
    9.2033    2.9717   13.1121 H   0  0  0  0  0
    9.9498    1.4377   12.9239 H   0  0  0  0  0
   15.8131    2.2521    8.3047 H   0  0  0  0  0
   14.1281    2.9091    8.2347 H   0  0  0  0  0
   15.3531    3.7385   10.2151 H   0  0  0  0  0
   15.6303    2.0858   10.7451 H   0  0  0  0  0
   12.1737    3.6284    9.3777 H   0  0  0  0  0
    7.4021   -0.7237    8.8681 H   0  0  0  0  0
    9.1151   -2.8187   10.0764 H   0  0  0  0  0
    6.9124   -2.9617   11.2212 H   0  0  0  0  0
    7.5386   -4.4679   10.3636 H   0  0  0  0  0
    6.2395   -5.5585    8.7788 H   0  0  0  0  0
    5.0490   -1.6993   10.1976 H   0  0  0  0  0
    4.1042   -5.7683    7.5619 H   0  0  0  0  0
    2.8967   -1.9294    9.0109 H   0  0  0  0  0
    2.4279   -3.9502    7.6635 H   0  0  0  0  0
    9.0277   -4.8477    8.6577 H   0  0  0  0  0
    8.8429   -5.4277    4.5801 H   0  0  0  0  0
    9.1203   -3.9307    5.8141 H   0  0  0  0  0
   11.3959   -4.7261    5.5728 H   0  0  0  0  0
   11.4396   -5.1692    7.3288 H   0  0  0  0  0
   12.9130    1.4918    7.3145 H   0  0  0  0  0
   11.7908   -3.5102    9.0015 H   0  0  0  0  0
   11.3059   -2.3381    4.9222 H   0  0  0  0  0
   12.6497   -1.2680    9.5526 H   0  0  0  0  0
   12.2249   -0.1107    5.4434 H   0  0  0  0  0
  1  2  1  0  0  0
  3  1  1  0  0  0
  3  4  1  0  0  0
  5  3  1  0  0  0
  5  6  2  0  0  0
  7  5  1  0  0  0
  8  7  1  0  0  0
  9  8  1  0  0  0
  8 11  1  0  0  0
  9 10  2  0  0  0
 24  9  1  0  0  0
 11 12  1  0  0  0
 11 13  1  0  0  0
 15 14  1  0  0  0
 14 17  1  0  0  0
 16 15  1  0  0  0
 15 24  1  0  0  0
 16 23  2  0  0  0
 30 16  1  0  0  0
 18 17  1  0  0  0
 17 25  1  0  0  0
 24 18  1  0  0  0
 20 19  1  0  0  0
 19 21  1  0  0  0
 27 20  1  0  0  0
 21 22  2  0  0  0
 21 49  1  0  0  0
 25 26  4  0  0  0
 25 29  4  0  0  0
 26 27  4  0  0  0
 28 27  4  0  0  0
 29 28  4  0  0  0
 31 30  1  0  0  0
 32 31  1  0  0  0
 31 34  1  0  0  0
 32 33  2  0  0  0
 43 32  1  0  0  0
 34 35  1  0  0  0
 35 36  4  0  0  0
 35 37  4  0  0  0
 36 38  4  0  0  0
 37 39  4  0  0  0
 38 40  4  0  0  0
 39 40  4  0  0  0
 42 41  2  0  0  0
 42 44  1  0  0  0
 45 42  1  0  0  0
 43 45  1  0  0  0
 45 46  1  0  0  0
 46 47  1  0  0  0
 47 50  4  0  0  0
 47 51  4  0  0  0
 49 48  1  0  0  0
 48 52  4  0  0  0
 48 53  4  0  0  0
 50 52  4  0  0  0
 51 53  4  0  0  0
  1 54  1  0  0  0
  1 55  1  0  0  0
  2 56  1  0  0  0
  2 57  1  0  0  0
  2 58  1  0  0  0
  3 59  1  0  0  0
  4 60  1  0  0  0
  4 61  1  0  0  0
  4 62  1  0  0  0
  7 63  1  0  0  0
  8 64  1  0  0  0
 11 65  1  0  0  0
 12 66  1  0  0  0
 12 67  1  0  0  0
 12 68  1  0  0  0
 13 69  1  0  0  0
 13 70  1  0  0  0
 13 71  1  0  0  0
 14 72  1  0  0  0
 14 73  1  0  0  0
 15 74  1  0  0  0
 17 75  1  0  0  0
 18 76  1  0  0  0
 18 77  1  0  0  0
 19 78  1  0  0  0
 19 79  1  0  0  0
 20 80  1  0  0  0
 20 81  1  0  0  0
 26 82  1  0  0  0
 30 83  1  0  0  0
 31 84  1  0  0  0
 34 85  1  0  0  0
 34 86  1  0  0  0
 36 87  1  0  0  0
 37 88  1  0  0  0
 38 89  1  0  0  0
 39 90  1  0  0  0
 40 91  1  0  0  0
 43 92  1  0  0  0
 44 93  1  0  0  0
 45 94  1  0  0  0
 46 95  1  0  0  0
 46 96  1  0  0  0
 49 97  1  0  0  0
 50 98  1  0  0  0
 51 99  1  0  0  0
 52100  1  0  0  0
 53101  1  0  0  0
M  END
$$$$
