1b6l_ligand
  -I-interpret- 

 83 85  0  0  0  0  0  0  0  0999 V2000
    6.1160    2.8190    8.8070 C   0  0  0  0  0
    4.2430    3.2310   10.4450 C   0  0  0  0  0
    4.1710    4.1370   11.2750 O   0  0  0  0  0
    4.7890    3.4970    9.0560 C   0  0  0  0  0
    3.8770    1.9790   10.7050 N   0  0  0  0  0
    3.3110    1.5880   12.0060 C   0  0  0  0  0
    3.9670    0.3640   12.6350 C   0  0  0  0  0
    3.9310   -0.7320   12.0750 O   0  0  0  0  0
    1.8140    1.3240   11.8550 C   0  0  0  0  0
    1.0770    2.5020   11.2770 C   0  0  0  0  0
    0.5120    3.3110   12.0060 O   0  0  0  0  0
    1.0980    2.6210    9.9530 N   0  0  0  0  0
    4.5560    0.5590   13.8100 N   0  0  0  0  0
    5.2190   -0.5330   14.5340 C   0  0  0  0  0
    6.7350   -0.3200   14.5350 C   0  0  0  0  0
    7.2100    0.4410   13.3290 C   0  0  0  0  0
    7.3330    1.8230   13.3770 C   0  0  0  0  0
    7.6760    2.5460   12.2630 C   0  0  0  0  0
    7.4640   -0.2060   12.1200 C   0  0  0  0  0
    7.8110    0.5160   10.9900 C   0  0  0  0  0
    7.9150    1.8950   11.0740 C   0  0  0  0  0
    8.2220    2.6510    9.9710 O   0  0  0  0  0
    7.2420    3.5620    9.5120 C   0  0  0  0  0
    4.6850   -0.6120   15.9760 C   0  0  0  0  0
    5.0950    0.5410   16.7170 O   0  0  0  0  0
    5.1720   -1.8710   16.6730 C   0  0  0  0  0
    4.4230   -3.0340   16.1410 N   0  3  0  0  0
    5.1850   -4.2660   16.4870 C   0  0  0  0  0
    4.4110   -5.5030   16.0160 C   0  0  0  0  0
    2.9920   -5.5790   16.5630 C   0  0  0  0  0
    2.2510   -4.2800   16.2880 C   0  0  0  0  0
    3.0580   -3.0800   16.7610 C   0  0  0  0  0
    6.5680   -4.2310   15.8390 C   0  0  0  0  0
    6.7200   -3.7110   14.7320 O   0  0  0  0  0
    8.9620   -4.8510   16.0860 C   0  0  0  0  0
    9.4410   -3.4850   15.6080 C   0  0  0  0  0
    9.8500   -5.3020   17.2420 C   0  0  0  0  0
    9.0930   -5.8660   14.9560 C   0  0  0  0  0
    7.5630   -4.7800   16.5410 N   0  0  0  0  0
    6.0693    1.8012    9.1944 H   0  0  0  0  0
    6.3137    2.8156    7.7351 H   0  0  0  0  0
    4.0728    3.1025    8.3352 H   0  0  0  0  0
    4.9404    4.5719    8.9577 H   0  0  0  0  0
    3.9920    1.2692    9.9816 H   0  0  0  0  0
    3.5054    2.4242   12.6776 H   0  0  0  0  0
    1.4058    1.1249   12.8459 H   0  0  0  0  0
    1.6878    0.4815   11.1750 H   0  0  0  0  0
    0.6317    3.4094    9.5043 H   0  0  0  0  0
    1.5804    1.9239    9.3859 H   0  0  0  0  0
    4.5474    1.4928   14.2203 H   0  0  0  0  0
    5.0015   -1.4751   14.0308 H   0  0  0  0  0
    7.2123   -1.2999   14.5239 H   0  0  0  0  0
    6.9926    0.2597   15.4214 H   0  0  0  0  0
    7.1536    2.3434   14.3178 H   0  0  0  0  0
    7.7590    3.6314   12.3190 H   0  0  0  0  0
    7.3886   -1.2919   12.0636 H   0  0  0  0  0
    8.0000    0.0053   10.0458 H   0  0  0  0  0
    6.8315    4.1018   10.3654 H   0  0  0  0  0
    7.7036    4.2562    8.8098 H   0  0  0  0  0
    3.5965   -0.6446   15.9301 H   0  0  0  0  0
    4.7567    0.4808   17.6134 H   0  0  0  0  0
    5.0060   -1.7855   17.7469 H   0  0  0  0  0
    6.2383   -2.0044   16.4904 H   0  0  0  0  0
    4.3153   -2.9603   15.1294 H   0  0  0  0  0
    5.3097   -4.3147   17.5687 H   0  0  0  0  0
    4.9475   -6.3809   16.3760 H   0  0  0  0  0
    4.3401   -5.4501   14.9296 H   0  0  0  0  0
    3.0337   -5.7442   17.6396 H   0  0  0  0  0
    2.4657   -6.3994   16.0751 H   0  0  0  0  0
    1.3033   -4.2978   16.8263 H   0  0  0  0  0
    2.0894   -4.1907   15.2138 H   0  0  0  0  0
    2.5231   -2.1760   16.4700 H   0  0  0  0  0
    3.1791   -3.1578   17.8415 H   0  0  0  0  0
    8.8161   -3.1518   14.7794 H   0  0  0  0  0
    9.3716   -2.7698   16.4276 H   0  0  0  0  0
   10.4766   -3.5601   15.2764 H   0  0  0  0  0
    9.7692   -4.5871   18.0609 H   0  0  0  0  0
    9.5278   -6.2857   17.5836 H   0  0  0  0  0
   10.8851   -5.3543   16.9044 H   0  0  0  0  0
    8.7815   -6.8476   15.3131 H   0  0  0  0  0
    8.4594   -5.5634   14.1223 H   0  0  0  0  0
   10.1314   -5.9101   14.6275 H   0  0  0  0  0
    7.3389   -5.1767   17.4536 H   0  0  0  0  0
  1 23  1  0  0  0
  1  4  1  0  0  0
  4  2  1  0  0  0
  2  5  1  0  0  0
  2  3  2  0  0  0
  5  6  1  0  0  0
  6  9  1  0  0  0
  6  7  1  0  0  0
  7 13  1  0  0  0
  7  8  2  0  0  0
 13 14  1  0  0  0
 14 24  1  0  0  0
 14 15  1  0  0  0
 15 16  1  0  0  0
 16 19  4  0  0  0
 16 17  4  0  0  0
 17 18  4  0  0  0
 18 21  4  0  0  0
 21 22  1  0  0  0
 21 20  4  0  0  0
 19 20  4  0  0  0
 23 22  1  0  0  0
 24 26  1  0  0  0
 24 25  1  0  0  0
 26 27  1  0  0  0
 27 32  1  0  0  0
 27 28  1  0  0  0
 28 33  1  0  0  0
 28 29  1  0  0  0
 29 30  1  0  0  0
 30 31  1  0  0  0
 32 31  1  0  0  0
 33 39  1  0  0  0
 33 34  2  0  0  0
 39 35  1  0  0  0
 35 38  1  0  0  0
 35 37  1  0  0  0
 35 36  1  0  0  0
  9 10  1  0  0  0
 10 12  1  0  0  0
 10 11  2  0  0  0
  1 40  1  0  0  0
  1 41  1  0  0  0
  4 42  1  0  0  0
  4 43  1  0  0  0
  5 44  1  0  0  0
  6 45  1  0  0  0
  9 46  1  0  0  0
  9 47  1  0  0  0
 12 48  1  0  0  0
 12 49  1  0  0  0
 13 50  1  0  0  0
 14 51  1  0  0  0
 15 52  1  0  0  0
 15 53  1  0  0  0
 17 54  1  0  0  0
 18 55  1  0  0  0
 19 56  1  0  0  0
 20 57  1  0  0  0
 23 58  1  0  0  0
 23 59  1  0  0  0
 24 60  1  0  0  0
 25 61  1  0  0  0
 26 62  1  0  0  0
 26 63  1  0  0  0
 27 64  1  0  0  0
 28 65  1  0  0  0
 29 66  1  0  0  0
 29 67  1  0  0  0
 30 68  1  0  0  0
 30 69  1  0  0  0
 31 70  1  0  0  0
 31 71  1  0  0  0
 32 72  1  0  0  0
 32 73  1  0  0  0
 36 74  1  0  0  0
 36 75  1  0  0  0
 36 76  1  0  0  0
 37 77  1  0  0  0
 37 78  1  0  0  0
 37 79  1  0  0  0
 38 80  1  0  0  0
 38 81  1  0  0  0
 38 82  1  0  0  0
 39 83  1  0  0  0
M  END
$$$$
