### 
### Created by X-TOOL on Mon Sep 10 21:13:04 2018
### 

@<TRIPOS>MOLECULE
2xgs_ligand
   38    39     1     0     0
SMALL
GAST_HUCK


@<TRIPOS>ATOM
      1 N1        -12.2290    7.0840    3.0980 N.am      1 44P        -0.1592
      2 C2        -11.8360    7.4620    4.4410 C.2       1 44P         0.3328
      3 O2        -11.9050    8.6030    4.8900 O.2       1 44P        -0.3815
      4 N3        -11.3410    6.4940    5.3290 N.am      1 44P        -0.1865
      5 C4        -11.2020    5.1570    4.9700 C.2       1 44P         0.1822
      6 O4        -10.7710    4.3470    5.8090 O.2       1 44P        -0.4124
      7 C5        -11.5870    4.7720    3.6930 C.2       1 44P         0.0062
      8 C6        -12.0960    5.6980    2.7660 C.2       1 44P         0.0591
      9 PA        -15.8780    6.2150   -2.6770 P.3       1 44P         0.1366
     10 PB        -15.3400    7.7040   -5.2700 P.3       1 44P         0.0778
     11 C1'       -12.8070    8.0440    2.0760 C.3       1 44P         0.2059
     12 O1A       -17.2470    6.0300   -2.1270 O.co2     1 44P        -0.6194
     13 O1B       -16.2510    8.8950   -5.9680 O.co2     1 44P        -0.5611
     14 C2'       -12.0090    8.7960    0.9500 C.3       1 44P         0.1387
     15 O2'       -11.2520    9.9420    1.3850 O.3       1 44P        -0.3836
     16 O2A       -15.2260    5.1130   -3.4310 O.co2     1 44P        -0.6194
     17 O2B       -15.7050    6.2780   -6.0320 O.co2     1 44P        -0.5611
     18 C3'       -13.1560    9.2540    0.0580 C.3       1 44P         0.1149
     19 O3'       -13.9070   10.3050    0.6640 O.3       1 44P        -0.3864
     20 C3A       -15.9010    7.7490   -3.5600 C.3       1 44P         0.1081
     21 O3B       -13.8870    7.9750   -5.3490 O.co2     1 44P        -0.5611
     22 C4'       -14.0710    8.0200    0.0390 C.3       1 44P         0.1190
     23 O4'       -13.7810    7.2460    1.2550 O.3       1 44P        -0.3362
     24 C5'       -13.8570    7.2210   -1.2420 C.3       1 44P         0.1108
     25 O5'       -14.9850    6.4260   -1.3750 O.3       1 44P        -0.2760
     26 H         -11.0738    6.7809    6.2706 H         1 44P         0.2259
     27 H         -11.4923    3.7258    3.4020 H         1 44P         0.0258
     28 H         -12.3950    5.3542    1.7758 H         1 44P         0.1178
     29 H         -13.0878    8.8429    2.7623 H         1 44P         0.0997
     30 H         -11.2482    8.1568    0.5020 H         1 44P         0.0676
     31 H         -10.8022   10.3317    0.6317 H         1 44P         0.2101
     32 H         -12.7986    9.6097   -0.9084 H         1 44P         0.0648
     33 H         -13.3311   11.0557    0.8266 H         1 44P         0.2100
     34 H         -15.2109    8.4090   -3.0343 H         1 44P         0.0676
     35 H         -16.9449    8.0608   -3.5940 H         1 44P         0.0676
     36 H         -15.1247    8.2991    0.0398 H         1 44P         0.0651
     37 H         -12.9487    6.6206   -1.1914 H         1 44P         0.0650
     38 H         -13.7255    7.8753   -2.1038 H         1 44P         0.0650
@<TRIPOS>BOND
     1    1    2 am 
     2    1    8 1  
     3   11    1 1  
     4    2    3 2  
     5    2    4 am 
     6    4    5 am 
     7    5    6 2  
     8    7    5 1  
     9    8    7 2  
    10    9   12 ar 
    11    9   16 ar 
    12    9   20 1  
    13   25    9 1  
    14   10   13 ar 
    15   10   17 ar 
    16   20   10 1  
    17   10   21 ar 
    18   11   14 1  
    19   23   11 1  
    20   14   15 1  
    21   18   14 1  
    22   18   19 1  
    23   22   18 1  
    24   22   23 1  
    25   24   22 1  
    26   24   25 1  
    27    4   26 1  
    28    7   27 1  
    29    8   28 1  
    30   11   29 1  
    31   14   30 1  
    32   15   31 1  
    33   18   32 1  
    34   19   33 1  
    35   20   34 1  
    36   20   35 1  
    37   22   36 1  
    38   24   37 1  
    39   24   38 1  
@<TRIPOS>SUBSTRUCTURE
     1 44P         1

