2xgs_ligand
  -I-interpret- 

 41 42  0  0  0  0  0  0  0  0999 V2000
  -12.2290    7.0840    3.0980 N   0  0  0  0  0
  -11.8360    7.4620    4.4410 C   0  0  0  0  0
  -11.9050    8.6030    4.8900 O   0  0  0  0  0
  -11.3410    6.4940    5.3290 N   0  0  0  0  0
  -11.2020    5.1570    4.9700 C   0  0  0  0  0
  -10.7710    4.3470    5.8090 O   0  0  0  0  0
  -11.5870    4.7720    3.6930 C   0  0  0  0  0
  -12.0960    5.6980    2.7660 C   0  0  0  0  0
  -15.8780    6.2150   -2.6770 P   0  0  0  0  0
  -15.3400    7.7040   -5.2700 P   0  0  0  0  0
  -12.8070    8.0440    2.0760 C   0  0  0  0  0
  -17.2470    6.0300   -2.1270 O   0  0  0  0  0
  -16.2510    8.8950   -5.9680 O   0  0  0  0  0
  -12.0090    8.7960    0.9500 C   0  0  0  0  0
  -11.2520    9.9420    1.3850 O   0  0  0  0  0
  -15.2260    5.1130   -3.4310 O   0  0  0  0  0
  -15.7050    6.2780   -6.0320 O   0  0  0  0  0
  -13.1560    9.2540    0.0580 C   0  0  0  0  0
  -13.9070   10.3050    0.6640 O   0  0  0  0  0
  -15.9010    7.7490   -3.5600 C   0  0  0  0  0
  -13.8870    7.9750   -5.3490 O   0  0  0  0  0
  -14.0710    8.0200    0.0390 C   0  0  0  0  0
  -13.7810    7.2460    1.2550 O   0  0  0  0  0
  -13.8570    7.2210   -1.2420 C   0  0  0  0  0
  -14.9850    6.4260   -1.3750 O   0  0  0  0  0
  -11.0738    6.7809    6.2706 H   0  0  0  0  0
  -11.4923    3.7258    3.4020 H   0  0  0  0  0
  -12.3950    5.3542    1.7758 H   0  0  0  0  0
  -13.0878    8.8429    2.7623 H   0  0  0  0  0
  -17.5186    6.8304   -1.6718 H   0  0  0  0  0
  -17.1814    8.6718   -5.8901 H   0  0  0  0  0
  -11.2482    8.1568    0.5020 H   0  0  0  0  0
  -10.8022   10.3317    0.6317 H   0  0  0  0  0
  -16.6495    6.1170   -5.9719 H   0  0  0  0  0
  -12.7986    9.6097   -0.9084 H   0  0  0  0  0
  -14.6191   10.5679    0.0763 H   0  0  0  0  0
  -15.2109    8.4090   -3.0343 H   0  0  0  0  0
  -16.9449    8.0608   -3.5940 H   0  0  0  0  0
  -15.1247    8.2991    0.0398 H   0  0  0  0  0
  -12.9487    6.6206   -1.1914 H   0  0  0  0  0
  -13.7255    7.8753   -2.1038 H   0  0  0  0  0
  1  2  1  0  0  0
  1  8  1  0  0  0
 11  1  1  0  0  0
  2  3  2  0  0  0
  2  4  1  0  0  0
  4  5  1  0  0  0
  5  6  2  0  0  0
  7  5  1  0  0  0
  8  7  2  0  0  0
  9 12  1  0  0  0
  9 16  2  0  0  0
  9 20  1  0  0  0
 25  9  1  0  0  0
 10 13  1  0  0  0
 10 17  1  0  0  0
 20 10  1  0  0  0
 10 21  2  0  0  0
 11 14  1  0  0  0
 23 11  1  0  0  0
 14 15  1  0  0  0
 18 14  1  0  0  0
 18 19  1  0  0  0
 22 18  1  0  0  0
 22 23  1  0  0  0
 24 22  1  0  0  0
 24 25  1  0  0  0
  4 26  1  0  0  0
  7 27  1  0  0  0
  8 28  1  0  0  0
 11 29  1  0  0  0
 12 30  1  0  0  0
 13 31  1  0  0  0
 14 32  1  0  0  0
 15 33  1  0  0  0
 17 34  1  0  0  0
 18 35  1  0  0  0
 19 36  1  0  0  0
 20 37  1  0  0  0
 20 38  1  0  0  0
 22 39  1  0  0  0
 24 40  1  0  0  0
 24 41  1  0  0  0
M  END
$$$$
