6md8_ligand
  -I-interpret- 

 25 27  0  0  0  0  0  0  0  0999 V2000
  -20.8360  -20.3060  -10.8300 C   0  0  0  0  0
  -22.8110  -20.5070   -9.3450 C   0  0  0  0  0
  -22.1840  -20.5590  -10.5740 C   0  0  0  0  0
  -27.7980  -21.2850  -11.8720 C   0  0  0  0  0
  -26.6010  -20.7710  -11.3700 C   0  0  0  0  0
  -25.4760  -21.5830  -11.3110 C   0  0  0  0  0
  -25.6020  -22.8990  -11.7430 C   0  0  0  0  0
  -26.7780  -23.4120  -12.2410 C   0  0  0  0  0
  -27.8750  -22.5960  -12.3070 C   0  0  0  0  0
  -23.1600  -20.9890  -11.4730 C   0  0  0  0  0
  -24.2990  -21.1630  -10.8130 N   0  0  0  0  0
  -24.0830  -20.8600   -9.5040 N   0  0  0  0  0
  -20.3080  -20.0950  -12.0210 N   0  0  0  0  0
  -18.9560  -19.9550  -11.8790 N   0  0  0  0  0
  -18.6880  -20.0890  -10.5620 N   0  0  0  0  0
  -19.8660  -20.3190   -9.9340 N   0  0  0  0  0
  -22.9910  -21.2230  -12.8900 N   0  0  0  0  0
  -29.3880  -23.2880  -12.9470 Cl  0  0  0  0  0
  -24.2470  -24.0210  -11.6990 Cl  0  0  0  0  0
  -22.3420  -20.2241   -8.4026 H   0  0  0  0  0
  -28.6805  -20.6472  -11.9217 H   0  0  0  0  0
  -26.5497  -19.7379  -11.0262 H   0  0  0  0  0
  -26.8347  -24.4476  -12.5762 H   0  0  0  0  0
  -22.0817  -21.0724  -13.3269 H   0  0  0  0  0
  -23.7811  -21.5387  -13.4526 H   0  0  0  0  0
  3  1  1  0  0  0
  1 13  4  0  0  0
  1 16  4  0  0  0
  3  2  4  0  0  0
  2 12  4  0  0  0
 10  3  4  0  0  0
  5  4  4  0  0  0
  4  9  4  0  0  0
  6  5  4  0  0  0
  6  7  4  0  0  0
 11  6  1  0  0  0
  7  8  4  0  0  0
  7 19  1  0  0  0
  8  9  4  0  0  0
  9 18  1  0  0  0
 10 11  4  0  0  0
 10 17  1  0  0  0
 11 12  4  0  0  0
 13 14  4  0  0  0
 14 15  4  0  0  0
 15 16  4  0  0  0
  2 20  1  0  0  0
  4 21  1  0  0  0
  5 22  1  0  0  0
  8 23  1  0  0  0
 17 24  1  0  0  0
 17 25  1  0  0  0
M  END
$$$$
