4f6u_ligand
  -I-interpret- 

 63 65  0  0  0  0  0  0  0  0999 V2000
  -39.7370   23.0650  102.0390 O   0  0  0  0  0
  -40.3880   22.0930  102.3520 C   0  0  0  0  0
  -40.3540   21.5850  103.6520 N   0  0  0  0  0
  -39.4390   22.0210  104.6650 C   0  0  0  0  0
  -38.9610   23.2990  104.8760 C   0  0  0  0  0
  -38.0130   23.1020  105.8830 C   0  0  0  0  0
  -37.1640   24.1730  106.5550 C   0  0  0  0  0
  -36.7830   25.2440  105.5450 C   0  0  0  0  0
  -35.8900   23.5580  107.1540 C   0  0  0  0  0
  -37.9850   24.7990  107.6780 C   0  0  0  0  0
  -37.9480   21.8080  106.2070 N   0  0  0  0  0
  -38.7750   21.1830  105.5120 N   0  0  0  0  0
  -38.8960   19.7260  105.5640 C   0  0  0  0  0
  -38.8810   19.0920  106.8040 C   0  0  0  0  0
  -38.8330   18.9590  104.3920 C   0  0  0  0  0
  -38.8650   17.5720  104.4700 C   0  0  0  0  0
  -38.8950   16.9450  105.7130 C   0  0  0  0  0
  -38.9330   15.4330  105.7980 C   0  0  0  0  0
  -38.9000   17.7040  106.8790 C   0  0  0  0  0
  -41.2740   21.5120  101.4380 N   0  0  0  0  0
  -41.2800   21.9390  100.0260 C   0  0  0  0  0
  -42.0710   23.2000   99.7630 C   0  0  0  0  0
  -42.4670   23.2020   98.2620 C   0  0  0  0  0
  -42.3730   24.5330   97.6430 N   0  3  0  0  0
  -43.4490   25.4240   98.1120 C   0  0  0  0  0
  -43.3530   26.7500   97.3490 C   0  0  0  0  0
  -43.4000   26.5520   95.9280 O   0  0  0  0  0
  -42.3380   25.7380   95.4520 C   0  0  0  0  0
  -42.4030   24.3800   96.1630 C   0  0  0  0  0
  -41.0241   20.8560  103.8967 H   0  0  0  0  0
  -39.2501   24.2266  104.3820 H   0  0  0  0  0
  -36.2029   26.0211  106.0427 H   0  0  0  0  0
  -36.1864   24.7963  104.7502 H   0  0  0  0  0
  -37.6876   25.6797  105.1206 H   0  0  0  0  0
  -35.2943   23.1119  106.3576 H   0  0  0  0  0
  -35.3108   24.3367  107.6501 H   0  0  0  0  0
  -36.1642   22.7905  107.8778 H   0  0  0  0  0
  -37.3940   25.5702  108.1720 H   0  0  0  0  0
  -38.8889   25.2433  107.2613 H   0  0  0  0  0
  -38.2566   24.0292  108.4003 H   0  0  0  0  0
  -38.8543   19.6856  107.7178 H   0  0  0  0  0
  -38.7591   19.4498  103.4215 H   0  0  0  0  0
  -38.8666   16.9748  103.5582 H   0  0  0  0  0
  -39.8268   15.0644  105.2946 H   0  0  0  0  0
  -38.0467   15.0209  105.3156 H   0  0  0  0  0
  -38.9528   15.1296  106.8447 H   0  0  0  0  0
  -38.9188   17.2106  107.8508 H   0  0  0  0  0
  -41.9206   20.7877  101.7505 H   0  0  0  0  0
  -41.7478   21.1402   99.4506 H   0  0  0  0  0
  -40.2463   22.1441   99.7478 H   0  0  0  0  0
  -41.4728   24.0800   99.9993 H   0  0  0  0  0
  -42.9615   23.2279  100.3910 H   0  0  0  0  0
  -43.5050   22.8767   98.1926 H   0  0  0  0  0
  -41.7767   22.5424   97.7362 H   0  0  0  0  0
  -41.4930   24.9686   97.9190 H   0  0  0  0  0
  -43.3429   25.6029   99.1820 H   0  0  0  0  0
  -44.4193   24.9613   97.9315 H   0  0  0  0  0
  -42.4019   27.2205   97.5981 H   0  0  0  0  0
  -44.2002   27.3727   97.6364 H   0  0  0  0  0
  -41.3817   26.2187   95.6582 H   0  0  0  0  0
  -42.4330   25.5973   94.3753 H   0  0  0  0  0
  -43.3374   23.8915   95.8866 H   0  0  0  0  0
  -41.5367   23.7916   95.8605 H   0  0  0  0  0
  1  2  2  0  0  0
  2  3  1  0  0  0
  2 20  1  0  0  0
  3  4  1  0  0  0
  4  5  4  0  0  0
  4 12  4  0  0  0
  5  6  4  0  0  0
  6  7  1  0  0  0
  6 11  4  0  0  0
  7  8  1  0  0  0
  7  9  1  0  0  0
  7 10  1  0  0  0
 11 12  4  0  0  0
 12 13  1  0  0  0
 13 14  4  0  0  0
 13 15  4  0  0  0
 14 19  4  0  0  0
 15 16  4  0  0  0
 16 17  4  0  0  0
 17 18  1  0  0  0
 17 19  4  0  0  0
 20 21  1  0  0  0
 21 22  1  0  0  0
 22 23  1  0  0  0
 23 24  1  0  0  0
 24 25  1  0  0  0
 24 29  1  0  0  0
 25 26  1  0  0  0
 26 27  1  0  0  0
 27 28  1  0  0  0
 28 29  1  0  0  0
  3 30  1  0  0  0
  5 31  1  0  0  0
  8 32  1  0  0  0
  8 33  1  0  0  0
  8 34  1  0  0  0
  9 35  1  0  0  0
  9 36  1  0  0  0
  9 37  1  0  0  0
 10 38  1  0  0  0
 10 39  1  0  0  0
 10 40  1  0  0  0
 14 41  1  0  0  0
 15 42  1  0  0  0
 16 43  1  0  0  0
 18 44  1  0  0  0
 18 45  1  0  0  0
 18 46  1  0  0  0
 19 47  1  0  0  0
 20 48  1  0  0  0
 21 49  1  0  0  0
 21 50  1  0  0  0
 22 51  1  0  0  0
 22 52  1  0  0  0
 23 53  1  0  0  0
 23 54  1  0  0  0
 24 55  1  0  0  0
 25 56  1  0  0  0
 25 57  1  0  0  0
 26 58  1  0  0  0
 26 59  1  0  0  0
 28 60  1  0  0  0
 28 61  1  0  0  0
 29 62  1  0  0  0
 29 63  1  0  0  0
M  END
$$$$
