2p3g_ligand
  -I-interpret- 

 36 39  0  0  0  0  0  0  0  0999 V2000
   87.7620  260.1570  111.6410 N   0  0  0  0  0
   88.5970  260.7450  109.5390 O   0  0  0  0  0
   79.0800  262.6050  106.2230 C   0  0  0  0  0
   81.9920  261.2230  107.9860 C   0  0  0  0  0
   77.7060  262.6780  106.1980 C   0  0  0  0  0
   85.7050  260.9450  108.6950 C   0  0  0  0  0
   86.6550  260.2380  112.5800 C   0  0  0  0  0
   85.3990  259.5690  112.0610 C   0  0  0  0  0
   86.2930  260.4980  109.8980 C   0  0  0  0  0
   87.6680  260.4790  110.3000 C   0  0  0  0  0
   83.8470  261.5410  106.5510 C   0  0  0  0  0
   82.9710  261.9010  105.5620 C   0  0  0  0  0
   85.2640  260.0900  110.7060 C   0  0  0  0  0
   83.3580  261.1890  107.7880 C   0  0  0  0  0
   84.3350  260.8050  108.7880 C   0  0  0  0  0
   81.1820  261.5950  106.9290 C   0  0  0  0  0
   79.7360  261.6530  106.9730 C   0  0  0  0  0
   78.9540  260.7770  107.6960 C   0  0  0  0  0
   77.5790  260.8360  107.6910 C   0  0  0  0  0
   76.9480  261.7910  106.9300 C   0  0  0  0  0
   79.5220  259.8280  108.4410 F   0  0  0  0  0
   84.0890  260.2640  110.0260 N   0  0  0  0  0
   81.6500  261.9320  105.7220 N   0  0  0  0  0
   88.6657  259.8425  111.9943 H   0  0  0  0  0
   79.6623  263.3158  105.6367 H   0  0  0  0  0
   81.5621  260.9626  108.9532 H   0  0  0  0  0
   77.2148  263.4421  105.5955 H   0  0  0  0  0
   86.2449  261.3369  107.8330 H   0  0  0  0  0
   86.4302  261.2921  112.7427 H   0  0  0  0  0
   86.9536  259.7260  113.4948 H   0  0  0  0  0
   84.5272  259.7857  112.6784 H   0  0  0  0  0
   85.4679  258.4814  112.0832 H   0  0  0  0  0
   84.9202  261.5334  106.3604 H   0  0  0  0  0
   83.3782  262.1776  104.5895 H   0  0  0  0  0
   76.9959  260.1321  108.2849 H   0  0  0  0  0
   75.8596  261.8458  106.9061 H   0  0  0  0  0
  7  1  1  0  0  0
 10  1  1  0  0  0
 10  2  2  0  0  0
  3  5  4  0  0  0
 17  3  4  0  0  0
  4 14  4  0  0  0
 16  4  4  0  0  0
  5 20  4  0  0  0
  6  9  4  0  0  0
 15  6  4  0  0  0
  8  7  1  0  0  0
 13  8  1  0  0  0
  9 10  1  0  0  0
 13  9  4  0  0  0
 11 12  4  0  0  0
 14 11  4  0  0  0
 12 23  4  0  0  0
 22 13  4  0  0  0
 14 15  1  0  0  0
 15 22  4  0  0  0
 16 17  1  0  0  0
 16 23  4  0  0  0
 17 18  4  0  0  0
 18 19  4  0  0  0
 18 21  1  0  0  0
 19 20  4  0  0  0
  1 24  1  0  0  0
  3 25  1  0  0  0
  4 26  1  0  0  0
  5 27  1  0  0  0
  6 28  1  0  0  0
  7 29  1  0  0  0
  7 30  1  0  0  0
  8 31  1  0  0  0
  8 32  1  0  0  0
 11 33  1  0  0  0
 12 34  1  0  0  0
 19 35  1  0  0  0
 20 36  1  0  0  0
M  END
$$$$
