5ku3_ligand
  -I-interpret- 

 56 60  0  0  0  0  0  0  0  0999 V2000
   -0.6650  -17.3930  -21.7470 C   0  0  0  0  0
   -0.3700  -15.2300  -22.0830 C   0  0  0  0  0
    2.0330  -18.1720  -19.0400 C   0  0  0  0  0
   -0.6570  -18.7710  -21.1490 C   0  0  0  0  0
    3.1550  -17.1840  -18.8170 C   0  0  0  0  0
   -1.8510  -17.8970  -23.9110 C   0  0  0  0  0
   -3.1700  -17.2900  -24.4240 C   0  0  0  0  0
   -3.2410  -17.8190  -25.8820 C   0  0  0  0  0
   -0.9870  -17.9760  -25.1780 C   0  0  0  0  0
   -0.3120  -12.8070  -22.6960 C   0  0  0  0  0
   -1.1210  -12.8570  -23.8360 C   0  0  0  0  0
   -1.3890  -11.6970  -24.5590 C   0  0  0  0  0
   -0.8630  -10.4620  -24.1690 C   0  0  0  0  0
   -0.0630  -10.4090  -23.0270 C   0  0  0  0  0
    0.1920  -11.5700  -22.3210 C   0  0  0  0  0
   -1.1620   -9.2120  -24.9270 C   0  0  0  0  0
   -1.6690   -9.1370  -26.2360 C   0  0  0  0  0
   -1.0340   -7.9180  -24.4880 C   0  0  0  0  0
   -1.4290   -5.6190  -25.4230 C   0  0  0  0  0
    0.5560  -16.3060  -19.8210 C   0  0  0  0  0
   -0.2730  -18.6600  -19.6760 C   0  0  0  0  0
   -0.1290  -16.2860  -21.1780 C   0  0  0  0  0
    0.9650  -11.5160  -21.2140 F   0  0  0  0  0
   -0.9980  -15.6750  -23.1510 N   0  0  0  0  0
   -1.1940  -17.0350  -22.9420 N   0  0  0  0  0
    0.0210  -13.9130  -21.8860 N   0  0  0  0  0
   -1.8030   -7.8740  -26.5410 N   0  0  0  0  0
   -1.4180   -7.0800  -25.4680 N   0  0  0  0  0
    0.8360  -17.7200  -19.4960 N   0  0  0  0  0
   -1.9300  -18.3570  -26.1810 O   0  0  0  0  0
    2.2050  -19.3700  -18.8260 O   0  0  0  0  0
    0.0626  -19.3993  -21.6739 H   0  0  0  0  0
   -1.6450  -19.2218  -21.2421 H   0  0  0  0  0
    3.4658  -17.2187  -17.7728 H   0  0  0  0  0
    3.9982  -17.4432  -19.4572 H   0  0  0  0  0
    2.8072  -16.1801  -19.0607 H   0  0  0  0  0
   -2.0122  -18.8513  -23.4095 H   0  0  0  0  0
   -3.1904  -16.2019  -24.3638 H   0  0  0  0  0
   -4.0334  -17.5771  -23.8238 H   0  0  0  0  0
   -3.5065  -17.0221  -26.5766 H   0  0  0  0  0
   -4.0121  -18.5824  -25.9859 H   0  0  0  0  0
   -0.1599  -18.6797  -25.0842 H   0  0  0  0  0
   -0.4813  -17.0377  -25.4058 H   0  0  0  0  0
   -1.5436  -13.8080  -24.1600 H   0  0  0  0  0
   -2.0207  -11.7533  -25.4455 H   0  0  0  0  0
    0.3575   -9.4600  -22.6942 H   0  0  0  0  0
   -1.9078   -9.9822  -26.8815 H   0  0  0  0  0
   -0.6780   -7.6172  -23.5026 H   0  0  0  0  0
   -2.0843   -5.2865  -24.6179 H   0  0  0  0  0
   -0.4174   -5.2547  -25.2438 H   0  0  0  0  0
   -1.7935   -5.2302  -26.3738 H   0  0  0  0  0
   -0.0828  -15.8559  -19.0611 H   0  0  0  0  0
    1.4794  -15.7274  -19.8477 H   0  0  0  0  0
    0.0376  -19.6420  -19.3191 H   0  0  0  0  0
   -1.1346  -18.2982  -19.1148 H   0  0  0  0  0
    0.6085  -13.7258  -21.0735 H   0  0  0  0  0
  1  4  1  0  0  0
 22  1  4  0  0  0
  1 25  4  0  0  0
 22  2  4  0  0  0
  2 24  4  0  0  0
  2 26  1  0  0  0
  3  5  1  0  0  0
 29  3  1  0  0  0
  3 31  2  0  0  0
  4 21  1  0  0  0
  6  7  1  0  0  0
  6  9  1  0  0  0
 25  6  1  0  0  0
  7  8  1  0  0  0
 30  8  1  0  0  0
  9 30  1  0  0  0
 10 11  4  0  0  0
 10 15  4  0  0  0
 26 10  1  0  0  0
 11 12  4  0  0  0
 12 13  4  0  0  0
 14 13  4  0  0  0
 13 16  1  0  0  0
 15 14  4  0  0  0
 15 23  1  0  0  0
 16 17  4  0  0  0
 16 18  4  0  0  0
 17 27  4  0  0  0
 18 28  4  0  0  0
 28 19  1  0  0  0
 20 22  1  0  0  0
 20 29  1  0  0  0
 21 29  1  0  0  0
 24 25  4  0  0  0
 27 28  4  0  0  0
  4 32  1  0  0  0
  4 33  1  0  0  0
  5 34  1  0  0  0
  5 35  1  0  0  0
  5 36  1  0  0  0
  6 37  1  0  0  0
  7 38  1  0  0  0
  7 39  1  0  0  0
  8 40  1  0  0  0
  8 41  1  0  0  0
  9 42  1  0  0  0
  9 43  1  0  0  0
 11 44  1  0  0  0
 12 45  1  0  0  0
 14 46  1  0  0  0
 17 47  1  0  0  0
 18 48  1  0  0  0
 19 49  1  0  0  0
 19 50  1  0  0  0
 19 51  1  0  0  0
 20 52  1  0  0  0
 20 53  1  0  0  0
 21 54  1  0  0  0
 21 55  1  0  0  0
 26 56  1  0  0  0
M  END
$$$$
