6q7v_ligand
  -I-interpret- 

 31 32  0  0  0  0  0  0  0  0999 V2000
  -33.9700  -27.0590    5.2510 C   0  0  0  0  0
  -35.2520  -25.0330    5.2320 C   0  0  0  0  0
  -31.5910  -21.4460    0.8710 C   0  0  0  0  0
  -31.1930  -24.9200    2.0820 C   0  0  0  0  0
  -31.6410  -22.6850    1.7540 C   0  0  0  0  0
  -32.2040  -22.5930    3.0150 C   0  0  0  0  0
  -32.2580  -23.7150    3.8280 C   0  0  0  0  0
  -32.9110  -24.8430    5.9880 C   0  0  0  0  0
  -34.0700  -25.6900    5.4790 C   0  0  0  0  0
  -35.0740  -27.7650    4.7810 C   0  0  0  0  0
  -36.2640  -27.0930    4.5380 C   0  0  0  0  0
  -36.3370  -25.7360    4.7660 C   0  0  0  0  0
  -31.7390  -24.9060    3.3490 C   0  0  0  0  0
  -37.3790  -27.7300    4.0760 F   0  0  0  0  0
  -32.6260  -20.6190    1.1940 F   0  0  0  0  0
  -31.6950  -21.8110   -0.4390 F   0  0  0  0  0
  -30.4130  -20.7950    1.0870 F   0  0  0  0  0
  -30.6560  -26.1760    1.5970 N   0  0  0  0  0
  -31.1570  -23.8370    1.3280 N   0  0  0  0  0
  -32.8370  -23.6490    5.1590 N   0  0  0  0  0
  -33.0299  -27.5772    5.4399 H   0  0  0  0  0
  -35.3283  -23.9595    5.4050 H   0  0  0  0  0
  -32.6034  -21.6421    3.3677 H   0  0  0  0  0
  -31.9779  -25.4033    5.9297 H   0  0  0  0  0
  -33.0701  -24.5707    7.0314 H   0  0  0  0  0
  -35.0044  -28.8384    4.6050 H   0  0  0  0  0
  -37.2724  -25.2106    4.5732 H   0  0  0  0  0
  -31.7612  -25.8099    3.9577 H   0  0  0  0  0
  -30.6906  -27.0072    2.1871 H   0  0  0  0  0
  -30.2435  -26.2286    0.6656 H   0  0  0  0  0
  -33.1933  -22.7617    5.5141 H   0  0  0  0  0
  9  1  4  0  0  0
  1 10  4  0  0  0
  9  2  4  0  0  0
  2 12  4  0  0  0
  5  3  1  0  0  0
  3 15  1  0  0  0
  3 16  1  0  0  0
  3 17  1  0  0  0
 13  4  4  0  0  0
  4 18  1  0  0  0
  4 19  4  0  0  0
  6  5  4  0  0  0
  5 19  4  0  0  0
  7  6  4  0  0  0
  7 13  4  0  0  0
 20  7  1  0  0  0
  8  9  1  0  0  0
  8 20  1  0  0  0
 10 11  4  0  0  0
 11 12  4  0  0  0
 11 14  1  0  0  0
  1 21  1  0  0  0
  2 22  1  0  0  0
  6 23  1  0  0  0
  8 24  1  0  0  0
  8 25  1  0  0  0
 10 26  1  0  0  0
 12 27  1  0  0  0
 13 28  1  0  0  0
 18 29  1  0  0  0
 18 30  1  0  0  0
 20 31  1  0  0  0
M  END
$$$$
