1idb_ligand
  -I-interpret- 

 93 96  0  0  0  0  0  0  0  0999 V2000
   51.1430   22.6980    6.1460 C   0  0  0  0  0
   51.1180   22.3530    7.6270 C   0  0  0  0  0
   51.8080   23.4450    9.5920 C   0  0  0  0  0
   51.0830   24.5550   10.0580 C   0  0  0  0  0
   50.9170   24.7950   11.4230 C   0  0  0  0  0
   51.5210   23.9480   12.3540 C   0  0  0  0  0
   52.2960   22.8820   11.8850 C   0  0  0  0  0
   52.4470   22.6120   10.5190 C   0  0  0  0  0
   50.4320   25.5230    9.1400 C   0  0  0  0  0
   53.2980   21.4380   10.0390 C   0  0  0  0  0
   50.5640   21.9530    5.3520 O   0  0  0  0  0
   52.0310   23.2320    8.2970 O   0  0  0  0  0
   53.5280   23.7020    2.3730 C   0  0  0  0  0
   51.8320   23.8140    5.7720 N   0  0  0  0  0
   51.8550   24.1220    4.3450 C   0  0  0  0  0
   51.1290   25.4530    4.0720 C   0  0  0  0  0
   49.7000   25.5220    4.6140 C   0  0  0  0  0
   48.5980   25.0420    3.8910 C   0  0  0  0  0
   49.4250   26.0910    5.8610 C   0  0  0  0  0
   47.2950   25.1260    4.3990 C   0  0  0  0  0
   48.1260   26.2070    6.3730 C   0  0  0  0  0
   47.0520   25.6940    5.6490 C   0  0  0  0  0
   53.2910   23.9880    3.8410 C   0  0  0  0  0
   54.0460   25.1400    4.1170 O   0  0  0  0  0
   53.3200   22.3030    2.2360 N   0  3  0  0  0
   52.8000   21.8460    0.9150 C   0  0  0  0  0
   52.7210   20.3510    0.9320 C   0  0  0  0  0
   53.8730   19.6370    1.5380 C   0  0  0  0  0
   54.0400   20.1140    2.9080 C   0  0  0  0  0
   54.4860   21.5480    2.7080 C   0  0  0  0  0
   51.4940   22.4250    0.4390 C   0  0  0  0  0
   50.4700   22.2930    1.1750 O   0  0  0  0  0
   51.6590   22.9310   -0.8410 N   0  0  0  0  0
   50.6210   23.5830   -1.5330 C   0  0  0  0  0
   51.0970   24.0740   -2.9210 C   0  0  0  0  0
   50.1750   24.8210   -0.7520 C   0  0  0  0  0
   49.4350   22.6290   -1.7240 C   0  0  0  0  0
   52.4810   16.2210   -2.6200 N   0  0  0  0  0
   53.5640   17.0150   -2.4900 C   0  0  0  0  0
   53.8810   17.5600   -1.2280 C   0  0  0  0  0
   53.0890   17.2690   -0.1380 C   0  0  0  0  0
   51.9870   16.4390   -0.3170 C   0  0  0  0  0
   51.7110   15.9250   -1.5840 C   0  0  0  0  0
   53.4470   17.9190    1.3870 S   0  0  0  0  0
   52.2630   17.5810    2.0750 O   0  0  0  0  0
   54.2500   17.1960    2.2840 O   0  0  0  0  0
   51.4122   21.3145    7.7787 H   0  0  0  0  0
   50.1116   22.4759    8.0273 H   0  0  0  0  0
   50.3180   25.6407   11.7608 H   0  0  0  0  0
   51.3915   24.1138   13.4235 H   0  0  0  0  0
   52.7996   22.2396   12.6073 H   0  0  0  0  0
   51.1876   25.9810    8.5017 H   0  0  0  0  0
   49.7008   25.0011    8.5227 H   0  0  0  0  0
   49.9313   26.2953    9.7239 H   0  0  0  0  0
   52.6783   20.7556    9.4572 H   0  0  0  0  0
   54.1120   21.8111    9.4174 H   0  0  0  0  0
   53.7089   20.9124   10.9010 H   0  0  0  0  0
   54.5299   23.9953    2.0596 H   0  0  0  0  0
   52.8562   24.2760    1.7347 H   0  0  0  0  0
   52.3074   24.4039    6.4550 H   0  0  0  0  0
   51.2834   23.4085    3.7515 H   0  0  0  0  0
   51.0643   25.5639    2.9896 H   0  0  0  0  0
   51.6981   26.2347    4.5751 H   0  0  0  0  0
   48.7592   24.5931    2.9109 H   0  0  0  0  0
   50.2569   26.4603    6.4607 H   0  0  0  0  0
   46.4616   24.7429    3.8102 H   0  0  0  0  0
   47.9567   26.6959    7.3324 H   0  0  0  0  0
   46.0402   25.7359    6.0523 H   0  0  0  0  0
   53.5958   23.0971    4.3901 H   0  0  0  0  0
   53.9389   25.3777    5.0409 H   0  0  0  0  0
   52.5375   22.0871    2.8536 H   0  0  0  0  0
   53.5151   22.2309    0.1880 H   0  0  0  0  0
   52.6850   20.0375   -0.1113 H   0  0  0  0  0
   51.8537   20.1003    1.5428 H   0  0  0  0  0
   54.8383   19.8078    1.0614 H   0  0  0  0  0
   54.7540   19.5221    3.4807 H   0  0  0  0  0
   53.1298   20.0302    3.5018 H   0  0  0  0  0
   54.8623   21.9667    3.6414 H   0  0  0  0  0
   55.2969   21.6001    1.9814 H   0  0  0  0  0
   52.5651   22.8271   -1.2978 H   0  0  0  0  0
   51.9239   24.7727   -2.7939 H   0  0  0  0  0
   51.4283   23.2207   -3.5128 H   0  0  0  0  0
   50.2729   24.5732   -3.4306 H   0  0  0  0  0
   49.8183   24.5188    0.2327 H   0  0  0  0  0
   51.0185   25.5024   -0.6410 H   0  0  0  0  0
   49.3716   25.3206   -1.2933 H   0  0  0  0  0
   49.7579   21.7602   -2.2976 H   0  0  0  0  0
   49.0689   22.3068   -0.7492 H   0  0  0  0  0
   48.6384   23.1445   -2.2604 H   0  0  0  0  0
   54.1903   17.2341   -3.3548 H   0  0  0  0  0
   54.7494   18.2091   -1.1152 H   0  0  0  0  0
   51.3434   16.1919    0.5273 H   0  0  0  0  0
   50.8502   15.2710   -1.7232 H   0  0  0  0  0
  1  2  1  0  0  0
  1 11  2  0  0  0
  2 12  1  0  0  0
  3  4  4  0  0  0
  3  8  4  0  0  0
 12  3  1  0  0  0
  4  5  4  0  0  0
  4  9  1  0  0  0
  5  6  4  0  0  0
  7  6  4  0  0  0
  8  7  4  0  0  0
  8 10  1  0  0  0
 23 13  1  0  0  0
 13 25  1  0  0  0
 14 15  1  0  0  0
 15 16  1  0  0  0
 15 23  1  0  0  0
 16 17  1  0  0  0
 17 18  4  0  0  0
 17 19  4  0  0  0
 18 20  4  0  0  0
 19 21  4  0  0  0
 20 22  4  0  0  0
 21 22  4  0  0  0
 23 24  1  0  0  0
 25 26  1  0  0  0
 25 30  1  0  0  0
 26 27  1  0  0  0
 26 31  1  0  0  0
 27 28  1  0  0  0
 29 28  1  0  0  0
 30 29  1  0  0  0
 31 32  2  0  0  0
 31 33  1  0  0  0
 33 34  1  0  0  0
 34 35  1  0  0  0
 34 36  1  0  0  0
 34 37  1  0  0  0
 39 38  4  0  0  0
 43 38  4  0  0  0
 40 39  4  0  0  0
 41 40  4  0  0  0
 41 42  4  0  0  0
 44 41  1  0  0  0
 42 43  4  0  0  0
 28 44  1  0  0  0
 44 45  2  0  0  0
 44 46  2  0  0  0
 14  1  1  0  0  0
  2 47  1  0  0  0
  2 48  1  0  0  0
  5 49  1  0  0  0
  6 50  1  0  0  0
  7 51  1  0  0  0
  9 52  1  0  0  0
  9 53  1  0  0  0
  9 54  1  0  0  0
 10 55  1  0  0  0
 10 56  1  0  0  0
 10 57  1  0  0  0
 13 58  1  0  0  0
 13 59  1  0  0  0
 14 60  1  0  0  0
 15 61  1  0  0  0
 16 62  1  0  0  0
 16 63  1  0  0  0
 18 64  1  0  0  0
 19 65  1  0  0  0
 20 66  1  0  0  0
 21 67  1  0  0  0
 22 68  1  0  0  0
 23 69  1  0  0  0
 24 70  1  0  0  0
 25 71  1  0  0  0
 26 72  1  0  0  0
 27 73  1  0  0  0
 27 74  1  0  0  0
 28 75  1  0  0  0
 29 76  1  0  0  0
 29 77  1  0  0  0
 30 78  1  0  0  0
 30 79  1  0  0  0
 33 80  1  0  0  0
 35 81  1  0  0  0
 35 82  1  0  0  0
 35 83  1  0  0  0
 36 84  1  0  0  0
 36 85  1  0  0  0
 36 86  1  0  0  0
 37 87  1  0  0  0
 37 88  1  0  0  0
 37 89  1  0  0  0
 39 90  1  0  0  0
 40 91  1  0  0  0
 42 92  1  0  0  0
 43 93  1  0  0  0
M  END
$$$$
