5f2w_ligand
  -I-interpret- 

 23 24  0  0  0  0  0  0  0  0999 V2000
   13.7830   48.5110  -53.1240 C   0  0  0  0  0
   14.8880   48.4290  -52.2860 C   0  0  0  0  0
   15.6770   47.2830  -52.3300 C   0  0  0  0  0
   14.3390   46.3400  -53.9330 C   0  0  0  0  0
   13.4950   47.4350  -53.9530 C   0  0  0  0  0
   16.8540   47.1590  -51.4590 C   0  0  0  0  0
   15.4240   46.2450  -53.1440 N   0  0  0  0  0
   17.5250   48.2130  -50.9290 C   0  0  0  0  0
   18.4430   46.0500  -50.3560 C   0  0  0  0  0
   11.7630   49.7550  -53.2850 O   0  0  0  0  0
   13.0010   49.7930  -53.1530 C   0  0  0  0  0
   13.6830   50.9330  -53.0230 N   0  0  0  0  0
   17.3830   45.9070  -51.1240 N   0  0  0  0  0
   19.1770   45.0350  -49.8820 N   0  0  0  0  0
   18.8630   47.7030  -49.9900 S   0  0  0  0  0
   15.1324   49.2461  -51.6073 H   0  0  0  0  0
   14.1117   45.5048  -54.5955 H   0  0  0  0  0
   12.6222   47.4532  -54.6056 H   0  0  0  0  0
   17.2465   49.2556  -51.0822 H   0  0  0  0  0
   13.1899   51.8258  -53.0291 H   0  0  0  0  0
   14.6973   50.9113  -52.9176 H   0  0  0  0  0
   18.9262   44.0734  -50.1118 H   0  0  0  0  0
   19.9868   45.2236  -49.2912 H   0  0  0  0  0
  1  2  4  0  0  0
  1  5  4  0  0  0
  1 11  1  0  0  0
  2  3  4  0  0  0
  3  6  1  0  0  0
  3  7  4  0  0  0
  5  4  4  0  0  0
  4  7  4  0  0  0
  6  8  4  0  0  0
  6 13  4  0  0  0
  8 15  4  0  0  0
 13  9  4  0  0  0
  9 14  1  0  0  0
  9 15  4  0  0  0
 11 10  2  0  0  0
 11 12  1  0  0  0
  2 16  1  0  0  0
  4 17  1  0  0  0
  5 18  1  0  0  0
  8 19  1  0  0  0
 12 20  1  0  0  0
 12 21  1  0  0  0
 14 22  1  0  0  0
 14 23  1  0  0  0
M  END
$$$$
