1zd3_ligand
  -I-interpret- 

 36 36  0  0  0  0  0  0  0  0999 V2000
  -17.6210   -7.3610   63.0660 C   0  0  0  0  0
  -18.0200   -7.7600   64.4210 N   0  0  0  0  0
  -17.7790   -8.9930   64.9630 C   0  0  0  0  0
  -18.2270   -9.1620   66.2440 N   0  0  0  0  0
  -18.0320  -10.4100   66.9900 C   0  0  0  0  0
  -18.1580  -10.1230   68.4920 C   0  0  0  0  0
  -16.9560  -10.6580   69.2970 C   0  0  0  0  0
  -17.0630  -10.3930   70.7970 C   0  0  0  0  0
  -15.9950  -10.8730   71.4680 O   0  0  0  0  0
  -17.2040   -9.8610   64.3660 O   0  0  0  0  0
  -17.9610   -9.8310   71.3770 O   0  0  0  0  0
  -18.6010   -6.3010   62.4940 C   0  0  0  0  0
  -18.1890   -5.8690   61.0700 C   0  0  0  0  0
  -16.7410   -5.3230   61.0530 C   0  0  0  0  0
  -15.7300   -6.3360   61.6540 C   0  0  0  0  0
  -16.1780   -6.7800   63.0760 C   0  0  0  0  0
  -17.6489   -8.2471   62.4319 H   0  0  0  0  0
  -18.5086   -7.0736   64.9959 H   0  0  0  0  0
  -18.7156   -8.3905   66.6983 H   0  0  0  0  0
  -17.0425  -10.8140   66.7759 H   0  0  0  0  0
  -18.7871  -11.1372   66.6913 H   0  0  0  0  0
  -19.0561  -10.6220   68.8561 H   0  0  0  0  0
  -18.1989   -9.0420   68.6261 H   0  0  0  0  0
  -16.0647  -10.1449   68.9359 H   0  0  0  0  0
  -16.9215  -11.7383   69.1563 H   0  0  0  0  0
  -15.3878  -11.2844   70.8486 H   0  0  0  0  0
  -18.5822   -5.4248   63.1421 H   0  0  0  0  0
  -19.5985   -6.7381   62.4496 H   0  0  0  0  0
  -18.8636   -5.0813   60.7347 H   0  0  0  0  0
  -18.2434   -6.7363   60.4121 H   0  0  0  0  0
  -16.7122   -4.4149   61.6552 H   0  0  0  0  0
  -16.4599   -5.1352   60.0168 H   0  0  0  0  0
  -14.7525   -5.8590   61.7249 H   0  0  0  0  0
  -15.6837   -7.2132   61.0087 H   0  0  0  0  0
  -15.4967   -7.5558   63.4253 H   0  0  0  0  0
  -16.1621   -5.9082   63.7301 H   0  0  0  0  0
  1  2  1  0  0  0
  1 12  1  0  0  0
  1 16  1  0  0  0
  2  3  1  0  0  0
  3  4  1  0  0  0
  3 10  2  0  0  0
  4  5  1  0  0  0
  5  6  1  0  0  0
  6  7  1  0  0  0
  7  8  1  0  0  0
  8  9  1  0  0  0
  8 11  2  0  0  0
 12 13  1  0  0  0
 13 14  1  0  0  0
 14 15  1  0  0  0
 15 16  1  0  0  0
  1 17  1  0  0  0
  2 18  1  0  0  0
  4 19  1  0  0  0
  5 20  1  0  0  0
  5 21  1  0  0  0
  6 22  1  0  0  0
  6 23  1  0  0  0
  7 24  1  0  0  0
  7 25  1  0  0  0
  9 26  1  0  0  0
 12 27  1  0  0  0
 12 28  1  0  0  0
 13 29  1  0  0  0
 13 30  1  0  0  0
 14 31  1  0  0  0
 14 32  1  0  0  0
 15 33  1  0  0  0
 15 34  1  0  0  0
 16 35  1  0  0  0
 16 36  1  0  0  0
M  END
$$$$
