4q09_ligand
  -I-interpret- 

 51 52  0  0  0  0  0  0  0  0999 V2000
   -5.5950    3.6610   15.6080 F   0  0  0  0  0
   -4.8780    2.9420   14.6970 C   0  0  0  0  0
   -4.6050    1.5950   14.9360 C   0  0  0  0  0
   -5.2610    0.8870   16.4700 S   0  0  0  0  0
   -6.6540    1.2510   16.4520 O   0  0  0  0  0
   -5.0880   -0.5990   16.3240 N   0  0  0  0  0
   -4.4350    1.3910   17.5120 O   0  0  0  0  0
   -3.9380    0.9230   13.9820 C   0  0  0  0  0
   -3.6440   -0.4120   14.0560 F   0  0  0  0  0
   -3.5470    1.4570   12.7990 C   0  0  0  0  0
   -2.8640    0.7590   11.8990 F   0  0  0  0  0
   -4.4830    3.5930   13.5080 C   0  0  0  0  0
   -3.7770    2.8250   12.5840 C   0  0  0  0  0
   -3.0160    3.4890   11.0860 S   0  0  0  0  0
   -3.5650    4.8100   10.8680 O   0  0  0  0  0
   -3.2120    2.5820    9.9710 O   0  0  0  0  0
   -1.2000    3.4640   11.0980 C   0  0  0  0  0
   -0.5320    4.3140   12.1590 C   0  0  0  0  0
   -0.5710    3.8170   13.4940 O   0  0  0  0  0
   -4.8260    4.9440   13.2740 N   0  0  0  0  0
   -4.9520    6.0640   14.2220 C   0  0  0  0  0
   -3.5670    6.2710   14.7510 C   0  0  0  0  0
   -2.6290    7.0580   13.8730 C   0  0  0  0  0
   -2.5590    8.5620   14.3740 C   0  0  0  0  0
   -3.7840    9.5410   14.1200 C   0  0  0  0  0
   -5.0260    9.2480   14.9970 C   0  0  0  0  0
   -6.1610    8.3680   14.3840 C   0  0  0  0  0
   -5.6780    7.2300   13.5470 C   0  0  0  0  0
   -5.9061   -1.2008   16.2295 H   0  0  0  0  0
   -4.1525   -1.0055   16.3194 H   0  0  0  0  0
   -0.8817    3.8676   10.1368 H   0  0  0  0  0
   -0.9091    2.4337   11.3029 H   0  0  0  0  0
   -1.0758    5.2585   12.1739 H   0  0  0  0  0
    0.5223    4.3613   11.8865 H   0  0  0  0  0
   -0.1205    4.4327   14.0768 H   0  0  0  0  0
   -5.0152    5.1792   12.2997 H   0  0  0  0  0
   -5.5891    5.8981   15.0907 H   0  0  0  0  0
   -3.1284    5.2782   14.8513 H   0  0  0  0  0
   -3.6757    6.8452   15.6711 H   0  0  0  0  0
   -2.9935    7.0368   12.8460 H   0  0  0  0  0
   -1.6340    6.6155   13.9207 H   0  0  0  0  0
   -1.7376    9.0003   13.8072 H   0  0  0  0  0
   -2.4918    8.4851   15.4592 H   0  0  0  0  0
   -4.0874    9.4124   13.0810 H   0  0  0  0  0
   -3.4469   10.5476   14.3674 H   0  0  0  0  0
   -5.4825   10.2193   15.1875 H   0  0  0  0  0
   -4.6515    8.6847   15.8517 H   0  0  0  0  0
   -6.7503    9.0147   13.7339 H   0  0  0  0  0
   -6.7166    7.9379   15.2173 H   0  0  0  0  0
   -6.5816    6.7901   13.1249 H   0  0  0  0  0
   -4.9389    7.6695   12.8772 H   0  0  0  0  0
  1  2  1  0  0  0
  2  3  4  0  0  0
  2 12  4  0  0  0
  3  4  1  0  0  0
  3  8  4  0  0  0
  4  5  2  0  0  0
  4  6  1  0  0  0
  4  7  2  0  0  0
  8  9  1  0  0  0
  8 10  4  0  0  0
 10 11  1  0  0  0
 10 13  4  0  0  0
 12 13  4  0  0  0
 12 20  1  0  0  0
 13 14  1  0  0  0
 14 15  2  0  0  0
 14 16  2  0  0  0
 14 17  1  0  0  0
 17 18  1  0  0  0
 18 19  1  0  0  0
 20 21  1  0  0  0
 21 22  1  0  0  0
 21 28  1  0  0  0
 22 23  1  0  0  0
 23 24  1  0  0  0
 24 25  1  0  0  0
 25 26  1  0  0  0
 26 27  1  0  0  0
 27 28  1  0  0  0
  6 29  1  0  0  0
  6 30  1  0  0  0
 17 31  1  0  0  0
 17 32  1  0  0  0
 18 33  1  0  0  0
 18 34  1  0  0  0
 19 35  1  0  0  0
 20 36  1  0  0  0
 21 37  1  0  0  0
 22 38  1  0  0  0
 22 39  1  0  0  0
 23 40  1  0  0  0
 23 41  1  0  0  0
 24 42  1  0  0  0
 24 43  1  0  0  0
 25 44  1  0  0  0
 25 45  1  0  0  0
 26 46  1  0  0  0
 26 47  1  0  0  0
 27 48  1  0  0  0
 27 49  1  0  0  0
 28 50  1  0  0  0
 28 51  1  0  0  0
M  END
$$$$
