3w55_ligand
  -I-interpret- 

 50 51  0  0  0  0  0  0  0  0999 V2000
   17.5780   38.0050   45.2320 C   0  0  0  0  0
   17.3670   39.1160   44.3650 C   0  0  0  0  0
   18.8550   37.4200   45.2680 C   0  0  0  0  0
   18.4340   39.5990   43.5970 C   0  0  0  0  0
   19.6950   39.0090   43.6670 C   0  0  0  0  0
   15.2730   37.8420   45.9850 O   0  0  0  0  0
   19.8960   37.9160   44.5000 C   0  0  0  0  0
   15.3380   39.8540   43.1080 C   0  0  0  0  0
   12.9280   38.1820   45.7230 C   0  0  0  0  0
   16.0740   39.8070   44.2400 C   0  0  0  0  0
   12.9240   39.4980   42.4050 C   0  0  0  0  0
   16.5490   37.3750   46.1400 C   0  0  0  0  0
   13.9730   37.6700   46.7100 C   0  0  0  0  0
   13.8970   40.3680   43.1480 C   0  0  0  0  0
   16.8310   36.5160   46.9810 O   0  0  0  0  0
   11.4560   39.7640   42.5150 C   0  0  0  0  0
   11.4100   38.5000   43.3410 C   0  0  0  0  0
   11.9540   37.4750   42.9850 O   0  0  0  0  0
   10.6660   38.5160   44.6400 C   0  0  0  0  0
   11.4710   37.7740   45.7100 C   0  0  0  0  0
   13.3050   38.9910   41.2070 O   0  0  0  0  0
   10.8980   40.9310   43.0710 O   0  0  0  0  0
   19.1290   36.4610   45.9730 O   0  0  0  0  0
   20.7280   39.5140   42.9000 O   0  0  0  0  0
   21.9810   39.5700   43.5770 C   0  0  0  0  0
   13.9330   38.3370   48.0830 C   0  0  0  0  0
   18.2759   40.4497   42.9341 H   0  0  0  0  0
   20.1416   37.1004   43.8199 H   0  0  0  0  0
   20.6272   38.2641   45.2296 H   0  0  0  0  0
   15.7717   39.5250   42.1637 H   0  0  0  0  0
   13.2891   37.7828   44.7752 H   0  0  0  0  0
   12.8701   39.2409   45.9751 H   0  0  0  0  0
   15.6831   40.3159   45.1211 H   0  0  0  0  0
   13.0384   38.6614   43.0942 H   0  0  0  0  0
   13.7895   36.6304   46.9813 H   0  0  0  0  0
   13.8875   41.3481   42.6711 H   0  0  0  0  0
   13.5864   40.3854   44.1927 H   0  0  0  0  0
   10.8785   39.9574   41.6110 H   0  0  0  0  0
    9.7025   38.0236   44.5088 H   0  0  0  0  0
   10.5146   39.5484   44.9552 H   0  0  0  0  0
   11.0440   38.0181   46.6827 H   0  0  0  0  0
   11.4216   36.7076   45.4898 H   0  0  0  0  0
   12.5931   38.4581   40.8453 H   0  0  0  0  0
    9.9403   40.8761   43.0326 H   0  0  0  0  0
   21.8899   40.2094   44.4550 H   0  0  0  0  0
   22.2708   38.5657   43.8859 H   0  0  0  0  0
   22.7372   39.9776   42.9060 H   0  0  0  0  0
   14.1024   39.4079   47.9704 H   0  0  0  0  0
   12.9576   38.1681   48.5393 H   0  0  0  0  0
   14.7106   37.9095   48.7160 H   0  0  0  0  0
  1  2  2  0  0  0
  1  3  1  0  0  0
  1 12  1  0  0  0
  2  4  1  0  0  0
  2 10  1  0  0  0
  3  7  1  0  0  0
  3 23  2  0  0  0
  4  5  2  0  0  0
  5  7  1  0  0  0
  5 24  1  0  0  0
 12  6  1  0  0  0
  6 13  1  0  0  0
 10  8  2  0  0  0
  8 14  1  0  0  0
 13  9  1  0  0  0
  9 20  1  0  0  0
 14 11  1  0  0  0
 11 16  1  0  0  0
 11 21  1  0  0  0
 12 15  2  0  0  0
 13 26  1  0  0  0
 16 17  1  0  0  0
 16 22  1  0  0  0
 17 18  2  0  0  0
 17 19  1  0  0  0
 19 20  1  0  0  0
 24 25  1  0  0  0
  4 27  1  0  0  0
  7 28  1  0  0  0
  7 29  1  0  0  0
  8 30  1  0  0  0
  9 31  1  0  0  0
  9 32  1  0  0  0
 10 33  1  0  0  0
 11 34  1  0  0  0
 13 35  1  0  0  0
 14 36  1  0  0  0
 14 37  1  0  0  0
 16 38  1  0  0  0
 19 39  1  0  0  0
 19 40  1  0  0  0
 20 41  1  0  0  0
 20 42  1  0  0  0
 21 43  1  0  0  0
 22 44  1  0  0  0
 25 45  1  0  0  0
 25 46  1  0  0  0
 25 47  1  0  0  0
 26 48  1  0  0  0
 26 49  1  0  0  0
 26 50  1  0  0  0
M  END
$$$$
