6cdo_ligand
  -I-interpret- 

109109  0  0  0  0  0  0  0  0999 V2000
   21.8430   23.2150   13.2380 N   0  3  0  0  0
   23.0460   24.0140   13.3760 C   0  0  0  0  0
   24.2990   23.1310   13.2590 C   0  0  0  0  0
   24.1930   21.9180   13.2520 O   0  0  0  0  0
   23.0380   24.7490   14.7000 C   0  0  0  0  0
   25.4760   23.7570   13.1760 N   0  0  0  0  0
   26.7350   22.9990   13.1550 C   0  0  0  0  0
   26.9050   22.2260   14.4570 C   0  0  0  0  0
   27.0070   20.9940   14.4660 O   0  0  0  0  0
   27.9250   23.9430   12.9060 C   0  0  0  0  0
   29.2680   23.1730   13.0480 C   0  0  0  0  0
   27.8090   24.6050   11.5420 C   0  0  0  0  0
   26.8620   22.9340   15.5750 N   0  0  0  0  0
   27.0730   22.4060   16.9140 C   0  0  0  0  0
   28.3440   23.0370   17.4420 C   0  0  0  0  0
   29.3160   23.2090   16.7000 O   0  0  0  0  0
   28.3330   23.4290   18.7200 N   0  0  0  0  0
   29.5170   24.0720   19.2800 C   0  0  0  0  0
   30.6650   23.0820   19.4570 C   0  0  0  0  0
   31.8190   23.5020   19.6260 O   0  0  0  0  0
   29.2120   24.7600   20.6260 C   0  0  0  0  0
   28.8710   23.7000   21.6720 C   0  0  0  0  0
   28.0660   25.7920   20.4950 C   0  0  0  0  0
   28.9460   24.2090   23.0730 C   0  0  0  0  0
   30.3890   21.7820   19.4180 N   0  0  0  0  0
   31.4250   20.7790   19.5630 C   0  0  0  0  0
   31.8720   20.0950   18.2870 C   0  0  0  0  0
   32.7910   19.2710   18.3350 O   0  0  0  0  0
   31.2920   20.4590   17.1420 N   0  0  0  0  0
   31.4810   19.7060   15.9050 C   0  0  0  0  0
   32.9150   19.7680   15.3890 C   0  0  0  0  0
   33.3550   18.8460   14.6960 O   0  0  0  0  0
   30.5190   20.2210   14.8290 C   0  0  0  0  0
   33.6540   20.8400   15.6970 N   0  0  0  0  0
   35.0190   20.9910   15.1920 C   0  0  0  0  0
   36.0530   20.2850   16.0500 C   0  0  0  0  0
   37.2530   20.4470   15.8040 O   0  0  0  0  0
   35.4320   22.4710   15.0980 C   0  0  0  0  0
   34.5350   23.2290   14.1160 C   0  0  0  0  0
   35.3760   23.1130   16.4780 C   0  0  0  0  0
   35.6370   19.5370   17.0650 N   0  0  0  0  0
   36.5810   18.8380   17.9280 C   0  0  0  0  0
   36.4920   17.3360   17.6940 C   0  0  0  0  0
   37.2040   16.5660   18.3340 O   0  0  0  0  0
   36.3250   19.1620   19.4060 C   0  0  0  0  0
   36.2360   20.6450   19.7030 C   0  0  0  0  0
   37.3220   21.4810   19.4750 C   0  0  0  0  0
   35.0750   21.1940   20.2210 C   0  0  0  0  0
   37.2500   22.8450   19.7390 C   0  0  0  0  0
   34.9860   22.5650   20.4940 C   0  0  0  0  0
   36.0770   23.3920   20.2510 C   0  0  0  0  0
   35.7080   16.8840   16.8640 O   0  0  0  0  0
   21.8618   22.7262   12.3430 H   0  0  0  0  0
   21.7988   22.5352   13.9972 H   0  0  0  0  0
   21.0256   23.8238   13.2772 H   0  0  0  0  0
   23.0683   24.7474   12.5700 H   0  0  0  0  0
   23.0401   24.0259   15.5156 H   0  0  0  0  0
   23.9244   25.3795   14.7694 H   0  0  0  0  0
   22.1437   25.3688   14.7646 H   0  0  0  0  0
   25.5014   24.7755   13.1265 H   0  0  0  0  0
   26.7025   22.2795   12.3368 H   0  0  0  0  0
   27.9080   24.7306   13.6593 H   0  0  0  0  0
   29.3451   22.7622   14.0547 H   0  0  0  0  0
   29.2993   22.3624   12.3200 H   0  0  0  0  0
   30.0979   23.8565   12.8686 H   0  0  0  0  0
   27.7983   23.8384   10.7672 H   0  0  0  0  0
   26.8853   25.1819   11.4969 H   0  0  0  0  0
   28.6606   25.2676   11.3876 H   0  0  0  0  0
   26.6648   23.9312   15.4905 H   0  0  0  0  0
   27.1617   21.3199   16.8912 H   0  0  0  0  0
   26.2274   22.6423   17.5599 H   0  0  0  0  0
   27.5056   23.2802   19.2976 H   0  0  0  0  0
   29.8217   24.8343   18.5630 H   0  0  0  0  0
   30.0994   25.3083   20.9421 H   0  0  0  0  0
   29.5986   22.8943   21.5744 H   0  0  0  0  0
   27.8453   23.3777   21.4927 H   0  0  0  0  0
   28.3497   26.5585   19.7738 H   0  0  0  0  0
   27.1618   25.2876   20.1543 H   0  0  0  0  0
   27.8823   26.2541   21.4650 H   0  0  0  0  0
   29.9577   24.5596   23.2771 H   0  0  0  0  0
   28.2427   25.0324   23.1972 H   0  0  0  0  0
   28.6922   23.4054   23.7643 H   0  0  0  0  0
   29.4233   21.4829   19.2825 H   0  0  0  0  0
   31.0076   19.9980   20.1985 H   0  0  0  0  0
   32.3001   21.2977   19.9545 H   0  0  0  0  0
   30.6985   21.2885   17.1302 H   0  0  0  0  0
   31.2668   18.6615   16.1314 H   0  0  0  0  0
   29.4919   20.0976   15.1725 H   0  0  0  0  0
   30.7165   21.2765   14.6419 H   0  0  0  0  0
   30.6667   19.6540   13.9099 H   0  0  0  0  0
   33.2585   21.5655   16.2950 H   0  0  0  0  0
   34.9996   20.5333   14.2029 H   0  0  0  0  0
   36.4546   22.5223   14.7242 H   0  0  0  0  0
   34.6189   22.7783   13.1271 H   0  0  0  0  0
   33.5004   23.1748   14.4548 H   0  0  0  0  0
   34.8492   24.2717   14.0694 H   0  0  0  0  0
   34.3601   23.0465   16.8673 H   0  0  0  0  0
   36.0583   22.5904   17.1484 H   0  0  0  0  0
   35.6697   24.1600   16.4024 H   0  0  0  0  0
   34.6367   19.4498   17.2445 H   0  0  0  0  0
   37.5858   19.1784   17.6778 H   0  0  0  0  0
   37.7565   17.0691   18.9367 H   0  0  0  0  0
   37.1669   18.7675   19.9749 H   0  0  0  0  0
   35.3653   18.7197   19.6733 H   0  0  0  0  0
   38.2476   21.0604   19.0820 H   0  0  0  0  0
   34.2181   20.5501   20.4191 H   0  0  0  0  0
   38.1111   23.4845   19.5451 H   0  0  0  0  0
   34.0631   22.9828   20.8962 H   0  0  0  0  0
   36.0142   24.4600   20.4598 H   0  0  0  0  0
  1  2  1  0  0  0
  2  3  1  0  0  0
  2  5  1  0  0  0
  3  4  2  0  0  0
  3  6  1  0  0  0
  6  7  1  0  0  0
  7  8  1  0  0  0
  7 10  1  0  0  0
  8  9  2  0  0  0
  8 13  1  0  0  0
 10 11  1  0  0  0
 10 12  1  0  0  0
 13 14  1  0  0  0
 14 15  1  0  0  0
 15 16  2  0  0  0
 15 17  1  0  0  0
 17 18  1  0  0  0
 18 19  1  0  0  0
 18 21  1  0  0  0
 19 20  2  0  0  0
 19 25  1  0  0  0
 21 22  1  0  0  0
 21 23  1  0  0  0
 22 24  1  0  0  0
 25 26  1  0  0  0
 26 27  1  0  0  0
 27 28  2  0  0  0
 27 29  1  0  0  0
 29 30  1  0  0  0
 30 31  1  0  0  0
 30 33  1  0  0  0
 31 32  2  0  0  0
 31 34  1  0  0  0
 34 35  1  0  0  0
 35 36  1  0  0  0
 35 38  1  0  0  0
 36 37  2  0  0  0
 36 41  1  0  0  0
 38 39  1  0  0  0
 38 40  1  0  0  0
 41 42  1  0  0  0
 42 43  1  0  0  0
 42 45  1  0  0  0
 43 44  1  0  0  0
 43 52  2  0  0  0
 45 46  1  0  0  0
 46 47  4  0  0  0
 46 48  4  0  0  0
 47 49  4  0  0  0
 48 50  4  0  0  0
 49 51  4  0  0  0
 50 51  4  0  0  0
  1 53  1  0  0  0
  1 54  1  0  0  0
  1 55  1  0  0  0
  2 56  1  0  0  0
  5 57  1  0  0  0
  5 58  1  0  0  0
  5 59  1  0  0  0
  6 60  1  0  0  0
  7 61  1  0  0  0
 10 62  1  0  0  0
 11 63  1  0  0  0
 11 64  1  0  0  0
 11 65  1  0  0  0
 12 66  1  0  0  0
 12 67  1  0  0  0
 12 68  1  0  0  0
 13 69  1  0  0  0
 14 70  1  0  0  0
 14 71  1  0  0  0
 17 72  1  0  0  0
 18 73  1  0  0  0
 21 74  1  0  0  0
 22 75  1  0  0  0
 22 76  1  0  0  0
 23 77  1  0  0  0
 23 78  1  0  0  0
 23 79  1  0  0  0
 24 80  1  0  0  0
 24 81  1  0  0  0
 24 82  1  0  0  0
 25 83  1  0  0  0
 26 84  1  0  0  0
 26 85  1  0  0  0
 29 86  1  0  0  0
 30 87  1  0  0  0
 33 88  1  0  0  0
 33 89  1  0  0  0
 33 90  1  0  0  0
 34 91  1  0  0  0
 35 92  1  0  0  0
 38 93  1  0  0  0
 39 94  1  0  0  0
 39 95  1  0  0  0
 39 96  1  0  0  0
 40 97  1  0  0  0
 40 98  1  0  0  0
 40 99  1  0  0  0
 41100  1  0  0  0
 42101  1  0  0  0
 44102  1  0  0  0
 45103  1  0  0  0
 45104  1  0  0  0
 47105  1  0  0  0
 48106  1  0  0  0
 49107  1  0  0  0
 50108  1  0  0  0
 51109  1  0  0  0
M  END
$$$$
