### 
### Created by X-TOOL on Mon Sep 10 21:13:26 2018
### 

@<TRIPOS>MOLECULE
5i8c_ligand
  108   108     1     0     0
SMALL
GAST_HUCK


@<TRIPOS>ATOM
      1 N          -0.6310   14.3570   -9.3290 N.4       1 ALA         0.2377
      2 CA         -1.9230   13.7280   -9.5750 C.3       1 ALA         0.0621
      3 C          -2.1190   13.5370  -11.0720 C.2       1 ALA         0.2264
      4 O          -1.4480   14.1790  -11.8900 O.2       1 ALA        -0.3907
      5 CB         -3.0530   14.5700   -8.9860 C.3       1 ALA        -0.0040
      6 N          -3.0440   12.6570  -11.4350 N.am      1 VAL        -0.2608
      7 CA         -3.3460   12.4490  -12.8450 C.3       1 VAL         0.1334
      8 C          -3.9410   13.7060  -13.4790 C.2       1 VAL         0.2040
      9 O          -4.5430   14.5430  -12.8040 O.2       1 VAL        -0.3944
     10 CB         -4.3040   11.2590  -13.0480 C.3       1 VAL        -0.0063
     11 CG1        -3.6470    9.9850  -12.5550 C.3       1 VAL        -0.0584
     12 CG2        -5.6370   11.4730  -12.3190 C.3       1 VAL        -0.0584
     13 N          -3.7750   13.8370  -14.7910 N.am      1 GLY        -0.2664
     14 CA         -4.2840   15.0040  -15.4980 C.3       1 GLY         0.1201
     15 C          -4.6340   14.6450  -16.9260 C.2       1 GLY         0.2008
     16 O          -4.1540   13.6500  -17.4650 O.2       1 GLY        -0.3947
     17 N          -5.5950   15.3670  -17.4820 N.am      1 ILE        -0.2637
     18 CA         -6.0800   15.1120  -18.8350 C.3       1 ILE         0.1335
     19 C          -5.8720   16.3020  -19.8000 C.2       1 ILE         0.2040
     20 O          -6.6510   16.4840  -20.7440 O.2       1 ILE        -0.3944
     21 CB         -7.5340   14.5540  -18.7640 C.3       1 ILE        -0.0037
     22 CG1        -7.9540   13.9270  -20.0970 C.3       1 ILE        -0.0491
     23 CG2        -8.5190   15.5390  -18.1740 C.3       1 ILE        -0.0582
     24 CD1        -9.0940   12.9710  -19.9390 C.3       1 ILE        -0.0648
     25 N          -4.9670   17.2100  -19.4530 N.am      1 GLY        -0.2664
     26 CA         -4.5940   18.2740  -20.3770 C.3       1 GLY         0.1201
     27 C          -5.2120   19.6340  -20.1040 C.2       1 GLY         0.2007
     28 O          -6.0060   19.7970  -19.1840 O.2       1 GLY        -0.3947
     29 N          -4.8330   20.6240  -20.9110 N.am      1 ALA        -0.2642
     30 CA         -5.3260   21.9840  -20.7420 C.3       1 ALA         0.1282
     31 C          -6.8270   22.1140  -20.9910 C.2       1 ALA         0.2036
     32 O          -7.3960   21.3880  -21.8140 O.2       1 ALA        -0.3944
     33 CB         -4.5620   22.9190  -21.6740 C.3       1 ALA        -0.0244
     34 N          -7.4630   23.0470  -20.2920 N.am      1 VAL        -0.2635
     35 CA         -8.8870   23.3190  -20.4850 C.3       1 VAL         0.1332
     36 C          -9.0760   24.7690  -20.9150 C.2       1 VAL         0.2037
     37 O          -8.1030   25.4820  -21.1280 O.2       1 VAL        -0.3944
     38 CB         -9.7160   23.0260  -19.2110 C.3       1 VAL        -0.0063
     39 CG1        -9.8910   21.5130  -19.0430 C.3       1 VAL        -0.0584
     40 CG2        -9.0740   23.6630  -17.9650 C.3       1 VAL        -0.0584
     41 N         -10.3240   25.1960  -21.0490 N.am      1 PHE        -0.2677
     42 CA        -10.6050   26.5390  -21.5480 C.3       1 PHE         0.1039
     43 C         -11.6330   27.2440  -20.6720 C.2       1 PHE         0.0621
     44 O         -12.8210   26.9160  -20.7170 O.co2     1 PHE        -0.5664
     45 CB        -11.0990   26.4650  -22.9940 C.3       1 PHE         0.0159
     46 CG        -11.3720   27.8080  -23.6180 C.ar      1 PHE        -0.0392
     47 CD1       -10.3630   28.5030  -24.2650 C.ar      1 PHE        -0.0602
     48 CD2       -12.6400   28.3680  -23.5680 C.ar      1 PHE        -0.0602
     49 CE1       -10.6140   29.7370  -24.8460 C.ar      1 PHE        -0.0686
     50 CE2       -12.8950   29.6000  -24.1460 C.ar      1 PHE        -0.0686
     51 CZ        -11.8810   30.2840  -24.7840 C.ar      1 PHE        -0.0687
     52 OXT       -11.2870   28.1490  -19.9100 O.co2     1 PHE        -0.5664
     53 H1         -0.5021   14.4831   -8.3373 H         1 ALA         0.2015
     54 H2         -0.6009   15.2537   -9.7884 H         1 ALA         0.2015
     55 H3          0.1033   13.7691   -9.6912 H         1 ALA         0.2015
     56 H4         -1.9335   12.7413   -9.0890 H         1 ALA         0.1095
     57 H5         -4.0172   14.0784   -9.1824 H         1 ALA         0.0310
     58 H6         -3.0483   15.5668   -9.4510 H         1 ALA         0.0310
     59 H7         -2.9074   14.6711   -7.9004 H         1 ALA         0.0310
     60 H8         -3.5355   12.1348  -10.7380 H         1 VAL         0.1885
     61 H9         -2.4019   12.2196  -13.3607 H         1 VAL         0.0802
     62 H10        -4.5095   11.1581  -14.1239 H         1 VAL         0.0343
     63 H11        -4.3335    9.1381  -12.7015 H         1 VAL         0.0234
     64 H12        -3.4106   10.0846  -11.4853 H         1 VAL         0.0234
     65 H13        -2.7203    9.8078  -13.1205 H         1 VAL         0.0234
     66 H14        -6.1084   12.3986  -12.6811 H         1 VAL         0.0234
     67 H15        -5.4546   11.5534  -11.2372 H         1 VAL         0.0234
     68 H16        -6.3037   10.6206  -12.5161 H         1 VAL         0.0234
     69 H17        -3.2935   13.1237  -15.3003 H         1 GLY         0.1881
     70 H18        -3.5149   15.7904  -15.5002 H         1 GLY         0.0763
     71 H19        -5.1848   15.3735  -14.9861 H         1 GLY         0.0763
     72 H20        -6.0029   16.1134  -16.9562 H         1 ILE         0.1883
     73 H21        -5.4606   14.2984  -19.2403 H         1 ILE         0.0803
     74 H22        -7.5005   13.7203  -18.0472 H         1 ILE         0.0345
     75 H23        -7.0947   13.3863  -20.5203 H         1 ILE         0.0267
     76 H24        -8.2577   14.7293  -20.7855 H         1 ILE         0.0267
     77 H25        -8.1240   15.9281  -17.2240 H         1 ILE         0.0235
     78 H26        -9.4789   15.0335  -17.9923 H         1 ILE         0.0235
     79 H27        -8.6703   16.3717  -18.8766 H         1 ILE         0.0235
     80 H28        -9.3574   12.5491  -20.9201 H         1 ILE         0.0230
     81 H29        -9.9629   13.5020  -19.5230 H         1 ILE         0.0230
     82 H30        -8.7999   12.1590  -19.2578 H         1 ILE         0.0230
     83 H31        -4.5381   17.1634  -18.5508 H         1 GLY         0.1881
     84 H32        -4.8951   17.9635  -21.3884 H         1 GLY         0.0763
     85 H33        -3.5005   18.3865  -20.3383 H         1 GLY         0.0763
     86 H34        -4.1923   20.4279  -21.6533 H         1 ALA         0.1883
     87 H35        -5.1298   22.2882  -19.7033 H         1 ALA         0.0797
     88 H36        -4.9333   23.9467  -21.5474 H         1 ALA         0.0277
     89 H37        -4.7119   22.6008  -22.7162 H         1 ALA         0.0277
     90 H38        -3.4899   22.8840  -21.4304 H         1 ALA         0.0277
     91 H39        -6.9541   23.5784  -19.6148 H         1 VAL         0.1883
     92 H40        -9.2553   22.6646  -21.2888 H         1 VAL         0.0802
     93 H41       -10.7127   23.4729  -19.3409 H         1 VAL         0.0343
     94 H42       -10.4805   21.3105  -18.1366 H         1 VAL         0.0234
     95 H43        -8.9033   21.0375  -18.9518 H         1 VAL         0.0234
     96 H44       -10.4149   21.1048  -19.9199 H         1 VAL         0.0234
     97 H45        -8.9646   24.7462  -18.1221 H         1 VAL         0.0234
     98 H46        -8.0839   23.2156  -17.7933 H         1 VAL         0.0234
     99 H47        -9.7148   23.4824  -17.0894 H         1 VAL         0.0234
    100 H48       -11.0820   24.5909  -20.8054 H         1 PHE         0.1877
    101 H49        -9.6721   27.1215  -21.5253 H         1 PHE         0.0749
    102 H50       -12.0302   25.8798  -23.0118 H         1 PHE         0.0467
    103 H51       -10.3330   25.9536  -23.5954 H         1 PHE         0.0467
    104 H52        -9.3672   28.0779  -24.3176 H         1 PHE         0.0557
    105 H53       -13.4415   27.8343  -23.0701 H         1 PHE         0.0557
    106 H54        -9.8164   30.2721  -25.3485 H         1 PHE         0.0599
    107 H55       -13.8903   30.0266  -24.0973 H         1 PHE         0.0599
    108 H56       -12.0782   31.2493  -25.2360 H         1 PHE         0.0559
@<TRIPOS>BOND
     1    1    2 1  
     2    2    3 1  
     3    2    5 1  
     4    3    4 2  
     5    3    6 am 
     6    6    7 1  
     7    7    8 1  
     8    7   10 1  
     9    8    9 2  
    10    8   13 am 
    11   10   11 1  
    12   10   12 1  
    13   13   14 1  
    14   14   15 1  
    15   15   16 2  
    16   15   17 am 
    17   17   18 1  
    18   18   19 1  
    19   18   21 1  
    20   19   20 2  
    21   19   25 am 
    22   21   22 1  
    23   21   23 1  
    24   22   24 1  
    25   25   26 1  
    26   26   27 1  
    27   27   28 2  
    28   27   29 am 
    29   29   30 1  
    30   30   31 1  
    31   30   33 1  
    32   31   32 2  
    33   31   34 am 
    34   34   35 1  
    35   35   36 1  
    36   35   38 1  
    37   36   37 2  
    38   36   41 am 
    39   38   39 1  
    40   38   40 1  
    41   41   42 1  
    42   42   43 1  
    43   42   45 1  
    44   43   44 ar 
    45   43   52 ar 
    46   45   46 1  
    47   46   47 ar 
    48   46   48 ar 
    49   47   49 ar 
    50   48   50 ar 
    51   49   51 ar 
    52   50   51 ar 
    53    1   53 1  
    54    1   54 1  
    55    1   55 1  
    56    2   56 1  
    57    5   57 1  
    58    5   58 1  
    59    5   59 1  
    60    6   60 1  
    61    7   61 1  
    62   10   62 1  
    63   11   63 1  
    64   11   64 1  
    65   11   65 1  
    66   12   66 1  
    67   12   67 1  
    68   12   68 1  
    69   13   69 1  
    70   14   70 1  
    71   14   71 1  
    72   17   72 1  
    73   18   73 1  
    74   21   74 1  
    75   22   75 1  
    76   22   76 1  
    77   23   77 1  
    78   23   78 1  
    79   23   79 1  
    80   24   80 1  
    81   24   81 1  
    82   24   82 1  
    83   25   83 1  
    84   26   84 1  
    85   26   85 1  
    86   29   86 1  
    87   30   87 1  
    88   33   88 1  
    89   33   89 1  
    90   33   90 1  
    91   34   91 1  
    92   35   92 1  
    93   38   93 1  
    94   39   94 1  
    95   39   95 1  
    96   39   96 1  
    97   40   97 1  
    98   40   98 1  
    99   40   99 1  
   100   41  100 1  
   101   42  101 1  
   102   45  102 1  
   103   45  103 1  
   104   47  104 1  
   105   48  105 1  
   106   49  106 1  
   107   50  107 1  
   108   51  108 1  
@<TRIPOS>SUBSTRUCTURE
     1 ALA         1

