5i8c_ligand
  -I-interpret- 

109109  0  0  0  0  0  0  0  0999 V2000
   -0.6310   14.3570   -9.3290 N   0  3  0  0  0
   -1.9230   13.7280   -9.5750 C   0  0  0  0  0
   -2.1190   13.5370  -11.0720 C   0  0  0  0  0
   -1.4480   14.1790  -11.8900 O   0  0  0  0  0
   -3.0530   14.5700   -8.9860 C   0  0  0  0  0
   -3.0440   12.6570  -11.4350 N   0  0  0  0  0
   -3.3460   12.4490  -12.8450 C   0  0  0  0  0
   -3.9410   13.7060  -13.4790 C   0  0  0  0  0
   -4.5430   14.5430  -12.8040 O   0  0  0  0  0
   -4.3040   11.2590  -13.0480 C   0  0  0  0  0
   -3.6470    9.9850  -12.5550 C   0  0  0  0  0
   -5.6370   11.4730  -12.3190 C   0  0  0  0  0
   -3.7750   13.8370  -14.7910 N   0  0  0  0  0
   -4.2840   15.0040  -15.4980 C   0  0  0  0  0
   -4.6340   14.6450  -16.9260 C   0  0  0  0  0
   -4.1540   13.6500  -17.4650 O   0  0  0  0  0
   -5.5950   15.3670  -17.4820 N   0  0  0  0  0
   -6.0800   15.1120  -18.8350 C   0  0  0  0  0
   -5.8720   16.3020  -19.8000 C   0  0  0  0  0
   -6.6510   16.4840  -20.7440 O   0  0  0  0  0
   -7.5340   14.5540  -18.7640 C   0  0  0  0  0
   -7.9540   13.9270  -20.0970 C   0  0  0  0  0
   -8.5190   15.5390  -18.1740 C   0  0  0  0  0
   -9.0940   12.9710  -19.9390 C   0  0  0  0  0
   -4.9670   17.2100  -19.4530 N   0  0  0  0  0
   -4.5940   18.2740  -20.3770 C   0  0  0  0  0
   -5.2120   19.6340  -20.1040 C   0  0  0  0  0
   -6.0060   19.7970  -19.1840 O   0  0  0  0  0
   -4.8330   20.6240  -20.9110 N   0  0  0  0  0
   -5.3260   21.9840  -20.7420 C   0  0  0  0  0
   -6.8270   22.1140  -20.9910 C   0  0  0  0  0
   -7.3960   21.3880  -21.8140 O   0  0  0  0  0
   -4.5620   22.9190  -21.6740 C   0  0  0  0  0
   -7.4630   23.0470  -20.2920 N   0  0  0  0  0
   -8.8870   23.3190  -20.4850 C   0  0  0  0  0
   -9.0760   24.7690  -20.9150 C   0  0  0  0  0
   -8.1030   25.4820  -21.1280 O   0  0  0  0  0
   -9.7160   23.0260  -19.2110 C   0  0  0  0  0
   -9.8910   21.5130  -19.0430 C   0  0  0  0  0
   -9.0740   23.6630  -17.9650 C   0  0  0  0  0
  -10.3240   25.1960  -21.0490 N   0  0  0  0  0
  -10.6050   26.5390  -21.5480 C   0  0  0  0  0
  -11.6330   27.2440  -20.6720 C   0  0  0  0  0
  -12.8210   26.9160  -20.7170 O   0  0  0  0  0
  -11.0990   26.4650  -22.9940 C   0  0  0  0  0
  -11.3720   27.8080  -23.6180 C   0  0  0  0  0
  -10.3630   28.5030  -24.2650 C   0  0  0  0  0
  -12.6400   28.3680  -23.5680 C   0  0  0  0  0
  -10.6140   29.7370  -24.8460 C   0  0  0  0  0
  -12.8950   29.6000  -24.1460 C   0  0  0  0  0
  -11.8810   30.2840  -24.7840 C   0  0  0  0  0
  -11.2870   28.1490  -19.9100 O   0  0  0  0  0
    0.1085   13.7799   -9.7295 H   0  0  0  0  0
   -0.6157   15.2803   -9.7622 H   0  0  0  0  0
   -0.4851   14.4494   -8.3237 H   0  0  0  0  0
   -1.9430   12.7536   -9.0870 H   0  0  0  0  0
   -3.0652   15.5476   -9.4680 H   0  0  0  0  0
   -4.0053   14.0677   -9.1561 H   0  0  0  0  0
   -2.8921   14.6935   -7.9150 H   0  0  0  0  0
   -3.5453   12.1244  -10.7241 H   0  0  0  0  0
   -2.4017   12.2222  -13.3400 H   0  0  0  0  0
   -4.5170   11.1776  -14.1139 H   0  0  0  0  0
   -2.7289    9.8106  -13.1160 H   0  0  0  0  0
   -3.4132   10.0850  -11.4951 H   0  0  0  0  0
   -4.3281    9.1466  -12.7006 H   0  0  0  0  0
   -5.4514   11.5865  -11.2509 H   0  0  0  0  0
   -6.1193   12.3719  -12.7028 H   0  0  0  0  0
   -6.2839   10.6120  -12.4871 H   0  0  0  0  0
   -3.2838   13.1095  -15.3105 H   0  0  0  0  0
   -3.5163   15.7778  -15.5045 H   0  0  0  0  0
   -5.1806   15.3623  -14.9922 H   0  0  0  0  0
   -6.0111   16.1284  -16.9457 H   0  0  0  0  0
   -5.4652   14.3381  -19.2946 H   0  0  0  0  0
   -7.5440   13.7344  -18.0455 H   0  0  0  0  0
   -7.1023   13.3756  -20.4952 H   0  0  0  0  0
   -8.2741   14.7288  -20.7625 H   0  0  0  0  0
   -8.2124   15.7940  -17.1596 H   0  0  0  0  0
   -8.5400   16.4407  -18.7861 H   0  0  0  0  0
   -9.5118   15.0895  -18.1527 H   0  0  0  0  0
   -8.8013   12.1670  -19.2638 H   0  0  0  0  0
   -9.9543   13.4983  -19.5267 H   0  0  0  0  0
   -9.3540   12.5537  -20.9118 H   0  0  0  0  0
   -4.5295   17.1625  -18.5328 H   0  0  0  0  0
   -4.9498   17.9663  -21.3603 H   0  0  0  0  0
   -3.5157   18.4012  -20.2806 H   0  0  0  0  0
   -4.1795   20.4239  -21.6682 H   0  0  0  0  0
   -5.1581   22.2596  -19.7009 H   0  0  0  0  0
   -3.4999   22.8833  -21.4317 H   0  0  0  0  0
   -4.7113   22.6026  -22.7063 H   0  0  0  0  0
   -4.9308   23.9369  -21.5477 H   0  0  0  0  0
   -6.9439   23.5890  -19.6013 H   0  0  0  0  0
   -9.2513   22.6509  -21.2654 H   0  0  0  0  0
  -10.7015   23.4779  -19.3237 H   0  0  0  0  0
  -10.4102   21.1098  -19.9125 H   0  0  0  0  0
   -8.9117   21.0431  -18.9528 H   0  0  0  0  0
  -10.4752   21.3136  -18.1447 H   0  0  0  0  0
   -8.0715   23.2580  -17.8271 H   0  0  0  0  0
   -9.0155   24.7430  -18.0999 H   0  0  0  0  0
   -9.6821   23.4374  -17.0890 H   0  0  0  0  0
  -11.0971   24.5788  -20.8005 H   0  0  0  0  0
   -9.6823   27.1183  -21.5154 H   0  0  0  0  0
  -12.9314   26.2041  -21.3516 H   0  0  0  0  0
  -12.0400   25.9150  -22.9862 H   0  0  0  0  0
  -10.3123   25.9902  -23.5803 H   0  0  0  0  0
   -9.3617   28.0755  -24.3179 H   0  0  0  0  0
  -13.4459   27.8314  -23.0673 H   0  0  0  0  0
   -9.8119   30.2750  -25.3513 H   0  0  0  0  0
  -13.8958   30.0290  -24.0970 H   0  0  0  0  0
  -12.0792   31.2547  -25.2385 H   0  0  0  0  0
  1  2  1  0  0  0
  2  3  1  0  0  0
  2  5  1  0  0  0
  3  4  2  0  0  0
  3  6  1  0  0  0
  6  7  1  0  0  0
  7  8  1  0  0  0
  7 10  1  0  0  0
  8  9  2  0  0  0
  8 13  1  0  0  0
 10 11  1  0  0  0
 10 12  1  0  0  0
 13 14  1  0  0  0
 14 15  1  0  0  0
 15 16  2  0  0  0
 15 17  1  0  0  0
 17 18  1  0  0  0
 18 19  1  0  0  0
 18 21  1  0  0  0
 19 20  2  0  0  0
 19 25  1  0  0  0
 21 22  1  0  0  0
 21 23  1  0  0  0
 22 24  1  0  0  0
 25 26  1  0  0  0
 26 27  1  0  0  0
 27 28  2  0  0  0
 27 29  1  0  0  0
 29 30  1  0  0  0
 30 31  1  0  0  0
 30 33  1  0  0  0
 31 32  2  0  0  0
 31 34  1  0  0  0
 34 35  1  0  0  0
 35 36  1  0  0  0
 35 38  1  0  0  0
 36 37  2  0  0  0
 36 41  1  0  0  0
 38 39  1  0  0  0
 38 40  1  0  0  0
 41 42  1  0  0  0
 42 43  1  0  0  0
 42 45  1  0  0  0
 43 44  1  0  0  0
 43 52  2  0  0  0
 45 46  1  0  0  0
 46 47  4  0  0  0
 46 48  4  0  0  0
 47 49  4  0  0  0
 48 50  4  0  0  0
 49 51  4  0  0  0
 50 51  4  0  0  0
  1 53  1  0  0  0
  1 54  1  0  0  0
  1 55  1  0  0  0
  2 56  1  0  0  0
  5 57  1  0  0  0
  5 58  1  0  0  0
  5 59  1  0  0  0
  6 60  1  0  0  0
  7 61  1  0  0  0
 10 62  1  0  0  0
 11 63  1  0  0  0
 11 64  1  0  0  0
 11 65  1  0  0  0
 12 66  1  0  0  0
 12 67  1  0  0  0
 12 68  1  0  0  0
 13 69  1  0  0  0
 14 70  1  0  0  0
 14 71  1  0  0  0
 17 72  1  0  0  0
 18 73  1  0  0  0
 21 74  1  0  0  0
 22 75  1  0  0  0
 22 76  1  0  0  0
 23 77  1  0  0  0
 23 78  1  0  0  0
 23 79  1  0  0  0
 24 80  1  0  0  0
 24 81  1  0  0  0
 24 82  1  0  0  0
 25 83  1  0  0  0
 26 84  1  0  0  0
 26 85  1  0  0  0
 29 86  1  0  0  0
 30 87  1  0  0  0
 33 88  1  0  0  0
 33 89  1  0  0  0
 33 90  1  0  0  0
 34 91  1  0  0  0
 35 92  1  0  0  0
 38 93  1  0  0  0
 39 94  1  0  0  0
 39 95  1  0  0  0
 39 96  1  0  0  0
 40 97  1  0  0  0
 40 98  1  0  0  0
 40 99  1  0  0  0
 41100  1  0  0  0
 42101  1  0  0  0
 44102  1  0  0  0
 45103  1  0  0  0
 45104  1  0  0  0
 47105  1  0  0  0
 48106  1  0  0  0
 49107  1  0  0  0
 50108  1  0  0  0
 51109  1  0  0  0
M  END
$$$$
