5f39_ligand
  -I-interpret- 

 22 24  0  0  0  0  0  0  0  0999 V2000
   12.2870   48.6750  -54.7790 O   0  0  0  0  0
   13.3000   48.5160  -54.1050 C   0  0  0  0  0
   14.0350   47.2540  -54.0240 C   0  0  0  0  0
   13.6500   46.1480  -54.7720 C   0  0  0  0  0
   14.4270   45.0150  -54.6500 C   0  0  0  0  0
   15.4990   44.9160  -53.8500 N   0  0  0  0  0
   15.8610   45.9710  -53.1040 C   0  0  0  0  0
   15.1560   47.1830  -53.1880 C   0  0  0  0  0
   15.6010   48.2630  -52.4520 N   0  0  0  0  0
   14.9040   49.3710  -52.5790 C   0  0  0  0  0
   13.8050   49.5170  -53.3570 N   0  0  0  0  0
   16.9380   45.7360  -52.1340 C   0  0  0  0  0
   17.3160   44.3900  -51.9200 N   0  0  0  0  0
   18.2250   44.3400  -50.9990 C   0  0  0  0  0
   18.6890   45.8560  -50.3390 S   0  0  0  0  0
   17.5890   46.6420  -51.3650 C   0  0  0  0  0
   12.7765   46.1746  -55.4234 H   0  0  0  0  0
   14.1518   44.1426  -55.2427 H   0  0  0  0  0
   15.2373   50.2410  -52.0132 H   0  0  0  0  0
   13.3392   50.4242  -53.3777 H   0  0  0  0  0
   18.6653   43.4003  -50.6656 H   0  0  0  0  0
   17.4293   47.7197  -51.4002 H   0  0  0  0  0
  1  2  2  0  0  0
  2  3  1  0  0  0
  2 11  1  0  0  0
  3  4  4  0  0  0
  3  8  4  0  0  0
  4  5  4  0  0  0
  5  6  4  0  0  0
  6  7  4  0  0  0
  7  8  4  0  0  0
  7 12  1  0  0  0
  8  9  1  0  0  0
  9 10  2  0  0  0
 10 11  1  0  0  0
 12 13  4  0  0  0
 12 16  4  0  0  0
 13 14  4  0  0  0
 14 15  4  0  0  0
 15 16  4  0  0  0
  4 17  1  0  0  0
  5 18  1  0  0  0
 10 19  1  0  0  0
 11 20  1  0  0  0
 14 21  1  0  0  0
 16 22  1  0  0  0
M  END
$$$$
