5wo4_ligand
  -I-interpret- 

 44 46  0  0  0  0  0  0  0  0999 V2000
    5.7530   59.8170    0.1760 C   0  0  0  0  0
    5.7940   57.3340    0.8550 C   0  0  0  0  0
    6.5640   54.9230    1.0310 C   0  0  0  0  0
    7.6130   54.5240    2.1220 C   0  0  0  0  0
    7.3290   55.2500    3.3650 C   0  0  0  0  0
    7.5710   58.0110   -0.2890 C   0  0  0  0  0
    9.5940   58.6080   -1.6730 C   0  0  0  0  0
   10.1740   57.3450   -1.5960 C   0  0  0  0  0
   11.3700   57.0830   -2.2540 C   0  0  0  0  0
   11.4920   54.8420   -1.3720 C   0  0  0  0  0
   11.9460   58.0870   -3.0280 C   0  0  0  0  0
   11.3730   59.3450   -3.1050 C   0  0  0  0  0
   10.1960   59.6070   -2.4280 C   0  0  0  0  0
   13.4130   57.7660   -3.8880 Cl  0  0  0  0  0
   12.0730   55.9130   -2.1360 O   0  0  0  0  0
    8.3710   58.8580   -1.0100 N   0  0  0  0  0
    6.3190   58.4510    0.2660 C   0  0  0  0  0
    4.6410   60.0550    0.8540 N   0  0  0  0  0
    6.3270   60.6750   -0.4940 O   0  0  0  0  0
    7.7920   56.7450   -0.0450 N   0  0  0  0  0
    6.6780   56.3460    0.6490 N   0  0  0  0  0
    7.1360   55.7880    4.3470 N   0  0  0  0  0
    7.5290   53.0100    2.3790 C   0  0  0  0  0
    7.6920   52.2550    1.0810 C   0  0  0  0  0
    6.6940   52.6080    0.1160 O   0  0  0  0  0
    6.7390   54.0200   -0.1940 C   0  0  0  0  0
    4.8452   57.2609    1.3866 H   0  0  0  0  0
    5.5667   54.7858    1.4490 H   0  0  0  0  0
    8.6145   54.7799    1.7761 H   0  0  0  0  0
    9.6887   56.5588   -1.0177 H   0  0  0  0  0
   11.3282   55.1757   -0.3473 H   0  0  0  0  0
   10.5402   54.5539   -1.8182 H   0  0  0  0  0
   12.1689   53.9876   -1.3734 H   0  0  0  0  0
   11.8483   60.1267   -3.6976 H   0  0  0  0  0
    9.7412   60.5958   -2.4866 H   0  0  0  0  0
    8.0315   59.8174   -1.0790 H   0  0  0  0  0
    4.2216   60.9846    0.8357 H   0  0  0  0  0
    4.2037   59.3088    1.3946 H   0  0  0  0  0
    6.5569   52.7734    2.8115 H   0  0  0  0  0
    8.3240   52.7184    3.0654 H   0  0  0  0  0
    7.5934   51.1907    1.2948 H   0  0  0  0  0
    8.6677   52.5058    0.6648 H   0  0  0  0  0
    7.7211   54.2304   -0.6174 H   0  0  0  0  0
    5.9153   54.2312   -0.8759 H   0  0  0  0  0
 17  1  1  0  0  0
  1 18  1  0  0  0
  1 19  2  0  0  0
 17  2  4  0  0  0
  2 21  4  0  0  0
  3  4  1  0  0  0
 21  3  1  0  0  0
  3 26  1  0  0  0
  4  5  1  0  0  0
  4 23  1  0  0  0
  5 22  3  0  0  0
 16  6  1  0  0  0
  6 17  4  0  0  0
  6 20  4  0  0  0
  7  8  4  0  0  0
  7 13  4  0  0  0
  7 16  1  0  0  0
  8  9  4  0  0  0
  9 11  4  0  0  0
  9 15  1  0  0  0
 15 10  1  0  0  0
 11 12  4  0  0  0
 11 14  1  0  0  0
 12 13  4  0  0  0
 20 21  4  0  0  0
 23 24  1  0  0  0
 24 25  1  0  0  0
 25 26  1  0  0  0
  2 27  1  0  0  0
  3 28  1  0  0  0
  4 29  1  0  0  0
  8 30  1  0  0  0
 10 31  1  0  0  0
 10 32  1  0  0  0
 10 33  1  0  0  0
 12 34  1  0  0  0
 13 35  1  0  0  0
 16 36  1  0  0  0
 18 37  1  0  0  0
 18 38  1  0  0  0
 23 39  1  0  0  0
 23 40  1  0  0  0
 24 41  1  0  0  0
 24 42  1  0  0  0
 26 43  1  0  0  0
 26 44  1  0  0  0
M  END
$$$$
