6oac_ligand
  -I-interpret- 

 52 55  0  0  0  0  0  0  0  0999 V2000
  -16.5760    8.4630   26.7410 C   0  0  0  0  0
  -18.5640    9.4280   27.9440 N   0  0  0  0  0
  -19.1390   10.3950   28.6880 C   0  0  0  0  0
  -20.9160   10.8700   30.4110 C   0  0  0  0  0
  -17.1260   11.6140   28.7310 C   0  0  0  0  0
  -14.3030   14.2500   29.1650 C   0  0  0  0  0
  -16.0000   14.8860   30.5880 C   0  0  0  0  0
  -16.5200   12.6180   31.5970 C   0  0  0  0  0
  -15.2630    6.7450   25.1010 C   0  0  0  0  0
  -15.9670    6.2410   26.1320 C   0  0  0  0  0
  -16.6520    7.0850   26.9930 C   0  0  0  0  0
  -17.4610    6.4570   28.1840 C   0  0  0  0  0
  -15.8410    8.8870   25.6770 C   0  0  0  0  0
  -17.2760    9.5420   27.5970 C   0  0  0  0  0
  -22.1630   11.8180   30.3460 C   0  0  0  0  0
  -23.0580   10.6260   28.5710 C   0  0  0  0  0
  -21.5550   10.5950   28.0800 C   0  0  0  0  0
  -14.8760   12.8240   29.0430 C   0  0  0  0  0
  -16.7510   13.5360   30.3660 C   0  0  0  0  0
  -18.7700    6.2810   27.8160 F   0  0  0  0  0
  -17.4130    7.2640   29.3140 F   0  0  0  0  0
  -14.5130    5.8160   24.1580 N   0  0  0  0  0
  -15.2140    8.0630   24.8990 N   0  0  0  0  0
  -20.5260   10.3080   29.0840 N   0  0  0  0  0
  -18.4060   11.4990   29.0800 N   0  0  0  0  0
  -16.3500   12.8100   29.1680 N   0  0  0  0  0
  -16.5470   10.6500   27.9910 N   0  0  0  0  0
  -23.2570   11.1320   29.8680 O   0  0  0  0  0
  -14.6240   14.8090   30.3870 O   0  0  0  0  0
  -21.1745   10.0322   31.0586 H   0  0  0  0  0
  -20.0752   11.4590   30.7774 H   0  0  0  0  0
  -14.7299   14.8675   28.3747 H   0  0  0  0  0
  -13.2177   14.1997   29.0774 H   0  0  0  0  0
  -16.1591   15.1774   31.6262 H   0  0  0  0  0
  -16.3933   15.5977   29.8621 H   0  0  0  0  0
  -17.1184   11.7131   31.4912 H   0  0  0  0  0
  -15.4646   12.3522   31.6575 H   0  0  0  0  0
  -16.8154   13.1466   32.5033 H   0  0  0  0  0
  -15.9987    5.1631   26.2909 H   0  0  0  0  0
  -17.0045    5.4968   28.4243 H   0  0  0  0  0
  -15.7779    9.9558   25.4727 H   0  0  0  0  0
  -21.9439   12.6507   29.6776 H   0  0  0  0  0
  -22.3831   12.1875   31.3476 H   0  0  0  0  0
  -23.4034    9.5923   28.5832 H   0  0  0  0  0
  -23.5942   11.2889   27.8920 H   0  0  0  0  0
  -21.3419   11.6008   27.7180 H   0  0  0  0  0
  -21.4973    9.7812   27.3571 H   0  0  0  0  0
  -14.4588   12.2178   29.8471 H   0  0  0  0  0
  -14.6123   12.4323   28.0606 H   0  0  0  0  0
  -17.8013   13.7964   30.2351 H   0  0  0  0  0
  -14.5423    4.8072   24.3057 H   0  0  0  0  0
  -13.9808    6.2020   23.3781 H   0  0  0  0  0
  1 11  4  0  0  0
  1 13  4  0  0  0
 14  1  1  0  0  0
  3  2  4  0  0  0
 14  2  4  0  0  0
  3 24  1  0  0  0
 25  3  4  0  0  0
  4 15  1  0  0  0
 24  4  1  0  0  0
  5 25  4  0  0  0
 26  5  1  0  0  0
  5 27  4  0  0  0
 18  6  1  0  0  0
  6 29  1  0  0  0
  7 19  1  0  0  0
 29  7  1  0  0  0
 19  8  1  0  0  0
 10  9  4  0  0  0
  9 22  1  0  0  0
 23  9  4  0  0  0
 11 10  4  0  0  0
 11 12  1  0  0  0
 12 20  1  0  0  0
 12 21  1  0  0  0
 13 23  4  0  0  0
 27 14  4  0  0  0
 15 28  1  0  0  0
 17 16  1  0  0  0
 16 28  1  0  0  0
 24 17  1  0  0  0
 18 26  1  0  0  0
 19 26  1  0  0  0
  4 30  1  0  0  0
  4 31  1  0  0  0
  6 32  1  0  0  0
  6 33  1  0  0  0
  7 34  1  0  0  0
  7 35  1  0  0  0
  8 36  1  0  0  0
  8 37  1  0  0  0
  8 38  1  0  0  0
 10 39  1  0  0  0
 12 40  1  0  0  0
 13 41  1  0  0  0
 15 42  1  0  0  0
 15 43  1  0  0  0
 16 44  1  0  0  0
 16 45  1  0  0  0
 17 46  1  0  0  0
 17 47  1  0  0  0
 18 48  1  0  0  0
 18 49  1  0  0  0
 19 50  1  0  0  0
 22 51  1  0  0  0
 22 52  1  0  0  0
M  END
$$$$
