5tzx_ligand
  -I-interpret- 

 43 46  0  0  0  0  0  0  0  0999 V2000
    4.6960    3.4730    7.0440 N   0  0  0  0  0
    5.9160    4.0320    7.0920 C   0  0  0  0  0
    6.2210    3.8710    4.7170 C   0  0  0  0  0
    7.7430    4.9280    7.6120 C   0  0  0  0  0
    2.8980    2.5030    5.7800 C   0  0  0  0  0
    8.1230    3.3550    1.3960 C   0  0  0  0  0
    9.3310    6.6350    1.9990 C   0  0  0  0  0
    9.9110    6.8580    4.4060 C   0  0  0  0  0
   10.1870    7.7100    5.4560 C   0  0  0  0  0
    9.8810    9.6250    4.0470 C   0  0  0  0  0
    9.6110    8.7990    2.9820 C   0  0  0  0  0
    9.6240    7.4380    3.1840 C   0  0  0  0  0
   10.1680    9.0690    5.2660 C   0  0  0  0  0
    5.0090    3.3030    4.6160 C   0  0  0  0  0
    4.2600    3.1280    5.8740 C   0  0  0  0  0
    7.0180    3.1620    2.4160 C   0  0  0  0  0
    7.3920    5.5800    3.1800 C   0  0  0  0  0
    8.2190    4.7960    0.9520 C   0  0  0  0  0
    7.1490    4.1260    3.5690 C   0  0  0  0  0
    6.5770    4.4630    8.1400 N   0  0  0  0  0
    7.8320    4.7940    6.2920 N   0  0  0  0  0
    6.6600    4.2290    5.9630 N   0  0  0  0  0
    8.3170    5.7110    2.0650 N   0  0  0  0  0
   10.0200    6.8390    1.0120 O   0  0  0  0  0
   10.4390    9.8650    6.3130 F   0  0  0  0  0
    9.3130    2.9400    1.9340 F   0  0  0  0  0
    7.9090    2.5940    0.2860 F   0  0  0  0  0
   10.5660    7.1570    7.0480 Cl  0  0  0  0  0
    8.5335    5.3709    8.2179 H   0  0  0  0  0
    2.8788    1.5864    6.3695 H   0  0  0  0  0
    2.1528    3.1994    6.1644 H   0  0  0  0  0
    2.6772    2.2711    4.7381 H   0  0  0  0  0
    9.9189    5.7756    4.5343 H   0  0  0  0  0
    9.8670   10.7079    3.9235 H   0  0  0  0  0
    9.3912    9.2134    1.9981 H   0  0  0  0  0
    4.6005    2.9881    3.6558 H   0  0  0  0  0
    7.0852    2.1469    2.8075 H   0  0  0  0  0
    6.0617    3.3418    1.9248 H   0  0  0  0  0
    7.8269    6.0900    4.0396 H   0  0  0  0  0
    6.4377    6.0114    2.8778 H   0  0  0  0  0
    7.3134    5.0380    0.3958 H   0  0  0  0  0
    9.1199    4.9029    0.3478 H   0  0  0  0  0
    8.1110    3.8719    4.0142 H   0  0  0  0  0
  2  1  4  0  0  0
 15  1  4  0  0  0
  2 20  4  0  0  0
 22  2  4  0  0  0
  3 14  4  0  0  0
 19  3  1  0  0  0
  3 22  4  0  0  0
 20  4  4  0  0  0
  4 21  4  0  0  0
 15  5  1  0  0  0
 16  6  1  0  0  0
  6 18  1  0  0  0
  6 26  1  0  0  0
  6 27  1  0  0  0
  7 12  1  0  0  0
 23  7  1  0  0  0
  7 24  2  0  0  0
  8  9  4  0  0  0
 12  8  4  0  0  0
  9 13  4  0  0  0
  9 28  1  0  0  0
 11 10  4  0  0  0
 10 13  4  0  0  0
 12 11  4  0  0  0
 13 25  1  0  0  0
 14 15  4  0  0  0
 19 16  1  0  0  0
 17 19  1  0  0  0
 17 23  1  0  0  0
 18 23  1  0  0  0
 21 22  4  0  0  0
  4 29  1  0  0  0
  5 30  1  0  0  0
  5 31  1  0  0  0
  5 32  1  0  0  0
  8 33  1  0  0  0
 10 34  1  0  0  0
 11 35  1  0  0  0
 14 36  1  0  0  0
 16 37  1  0  0  0
 16 38  1  0  0  0
 17 39  1  0  0  0
 17 40  1  0  0  0
 18 41  1  0  0  0
 18 42  1  0  0  0
 19 43  1  0  0  0
M  END
$$$$
