4m3q_ligand
  -I-interpret- 

 52 54  0  0  0  0  0  0  0  0999 V2000
  -13.5650   40.8330  -20.6530 C   0  0  0  0  0
  -13.3850   41.4410  -19.2660 C   0  0  0  0  0
  -13.6080   42.9600  -19.2560 C   0  0  0  0  0
  -13.6570   43.5260  -17.8210 C   0  0  0  0  0
  -15.0170   43.8910  -17.4330 N   0  0  0  0  0
  -15.6720   43.1660  -16.3520 C   0  0  0  0  0
  -16.6910   43.6840  -15.6400 N   0  0  0  0  0
  -17.2590   42.9440  -14.6410 C   0  0  0  0  0
  -16.7900   41.6550  -14.3410 C   0  0  0  0  0
  -15.7290   41.1530  -15.1180 C   0  0  0  0  0
  -15.1400   39.8380  -14.9410 N   0  0  0  0  0
  -13.9580   39.4580  -15.6860 C   0  0  0  0  0
  -14.4330   38.6380  -16.8690 C   0  0  0  0  0
  -13.2940   37.9680  -17.6060 C   0  0  0  0  0
  -12.3940   37.1910  -16.6710 C   0  0  0  0  0
  -11.2880   36.7040  -17.4170 O   0  0  0  0  0
  -11.8900   38.0510  -15.5310 C   0  0  0  0  0
  -13.0290   38.7030  -14.7670 C   0  0  0  0  0
  -15.2200   41.9280  -16.0850 N   0  0  0  0  0
  -17.3900   40.8810  -13.3160 C   0  0  0  0  0
  -18.7600   40.9770  -13.1020 C   0  0  0  0  0
  -19.3490   40.2010  -12.1000 C   0  0  0  0  0
  -18.5560   39.3510  -11.3430 C   0  0  0  0  0
  -17.1890   39.2770  -11.5890 C   0  0  0  0  0
  -16.6530   40.0400  -12.5620 N   0  0  0  0  0
  -14.5786   41.0262  -21.0042 H   0  0  0  0  0
  -12.8489   41.2823  -21.3410 H   0  0  0  0  0
  -13.3957   39.7575  -20.6016 H   0  0  0  0  0
  -12.3610   41.2495  -18.9453 H   0  0  0  0  0
  -14.1220   40.9887  -18.6025 H   0  0  0  0  0
  -14.5633   43.1680  -19.7379 H   0  0  0  0  0
  -12.7764   43.4306  -19.7805 H   0  0  0  0  0
  -13.0360   44.4210  -17.7825 H   0  0  0  0  0
  -13.2977   42.7584  -17.1356 H   0  0  0  0  0
  -15.5040   44.6468  -17.9146 H   0  0  0  0  0
  -18.0881   43.3606  -14.0689 H   0  0  0  0  0
  -15.5614   39.1776  -14.2878 H   0  0  0  0  0
  -13.3943   40.3118  -16.0620 H   0  0  0  0  0
  -14.9334   39.3112  -17.5650 H   0  0  0  0  0
  -15.0947   37.8578  -16.4928 H   0  0  0  0  0
  -12.6975   38.7424  -18.0883 H   0  0  0  0  0
  -13.7185   37.2709  -18.3284 H   0  0  0  0  0
  -12.9672   36.3714  -16.2376 H   0  0  0  0  0
  -10.7059   36.2076  -16.8370 H   0  0  0  0  0
  -11.2633   38.8391  -15.9486 H   0  0  0  0  0
  -11.3363   37.4140  -14.8412 H   0  0  0  0  0
  -13.6006   37.9200  -14.2687 H   0  0  0  0  0
  -12.6040   39.4087  -14.0532 H   0  0  0  0  0
  -19.3674   41.6491  -13.7081 H   0  0  0  0  0
  -20.4214   40.2631  -11.9150 H   0  0  0  0  0
  -19.0032   38.7424  -10.5571 H   0  0  0  0  0
  -16.5585   38.6096  -11.0016 H   0  0  0  0  0
  1  2  1  0  0  0
  2  3  1  0  0  0
  3  4  1  0  0  0
  4  5  1  0  0  0
  5  6  1  0  0  0
  6  7  4  0  0  0
  6 19  4  0  0  0
  7  8  4  0  0  0
  8  9  4  0  0  0
  9 10  4  0  0  0
  9 20  1  0  0  0
 10 11  1  0  0  0
 10 19  4  0  0  0
 11 12  1  0  0  0
 12 13  1  0  0  0
 12 18  1  0  0  0
 13 14  1  0  0  0
 14 15  1  0  0  0
 15 16  1  0  0  0
 15 17  1  0  0  0
 17 18  1  0  0  0
 20 21  4  0  0  0
 20 25  4  0  0  0
 21 22  4  0  0  0
 22 23  4  0  0  0
 23 24  4  0  0  0
 24 25  4  0  0  0
  1 26  1  0  0  0
  1 27  1  0  0  0
  1 28  1  0  0  0
  2 29  1  0  0  0
  2 30  1  0  0  0
  3 31  1  0  0  0
  3 32  1  0  0  0
  4 33  1  0  0  0
  4 34  1  0  0  0
  5 35  1  0  0  0
  8 36  1  0  0  0
 11 37  1  0  0  0
 12 38  1  0  0  0
 13 39  1  0  0  0
 13 40  1  0  0  0
 14 41  1  0  0  0
 14 42  1  0  0  0
 15 43  1  0  0  0
 16 44  1  0  0  0
 17 45  1  0  0  0
 17 46  1  0  0  0
 18 47  1  0  0  0
 18 48  1  0  0  0
 21 49  1  0  0  0
 22 50  1  0  0  0
 23 51  1  0  0  0
 24 52  1  0  0  0
M  END
$$$$
