4av5_ligand
  -I-interpret- 

 49 51  0  0  0  0  0  0  0  0999 V2000
    3.3660  -13.8320  -10.5240 O   0  0  0  0  0
    3.9250  -14.3500  -11.7510 C   0  0  0  0  0
    3.2120  -15.6360  -12.1450 C   0  0  0  0  0
    3.2890  -16.6240  -11.0940 O   0  0  0  0  0
    1.7540  -15.3410  -12.4910 C   0  0  0  0  0
    1.1090  -16.5210  -12.9400 O   0  0  0  0  0
    1.6740  -14.2080  -13.5370 C   0  0  0  0  0
    2.3790  -13.0560  -13.0980 O   0  0  0  0  0
    0.2340  -13.8040  -13.8070 C   0  0  0  0  0
   -0.4060  -13.2860  -12.6440 O   0  0  0  0  0
    3.7660  -13.2680  -12.8000 C   0  0  0  0  0
    4.4520  -13.7410  -13.9640 O   0  0  0  0  0
    4.6670  -12.6380  -14.8760 C   0  0  0  0  0
    4.5920  -13.0440  -16.2930 C   0  0  0  0  0
    4.5400  -13.3690  -17.4270 C   0  0  0  0  0
    4.5120  -13.7810  -18.6590 C   0  0  0  0  0
    5.4390  -14.7570  -19.0460 C   0  0  0  0  0
    5.4350  -15.2490  -20.3560 C   0  0  0  0  0
    4.4990  -14.7830  -21.2720 C   0  0  0  0  0
    3.5940  -13.7820  -20.8920 C   0  0  0  0  0
    3.5830  -13.2850  -19.5790 C   0  0  0  0  0
    4.5590  -15.3080  -22.6740 C   0  0  0  0  0
    5.6650  -16.0670  -23.0520 C   0  0  0  0  0
    5.7560  -16.5600  -24.3620 C   0  0  0  0  0
    4.7380  -16.2600  -25.2650 C   0  0  0  0  0
    3.6410  -15.4900  -24.9000 C   0  0  0  0  0
    3.5580  -15.0010  -23.5890 C   0  0  0  0  0
    3.4486  -14.4924   -9.8322 H   0  0  0  0  0
    4.9800  -14.6003  -11.6394 H   0  0  0  0  0
    3.7122  -16.0450  -13.0229 H   0  0  0  0  0
    4.2101  -16.7989  -10.8876 H   0  0  0  0  0
    1.2320  -15.0011  -11.5965 H   0  0  0  0  0
    1.1799  -17.1998  -12.2648 H   0  0  0  0  0
    2.1249  -14.5956  -14.4505 H   0  0  0  0  0
   -0.3126  -14.6904  -14.1288 H   0  0  0  0  0
    0.2374  -13.0240  -14.5684 H   0  0  0  0  0
   -1.3100  -13.0442  -12.8584 H   0  0  0  0  0
    4.1716  -12.3181  -12.4518 H   0  0  0  0  0
    5.6672  -12.2448  -14.6941 H   0  0  0  0  0
    3.8841  -11.9007  -14.6983 H   0  0  0  0  0
    6.1648  -15.1340  -18.3255 H   0  0  0  0  0
    6.1665  -15.9983  -20.6584 H   0  0  0  0  0
    2.8909  -13.3851  -21.6243 H   0  0  0  0  0
    2.8614  -12.5242  -19.2813 H   0  0  0  0  0
    6.4563  -16.2767  -22.3324 H   0  0  0  0  0
    6.6080  -17.1670  -24.6682 H   0  0  0  0  0
    4.8043  -16.6395  -26.2846 H   0  0  0  0  0
    2.8557  -15.2691  -25.6229 H   0  0  0  0  0
    2.7123  -14.3827  -23.2880 H   0  0  0  0  0
  1  2  1  0  0  0
  2  3  1  0  0  0
  2 11  1  0  0  0
  3  4  1  0  0  0
  3  5  1  0  0  0
  5  6  1  0  0  0
  5  7  1  0  0  0
  7  8  1  0  0  0
  7  9  1  0  0  0
  8 11  1  0  0  0
  9 10  1  0  0  0
 11 12  1  0  0  0
 12 13  1  0  0  0
 13 14  1  0  0  0
 14 15  3  0  0  0
 15 16  1  0  0  0
 16 17  4  0  0  0
 16 21  4  0  0  0
 17 18  4  0  0  0
 18 19  4  0  0  0
 19 20  4  0  0  0
 19 22  1  0  0  0
 20 21  4  0  0  0
 22 23  4  0  0  0
 22 27  4  0  0  0
 23 24  4  0  0  0
 24 25  4  0  0  0
 25 26  4  0  0  0
 26 27  4  0  0  0
  1 28  1  0  0  0
  2 29  1  0  0  0
  3 30  1  0  0  0
  4 31  1  0  0  0
  5 32  1  0  0  0
  6 33  1  0  0  0
  7 34  1  0  0  0
  9 35  1  0  0  0
  9 36  1  0  0  0
 10 37  1  0  0  0
 11 38  1  0  0  0
 13 39  1  0  0  0
 13 40  1  0  0  0
 17 41  1  0  0  0
 18 42  1  0  0  0
 20 43  1  0  0  0
 21 44  1  0  0  0
 23 45  1  0  0  0
 24 46  1  0  0  0
 25 47  1  0  0  0
 26 48  1  0  0  0
 27 49  1  0  0  0
M  END
$$$$
