### 
### Created by X-TOOL on Mon Sep 10 21:13:08 2018
### 

@<TRIPOS>MOLECULE
2l3r_ligand
  194   193     1     0     0
SMALL
GAST_HUCK


@<TRIPOS>ATOM
      1 N          21.1650    3.3760   -1.4110 N.4       1 ALA         0.2377
      2 CA         21.3580    3.3660    0.0520 C.3       1 ALA         0.0621
      3 C          20.7680    4.6400    0.6660 C.2       1 ALA         0.2264
      4 O          21.2510    5.7380    0.3560 O.2       1 ALA        -0.3907
      5 CB         22.8460    3.1970    0.4030 C.3       1 ALA        -0.0040
      6 N          19.7090    4.4820    1.5170 N.am      1 ARG        -0.2610
      7 CA         19.0930    5.6010    2.2880 C.3       1 ARG         0.1312
      8 C          18.4440    6.6820    1.3790 C.2       1 ARG         0.2040
      9 O          18.1240    7.7840    1.8450 O.2       1 ARG        -0.3944
     10 CB         20.1780    6.2170    3.2360 C.3       1 ARG        -0.0092
     11 CG         19.6690    6.8070    4.5720 C.3       1 ARG        -0.0156
     12 CD         20.7610    6.7780    5.6550 C.3       1 ARG         0.0627
     13 NE         21.2830    5.4050    5.8220 N.pl3     1 ARG        -0.2723
     14 CZ         22.4040    5.0480    6.4600 C.cat     1 ARG         0.2882
     15 NH1        23.1800    5.9420    7.0560 N.pl3     1 ARG        -0.2849
     16 NH2        22.7540    3.7750    6.4630 N.pl3     1 ARG        -0.2849
     17 N          18.2140    6.3480    0.0990 N.am      1 THR        -0.2613
     18 CA         17.7290    7.3060   -0.9160 C.3       1 THR         0.1565
     19 C          16.5680    6.6640   -1.7020 C.2       1 THR         0.2065
     20 O          16.4870    5.4310   -1.7860 O.2       1 THR        -0.3943
     21 CB         18.8930    7.7250   -1.8910 C.3       1 THR         0.0924
     22 OG1        20.0980    7.9550   -1.1460 O.3       1 THR        -0.3874
     23 CG2        18.5680    9.0080   -2.6760 C.3       1 THR        -0.0346
     24 N          15.6780    7.4980   -2.2820 N.am      1 LYS        -0.2637
     25 CA         14.4640    7.0210   -2.9700 C.3       1 LYS         0.1310
     26 C          14.2590    7.7460   -4.3160 C.2       1 LYS         0.2039
     27 O          13.8730    8.9200   -4.3490 O.2       1 LYS        -0.3944
     28 CB         13.2180    7.2000   -2.0490 C.3       1 LYS        -0.0122
     29 CG         11.8760    6.7630   -2.6840 C.3       1 LYS        -0.0440
     30 CD         10.6490    7.1650   -1.8320 C.3       1 LYS        -0.0124
     31 CE          9.3210    6.9300   -2.5760 C.3       1 LYS        -0.0354
     32 NZ          8.1850    7.5320   -1.8480 N.4       1 LYS         0.2185
     33 N          14.5570    7.0420   -5.4240 N.am      1 GLN        -0.2636
     34 CA         14.2630    7.5110   -6.7960 C.3       1 GLN         0.1330
     35 C          13.1430    6.6450   -7.3990 C.2       1 GLN         0.2041
     36 O          13.0340    5.4560   -7.0980 O.2       1 GLN        -0.3944
     37 CB         15.5230    7.4550   -7.7240 C.3       1 GLN         0.0045
     38 CG         16.5630    8.5830   -7.5420 C.3       1 GLN         0.0412
     39 CD         17.2310    8.5990   -6.1750 C.2       1 GLN         0.1737
     40 OE1        16.7830    9.2930   -5.2660 O.2       1 GLN        -0.3973
     41 NE2        18.2920    7.8220   -6.0110 N.am      1 GLN        -0.3009
     42 N          12.3200    7.2650   -8.2470 N.am      1 THR        -0.2613
     43 CA         11.2860    6.5820   -9.0470 C.3       1 THR         0.1565
     44 C          11.8120    6.3400  -10.4840 C.2       1 THR         0.2065
     45 O          12.8700    6.8770  -10.8420 O.2       1 THR        -0.3943
     46 CB          9.9930    7.4580   -9.0680 C.3       1 THR         0.0924
     47 OG1        10.3210    8.7880   -9.5010 O.3       1 THR        -0.3874
     48 CG2         9.2970    7.5250   -7.6880 C.3       1 THR        -0.0346
     49 N          11.0910    5.5330  -11.3000 N.am      1 ALA        -0.2639
     50 CA         11.5020    5.2350  -12.6980 C.3       1 ALA         0.1282
     51 C          10.3580    4.5740  -13.4840 C.2       1 ALA         0.2036
     52 O           9.8360    3.5540  -13.0240 O.2       1 ALA        -0.3944
     53 CB         12.7490    4.3110  -12.7240 C.3       1 ALA        -0.0244
     54 N           9.9900    5.1690  -14.6580 N.am      1 ARG        -0.2637
     55 CA          9.0610    4.5670  -15.6690 C.3       1 ARG         0.1311
     56 C           7.5750    4.5970  -15.1990 C.2       1 ARG         0.2039
     57 O           7.2920    4.8260  -14.0330 O.2       1 ARG        -0.3944
     58 CB          9.5430    3.1100  -16.0230 C.3       1 ARG        -0.0092
     59 CG          8.7150    2.3260  -17.0700 C.3       1 ARG        -0.0156
     60 CD          9.3010    0.9320  -17.3600 C.3       1 ARG         0.0627
     61 NE          8.5010    0.1820  -18.3480 N.pl3     1 ARG        -0.2723
     62 CZ          8.8690   -0.9700  -18.9440 C.cat     1 ARG         0.2882
     63 NH1        10.0650   -1.5130  -18.7140 N.pl3     1 ARG        -0.2849
     64 NH2         8.0330   -1.5600  -19.7870 N.pl3     1 ARG        -0.2849
     65 N           6.6250    4.4480  -16.1500 N.am      1 M3L        -0.2637
     66 CA          5.2030    4.1260  -15.8480 C.3       1 M3L         0.1310
     67 CB          4.2520    5.3710  -15.8640 C.3       1 M3L        -0.0122
     68 CG          4.4000    6.3520  -14.6770 C.3       1 M3L        -0.0440
     69 CD          3.0390    6.9890  -14.2370 C.3       1 M3L        -0.0123
     70 CE          3.0870    7.7670  -12.8880 C.3       1 M3L        -0.0309
     71 NZ          2.8500    6.9360  -11.5840 N.4       1 M3L         0.2369
     72 C           4.6620    3.0860  -16.8440 C.2       1 M3L         0.2040
     73 O           5.0850    3.0390  -18.0100 O.2       1 M3L        -0.3944
     74 CM1         1.4290    6.3590  -11.6080 C.3       1 M3L        -0.0418
     75 CM2         3.0090    7.8500  -10.3930 C.3       1 M3L        -0.0418
     76 CM3         3.8510    5.7940  -11.4720 C.3       1 M3L        -0.0418
     77 N           3.7260    2.2600  -16.3440 N.am      1 SER        -0.2616
     78 CA          2.8690    1.3780  -17.1610 C.3       1 SER         0.1539
     79 C           1.4620    1.9980  -17.3220 C.2       1 SER         0.2057
     80 O           0.5840    1.4070  -17.9610 O.2       1 SER        -0.3943
     81 CB          2.7920   -0.0160  -16.4930 C.3       1 SER         0.0843
     82 OG          2.4930    0.0920  -15.1130 O.3       1 SER        -0.3903
     83 N           1.2720    3.1920  -16.7270 N.am      1 THR        -0.2669
     84 CA         -0.0010    3.9210  -16.7210 C.3       1 THR         0.1198
     85 C          -0.2920    4.4960  -18.1350 C.2       1 THR         0.0626
     86 O          -1.2320    4.0250  -18.8070 O.co2     1 THR        -0.5665
     87 CB          0.0420    5.0770  -15.6570 C.3       1 THR         0.0869
     88 OG1         0.7220    4.6150  -14.4810 O.3       1 THR        -0.3880
     89 CG2        -1.3660    5.5660  -15.2630 C.3       1 THR        -0.0352
     90 OXT         0.4760    5.3770  -18.5910 O.co2     1 THR        -0.5665
     91 H          20.1733    3.4888   -1.6211 H         1 ALA         0.2015
     92 H          21.6900    4.1507   -1.8167 H         1 ALA         0.2015
     93 H          21.4988    2.4954   -1.8028 H         1 ALA         0.2015
     94 H          20.8290    2.5128    0.4767 H         1 ALA         0.1095
     95 H          23.4068    4.0512    0.0236 H         1 ALA         0.0310
     96 H          22.9583    3.1389    1.4856 H         1 ALA         0.0310
     97 H          23.2237    2.2815   -0.0524 H         1 ALA         0.0310
     98 H          19.3184    3.5467    1.6310 H         1 ARG         0.1884
     99 H          18.2722    5.1969    2.8806 H         1 ARG         0.0800
    100 H          20.6222    7.0479    2.6879 H         1 ARG         0.0313
    101 H          20.8473    5.3988    3.5020 H         1 ARG         0.0313
    102 H          18.8267    6.2064    4.9155 H         1 ARG         0.0301
    103 H          19.3788    7.8439    4.4027 H         1 ARG         0.0301
    104 H          20.3335    7.1132    6.6000 H         1 ARG         0.0689
    105 H          21.5774    7.4346    5.3543 H         1 ARG         0.0689
    106 H          20.7323    4.6526    5.4085 H         1 ARG         0.2642
    107 H          22.9283    6.9302    7.0356 H         1 ARG         0.2615
    108 H          24.0289    5.6418    7.5351 H         1 ARG         0.2615
    109 H          22.1739    3.0854    5.9851 H         1 ARG         0.2615
    110 H          23.6045    3.4811    6.9432 H         1 ARG         0.2615
    111 H          18.3827    5.3837   -0.1873 H         1 THR         0.1884
    112 H          17.3741    8.2078   -0.4172 H         1 THR         0.0826
    113 H          19.0176    6.9050   -2.5983 H         1 THR         0.0639
    114 H          20.3459    7.1506   -0.6843 H         1 THR         0.2101
    115 H          17.6694    8.8498   -3.2723 H         1 THR         0.0257
    116 H          18.4022    9.8279   -1.9771 H         1 THR         0.0257
    117 H          19.4031    9.2520   -3.3327 H         1 THR         0.0257
    118 H          15.8533    8.5020   -2.2424 H         1 LYS         0.1883
    119 H          14.5908    5.9600   -3.1854 H         1 LYS         0.0800
    120 H          13.1343    8.2649   -1.8320 H         1 LYS         0.0312
    121 H          13.3761    6.5680   -1.1751 H         1 LYS         0.0312
    122 H          11.8839    5.6760   -2.7650 H         1 LYS         0.0269
    123 H          11.7875    7.2589   -3.6506 H         1 LYS         0.0269
    124 H          10.7272    8.2284   -1.6059 H         1 LYS         0.0317
    125 H          10.6461    6.5511   -0.9313 H         1 LYS         0.0317
    126 H           9.1527    5.8560   -2.6553 H         1 LYS         0.0813
    127 H           9.3876    7.3936   -3.5603 H         1 LYS         0.0813
    128 H           7.3223    7.3599   -2.3643 H         1 LYS         0.1994
    129 H           8.1168    7.1132   -0.9204 H         1 LYS         0.1994
    130 H           8.3343    8.5370   -1.7584 H         1 LYS         0.1994
    131 H          15.0105    6.1353   -5.3114 H         1 GLN         0.1883
    132 H          13.9494    8.5529   -6.7310 H         1 GLN         0.0801
    133 H          15.1511    7.5487   -8.7443 H         1 GLN         0.0337
    134 H          16.0383    6.5265   -7.4781 H         1 GLN         0.0337
    135 H          16.0342    9.5296   -7.6532 H         1 GLN         0.0504
    136 H          17.3470    8.4207   -8.2817 H         1 GLN         0.0504
    137 H          18.7639    7.7872   -5.1074 H         1 GLN         0.1814
    138 H          18.6368    7.2588   -6.7884 H         1 GLN         0.1814
    139 H          12.4118    8.2758   -8.3484 H         1 THR         0.1884
    140 H          11.0490    5.6152   -8.6029 H         1 THR         0.0826
    141 H           9.2961    6.9887   -9.7624 H         1 THR         0.0639
    142 H           9.5252    9.3247   -9.5132 H         1 THR         0.2101
    143 H           9.0156    6.5195   -7.3752 H         1 THR         0.0257
    144 H           9.9819    7.9558   -6.9576 H         1 THR         0.0257
    145 H           8.4048    8.1468   -7.7623 H         1 THR         0.0257
    146 H          10.2331    5.1137  -10.9414 H         1 ALA         0.1883
    147 H          11.7518    6.1842  -13.1720 H         1 ALA         0.0797
    148 H          13.5757    4.8041  -12.2127 H         1 ALA         0.0277
    149 H          12.5155    3.3734  -12.2195 H         1 ALA         0.0277
    150 H          13.0283    4.1089  -13.7580 H         1 ALA         0.0277
    151 H          10.3760    6.0910  -14.8614 H         1 ARG         0.1883
    152 H           9.0942    5.1743  -16.5735 H         1 ARG         0.0800
    153 H           9.4660    2.5396  -15.0973 H         1 ARG         0.0313
    154 H          10.5366    3.2240  -16.4565 H         1 ARG         0.0313
    155 H           8.7230    2.8946  -17.9999 H         1 ARG         0.0301
    156 H           7.7091    2.1922  -16.6720 H         1 ARG         0.0301
    157 H           9.3044    0.3663  -16.4283 H         1 ARG         0.0689
    158 H          10.3033    1.0647  -17.7674 H         1 ARG         0.0689
    159 H           7.5917    0.5684  -18.6016 H         1 ARG         0.2642
    160 H          10.7187   -1.0562  -18.0781 H         1 ARG         0.2615
    161 H          10.3261   -2.3852  -19.1740 H         1 ARG         0.2615
    162 H           7.1225   -1.1421  -19.9786 H         1 ARG         0.2615
    163 H           8.3003   -2.4319  -20.2439 H         1 ARG         0.2615
    164 H           6.8972    4.5623  -17.1263 H         1 M3L         0.1883
    165 H           5.2073    3.7308  -14.8322 H         1 M3L         0.0800
    166 H           3.2355    4.9807  -15.8138 H         1 M3L         0.0312
    167 H           4.5026    5.9363  -16.7616 H         1 M3L         0.0312
    168 H           5.0581    7.1608  -14.9945 H         1 M3L         0.0269
    169 H           4.7936    5.7909  -13.8294 H         1 M3L         0.0269
    170 H           2.3341    6.1684  -14.1039 H         1 M3L         0.0317
    171 H           2.7629    7.7088  -15.0076 H         1 M3L         0.0317
    172 H           2.2742    8.4920  -12.9321 H         1 M3L         0.0815
    173 H           4.0985    8.1654  -12.8087 H         1 M3L         0.0815
    174 H           0.7079    7.1747  -11.6599 H         1 M3L         0.0778
    175 H           1.3144    5.7150  -12.4799 H         1 M3L         0.0778
    176 H           1.2585    5.7787  -10.7012 H         1 M3L         0.0778
    177 H           4.0158    8.2677  -10.3890 H         1 M3L         0.0778
    178 H           2.2795    8.6574  -10.4563 H         1 M3L         0.0778
    179 H           2.8461    7.2825   -9.4768 H         1 M3L         0.0778
    180 H           3.7436    5.1327  -12.3318 H         1 M3L         0.0778
    181 H           4.8623    6.2000  -11.4484 H         1 M3L         0.0778
    182 H           3.6612    5.2347  -10.5559 H         1 M3L         0.0778
    183 H           3.5996    2.2416  -15.3320 H         1 SER         0.1884
    184 H           3.2980    1.2675  -18.1569 H         1 SER         0.0823
    185 H           3.7589   -0.5073  -16.6016 H         1 SER         0.0606
    186 H           2.0010   -0.5896  -16.9761 H         1 SER         0.0606
    187 H           1.6465    0.5314  -15.0036 H         1 SER         0.2097
    188 H           2.0663    3.6173  -16.2489 H         1 THR         0.1876
    189 H          -0.8021    3.2323  -16.4527 H         1 THR         0.0752
    190 H           0.5711    5.9163  -16.1084 H         1 THR         0.0632
    191 H           0.2532    3.8603  -14.1173 H         1 THR         0.2100
    192 H          -1.8798    5.9413  -16.1480 H         1 THR         0.0256
    193 H          -1.9313    4.7369  -14.8374 H         1 THR         0.0256
    194 H          -1.2789    6.3643  -14.5260 H         1 THR         0.0256
@<TRIPOS>BOND
     1    1    2 1  
     2    2    3 1  
     3    2    5 1  
     4    3    4 2  
     5    3    6 am 
     6    6    7 1  
     7    7    8 1  
     8    7   10 1  
     9    8    9 2  
    10    8   17 am 
    11   10   11 1  
    12   11   12 1  
    13   12   13 1  
    14   13   14 ar 
    15   14   15 ar 
    16   14   16 ar 
    17   17   18 1  
    18   18   19 1  
    19   18   21 1  
    20   19   20 2  
    21   19   24 am 
    22   21   22 1  
    23   21   23 1  
    24   24   25 1  
    25   25   26 1  
    26   25   28 1  
    27   26   27 2  
    28   26   33 am 
    29   28   29 1  
    30   29   30 1  
    31   30   31 1  
    32   31   32 1  
    33   33   34 1  
    34   34   35 1  
    35   34   37 1  
    36   35   36 2  
    37   35   42 am 
    38   37   38 1  
    39   38   39 1  
    40   39   40 2  
    41   39   41 am 
    42   42   43 1  
    43   43   44 1  
    44   43   46 1  
    45   44   45 2  
    46   44   49 am 
    47   46   47 1  
    48   46   48 1  
    49   49   50 1  
    50   50   51 1  
    51   50   53 1  
    52   51   52 2  
    53   51   54 am 
    54   54   55 1  
    55   55   56 1  
    56   55   58 1  
    57   56   57 2  
    58   56   65 am 
    59   58   59 1  
    60   59   60 1  
    61   60   61 1  
    62   61   62 ar 
    63   62   63 ar 
    64   62   64 ar 
    65   65   66 1  
    66   66   67 1  
    67   66   72 1  
    68   67   68 1  
    69   68   69 1  
    70   69   70 1  
    71   70   71 1  
    72   71   74 1  
    73   71   75 1  
    74   71   76 1  
    75   72   73 2  
    76   72   77 am 
    77   77   78 1  
    78   78   79 1  
    79   78   81 1  
    80   79   80 2  
    81   79   83 am 
    82   81   82 1  
    83   83   84 1  
    84   84   85 1  
    85   84   87 1  
    86   85   86 ar 
    87   85   90 ar 
    88   87   88 1  
    89   87   89 1  
    90    1   91 1  
    91    1   92 1  
    92    1   93 1  
    93    2   94 1  
    94    5   95 1  
    95    5   96 1  
    96    5   97 1  
    97    6   98 1  
    98    7   99 1  
    99   10  100 1  
   100   10  101 1  
   101   11  102 1  
   102   11  103 1  
   103   12  104 1  
   104   12  105 1  
   105   13  106 1  
   106   15  107 1  
   107   15  108 1  
   108   16  109 1  
   109   16  110 1  
   110   17  111 1  
   111   18  112 1  
   112   21  113 1  
   113   22  114 1  
   114   23  115 1  
   115   23  116 1  
   116   23  117 1  
   117   24  118 1  
   118   25  119 1  
   119   28  120 1  
   120   28  121 1  
   121   29  122 1  
   122   29  123 1  
   123   30  124 1  
   124   30  125 1  
   125   31  126 1  
   126   31  127 1  
   127   32  128 1  
   128   32  129 1  
   129   32  130 1  
   130   33  131 1  
   131   34  132 1  
   132   37  133 1  
   133   37  134 1  
   134   38  135 1  
   135   38  136 1  
   136   41  137 1  
   137   41  138 1  
   138   42  139 1  
   139   43  140 1  
   140   46  141 1  
   141   47  142 1  
   142   48  143 1  
   143   48  144 1  
   144   48  145 1  
   145   49  146 1  
   146   50  147 1  
   147   53  148 1  
   148   53  149 1  
   149   53  150 1  
   150   54  151 1  
   151   55  152 1  
   152   58  153 1  
   153   58  154 1  
   154   59  155 1  
   155   59  156 1  
   156   60  157 1  
   157   60  158 1  
   158   61  159 1  
   159   63  160 1  
   160   63  161 1  
   161   64  162 1  
   162   64  163 1  
   163   65  164 1  
   164   66  165 1  
   165   67  166 1  
   166   67  167 1  
   167   68  168 1  
   168   68  169 1  
   169   69  170 1  
   170   69  171 1  
   171   70  172 1  
   172   70  173 1  
   173   74  174 1  
   174   74  175 1  
   175   74  176 1  
   176   75  177 1  
   177   75  178 1  
   178   75  179 1  
   179   76  180 1  
   180   76  181 1  
   181   76  182 1  
   182   77  183 1  
   183   78  184 1  
   184   81  185 1  
   185   81  186 1  
   186   82  187 1  
   187   83  188 1  
   188   84  189 1  
   189   87  190 1  
   190   88  191 1  
   191   89  192 1  
   192   89  193 1  
   193   89  194 1  
@<TRIPOS>SUBSTRUCTURE
     1 ALA         1

