2l3r_ligand
  -I-interpret- 

193192  0  0  0  0  0  0  0  0999 V2000
   21.1650    3.3760   -1.4110 N   0  3  0  0  0
   21.3580    3.3660    0.0520 C   0  0  0  0  0
   20.7680    4.6400    0.6660 C   0  0  0  0  0
   21.2510    5.7380    0.3560 O   0  0  0  0  0
   22.8460    3.1970    0.4030 C   0  0  0  0  0
   19.7090    4.4820    1.5170 N   0  0  0  0  0
   19.0930    5.6010    2.2880 C   0  0  0  0  0
   18.4440    6.6820    1.3790 C   0  0  0  0  0
   18.1240    7.7840    1.8450 O   0  0  0  0  0
   20.1780    6.2170    3.2360 C   0  0  0  0  0
   19.6690    6.8070    4.5720 C   0  0  0  0  0
   20.7610    6.7780    5.6550 C   0  0  0  0  0
   21.2830    5.4050    5.8220 N   0  0  0  0  0
   22.4040    5.0480    6.4600 C   0  0  0  0  0
   23.1800    5.9420    7.0560 N   0  0  0  0  0
   22.7540    3.7750    6.4630 N   0  0  0  0  0
   18.2140    6.3480    0.0990 N   0  0  0  0  0
   17.7290    7.3060   -0.9160 C   0  0  0  0  0
   16.5680    6.6640   -1.7020 C   0  0  0  0  0
   16.4870    5.4310   -1.7860 O   0  0  0  0  0
   18.8930    7.7250   -1.8910 C   0  0  0  0  0
   20.0980    7.9550   -1.1460 O   0  0  0  0  0
   18.5680    9.0080   -2.6760 C   0  0  0  0  0
   15.6780    7.4980   -2.2820 N   0  0  0  0  0
   14.4640    7.0210   -2.9700 C   0  0  0  0  0
   14.2590    7.7460   -4.3160 C   0  0  0  0  0
   13.8730    8.9200   -4.3490 O   0  0  0  0  0
   13.2180    7.2000   -2.0490 C   0  0  0  0  0
   11.8760    6.7630   -2.6840 C   0  0  0  0  0
   10.6490    7.1650   -1.8320 C   0  0  0  0  0
    9.3210    6.9300   -2.5760 C   0  0  0  0  0
    8.1850    7.5320   -1.8480 N   0  3  0  0  0
   14.5570    7.0420   -5.4240 N   0  0  0  0  0
   14.2630    7.5110   -6.7960 C   0  0  0  0  0
   13.1430    6.6450   -7.3990 C   0  0  0  0  0
   13.0340    5.4560   -7.0980 O   0  0  0  0  0
   15.5230    7.4550   -7.7240 C   0  0  0  0  0
   16.5630    8.5830   -7.5420 C   0  0  0  0  0
   17.2310    8.5990   -6.1750 C   0  0  0  0  0
   16.7830    9.2930   -5.2660 O   0  0  0  0  0
   18.2920    7.8220   -6.0110 N   0  0  0  0  0
   12.3200    7.2650   -8.2470 N   0  0  0  0  0
   11.2860    6.5820   -9.0470 C   0  0  0  0  0
   11.8120    6.3400  -10.4840 C   0  0  0  0  0
   12.8700    6.8770  -10.8420 O   0  0  0  0  0
    9.9930    7.4580   -9.0680 C   0  0  0  0  0
   10.3210    8.7880   -9.5010 O   0  0  0  0  0
    9.2970    7.5250   -7.6880 C   0  0  0  0  0
   11.0910    5.5330  -11.3000 N   0  0  0  0  0
   11.5020    5.2350  -12.6980 C   0  0  0  0  0
   10.3580    4.5740  -13.4840 C   0  0  0  0  0
    9.8360    3.5540  -13.0240 O   0  0  0  0  0
   12.7490    4.3110  -12.7240 C   0  0  0  0  0
    9.9900    5.1690  -14.6580 N   0  0  0  0  0
    9.0610    4.5670  -15.6690 C   0  0  0  0  0
    7.5750    4.5970  -15.1990 C   0  0  0  0  0
    7.2920    4.8260  -14.0330 O   0  0  0  0  0
    9.5430    3.1100  -16.0230 C   0  0  0  0  0
    8.7150    2.3260  -17.0700 C   0  0  0  0  0
    9.3010    0.9320  -17.3600 C   0  0  0  0  0
    8.5010    0.1820  -18.3480 N   0  0  0  0  0
    8.8690   -0.9700  -18.9440 C   0  0  0  0  0
   10.0650   -1.5130  -18.7140 N   0  0  0  0  0
    8.0330   -1.5600  -19.7870 N   0  0  0  0  0
    6.6250    4.4480  -16.1500 N   0  0  0  0  0
    5.2030    4.1260  -15.8480 C   0  0  0  0  0
    4.2520    5.3710  -15.8640 C   0  0  0  0  0
    4.4000    6.3520  -14.6770 C   0  0  0  0  0
    3.0390    6.9890  -14.2370 C   0  0  0  0  0
    3.0870    7.7670  -12.8880 C   0  0  0  0  0
    2.8500    6.9360  -11.5840 N   0  3  0  0  0
    4.6620    3.0860  -16.8440 C   0  0  0  0  0
    5.0850    3.0390  -18.0100 O   0  0  0  0  0
    1.4290    6.3590  -11.6080 C   0  0  0  0  0
    3.0090    7.8500  -10.3930 C   0  0  0  0  0
    3.8510    5.7940  -11.4720 C   0  0  0  0  0
    3.7260    2.2600  -16.3440 N   0  0  0  0  0
    2.8690    1.3780  -17.1610 C   0  0  0  0  0
    1.4620    1.9980  -17.3220 C   0  0  0  0  0
    0.5840    1.4070  -17.9610 O   0  0  0  0  0
    2.7920   -0.0160  -16.4930 C   0  0  0  0  0
    2.4930    0.0920  -15.1130 O   0  0  0  0  0
    1.2720    3.1920  -16.7270 N   0  0  0  0  0
   -0.0010    3.9210  -16.7210 C   0  0  0  0  0
   -0.2920    4.4960  -18.1350 C   0  0  0  0  0
   -1.2320    4.0250  -18.8070 O   0  0  0  0  0
    0.0420    5.0770  -15.6570 C   0  0  0  0  0
    0.7220    4.6150  -14.4810 O   0  0  0  0  0
   -1.3660    5.5660  -15.2630 C   0  0  0  0  0
    0.4760    5.3770  -18.5910 O   0  0  0  0  0
   20.1733    3.4888   -1.6211 H   0  0  0  0  0
   21.6900    4.1507   -1.8167 H   0  0  0  0  0
   21.4988    2.4954   -1.8028 H   0  0  0  0  0
   20.8290    2.5128    0.4767 H   0  0  0  0  0
   23.4068    4.0512    0.0236 H   0  0  0  0  0
   22.9583    3.1389    1.4856 H   0  0  0  0  0
   23.2237    2.2815   -0.0524 H   0  0  0  0  0
   19.3184    3.5467    1.6310 H   0  0  0  0  0
   18.2722    5.1969    2.8806 H   0  0  0  0  0
   20.6222    7.0479    2.6879 H   0  0  0  0  0
   20.8473    5.3988    3.5020 H   0  0  0  0  0
   18.8267    6.2064    4.9155 H   0  0  0  0  0
   19.3788    7.8439    4.4027 H   0  0  0  0  0
   20.3335    7.1132    6.6000 H   0  0  0  0  0
   21.5774    7.4346    5.3543 H   0  0  0  0  0
   20.7323    4.6526    5.4085 H   0  0  0  0  0
   24.0419    5.6450    7.5134 H   0  0  0  0  0
   22.9153    6.9270    7.0572 H   0  0  0  0  0
   22.1739    3.0854    5.9851 H   0  0  0  0  0
   18.3827    5.3837   -0.1873 H   0  0  0  0  0
   17.3741    8.2078   -0.4172 H   0  0  0  0  0
   19.0176    6.9050   -2.5983 H   0  0  0  0  0
   20.8013    8.2096   -1.7478 H   0  0  0  0  0
   17.6694    8.8498   -3.2723 H   0  0  0  0  0
   18.4022    9.8279   -1.9771 H   0  0  0  0  0
   19.4031    9.2520   -3.3327 H   0  0  0  0  0
   15.8533    8.5020   -2.2424 H   0  0  0  0  0
   14.5908    5.9600   -3.1854 H   0  0  0  0  0
   13.1343    8.2649   -1.8320 H   0  0  0  0  0
   13.3761    6.5680   -1.1751 H   0  0  0  0  0
   11.8839    5.6760   -2.7650 H   0  0  0  0  0
   11.7875    7.2589   -3.6506 H   0  0  0  0  0
   10.7272    8.2284   -1.6059 H   0  0  0  0  0
   10.6461    6.5511   -0.9313 H   0  0  0  0  0
    9.1527    5.8560   -2.6553 H   0  0  0  0  0
    9.3876    7.3936   -3.5603 H   0  0  0  0  0
    7.3223    7.3599   -2.3643 H   0  0  0  0  0
    8.1168    7.1132   -0.9204 H   0  0  0  0  0
    8.3343    8.5370   -1.7584 H   0  0  0  0  0
   15.0105    6.1353   -5.3114 H   0  0  0  0  0
   13.9494    8.5529   -6.7310 H   0  0  0  0  0
   15.1511    7.5487   -8.7443 H   0  0  0  0  0
   16.0383    6.5265   -7.4781 H   0  0  0  0  0
   16.0342    9.5296   -7.6532 H   0  0  0  0  0
   17.3470    8.4207   -8.2817 H   0  0  0  0  0
   18.7639    7.7872   -5.1074 H   0  0  0  0  0
   18.6368    7.2588   -6.7884 H   0  0  0  0  0
   12.4118    8.2758   -8.3484 H   0  0  0  0  0
   11.0490    5.6152   -8.6029 H   0  0  0  0  0
    9.2961    6.9887   -9.7624 H   0  0  0  0  0
    9.5252    9.3247   -9.5132 H   0  0  0  0  0
    9.0156    6.5195   -7.3752 H   0  0  0  0  0
    9.9819    7.9558   -6.9576 H   0  0  0  0  0
    8.4048    8.1468   -7.7623 H   0  0  0  0  0
   10.2331    5.1137  -10.9414 H   0  0  0  0  0
   11.7518    6.1842  -13.1720 H   0  0  0  0  0
   13.5757    4.8041  -12.2127 H   0  0  0  0  0
   12.5155    3.3734  -12.2195 H   0  0  0  0  0
   13.0283    4.1089  -13.7580 H   0  0  0  0  0
   10.3760    6.0910  -14.8614 H   0  0  0  0  0
    9.0942    5.1743  -16.5735 H   0  0  0  0  0
    9.4660    2.5396  -15.0973 H   0  0  0  0  0
   10.5366    3.2240  -16.4565 H   0  0  0  0  0
    8.7230    2.8946  -17.9999 H   0  0  0  0  0
    7.7091    2.1922  -16.6720 H   0  0  0  0  0
    9.3044    0.3663  -16.4283 H   0  0  0  0  0
   10.3033    1.0647  -17.7674 H   0  0  0  0  0
    7.5917    0.5684  -18.6016 H   0  0  0  0  0
   10.3319   -2.3772  -19.1855 H   0  0  0  0  0
   10.7129   -1.0641  -18.0666 H   0  0  0  0  0
    7.1225   -1.1421  -19.9786 H   0  0  0  0  0
    6.8972    4.5623  -17.1263 H   0  0  0  0  0
    5.2073    3.7308  -14.8322 H   0  0  0  0  0
    3.2355    4.9807  -15.8138 H   0  0  0  0  0
    4.5026    5.9363  -16.7616 H   0  0  0  0  0
    5.0581    7.1608  -14.9945 H   0  0  0  0  0
    4.7936    5.7909  -13.8294 H   0  0  0  0  0
    2.3341    6.1684  -14.1039 H   0  0  0  0  0
    2.7629    7.7088  -15.0076 H   0  0  0  0  0
    2.2742    8.4920  -12.9321 H   0  0  0  0  0
    4.0985    8.1654  -12.8087 H   0  0  0  0  0
    0.7079    7.1747  -11.6599 H   0  0  0  0  0
    1.3144    5.7150  -12.4799 H   0  0  0  0  0
    1.2585    5.7787  -10.7012 H   0  0  0  0  0
    4.0158    8.2677  -10.3890 H   0  0  0  0  0
    2.2795    8.6574  -10.4563 H   0  0  0  0  0
    2.8461    7.2825   -9.4768 H   0  0  0  0  0
    3.7436    5.1327  -12.3318 H   0  0  0  0  0
    4.8623    6.2000  -11.4484 H   0  0  0  0  0
    3.6612    5.2347  -10.5559 H   0  0  0  0  0
    3.5996    2.2416  -15.3320 H   0  0  0  0  0
    3.2980    1.2675  -18.1569 H   0  0  0  0  0
    3.7589   -0.5073  -16.6016 H   0  0  0  0  0
    2.0010   -0.5896  -16.9761 H   0  0  0  0  0
    2.4517   -0.7856  -14.7260 H   0  0  0  0  0
    2.0663    3.6173  -16.2489 H   0  0  0  0  0
   -0.8021    3.2323  -16.4527 H   0  0  0  0  0
    0.5711    5.9163  -16.1084 H   0  0  0  0  0
    0.7489    5.3204  -13.8304 H   0  0  0  0  0
   -1.8798    5.9413  -16.1480 H   0  0  0  0  0
   -1.9313    4.7369  -14.8374 H   0  0  0  0  0
   -1.2789    6.3643  -14.5260 H   0  0  0  0  0
    1.1290    5.6062  -17.9257 H   0  0  0  0  0
  1  2  1  0  0  0
  2  3  1  0  0  0
  2  5  1  0  0  0
  3  4  2  0  0  0
  3  6  1  0  0  0
  6  7  1  0  0  0
  7  8  1  0  0  0
  7 10  1  0  0  0
  8  9  2  0  0  0
  8 17  1  0  0  0
 10 11  1  0  0  0
 11 12  1  0  0  0
 12 13  1  0  0  0
 13 14  1  0  0  0
 14 15  1  0  0  0
 14 16  2  0  0  0
 17 18  1  0  0  0
 18 19  1  0  0  0
 18 21  1  0  0  0
 19 20  2  0  0  0
 19 24  1  0  0  0
 21 22  1  0  0  0
 21 23  1  0  0  0
 24 25  1  0  0  0
 25 26  1  0  0  0
 25 28  1  0  0  0
 26 27  2  0  0  0
 26 33  1  0  0  0
 28 29  1  0  0  0
 29 30  1  0  0  0
 30 31  1  0  0  0
 31 32  1  0  0  0
 33 34  1  0  0  0
 34 35  1  0  0  0
 34 37  1  0  0  0
 35 36  2  0  0  0
 35 42  1  0  0  0
 37 38  1  0  0  0
 38 39  1  0  0  0
 39 40  2  0  0  0
 39 41  1  0  0  0
 42 43  1  0  0  0
 43 44  1  0  0  0
 43 46  1  0  0  0
 44 45  2  0  0  0
 44 49  1  0  0  0
 46 47  1  0  0  0
 46 48  1  0  0  0
 49 50  1  0  0  0
 50 51  1  0  0  0
 50 53  1  0  0  0
 51 52  2  0  0  0
 51 54  1  0  0  0
 54 55  1  0  0  0
 55 56  1  0  0  0
 55 58  1  0  0  0
 56 57  2  0  0  0
 56 65  1  0  0  0
 58 59  1  0  0  0
 59 60  1  0  0  0
 60 61  1  0  0  0
 61 62  1  0  0  0
 62 63  1  0  0  0
 62 64  2  0  0  0
 65 66  1  0  0  0
 66 67  1  0  0  0
 66 72  1  0  0  0
 67 68  1  0  0  0
 68 69  1  0  0  0
 69 70  1  0  0  0
 70 71  1  0  0  0
 71 74  1  0  0  0
 71 75  1  0  0  0
 71 76  1  0  0  0
 72 73  2  0  0  0
 72 77  1  0  0  0
 77 78  1  0  0  0
 78 79  1  0  0  0
 78 81  1  0  0  0
 79 80  2  0  0  0
 79 83  1  0  0  0
 81 82  1  0  0  0
 83 84  1  0  0  0
 84 85  1  0  0  0
 84 87  1  0  0  0
 85 86  2  0  0  0
 85 90  1  0  0  0
 87 88  1  0  0  0
 87 89  1  0  0  0
  1 91  1  0  0  0
  1 92  1  0  0  0
  1 93  1  0  0  0
  2 94  1  0  0  0
  5 95  1  0  0  0
  5 96  1  0  0  0
  5 97  1  0  0  0
  6 98  1  0  0  0
  7 99  1  0  0  0
 10100  1  0  0  0
 10101  1  0  0  0
 11102  1  0  0  0
 11103  1  0  0  0
 12104  1  0  0  0
 12105  1  0  0  0
 13106  1  0  0  0
 15107  1  0  0  0
 15108  1  0  0  0
 16109  1  0  0  0
 17110  1  0  0  0
 18111  1  0  0  0
 21112  1  0  0  0
 22113  1  0  0  0
 23114  1  0  0  0
 23115  1  0  0  0
 23116  1  0  0  0
 24117  1  0  0  0
 25118  1  0  0  0
 28119  1  0  0  0
 28120  1  0  0  0
 29121  1  0  0  0
 29122  1  0  0  0
 30123  1  0  0  0
 30124  1  0  0  0
 31125  1  0  0  0
 31126  1  0  0  0
 32127  1  0  0  0
 32128  1  0  0  0
 32129  1  0  0  0
 33130  1  0  0  0
 34131  1  0  0  0
 37132  1  0  0  0
 37133  1  0  0  0
 38134  1  0  0  0
 38135  1  0  0  0
 41136  1  0  0  0
 41137  1  0  0  0
 42138  1  0  0  0
 43139  1  0  0  0
 46140  1  0  0  0
 47141  1  0  0  0
 48142  1  0  0  0
 48143  1  0  0  0
 48144  1  0  0  0
 49145  1  0  0  0
 50146  1  0  0  0
 53147  1  0  0  0
 53148  1  0  0  0
 53149  1  0  0  0
 54150  1  0  0  0
 55151  1  0  0  0
 58152  1  0  0  0
 58153  1  0  0  0
 59154  1  0  0  0
 59155  1  0  0  0
 60156  1  0  0  0
 60157  1  0  0  0
 61158  1  0  0  0
 63159  1  0  0  0
 63160  1  0  0  0
 64161  1  0  0  0
 65162  1  0  0  0
 66163  1  0  0  0
 67164  1  0  0  0
 67165  1  0  0  0
 68166  1  0  0  0
 68167  1  0  0  0
 69168  1  0  0  0
 69169  1  0  0  0
 70170  1  0  0  0
 70171  1  0  0  0
 74172  1  0  0  0
 74173  1  0  0  0
 74174  1  0  0  0
 75175  1  0  0  0
 75176  1  0  0  0
 75177  1  0  0  0
 76178  1  0  0  0
 76179  1  0  0  0
 76180  1  0  0  0
 77181  1  0  0  0
 78182  1  0  0  0
 81183  1  0  0  0
 81184  1  0  0  0
 82185  1  0  0  0
 83186  1  0  0  0
 84187  1  0  0  0
 87188  1  0  0  0
 88189  1  0  0  0
 89190  1  0  0  0
 89191  1  0  0  0
 89192  1  0  0  0
 90193  1  0  0  0
M  END
$$$$
