3qrk_ligand
  -I-interpret- 

 60 63  0  0  0  0  0  0  0  0999 V2000
   14.9470   19.0200   10.0590 C   0  0  0  0  0
   17.7130   21.3490   10.7340 N   0  0  0  0  0
   17.1350   23.2510   11.7860 O   0  0  0  0  0
   14.6680   17.2210   10.1100 Cl  0  0  0  0  0
   16.1680   19.5970   10.3900 C   0  0  0  0  0
   19.2890   22.6580   11.7670 N   0  0  0  0  0
   25.4680   23.0550    5.9730 O   0  0  0  0  0
   17.4920   18.5770   10.9160 Cl  0  0  0  0  0
   13.9350   19.8900    9.6660 C   0  0  0  0  0
   21.1730   25.2170   13.3410 N   0  0  0  0  0
   23.5810   22.2420    5.2240 O   0  0  0  0  0
   14.1880   21.2720    9.6200 C   0  0  0  0  0
   20.9340   24.1130   12.5100 N   0  0  0  0  0
   15.4290   21.8190    9.9590 C   0  0  0  0  0
   25.3330   22.3630    8.3570 N   0  3  0  0  0
   16.4540   20.9600   10.3540 C   0  0  0  0  0
   18.0070   22.4460   11.4540 C   0  0  0  0  0
   19.6480   23.7270   12.4920 C   0  0  0  0  0
   18.9570   24.5630   13.3760 C   0  0  0  0  0
   19.9350   25.4480   13.8450 C   0  0  0  0  0
   19.6340   26.5720   14.8150 C   0  0  0  0  0
   19.2420   25.9950   16.1710 C   0  0  0  0  0
   18.5110   27.4320   14.2460 C   0  0  0  0  0
   20.8250   27.4900   15.0040 C   0  0  0  0  0
   23.1560   23.3090   12.4830 C   0  0  0  0  0
   21.9680   23.6200   11.8240 C   0  0  0  0  0
   21.9810   23.4440   10.4340 C   0  0  0  0  0
   24.2650   22.8560   11.8090 C   0  0  0  0  0
   24.2290   22.6790   10.4430 C   0  0  0  0  0
   23.0840   22.9830    9.7330 C   0  0  0  0  0
   25.4720   22.1510    9.7820 C   0  0  0  0  0
   24.1270   22.0680    7.6050 C   0  0  0  0  0
   22.9550   22.8240    8.2280 C   0  0  0  0  0
   24.3850   22.4700    6.1670 C   0  0  0  0  0
   18.4918   20.7564   10.4463 H   0  0  0  0  0
   20.0013   21.9999   11.4511 H   0  0  0  0  0
   12.9527   19.5027    9.3956 H   0  0  0  0  0
   22.8087   21.7861    5.5666 H   0  0  0  0  0
   13.3867   21.9420    9.3084 H   0  0  0  0  0
   15.5922   22.8958    9.9154 H   0  0  0  0  0
   26.0079   21.7059    7.9655 H   0  0  0  0  0
   25.4076   23.3768    8.2727 H   0  0  0  0  0
   17.8997   24.5322   13.6391 H   0  0  0  0  0
   18.3558   25.3708   16.0564 H   0  0  0  0  0
   20.0638   25.3937   16.5598 H   0  0  0  0  0
   19.0272   26.8096   16.8627 H   0  0  0  0  0
   18.8228   27.8468   13.2874 H   0  0  0  0  0
   17.6209   26.8187   14.1057 H   0  0  0  0  0
   18.2893   28.2432   14.9395 H   0  0  0  0  0
   21.6655   26.9167   15.3952 H   0  0  0  0  0
   21.0987   27.9301   14.0451 H   0  0  0  0  0
   20.5644   28.2811   15.7071 H   0  0  0  0  0
   23.2072   23.4286   13.5652 H   0  0  0  0  0
   21.0762   23.6821    9.8748 H   0  0  0  0  0
   25.1797   22.6352   12.3592 H   0  0  0  0  0
   26.3532   22.6696   10.1596 H   0  0  0  0  0
   25.5965   21.0900    9.9984 H   0  0  0  0  0
   23.8700   21.0090    7.6304 H   0  0  0  0  0
   22.9327   23.8216    7.7894 H   0  0  0  0  0
   22.0484   22.2517    8.0311 H   0  0  0  0  0
  1  4  1  0  0  0
  5  1  4  0  0  0
  1  9  4  0  0  0
  2 16  1  0  0  0
 17  2  1  0  0  0
 17  3  2  0  0  0
  5  8  1  0  0  0
 16  5  4  0  0  0
  6 17  1  0  0  0
 18  6  1  0  0  0
 34  7  2  0  0  0
 12  9  4  0  0  0
 13 10  4  0  0  0
 10 20  4  0  0  0
 34 11  1  0  0  0
 14 12  4  0  0  0
 13 18  4  0  0  0
 26 13  1  0  0  0
 16 14  4  0  0  0
 15 31  1  0  0  0
 32 15  1  0  0  0
 18 19  4  0  0  0
 19 20  4  0  0  0
 20 21  1  0  0  0
 21 22  1  0  0  0
 21 23  1  0  0  0
 21 24  1  0  0  0
 26 25  4  0  0  0
 28 25  4  0  0  0
 27 26  4  0  0  0
 30 27  4  0  0  0
 29 28  4  0  0  0
 30 29  4  0  0  0
 31 29  1  0  0  0
 33 30  1  0  0  0
 32 33  1  0  0  0
 32 34  1  0  0  0
  2 35  1  0  0  0
  6 36  1  0  0  0
  9 37  1  0  0  0
 11 38  1  0  0  0
 12 39  1  0  0  0
 14 40  1  0  0  0
 15 41  1  0  0  0
 15 42  1  0  0  0
 19 43  1  0  0  0
 22 44  1  0  0  0
 22 45  1  0  0  0
 22 46  1  0  0  0
 23 47  1  0  0  0
 23 48  1  0  0  0
 23 49  1  0  0  0
 24 50  1  0  0  0
 24 51  1  0  0  0
 24 52  1  0  0  0
 25 53  1  0  0  0
 27 54  1  0  0  0
 28 55  1  0  0  0
 31 56  1  0  0  0
 31 57  1  0  0  0
 32 58  1  0  0  0
 33 59  1  0  0  0
 33 60  1  0  0  0
M  END
$$$$
