6boy_ligand
  -I-interpret- 

104110  0  0  0  0  0  0  0  0999 V2000
   76.7220   32.8550   57.5780 N   0  0  0  0  0
   75.4010   34.6710   58.6480 C   0  0  0  0  0
   68.8620   41.5050   48.2970 O   0  0  0  0  0
   75.7280   33.7060   57.5680 C   0  0  0  0  0
   72.9200   35.2370   49.0230 C   0  0  0  0  0
   73.1470   36.7300   48.8150 C   0  0  0  0  0
   71.9630   37.6380   49.1420 C   0  0  0  0  0
   70.9110   37.6760   48.0500 C   0  0  0  0  0
   70.7700   40.1080   47.7140 C   0  0  0  0  0
   69.8670   41.2560   47.3260 C   0  0  0  0  0
   69.1470   42.3920   49.3000 C   0  0  0  0  0
   69.6710   42.0020   50.5230 C   0  0  0  0  0
   69.8760   42.9450   51.5150 C   0  0  0  0  0
   69.5620   44.2740   51.2950 C   0  0  0  0  0
   75.6900   32.6030   55.6680 C   0  0  0  0  0
   69.0420   44.6530   50.0610 C   0  0  0  0  0
   68.6130   45.9900   49.5850 C   0  0  0  0  0
   67.5930   46.8610   47.4370 C   0  0  0  0  0
   68.3930   48.1480   47.5160 C   0  0  0  0  0
   66.3640   49.4780   47.1510 C   0  0  0  0  0
   65.5530   48.2230   47.0480 C   0  0  0  0  0
   66.1400   47.0720   47.8510 C   0  0  0  0  0
   68.8320   43.7380   49.0440 C   0  0  0  0  0
   68.2720   44.4640   47.8740 C   0  0  0  0  0
   74.8330   34.4330   53.6010 C   0  0  0  0  0
   75.2760   32.2180   54.2650 C   0  0  0  0  0
   75.1530   35.6020   52.7550 C   0  0  0  0  0
   74.8930   36.8990   53.1860 C   0  0  0  0  0
   75.2230   37.9860   52.3970 C   0  0  0  0  0
   75.8170   37.7720   51.1730 C   0  0  0  0  0
   76.0890   36.5000   50.7220 C   0  0  0  0  0
   75.7540   35.4180   51.5150 C   0  0  0  0  0
   73.7180   34.5670   54.5710 C   0  0  0  0  0
   73.8740   34.2040   55.8890 C   0  0  0  0  0
   71.6050   35.0640   55.4220 C   0  0  0  0  0
   70.1790   35.4990   55.5750 C   0  0  0  0  0
   75.9050   30.9250   53.7320 C   0  0  0  0  0
   72.3820   35.0500   54.3060 C   0  0  0  0  0
   71.8610   35.4410   52.9550 C   0  0  0  0  0
   75.3750   30.6010   52.3520 C   0  0  0  0  0
   75.6200   30.9860   49.9480 C   0  0  0  0  0
   75.4880   32.2690   49.1500 C   0  0  0  0  0
   74.2150   33.0540   49.4300 C   0  0  0  0  0
   74.1340   34.3800   48.6840 C   0  0  0  0  0
   76.7000   32.1520   56.3760 N   0  0  0  0  0
   75.9720   31.2280   51.3400 N   0  0  0  0  0
   70.1860   38.9390   47.9840 N   0  0  0  0  0
   68.1610   45.8030   48.2730 N   0  0  0  0  0
   67.7090   49.3320   47.3730 N   0  0  0  0  0
   75.5520   33.3890   53.4210 N   0  0  0  0  0
   75.0320   33.5840   56.3820 N   0  0  0  0  0
   65.8690   50.5980   47.0500 O   0  0  0  0  0
   69.6080   48.1360   47.6860 O   0  0  0  0  0
   68.6170   47.0530   50.1800 O   0  0  0  0  0
   67.9660   44.0350   46.7770 O   0  0  0  0  0
   71.9860   40.2790   47.7370 O   0  0  0  0  0
   74.4490   29.8110   52.1910 O   0  0  0  0  0
   72.4510   34.4740   56.8220 S   0  0  0  0  0
   76.2300   39.1370   50.1740 Cl  0  0  0  0  0
   75.1964   34.1268   59.5700 H   0  0  0  0  0
   76.2454   35.3431   58.8009 H   0  0  0  0  0
   74.5219   35.2490   58.3631 H   0  0  0  0  0
   72.1113   34.9344   48.3578 H   0  0  0  0  0
   72.6983   35.0850   50.0793 H   0  0  0  0  0
   73.3518   36.8639   47.7528 H   0  0  0  0  0
   73.9494   37.0157   49.4951 H   0  0  0  0  0
   72.3491   38.6504   49.2607 H   0  0  0  0  0
   71.4880   37.2462   50.0414 H   0  0  0  0  0
   70.1849   36.8927   48.2674 H   0  0  0  0  0
   71.4232   37.5423   47.0972 H   0  0  0  0  0
   70.4803   42.1527   47.2374 H   0  0  0  0  0
   69.3742   40.9961   46.3892 H   0  0  0  0  0
   69.9206   40.9563   50.7025 H   0  0  0  0  0
   70.2878   42.6382   52.4765 H   0  0  0  0  0
   69.7199   45.0152   52.0784 H   0  0  0  0  0
   67.6363   46.5535   46.3922 H   0  0  0  0  0
   65.5349   47.9231   46.0002 H   0  0  0  0  0
   64.5603   48.4343   47.4455 H   0  0  0  0  0
   66.0931   47.3066   48.9144 H   0  0  0  0  0
   65.5693   46.1635   47.6588 H   0  0  0  0  0
   74.2158   31.9648   54.2581 H   0  0  0  0  0
   74.4239   37.0604   54.1566 H   0  0  0  0  0
   75.0155   38.9997   52.7398 H   0  0  0  0  0
   76.5624   36.3478   49.7521 H   0  0  0  0  0
   75.9638   34.4078   51.1634 H   0  0  0  0  0
   70.0877   36.5471   55.2901 H   0  0  0  0  0
   69.5437   34.8897   54.9322 H   0  0  0  0  0
   69.8722   35.3754   56.6136 H   0  0  0  0  0
   75.6536   30.1068   54.4069 H   0  0  0  0  0
   76.9853   31.0575   53.6722 H   0  0  0  0  0
   72.4656   36.2553   52.5556 H   0  0  0  0  0
   71.9151   34.5837   52.2841 H   0  0  0  0  0
   70.8250   35.7672   53.0470 H   0  0  0  0  0
   76.4153   30.3912   49.4988 H   0  0  0  0  0
   74.6560   30.4776   49.9287 H   0  0  0  0  0
   75.4671   31.9901   48.0965 H   0  0  0  0  0
   76.3260   32.9076   49.4294 H   0  0  0  0  0
   74.1999   33.2794   50.4963 H   0  0  0  0  0
   73.3761   32.4423   49.0979 H   0  0  0  0  0
   75.0148   34.9555   48.9688 H   0  0  0  0  0
   74.0635   34.1403   47.6230 H   0  0  0  0  0
   76.7056   31.9053   51.5485 H   0  0  0  0  0
   69.1801   38.9286   48.1530 H   0  0  0  0  0
   68.2581   50.1891   47.4388 H   0  0  0  0  0
  4  1  4  0  0  0
 45  1  4  0  0  0
  4  2  1  0  0  0
 10  3  1  0  0  0
  3 11  1  0  0  0
 51  4  4  0  0  0
  5  6  1  0  0  0
 44  5  1  0  0  0
  6  7  1  0  0  0
  7  8  1  0  0  0
  8 47  1  0  0  0
  9 10  1  0  0  0
 47  9  1  0  0  0
  9 56  2  0  0  0
 11 12  4  0  0  0
 11 23  4  0  0  0
 12 13  4  0  0  0
 13 14  4  0  0  0
 16 14  4  0  0  0
 26 15  1  0  0  0
 15 45  4  0  0  0
 15 51  4  0  0  0
 16 17  1  0  0  0
 23 16  4  0  0  0
 48 17  1  0  0  0
 17 54  2  0  0  0
 18 19  1  0  0  0
 18 22  1  0  0  0
 48 18  1  0  0  0
 19 49  1  0  0  0
 19 53  2  0  0  0
 21 20  1  0  0  0
 49 20  1  0  0  0
 20 52  2  0  0  0
 22 21  1  0  0  0
 23 24  1  0  0  0
 24 48  1  0  0  0
 24 55  2  0  0  0
 25 27  1  0  0  0
 25 33  1  0  0  0
 50 25  2  0  0  0
 37 26  1  0  0  0
 26 50  1  0  0  0
 27 28  4  0  0  0
 27 32  4  0  0  0
 28 29  4  0  0  0
 29 30  4  0  0  0
 31 30  4  0  0  0
 30 59  1  0  0  0
 32 31  4  0  0  0
 33 34  4  0  0  0
 33 38  4  0  0  0
 51 34  1  0  0  0
 34 58  4  0  0  0
 35 36  1  0  0  0
 38 35  4  0  0  0
 58 35  4  0  0  0
 40 37  1  0  0  0
 38 39  1  0  0  0
 46 40  1  0  0  0
 40 57  2  0  0  0
 42 41  1  0  0  0
 41 46  1  0  0  0
 43 42  1  0  0  0
 43 44  1  0  0  0
  2 60  1  0  0  0
  2 61  1  0  0  0
  2 62  1  0  0  0
  5 63  1  0  0  0
  5 64  1  0  0  0
  6 65  1  0  0  0
  6 66  1  0  0  0
  7 67  1  0  0  0
  7 68  1  0  0  0
  8 69  1  0  0  0
  8 70  1  0  0  0
 10 71  1  0  0  0
 10 72  1  0  0  0
 12 73  1  0  0  0
 13 74  1  0  0  0
 14 75  1  0  0  0
 18 76  1  0  0  0
 21 77  1  0  0  0
 21 78  1  0  0  0
 22 79  1  0  0  0
 22 80  1  0  0  0
 26 81  1  0  0  0
 28 82  1  0  0  0
 29 83  1  0  0  0
 31 84  1  0  0  0
 32 85  1  0  0  0
 36 86  1  0  0  0
 36 87  1  0  0  0
 36 88  1  0  0  0
 37 89  1  0  0  0
 37 90  1  0  0  0
 39 91  1  0  0  0
 39 92  1  0  0  0
 39 93  1  0  0  0
 41 94  1  0  0  0
 41 95  1  0  0  0
 42 96  1  0  0  0
 42 97  1  0  0  0
 43 98  1  0  0  0
 43 99  1  0  0  0
 44100  1  0  0  0
 44101  1  0  0  0
 46102  1  0  0  0
 47103  1  0  0  0
 49104  1  0  0  0
M  END
$$$$
