5k0f_ligand
  -I-interpret- 

 40 42  0  0  0  0  0  0  0  0999 V2000
    9.3030  -20.7470    9.9500 C   0  0  0  0  0
   10.2270  -19.1760   11.3290 C   0  0  0  0  0
    8.2960  -21.4160    9.0530 C   0  0  0  0  0
   12.6170  -20.1050   12.0610 C   0  0  0  0  0
   12.8660  -19.4860   13.2030 N   0  0  0  0  0
   14.7140  -20.5300   12.6830 C   0  0  0  0  0
   16.1510  -20.9750   12.8360 C   0  0  0  0  0
   17.0510  -19.7750   12.6500 C   0  0  0  0  0
   16.4160  -23.3580   12.1290 C   0  0  0  0  0
   16.7590  -24.3150   11.1750 C   0  0  0  0  0
   17.1930  -23.9260    9.9070 C   0  0  0  0  0
   17.2870  -22.5730    9.5940 C   0  0  0  0  0
   16.9480  -21.6170   10.5490 C   0  0  0  0  0
   17.4150  -26.2260    9.3690 C   0  0  0  0  0
   10.8240  -21.3770   10.3480 S   0  0  0  0  0
   11.2990  -20.1070   11.3460 C   0  0  0  0  0
    9.1540  -19.5600   10.5570 N   0  0  0  0  0
   10.2450  -17.8800   12.0970 C   0  0  0  0  0
   14.0920  -19.7440   13.5340 N   0  0  0  0  0
   13.7760  -20.8310   11.6550 C   0  0  0  0  0
   16.5110  -22.0130   11.8070 C   0  0  0  0  0
   17.5430  -24.8890    8.9310 O   0  0  0  0  0
    8.7313  -21.5600    8.0641 H   0  0  0  0  0
    8.0213  -22.3828    9.4748 H   0  0  0  0  0
    7.4088  -20.7879    8.9729 H   0  0  0  0  0
   16.2774  -21.4103   13.8273 H   0  0  0  0  0
   18.0901  -20.0785   12.7775 H   0  0  0  0  0
   16.9101  -19.3685   11.6485 H   0  0  0  0  0
   16.7995  -19.0156   13.3904 H   0  0  0  0  0
   16.0764  -23.6643   13.1184 H   0  0  0  0  0
   16.6877  -25.3744   11.4212 H   0  0  0  0  0
   17.6246  -22.2625    8.6052 H   0  0  0  0  0
   17.0257  -20.5566   10.3089 H   0  0  0  0  0
   18.0644  -26.3890   10.2291 H   0  0  0  0  0
   16.3799  -26.4166    9.6524 H   0  0  0  0  0
   17.7023  -26.9004    8.5623 H   0  0  0  0  0
   10.3507  -18.0912   13.1611 H   0  0  0  0  0
   11.0846  -17.2716   11.7609 H   0  0  0  0  0
    9.3127  -17.3429   11.9227 H   0  0  0  0  0
   13.9103  -21.4605   10.7753 H   0  0  0  0  0
  1  3  1  0  0  0
  1 15  4  0  0  0
 17  1  4  0  0  0
 16  2  4  0  0  0
  2 17  4  0  0  0
  2 18  1  0  0  0
  4  5  4  0  0  0
  4 16  1  0  0  0
 20  4  4  0  0  0
 19  5  4  0  0  0
  7  6  1  0  0  0
  6 19  4  0  0  0
  6 20  4  0  0  0
  7  8  1  0  0  0
 21  7  1  0  0  0
  9 10  4  0  0  0
  9 21  4  0  0  0
 10 11  4  0  0  0
 11 12  4  0  0  0
 11 22  1  0  0  0
 12 13  4  0  0  0
 13 21  4  0  0  0
 22 14  1  0  0  0
 15 16  4  0  0  0
  3 23  1  0  0  0
  3 24  1  0  0  0
  3 25  1  0  0  0
  7 26  1  0  0  0
  8 27  1  0  0  0
  8 28  1  0  0  0
  8 29  1  0  0  0
  9 30  1  0  0  0
 10 31  1  0  0  0
 12 32  1  0  0  0
 13 33  1  0  0  0
 14 34  1  0  0  0
 14 35  1  0  0  0
 14 36  1  0  0  0
 18 37  1  0  0  0
 18 38  1  0  0  0
 18 39  1  0  0  0
 20 40  1  0  0  0
M  END
$$$$
