5he0_ligand
  -I-interpret- 

 58 62  0  0  0  0  0  0  0  0999 V2000
  -12.7570   25.4680   15.7490 O   0  0  0  0  0
  -13.5100   26.1170   16.4520 C   0  0  0  0  0
  -13.0670   26.5870   17.6130 N   0  0  0  0  0
  -11.7260   26.3180   18.0960 C   0  0  0  0  0
  -11.8660   25.1600   19.0490 C   0  0  0  0  0
  -12.7410   24.0960   18.7750 C   0  0  0  0  0
  -12.8610   23.0560   19.6890 C   0  0  0  0  0
  -12.0940   23.0990   20.8550 C   0  0  0  0  0
  -11.2300   24.1780   21.0930 C   0  0  0  0  0
  -11.1350   25.1780   20.1970 N   0  0  0  0  0
  -14.9060   26.4030   15.9450 C   0  0  0  0  0
  -15.6050   27.5520   16.3250 C   0  0  0  0  0
  -15.4860   25.5270   15.0530 C   0  0  0  0  0
  -14.8560   24.4000   14.6440 F   0  0  0  0  0
  -16.7570   25.8080   14.5680 C   0  0  0  0  0
  -17.4500   26.9510   14.9460 C   0  0  0  0  0
  -16.8820   27.8410   15.8370 C   0  0  0  0  0
  -17.6430   29.0860   16.2100 C   0  0  0  0  0
  -16.7610   30.0270   16.8920 N   0  0  0  0  0
  -16.9460   30.3830   18.1480 C   0  0  0  0  0
  -16.1430   31.1540   18.6770 O   0  0  0  0  0
  -17.9570   29.9800   18.8950 N   0  0  0  0  0
  -18.9220   29.2250   18.4050 C   0  0  0  0  0
  -20.0780   28.9310   19.3130 C   0  0  0  0  0
  -18.8180   28.7450   17.0260 C   0  0  0  0  0
  -19.9040   27.9150   16.4580 C   0  0  0  0  0
  -20.4710   28.3880   15.4830 O   0  0  0  0  0
  -20.2470   26.7920   17.1060 N   0  0  0  0  0
  -21.5020   26.2330   17.0580 C   0  0  0  0  0
  -22.5430   26.7380   16.2650 C   0  0  0  0  0
  -21.7740   25.0770   17.8240 C   0  0  0  0  0
  -23.0210   24.4480   17.7690 C   0  0  0  0  0
  -24.0050   24.9980   16.9530 C   0  0  0  0  0
  -23.7740   26.1170   16.2250 C   0  0  0  0  0
  -25.2750   24.7160   16.6710 N   0  0  0  0  0
  -25.8830   25.5730   15.7570 N   0  0  0  0  0
  -24.9240   26.4840   15.4870 C   0  0  0  0  0
  -13.6913   27.1565   18.1843 H   0  0  0  0  0
  -11.2963   27.1905   18.5882 H   0  0  0  0  0
  -11.0466   26.0813   17.2771 H   0  0  0  0  0
  -13.3215   24.0861   17.8525 H   0  0  0  0  0
  -13.5396   22.2243   19.4996 H   0  0  0  0  0
  -12.1670   22.2910   21.5830 H   0  0  0  0  0
  -10.6343   24.2068   22.0054 H   0  0  0  0  0
  -15.1387   28.2454   17.0250 H   0  0  0  0  0
  -17.2237   25.1119   13.8711 H   0  0  0  0  0
  -18.4424   27.1458   14.5394 H   0  0  0  0  0
  -18.0067   29.5699   15.3036 H   0  0  0  0  0
  -15.9735   30.4235   16.3791 H   0  0  0  0  0
  -19.7180   28.4110   20.2007 H   0  0  0  0  0
  -20.5548   29.8662   19.6065 H   0  0  0  0  0
  -20.7988   28.3028   18.7897 H   0  0  0  0  0
  -17.8912   28.9007   16.4739 H   0  0  0  0  0
  -19.5348   26.3252   17.6675 H   0  0  0  0  0
  -22.3764   27.6362   15.6704 H   0  0  0  0  0
  -20.9968   24.6682   18.4698 H   0  0  0  0  0
  -23.2181   23.5480   18.3515 H   0  0  0  0  0
  -25.0182   27.3434   14.8232 H   0  0  0  0  0
  1  2  2  0  0  0
  2  3  1  0  0  0
  2 11  1  0  0  0
  3  4  1  0  0  0
  4  5  1  0  0  0
  5  6  4  0  0  0
  5 10  4  0  0  0
  6  7  4  0  0  0
  7  8  4  0  0  0
  8  9  4  0  0  0
  9 10  4  0  0  0
 11 12  4  0  0  0
 11 13  4  0  0  0
 12 17  4  0  0  0
 13 14  1  0  0  0
 13 15  4  0  0  0
 15 16  4  0  0  0
 16 17  4  0  0  0
 17 18  1  0  0  0
 18 19  1  0  0  0
 18 25  1  0  0  0
 19 20  1  0  0  0
 20 21  2  0  0  0
 20 22  1  0  0  0
 22 23  2  0  0  0
 23 24  1  0  0  0
 23 25  1  0  0  0
 25 26  1  0  0  0
 26 27  2  0  0  0
 26 28  1  0  0  0
 28 29  1  0  0  0
 29 30  4  0  0  0
 29 31  4  0  0  0
 30 34  4  0  0  0
 31 32  4  0  0  0
 32 33  4  0  0  0
 33 34  4  0  0  0
 33 35  4  0  0  0
 34 37  4  0  0  0
 35 36  4  0  0  0
 36 37  4  0  0  0
  3 38  1  0  0  0
  4 39  1  0  0  0
  4 40  1  0  0  0
  6 41  1  0  0  0
  7 42  1  0  0  0
  8 43  1  0  0  0
  9 44  1  0  0  0
 12 45  1  0  0  0
 15 46  1  0  0  0
 16 47  1  0  0  0
 18 48  1  0  0  0
 19 49  1  0  0  0
 24 50  1  0  0  0
 24 51  1  0  0  0
 24 52  1  0  0  0
 25 53  1  0  0  0
 28 54  1  0  0  0
 30 55  1  0  0  0
 31 56  1  0  0  0
 32 57  1  0  0  0
 37 58  1  0  0  0
M  END
$$$$
