### 
### Created by X-TOOL on Mon Sep 10 21:13:34 2018
### 

@<TRIPOS>MOLECULE
5w6u_ligand
  201   205     1     0     0
SMALL
GAST_HUCK


@<TRIPOS>ATOM
      1 C         -23.5190  -52.7000  -24.3590 C.2       1 ACE         0.1751
      2 O         -23.3100  -53.7940  -23.8710 O.2       1 ACE        -0.3972
      3 CH3       -22.3970  -51.8850  -24.9460 C.3       1 ACE         0.0258
      4 N         -24.7010  -52.1450  -24.4250 N.am      1 ARG        -0.2658
      5 CA        -25.8940  -52.7670  -23.9140 C.3       1 ARG         0.1310
      6 C         -26.3040  -53.8200  -24.8710 C.2       1 ARG         0.2039
      7 O         -25.8790  -53.8020  -26.0040 O.2       1 ARG        -0.3944
      8 CB        -26.9410  -51.7070  -23.9970 C.3       1 ARG        -0.0092
      9 CG        -27.6240  -51.5930  -22.6710 C.3       1 ARG        -0.0156
     10 CD        -28.7430  -52.6020  -22.6360 C.3       1 ARG         0.0627
     11 NE        -29.6440  -52.1940  -21.5730 N.pl3     1 ARG        -0.2723
     12 CZ        -30.8130  -52.7630  -21.3760 C.cat     1 ARG         0.2882
     13 NH1       -31.2020  -53.7530  -22.1630 N.pl3     1 ARG        -0.2849
     14 NH2       -31.5950  -52.3470  -20.3990 N.pl3     1 ARG        -0.2849
     15 N         -27.1450  -54.7230  -24.4050 N.am      1 ORN        -0.2637
     16 CA        -27.6400  -55.8210  -25.2240 C.3       1 ORN         0.1310
     17 CB        -26.8710  -57.0260  -24.8500 C.3       1 ORN        -0.0106
     18 CG        -26.6310  -57.9530  -26.0090 C.3       1 ORN        -0.0285
     19 CD        -26.2910  -57.2450  -27.2890 C.3       1 ORN         0.0311
     20 NE        -26.4550  -58.2290  -28.3560 N.am      1 ORN        -0.2869
     21 C         -28.9480  -56.0030  -24.9190 C.2       1 ORN         0.2039
     22 O         -29.2880  -55.9550  -23.7560 O.2       1 ORN        -0.3944
     23 N         -29.8770  -56.2090  -25.9260 N.am      1 LEU        -0.2637
     24 CA        -31.3180  -56.3960  -25.6870 C.3       1 LEU         0.1312
     25 C         -31.6590  -57.7410  -25.7190 C.2       1 LEU         0.2039
     26 O         -31.9590  -58.3200  -26.7460 O.2       1 LEU        -0.3944
     27 CB        -32.0770  -55.6290  -26.7470 C.3       1 LEU        -0.0101
     28 CG        -32.4940  -54.2610  -26.2750 C.3       1 LEU        -0.0425
     29 CD1       -31.3370  -53.5470  -25.6470 C.3       1 LEU        -0.0625
     30 CD2       -32.8800  -53.4810  -27.4940 C.3       1 LEU        -0.0625
     31 N         -31.6610  -58.4650  -24.5490 N.am      1 GLU        -0.2636
     32 CA        -31.9750  -59.8820  -24.4720 C.3       1 GLU         0.1325
     33 C         -33.3150  -60.0560  -24.2160 C.2       1 GLU         0.2041
     34 O         -33.7620  -60.4460  -23.1470 O.2       1 GLU        -0.3944
     35 CB        -31.0840  -60.4000  -23.3820 C.3       1 GLU        -0.0008
     36 CG        -29.6690  -60.1930  -23.8530 C.3       1 GLU         0.0044
     37 CD        -28.7340  -60.4180  -22.7000 C.2       1 GLU         0.0350
     38 OE1       -29.0110  -59.8570  -21.6400 O.co2     1 GLU        -0.5690
     39 OE2       -27.7670  -61.1590  -22.9090 O.co2     1 GLU        -0.5690
     40 N         -34.1880  -59.7840  -25.2340 N.am      1 TYR        -0.2621
     41 CA        -35.6220  -59.8960  -25.0270 C.3       1 TYR         0.1390
     42 C         -36.1260  -61.0910  -25.4540 C.2       1 TYR         0.2059
     43 O         -37.2140  -61.4780  -25.0640 O.2       1 TYR        -0.3942
     44 CB        -36.2780  -58.7990  -25.8420 C.3       1 TYR         0.0163
     45 CG        -36.0640  -57.5050  -25.3760 C.ar      1 TYR        -0.0493
     46 CD1       -35.7800  -57.2220  -24.0660 C.ar      1 TYR        -0.0685
     47 CD2       -36.1790  -56.4610  -26.2580 C.ar      1 TYR        -0.0685
     48 CE1       -35.6040  -55.9220  -23.6690 C.ar      1 TYR        -0.0398
     49 CE2       -36.0010  -55.1600  -25.8560 C.ar      1 TYR        -0.0398
     50 CZ        -35.7150  -54.8860  -24.5510 C.ar      1 TYR         0.0805
     51 OH        -35.5300  -53.6200  -24.1230 O.3       1 TYR        -0.3376
     52 N         -35.4240  -61.8600  -26.3450 N.am      1 PHE        -0.2618
     53 CA        -35.9360  -63.1420  -26.8320 C.3       1 PHE         0.1404
     54 C         -34.8450  -63.9930  -26.7240 C.2       1 PHE         0.2060
     55 O         -33.7240  -63.5230  -26.6780 O.2       1 PHE        -0.3942
     56 CB        -36.4840  -62.9650  -28.2410 C.3       1 PHE         0.0214
     57 CG        -37.5500  -62.0660  -28.2250 C.ar      1 PHE        -0.0386
     58 CD1       -38.6700  -62.3260  -27.4860 C.ar      1 PHE        -0.0601
     59 CD2       -37.5130  -60.9060  -28.9490 C.ar      1 PHE        -0.0601
     60 CE1       -39.7210  -61.4350  -27.4750 C.ar      1 PHE        -0.0686
     61 CE2       -38.5520  -60.0140  -28.9270 C.ar      1 PHE        -0.0686
     62 CZ        -39.6730  -60.2720  -28.1940 C.ar      1 PHE        -0.0687
     63 N         -34.9410  -65.3760  -26.6090 N.am      1 GLU        -0.2635
     64 CA        -33.7200  -66.2110  -26.3920 C.3       1 GLU         0.1325
     65 C         -33.0850  -66.7470  -27.4900 C.2       1 GLU         0.2041
     66 O         -32.2240  -67.5870  -27.3520 O.2       1 GLU        -0.3944
     67 CB        -34.0870  -67.2820  -25.3520 C.3       1 GLU        -0.0008
     68 CG        -32.9200  -68.1190  -24.8030 C.3       1 GLU         0.0044
     69 CD        -31.6530  -67.3360  -24.4590 C.2       1 GLU         0.0350
     70 OE1       -31.2760  -66.4760  -25.2670 O.co2     1 GLU        -0.5690
     71 OE2       -31.0660  -67.6320  -23.4020 O.co2     1 GLU        -0.5690
     72 N         -33.3530  -66.3220  -28.7470 N.am      1 TRP        -0.2627
     73 CA        -32.6460  -66.8980  -29.9140 C.3       1 TRP         0.1352
     74 C         -31.9660  -65.9550  -30.6000 C.2       1 TRP         0.2052
     75 O         -31.3610  -66.2580  -31.6040 O.2       1 TRP        -0.3942
     76 CB        -33.6280  -67.5260  -30.8630 C.3       1 TRP         0.0042
     77 CG        -34.8300  -66.6450  -31.0020 C.2       1 TRP        -0.0418
     78 CD1       -35.8920  -66.6850  -30.2380 C.2       1 TRP         0.0167
     79 CD2       -34.9280  -65.7160  -31.8920 C.ar      1 TRP        -0.0214
     80 NE1       -36.6940  -65.7490  -30.6950 N.pl3     1 TRP        -0.2890
     81 CE2       -36.1000  -65.1540  -31.7090 C.ar      1 TRP         0.0603
     82 CE3       -34.0940  -65.3480  -32.8310 C.ar      1 TRP        -0.0747
     83 CZ2       -36.4940  -64.1690  -32.4800 C.ar      1 TRP        -0.0443
     84 CZ3       -34.4460  -64.3230  -33.6700 C.ar      1 TRP        -0.0792
     85 CH2       -35.6700  -63.7240  -33.4860 C.ar      1 TRP        -0.0768
     86 N         -31.9470  -64.6680  -30.1630 N.am      1 LEU        -0.2636
     87 CA        -31.2700  -63.5760  -30.8510 C.3       1 LEU         0.1312
     88 C         -29.9180  -63.8170  -30.8860 C.2       1 LEU         0.2040
     89 O         -29.4270  -64.5930  -30.0810 O.2       1 LEU        -0.3944
     90 CB        -31.5720  -62.2690  -30.1160 C.3       1 LEU        -0.0101
     91 CG        -33.0130  -62.2310  -29.6150 C.3       1 LEU        -0.0425
     92 CD1       -33.1680  -61.2810  -28.4560 C.3       1 LEU        -0.0625
     93 CD2       -33.8740  -61.7200  -30.7260 C.3       1 LEU        -0.0625
     94 N         -29.1030  -63.1950  -31.8310 N.am      1 SER        -0.2616
     95 CA        -27.6710  -63.4840  -31.8090 C.3       1 SER         0.1538
     96 C         -27.1120  -62.8390  -30.7560 C.2       1 SER         0.2041
     97 O         -26.0170  -63.1780  -30.3620 O.2       1 SER        -0.3944
     98 CB        -26.9470  -63.0040  -33.0340 C.3       1 SER         0.0843
     99 OG        -27.8170  -62.2470  -33.8290 O.3       1 SER        -0.3903
    100 N         -27.7350  -61.7820  -30.1330 N.am      1 BAL        -0.2827
    101 CB        -27.0920  -61.1200  -28.9750 C.3       1 BAL         0.0477
    102 CA        -25.8190  -60.3470  -29.2940 C.3       1 BAL         0.0574
    103 C         -25.6700  -59.3840  -28.3180 C.2       1 BAL         0.1779
    104 O         -24.8600  -59.5320  -27.4190 O.2       1 BAL        -0.3970
    105 H1        -22.7964  -50.9353  -25.3315 H         1 ACE         0.0467
    106 H2        -21.9274  -52.4457  -25.7676 H         1 ACE         0.0467
    107 H3        -21.6476  -51.6785  -24.1677 H         1 ACE         0.0467
    108 H4        -24.7800  -51.2440  -24.8515 H         1 ARG         0.1882
    109 H5        -25.7612  -53.1589  -22.8948 H         1 ARG         0.0800
    110 H6        -27.6771  -51.9751  -24.7692 H         1 ARG         0.0313
    111 H7        -26.4729  -50.7455  -24.2547 H         1 ARG         0.0313
    112 H8        -28.0317  -50.5789  -22.5469 H         1 ARG         0.0301
    113 H9        -26.9076  -51.8017  -21.8628 H         1 ARG         0.0301
    114 H10       -28.3420  -53.6049  -22.4281 H         1 ARG         0.0689
    115 H11       -29.2740  -52.6119  -23.5993 H         1 ARG         0.0689
    116 H12       -29.3558  -51.4278  -20.9479 H         1 ARG         0.2642
    117 H13       -32.1169  -54.2016  -22.0123 H         1 ARG         0.2615
    118 H14       -30.5900  -54.0750  -22.9263 H         1 ARG         0.2615
    119 H15       -31.2898  -51.5762  -19.7878 H         1 ARG         0.2615
    120 H16       -32.5110  -52.7929  -20.2471 H         1 ARG         0.2615
    121 H17       -27.4534  -54.6512  -23.4565 H         1 ORN         0.1883
    122 H18       -27.5199  -55.6008  -26.2950 H         1 ORN         0.0800
    123 H19       -27.4291  -57.5714  -24.0748 H         1 ORN         0.0313
    124 H20       -25.8977  -56.7096  -24.4469 H         1 ORN         0.0313
    125 H21       -27.5420  -58.5474  -26.1726 H         1 ORN         0.0287
    126 H22       -25.7975  -58.6229  -25.7509 H         1 ORN         0.0287
    127 H23       -25.2525  -56.8834  -27.2604 H         1 ORN         0.0520
    128 H24       -26.9711  -56.3949  -27.4467 H         1 ORN         0.0520
    129 H25       -27.1123  -58.0797  -29.0947 H         1 ORN         0.1850
    130 H26       -29.5498  -56.2321  -26.8707 H         1 LEU         0.1883
    131 H27       -31.5736  -55.9924  -24.6962 H         1 LEU         0.0800
    132 H28       -32.9776  -56.1989  -27.0191 H         1 LEU         0.0315
    133 H29       -31.4329  -55.5167  -27.6316 H         1 LEU         0.0315
    134 H30       -33.3321  -54.3354  -25.5665 H         1 LEU         0.0298
    135 H31       -31.6603  -52.5514  -25.3090 H         1 LEU         0.0232
    136 H32       -30.5285  -53.4390  -26.3850 H         1 LEU         0.0232
    137 H33       -30.9725  -54.1261  -24.7858 H         1 LEU         0.0232
    138 H34       -33.7306  -53.9720  -27.9893 H         1 LEU         0.0232
    139 H35       -32.0270  -53.4381  -28.1872 H         1 LEU         0.0232
    140 H36       -33.1660  -52.4601  -27.2008 H         1 LEU         0.0232
    141 H37       -31.4327  -57.9875  -23.7005 H         1 GLU         0.1883
    142 H38       -31.7309  -60.3822  -25.4208 H         1 GLU         0.0801
    143 H39       -31.2750  -61.4697  -23.2110 H         1 GLU         0.0330
    144 H40       -31.2598  -59.8425  -22.4502 H         1 GLU         0.0330
    145 H41       -29.5515  -59.1658  -24.2284 H         1 GLU         0.0433
    146 H42       -29.4400  -60.9063  -24.6585 H         1 GLU         0.0433
    147 H43       -33.8363  -59.5058  -26.1278 H         1 TYR         0.1885
    148 H44       -35.8482  -59.7676  -23.9582 H         1 TYR         0.0821
    149 H45       -37.3625  -58.9829  -25.8493 H         1 TYR         0.0453
    150 H46       -35.8889  -58.8593  -26.8691 H         1 TYR         0.0453
    151 H47       -35.6945  -58.0258  -23.3438 H         1 TYR         0.0530
    152 H48       -36.4157  -56.6674  -27.2955 H         1 TYR         0.0530
    153 H49       -35.3714  -55.7118  -22.6313 H         1 TYR         0.0525
    154 H50       -36.0876  -54.3527  -26.5743 H         1 TYR         0.0525
    155 H51       -36.3176  -53.1140  -24.2845 H         1 TYR         0.2458
    156 H52       -34.5362  -61.5360  -26.6720 H         1 PHE         0.1885
    157 H53       -36.7495  -63.5056  -26.1870 H         1 PHE         0.0823
    158 H54       -36.8317  -63.9365  -28.6221 H         1 PHE         0.0474
    159 H55       -35.6895  -62.5773  -28.8956 H         1 PHE         0.0474
    160 H56       -38.7318  -63.2390  -26.9049 H         1 PHE         0.0557
    161 H57       -36.6407  -60.6876  -29.5544 H         1 PHE         0.0557
    162 H58       -40.6025  -61.6598  -26.8855 H         1 PHE         0.0599
    163 H59       -38.4829  -59.0947  -29.4972 H         1 PHE         0.0599
    164 H60       -40.5030  -59.5748  -28.1815 H         1 PHE         0.0559
    165 H61       -35.8365  -65.8165  -26.6722 H         1 GLU         0.1883
    166 H62       -32.9761  -65.5463  -25.9286 H         1 GLU         0.0801
    167 H63       -34.8050  -67.9721  -25.8191 H         1 GLU         0.0330
    168 H64       -34.5660  -66.7747  -24.5016 H         1 GLU         0.0330
    169 H65       -32.6576  -68.8724  -25.5603 H         1 GLU         0.0433
    170 H66       -33.2654  -68.6233  -23.8885 H         1 GLU         0.0433
    171 H67       -34.0387  -65.6083  -28.8898 H         1 TRP         0.1884
    172 H68       -31.9417  -67.6632  -29.5557 H         1 TRP         0.0815
    173 H69       -33.9370  -68.5070  -30.4731 H         1 TRP         0.0397
    174 H70       -33.1538  -67.6553  -31.8471 H         1 TRP         0.0397
    175 H71       -36.0735  -67.3544  -29.3984 H         1 TRP         0.0795
    176 H72       -37.6271  -65.5201  -30.3237 H         1 TRP         0.2216
    177 H73       -33.1382  -65.8469  -32.9436 H         1 TRP         0.0540
    178 H74       -37.4632  -63.7088  -32.3249 H         1 TRP         0.0541
    179 H75       -33.7776  -63.9935  -34.4573 H         1 TRP         0.0510
    180 H76       -35.9821  -62.9085  -34.1283 H         1 TRP         0.0530
    181 H77       -32.4295  -64.4564  -29.3131 H         1 LEU         0.1883
    182 H78       -31.6468  -63.5052  -31.8820 H         1 LEU         0.0800
    183 H79       -31.4102  -61.4261  -30.8039 H         1 LEU         0.0315
    184 H80       -30.8919  -62.1766  -29.2564 H         1 LEU         0.0315
    185 H81       -33.3285  -63.2412  -29.3150 H         1 LEU         0.0298
    186 H82       -34.2159  -61.2788  -28.1214 H         1 LEU         0.0232
    187 H83       -32.8820  -60.2670  -28.7722 H         1 LEU         0.0232
    188 H84       -32.5195  -61.6036  -27.6282 H         1 LEU         0.0232
    189 H85       -33.7878  -62.3897  -31.5944 H         1 LEU         0.0232
    190 H86       -33.5460  -60.7089  -31.0088 H         1 LEU         0.0232
    191 H87       -34.9215  -61.6857  -30.3921 H         1 LEU         0.0232
    192 H88       -29.4889  -62.5669  -32.5068 H         1 SER         0.1884
    193 H89       -27.5303  -64.5702  -31.7070 H         1 SER         0.0823
    194 H90       -26.5863  -63.8698  -33.6086 H         1 SER         0.0606
    195 H91       -26.0915  -62.3815  -32.7330 H         1 SER         0.0606
    196 H92       -27.3555  -61.9453  -34.6026 H         1 SER         0.2097
    197 H93       -28.6228  -61.4606  -30.4626 H         1 BAL         0.1853
    198 H94       -27.8170  -60.4167  -28.5395 H         1 BAL         0.0545
    199 H95       -26.8431  -61.8950  -28.2352 H         1 BAL         0.0545
    200 H96       -25.9046  -59.8716  -30.2822 H         1 BAL         0.0522
    201 H97       -24.9541  -61.0266  -29.2877 H         1 BAL         0.0522
@<TRIPOS>BOND
     1    1    2 2  
     2    1    3 1  
     3    5    4 1  
     4    5    8 1  
     5    6    5 1  
     6    6    7 2  
     7    8    9 1  
     8    9   10 1  
     9   10   11 1  
    10   11   12 ar 
    11   12   14 ar 
    12   12   13 ar 
    13    4    1 am 
    14   16   15 1  
    15   16   17 1  
    16   21   16 1  
    17   21   22 2  
    18   17   18 1  
    19   18   19 1  
    20   19   20 1  
    21   15    6 am 
    22   24   23 1  
    23   24   27 1  
    24   25   24 1  
    25   25   26 2  
    26   27   28 1  
    27   28   29 1  
    28   28   30 1  
    29   23   21 am 
    30   32   31 1  
    31   32   35 1  
    32   33   32 1  
    33   33   34 2  
    34   35   36 1  
    35   36   37 1  
    36   37   39 ar 
    37   37   38 ar 
    38   31   25 am 
    39   41   40 1  
    40   41   44 1  
    41   42   41 1  
    42   42   43 2  
    43   44   45 1  
    44   45   46 ar 
    45   45   47 ar 
    46   47   49 ar 
    47   49   50 ar 
    48   50   51 1  
    49   48   50 ar 
    50   46   48 ar 
    51   40   33 am 
    52   53   52 1  
    53   53   56 1  
    54   54   53 1  
    55   54   55 2  
    56   56   57 1  
    57   57   58 ar 
    58   57   59 ar 
    59   59   61 ar 
    60   61   62 ar 
    61   60   62 ar 
    62   58   60 ar 
    63   52   42 am 
    64   64   63 1  
    65   64   67 1  
    66   65   64 1  
    67   65   66 2  
    68   67   68 1  
    69   68   69 1  
    70   69   71 ar 
    71   69   70 ar 
    72   63   54 am 
    73   73   72 1  
    74   73   76 1  
    75   74   73 1  
    76   74   75 2  
    77   76   77 1  
    78   77   78 2  
    79   77   79 1  
    80   79   82 ar 
    81   79   81 ar 
    82   81   83 ar 
    83   81   80 1  
    84   78   80 1  
    85   83   85 ar 
    86   84   85 ar 
    87   82   84 ar 
    88   72   65 am 
    89   87   86 1  
    90   87   90 1  
    91   88   87 1  
    92   88   89 2  
    93   90   91 1  
    94   91   92 1  
    95   91   93 1  
    96   86   74 am 
    97   95   94 1  
    98   95   98 1  
    99   96   95 1  
   100   96   97 2  
   101   98   99 1  
   102   94   88 am 
   103  101  102 1  
   104  100  101 1  
   105  102  103 1  
   106  103  104 2  
   107   96  100 am 
   108  103   20 am 
   109    3  105 1  
   110    3  106 1  
   111    3  107 1  
   112    4  108 1  
   113    5  109 1  
   114    8  110 1  
   115    8  111 1  
   116    9  112 1  
   117    9  113 1  
   118   10  114 1  
   119   10  115 1  
   120   11  116 1  
   121   13  117 1  
   122   13  118 1  
   123   14  119 1  
   124   14  120 1  
   125   15  121 1  
   126   16  122 1  
   127   17  123 1  
   128   17  124 1  
   129   18  125 1  
   130   18  126 1  
   131   19  127 1  
   132   19  128 1  
   133   20  129 1  
   134   23  130 1  
   135   24  131 1  
   136   27  132 1  
   137   27  133 1  
   138   28  134 1  
   139   29  135 1  
   140   29  136 1  
   141   29  137 1  
   142   30  138 1  
   143   30  139 1  
   144   30  140 1  
   145   31  141 1  
   146   32  142 1  
   147   35  143 1  
   148   35  144 1  
   149   36  145 1  
   150   36  146 1  
   151   40  147 1  
   152   41  148 1  
   153   44  149 1  
   154   44  150 1  
   155   46  151 1  
   156   47  152 1  
   157   48  153 1  
   158   49  154 1  
   159   51  155 1  
   160   52  156 1  
   161   53  157 1  
   162   56  158 1  
   163   56  159 1  
   164   58  160 1  
   165   59  161 1  
   166   60  162 1  
   167   61  163 1  
   168   62  164 1  
   169   63  165 1  
   170   64  166 1  
   171   67  167 1  
   172   67  168 1  
   173   68  169 1  
   174   68  170 1  
   175   72  171 1  
   176   73  172 1  
   177   76  173 1  
   178   76  174 1  
   179   78  175 1  
   180   80  176 1  
   181   82  177 1  
   182   83  178 1  
   183   84  179 1  
   184   85  180 1  
   185   86  181 1  
   186   87  182 1  
   187   90  183 1  
   188   90  184 1  
   189   91  185 1  
   190   92  186 1  
   191   92  187 1  
   192   92  188 1  
   193   93  189 1  
   194   93  190 1  
   195   93  191 1  
   196   94  192 1  
   197   95  193 1  
   198   98  194 1  
   199   98  195 1  
   200   99  196 1  
   201  100  197 1  
   202  101  198 1  
   203  101  199 1  
   204  102  200 1  
   205  102  201 1  
@<TRIPOS>SUBSTRUCTURE
     1 ACE         1

