5w6u_ligand
  -I-interpret- 

201205  0  0  0  0  0  0  0  0999 V2000
  -23.5190  -52.7000  -24.3590 C   0  0  0  0  0
  -23.3100  -53.7940  -23.8710 O   0  0  0  0  0
  -22.3970  -51.8850  -24.9460 C   0  0  0  0  0
  -24.7010  -52.1450  -24.4250 N   0  0  0  0  0
  -25.8940  -52.7670  -23.9140 C   0  0  0  0  0
  -26.3040  -53.8200  -24.8710 C   0  0  0  0  0
  -25.8790  -53.8020  -26.0040 O   0  0  0  0  0
  -26.9410  -51.7070  -23.9970 C   0  0  0  0  0
  -27.6240  -51.5930  -22.6710 C   0  0  0  0  0
  -28.7430  -52.6020  -22.6360 C   0  0  0  0  0
  -29.6440  -52.1940  -21.5730 N   0  0  0  0  0
  -30.8130  -52.7630  -21.3760 C   0  0  0  0  0
  -31.2020  -53.7530  -22.1630 N   0  0  0  0  0
  -31.5950  -52.3470  -20.3990 N   0  0  0  0  0
  -27.1450  -54.7230  -24.4050 N   0  0  0  0  0
  -27.6400  -55.8210  -25.2240 C   0  0  0  0  0
  -26.8710  -57.0260  -24.8500 C   0  0  0  0  0
  -26.6310  -57.9530  -26.0090 C   0  0  0  0  0
  -26.2910  -57.2450  -27.2890 C   0  0  0  0  0
  -26.4550  -58.2290  -28.3560 N   0  0  0  0  0
  -28.9480  -56.0030  -24.9190 C   0  0  0  0  0
  -29.2880  -55.9550  -23.7560 O   0  0  0  0  0
  -29.8770  -56.2090  -25.9260 N   0  0  0  0  0
  -31.3180  -56.3960  -25.6870 C   0  0  0  0  0
  -31.6590  -57.7410  -25.7190 C   0  0  0  0  0
  -31.9590  -58.3200  -26.7460 O   0  0  0  0  0
  -32.0770  -55.6290  -26.7470 C   0  0  0  0  0
  -32.4940  -54.2610  -26.2750 C   0  0  0  0  0
  -31.3370  -53.5470  -25.6470 C   0  0  0  0  0
  -32.8800  -53.4810  -27.4940 C   0  0  0  0  0
  -31.6610  -58.4650  -24.5490 N   0  0  0  0  0
  -31.9750  -59.8820  -24.4720 C   0  0  0  0  0
  -33.3150  -60.0560  -24.2160 C   0  0  0  0  0
  -33.7620  -60.4460  -23.1470 O   0  0  0  0  0
  -31.0840  -60.4000  -23.3820 C   0  0  0  0  0
  -29.6690  -60.1930  -23.8530 C   0  0  0  0  0
  -28.7340  -60.4180  -22.7000 C   0  0  0  0  0
  -29.0110  -59.8570  -21.6400 O   0  0  0  0  0
  -27.7670  -61.1590  -22.9090 O   0  0  0  0  0
  -34.1880  -59.7840  -25.2340 N   0  0  0  0  0
  -35.6220  -59.8960  -25.0270 C   0  0  0  0  0
  -36.1260  -61.0910  -25.4540 C   0  0  0  0  0
  -37.2140  -61.4780  -25.0640 O   0  0  0  0  0
  -36.2780  -58.7990  -25.8420 C   0  0  0  0  0
  -36.0640  -57.5050  -25.3760 C   0  0  0  0  0
  -35.7800  -57.2220  -24.0660 C   0  0  0  0  0
  -36.1790  -56.4610  -26.2580 C   0  0  0  0  0
  -35.6040  -55.9220  -23.6690 C   0  0  0  0  0
  -36.0010  -55.1600  -25.8560 C   0  0  0  0  0
  -35.7150  -54.8860  -24.5510 C   0  0  0  0  0
  -35.5300  -53.6200  -24.1230 O   0  0  0  0  0
  -35.4240  -61.8600  -26.3450 N   0  0  0  0  0
  -35.9360  -63.1420  -26.8320 C   0  0  0  0  0
  -34.8450  -63.9930  -26.7240 C   0  0  0  0  0
  -33.7240  -63.5230  -26.6780 O   0  0  0  0  0
  -36.4840  -62.9650  -28.2410 C   0  0  0  0  0
  -37.5500  -62.0660  -28.2250 C   0  0  0  0  0
  -38.6700  -62.3260  -27.4860 C   0  0  0  0  0
  -37.5130  -60.9060  -28.9490 C   0  0  0  0  0
  -39.7210  -61.4350  -27.4750 C   0  0  0  0  0
  -38.5520  -60.0140  -28.9270 C   0  0  0  0  0
  -39.6730  -60.2720  -28.1940 C   0  0  0  0  0
  -34.9410  -65.3760  -26.6090 N   0  0  0  0  0
  -33.7200  -66.2110  -26.3920 C   0  0  0  0  0
  -33.0850  -66.7470  -27.4900 C   0  0  0  0  0
  -32.2240  -67.5870  -27.3520 O   0  0  0  0  0
  -34.0870  -67.2820  -25.3520 C   0  0  0  0  0
  -32.9200  -68.1190  -24.8030 C   0  0  0  0  0
  -31.6530  -67.3360  -24.4590 C   0  0  0  0  0
  -31.2760  -66.4760  -25.2670 O   0  0  0  0  0
  -31.0660  -67.6320  -23.4020 O   0  0  0  0  0
  -33.3530  -66.3220  -28.7470 N   0  0  0  0  0
  -32.6460  -66.8980  -29.9140 C   0  0  0  0  0
  -31.9660  -65.9550  -30.6000 C   0  0  0  0  0
  -31.3610  -66.2580  -31.6040 O   0  0  0  0  0
  -33.6280  -67.5260  -30.8630 C   0  0  0  0  0
  -34.8300  -66.6450  -31.0020 C   0  0  0  0  0
  -35.8920  -66.6850  -30.2380 C   0  0  0  0  0
  -34.9280  -65.7160  -31.8920 C   0  0  0  0  0
  -36.6940  -65.7490  -30.6950 N   0  0  0  0  0
  -36.1000  -65.1540  -31.7090 C   0  0  0  0  0
  -34.0940  -65.3480  -32.8310 C   0  0  0  0  0
  -36.4940  -64.1690  -32.4800 C   0  0  0  0  0
  -34.4460  -64.3230  -33.6700 C   0  0  0  0  0
  -35.6700  -63.7240  -33.4860 C   0  0  0  0  0
  -31.9470  -64.6680  -30.1630 N   0  0  0  0  0
  -31.2700  -63.5760  -30.8510 C   0  0  0  0  0
  -29.9180  -63.8170  -30.8860 C   0  0  0  0  0
  -29.4270  -64.5930  -30.0810 O   0  0  0  0  0
  -31.5720  -62.2690  -30.1160 C   0  0  0  0  0
  -33.0130  -62.2310  -29.6150 C   0  0  0  0  0
  -33.1680  -61.2810  -28.4560 C   0  0  0  0  0
  -33.8740  -61.7200  -30.7260 C   0  0  0  0  0
  -29.1030  -63.1950  -31.8310 N   0  0  0  0  0
  -27.6710  -63.4840  -31.8090 C   0  0  0  0  0
  -27.1120  -62.8390  -30.7560 C   0  0  0  0  0
  -26.0170  -63.1780  -30.3620 O   0  0  0  0  0
  -26.9470  -63.0040  -33.0340 C   0  0  0  0  0
  -27.8170  -62.2470  -33.8290 O   0  0  0  0  0
  -27.7350  -61.7820  -30.1330 N   0  0  0  0  0
  -27.0920  -61.1200  -28.9750 C   0  0  0  0  0
  -25.8190  -60.3470  -29.2940 C   0  0  0  0  0
  -25.6700  -59.3840  -28.3180 C   0  0  0  0  0
  -24.8600  -59.5320  -27.4190 O   0  0  0  0  0
  -21.6552  -51.6812  -24.1738 H   0  0  0  0  0
  -21.9326  -52.4417  -25.7599 H   0  0  0  0  0
  -22.7940  -50.9443  -25.3276 H   0  0  0  0  0
  -24.7816  -51.2260  -24.8601 H   0  0  0  0  0
  -25.7524  -53.1754  -22.9134 H   0  0  0  0  0
  -27.6693  -51.9688  -24.7645 H   0  0  0  0  0
  -26.4798  -50.7540  -24.2563 H   0  0  0  0  0
  -28.0199  -50.5864  -22.5363 H   0  0  0  0  0
  -26.9165  -51.7868  -21.8648 H   0  0  0  0  0
  -28.3553  -53.6039  -22.4517 H   0  0  0  0  0
  -29.2636  -52.6361  -23.5930 H   0  0  0  0  0
  -29.3586  -51.4352  -20.9540 H   0  0  0  0  0
  -32.1086  -54.1963  -22.0147 H   0  0  0  0  0
  -30.5953  -54.0729  -22.9180 H   0  0  0  0  0
  -31.2934  -51.5827  -19.7946 H   0  0  0  0  0
  -27.4596  -54.6498  -23.4375 H   0  0  0  0  0
  -27.5327  -55.6203  -26.2900 H   0  0  0  0  0
  -27.4493  -57.5705  -24.1036 H   0  0  0  0  0
  -25.8994  -56.6983  -24.4802 H   0  0  0  0  0
  -27.5538  -58.5076  -26.1789 H   0  0  0  0  0
  -25.7809  -58.5843  -25.7504 H   0  0  0  0  0
  -25.2723  -56.8580  -27.2650 H   0  0  0  0  0
  -26.9405  -56.3838  -27.4458 H   0  0  0  0  0
  -27.1254  -58.0767  -29.1095 H   0  0  0  0  0
  -29.5432  -56.2325  -26.8896 H   0  0  0  0  0
  -31.5763  -56.0215  -24.6965 H   0  0  0  0  0
  -32.9782  -56.1915  -26.9910 H   0  0  0  0  0
  -31.4210  -55.5039  -27.6084 H   0  0  0  0  0
  -33.3037  -54.3522  -25.5510 H   0  0  0  0  0
  -30.9767  -54.1218  -24.7938 H   0  0  0  0  0
  -30.5366  -53.4407  -26.3792 H   0  0  0  0  0
  -31.6586  -52.5607  -25.3125 H   0  0  0  0  0
  -32.0252  -53.4146  -28.1671 H   0  0  0  0  0
  -33.7041  -53.9841  -27.9998 H   0  0  0  0  0
  -33.1906  -52.4787  -27.1991 H   0  0  0  0  0
  -31.4281  -57.9780  -23.6836 H   0  0  0  0  0
  -31.7976  -60.4252  -25.4002 H   0  0  0  0  0
  -31.2799  -61.4541  -23.1853 H   0  0  0  0  0
  -31.2651  -59.8722  -22.4457 H   0  0  0  0  0
  -29.5512  -59.1770  -24.2297 H   0  0  0  0  0
  -29.4412  -60.8958  -24.6544 H   0  0  0  0  0
  -27.7883  -61.4618  -23.8197 H   0  0  0  0  0
  -33.8292  -59.5003  -26.1457 H   0  0  0  0  0
  -35.8211  -59.8159  -23.9583 H   0  0  0  0  0
  -37.3527  -58.9746  -25.7949 H   0  0  0  0  0
  -35.8425  -58.8480  -26.8400 H   0  0  0  0  0
  -35.6940  -58.0303  -23.3398 H   0  0  0  0  0
  -36.4170  -56.6686  -27.3013 H   0  0  0  0  0
  -35.3701  -55.7106  -22.6256 H   0  0  0  0  0
  -36.0881  -54.3483  -26.5782 H   0  0  0  0  0
  -35.3396  -53.6261  -23.1821 H   0  0  0  0  0
  -34.5185  -61.5295  -26.6785 H   0  0  0  0  0
  -36.7771  -63.5528  -26.2735 H   0  0  0  0  0
  -36.8308  -63.9279  -28.6159 H   0  0  0  0  0
  -35.6964  -62.5780  -28.8876 H   0  0  0  0  0
  -38.7322  -63.2440  -26.9016 H   0  0  0  0  0
  -36.6359  -60.6864  -29.5578 H   0  0  0  0  0
  -40.6074  -61.6610  -26.8823 H   0  0  0  0  0
  -38.4825  -59.0896  -29.5004 H   0  0  0  0  0
  -40.5076  -59.5710  -28.1814 H   0  0  0  0  0
  -35.8544  -65.8253  -26.6734 H   0  0  0  0  0
  -32.9469  -65.5249  -26.0459 H   0  0  0  0  0
  -34.7538  -67.9815  -25.8562 H   0  0  0  0  0
  -34.5077  -66.7485  -24.4996 H   0  0  0  0  0
  -32.6461  -68.8227  -25.5891 H   0  0  0  0  0
  -33.2700  -68.5670  -23.8730 H   0  0  0  0  0
  -31.5530  -68.3250  -22.9501 H   0  0  0  0  0
  -34.0525  -65.5940  -28.8926 H   0  0  0  0  0
  -31.9504  -67.6410  -29.5239 H   0  0  0  0  0
  -33.9350  -68.4971  -30.4747 H   0  0  0  0  0
  -33.1578  -67.6519  -31.8383 H   0  0  0  0  0
  -36.0736  -67.3550  -29.3977 H   0  0  0  0  0
  -33.1329  -65.8496  -32.9442 H   0  0  0  0  0
  -37.4685  -63.7063  -32.3240 H   0  0  0  0  0
  -33.7739  -63.9916  -34.4616 H   0  0  0  0  0
  -35.9838  -62.9040  -34.1319 H   0  0  0  0  0
  -32.4392  -64.4522  -29.2961 H   0  0  0  0  0
  -31.6269  -63.4982  -31.8780 H   0  0  0  0  0
  -31.4248  -61.4406  -30.8089 H   0  0  0  0  0
  -30.9051  -62.1932  -29.2571 H   0  0  0  0  0
  -33.2944  -63.2344  -29.2953 H   0  0  0  0  0
  -32.5249  -61.6017  -27.6365 H   0  0  0  0  0
  -32.8842  -60.2767  -28.7706 H   0  0  0  0  0
  -34.2066  -61.2797  -28.1253 H   0  0  0  0  0
  -33.5458  -60.7194  -31.0075 H   0  0  0  0  0
  -33.7904  -62.3862  -31.5846 H   0  0  0  0  0
  -34.9111  -61.6832  -30.3927 H   0  0  0  0  0
  -29.4966  -62.5544  -32.5203 H   0  0  0  0  0
  -27.5775  -64.5684  -31.7501 H   0  0  0  0  0
  -26.5912  -63.8625  -33.6036 H   0  0  0  0  0
  -26.1003  -62.3861  -32.7349 H   0  0  0  0  0
  -27.3507  -61.9421  -34.6108 H   0  0  0  0  0
  -28.6405  -61.4542  -30.4692 H   0  0  0  0  0
  -27.8099  -60.3955  -28.5906 H   0  0  0  0  0
  -26.8118  -61.9104  -28.2787 H   0  0  0  0  0
  -25.8868  -59.8867  -30.2797 H   0  0  0  0  0
  -24.9580  -61.0152  -29.3080 H   0  0  0  0  0
  1  2  2  0  0  0
  1  3  1  0  0  0
  5  4  1  0  0  0
  5  8  1  0  0  0
  6  5  1  0  0  0
  6  7  2  0  0  0
  8  9  1  0  0  0
  9 10  1  0  0  0
 10 11  1  0  0  0
 11 12  1  0  0  0
 12 14  2  0  0  0
 12 13  1  0  0  0
  4  1  1  0  0  0
 16 15  1  0  0  0
 16 17  1  0  0  0
 21 16  1  0  0  0
 21 22  2  0  0  0
 17 18  1  0  0  0
 18 19  1  0  0  0
 19 20  1  0  0  0
 15  6  1  0  0  0
 24 23  1  0  0  0
 24 27  1  0  0  0
 25 24  1  0  0  0
 25 26  2  0  0  0
 27 28  1  0  0  0
 28 29  1  0  0  0
 28 30  1  0  0  0
 23 21  1  0  0  0
 32 31  1  0  0  0
 32 35  1  0  0  0
 33 32  1  0  0  0
 33 34  2  0  0  0
 35 36  1  0  0  0
 36 37  1  0  0  0
 37 39  1  0  0  0
 37 38  2  0  0  0
 31 25  1  0  0  0
 41 40  1  0  0  0
 41 44  1  0  0  0
 42 41  1  0  0  0
 42 43  2  0  0  0
 44 45  1  0  0  0
 45 46  4  0  0  0
 45 47  4  0  0  0
 47 49  4  0  0  0
 49 50  4  0  0  0
 50 51  1  0  0  0
 48 50  4  0  0  0
 46 48  4  0  0  0
 40 33  1  0  0  0
 53 52  1  0  0  0
 53 56  1  0  0  0
 54 53  1  0  0  0
 54 55  2  0  0  0
 56 57  1  0  0  0
 57 58  4  0  0  0
 57 59  4  0  0  0
 59 61  4  0  0  0
 61 62  4  0  0  0
 60 62  4  0  0  0
 58 60  4  0  0  0
 52 42  1  0  0  0
 64 63  1  0  0  0
 64 67  1  0  0  0
 65 64  1  0  0  0
 65 66  2  0  0  0
 67 68  1  0  0  0
 68 69  1  0  0  0
 69 71  1  0  0  0
 69 70  2  0  0  0
 63 54  1  0  0  0
 73 72  1  0  0  0
 73 76  1  0  0  0
 74 73  1  0  0  0
 74 75  2  0  0  0
 76 77  1  0  0  0
 77 78  4  0  0  0
 77 79  4  0  0  0
 79 82  4  0  0  0
 79 81  4  0  0  0
 81 83  4  0  0  0
 81 80  4  0  0  0
 78 80  4  0  0  0
 83 85  4  0  0  0
 84 85  4  0  0  0
 82 84  4  0  0  0
 72 65  1  0  0  0
 87 86  1  0  0  0
 87 90  1  0  0  0
 88 87  1  0  0  0
 88 89  2  0  0  0
 90 91  1  0  0  0
 91 92  1  0  0  0
 91 93  1  0  0  0
 86 74  1  0  0  0
 95 94  1  0  0  0
 95 98  1  0  0  0
 96 95  1  0  0  0
 96 97  2  0  0  0
 98 99  1  0  0  0
 94 88  1  0  0  0
101102  1  0  0  0
100101  1  0  0  0
102103  1  0  0  0
103104  2  0  0  0
 96100  1  0  0  0
103 20  1  0  0  0
  3105  1  0  0  0
  3106  1  0  0  0
  3107  1  0  0  0
  4108  1  0  0  0
  5109  1  0  0  0
  8110  1  0  0  0
  8111  1  0  0  0
  9112  1  0  0  0
  9113  1  0  0  0
 10114  1  0  0  0
 10115  1  0  0  0
 11116  1  0  0  0
 13117  1  0  0  0
 13118  1  0  0  0
 14119  1  0  0  0
 15120  1  0  0  0
 16121  1  0  0  0
 17122  1  0  0  0
 17123  1  0  0  0
 18124  1  0  0  0
 18125  1  0  0  0
 19126  1  0  0  0
 19127  1  0  0  0
 20128  1  0  0  0
 23129  1  0  0  0
 24130  1  0  0  0
 27131  1  0  0  0
 27132  1  0  0  0
 28133  1  0  0  0
 29134  1  0  0  0
 29135  1  0  0  0
 29136  1  0  0  0
 30137  1  0  0  0
 30138  1  0  0  0
 30139  1  0  0  0
 31140  1  0  0  0
 32141  1  0  0  0
 35142  1  0  0  0
 35143  1  0  0  0
 36144  1  0  0  0
 36145  1  0  0  0
 39146  1  0  0  0
 40147  1  0  0  0
 41148  1  0  0  0
 44149  1  0  0  0
 44150  1  0  0  0
 46151  1  0  0  0
 47152  1  0  0  0
 48153  1  0  0  0
 49154  1  0  0  0
 51155  1  0  0  0
 52156  1  0  0  0
 53157  1  0  0  0
 56158  1  0  0  0
 56159  1  0  0  0
 58160  1  0  0  0
 59161  1  0  0  0
 60162  1  0  0  0
 61163  1  0  0  0
 62164  1  0  0  0
 63165  1  0  0  0
 64166  1  0  0  0
 67167  1  0  0  0
 67168  1  0  0  0
 68169  1  0  0  0
 68170  1  0  0  0
 71171  1  0  0  0
 72172  1  0  0  0
 73173  1  0  0  0
 76174  1  0  0  0
 76175  1  0  0  0
 78176  1  0  0  0
 82177  1  0  0  0
 83178  1  0  0  0
 84179  1  0  0  0
 85180  1  0  0  0
 86181  1  0  0  0
 87182  1  0  0  0
 90183  1  0  0  0
 90184  1  0  0  0
 91185  1  0  0  0
 92186  1  0  0  0
 92187  1  0  0  0
 92188  1  0  0  0
 93189  1  0  0  0
 93190  1  0  0  0
 93191  1  0  0  0
 94192  1  0  0  0
 95193  1  0  0  0
 98194  1  0  0  0
 98195  1  0  0  0
 99196  1  0  0  0
100197  1  0  0  0
101198  1  0  0  0
101199  1  0  0  0
102200  1  0  0  0
102201  1  0  0  0
M  END
$$$$
