5eh5_ligand
  -I-interpret- 

 18 18  0  0  0  0  0  0  0  0999 V2000
   17.5180    4.5090   14.4500 C   0  0  0  0  0
   18.2140    3.5550   15.2060 C   0  0  0  0  0
   16.0950    4.4570   14.4400 C   0  0  0  0  0
   16.1730    2.6090   15.8380 C   0  0  0  0  0
   15.2640    5.4480   13.6720 C   0  0  0  0  0
   17.5180    2.6120   15.8880 N   0  0  0  0  0
   15.4670    3.4790   15.1360 N   0  0  0  0  0
   15.8220   -0.0600   16.1160 N   0  0  0  0  0
   15.7790    1.5280   18.1120 O   0  0  0  0  0
   13.8720    1.5800   16.5520 O   0  0  0  0  0
   15.3230    1.3680   16.7410 S   0  0  0  0  0
   18.0530    5.2716   13.8840 H   0  0  0  0  0
   19.3032    3.5712   15.2451 H   0  0  0  0  0
   15.4678    6.4536   14.0400 H   0  0  0  0  0
   15.5167    5.3890   12.6133 H   0  0  0  0  0
   14.2075    5.2171   13.8081 H   0  0  0  0  0
   16.3787   -0.6986   16.6840 H   0  0  0  0  0
   15.5763   -0.3113   15.1585 H   0  0  0  0  0
  1  2  4  0  0  0
  1  3  4  0  0  0
  2  6  4  0  0  0
  3  5  1  0  0  0
  3  7  4  0  0  0
  6  4  4  0  0  0
  4  7  4  0  0  0
  4 11  1  0  0  0
 11  8  1  0  0  0
 11  9  2  0  0  0
 11 10  2  0  0  0
  1 12  1  0  0  0
  2 13  1  0  0  0
  5 14  1  0  0  0
  5 15  1  0  0  0
  5 16  1  0  0  0
  8 17  1  0  0  0
  8 18  1  0  0  0
M  END
$$$$
