5a4t_ligand
  -I-interpret- 

 22 23  0  0  0  0  0  0  0  0999 V2000
    8.3640  -15.0320   48.1050 N   0  0  0  0  0
    7.4390  -14.8710   47.1310 C   0  0  0  0  0
    6.6170  -13.8320   46.9510 C   0  0  0  0  0
    5.7120  -13.8100   45.8940 C   0  0  0  0  0
    5.6740  -14.8920   45.0180 C   0  0  0  0  0
    4.7920  -14.9310   43.9210 C   0  0  0  0  0
    4.0640  -14.9710   43.0110 N   0  0  0  0  0
    6.5450  -15.9500   45.2320 C   0  0  0  0  0
    7.3830  -15.9210   46.2620 C   0  0  0  0  0
    8.4590  -16.9840   46.7040 S   0  0  0  0  0
    9.0350  -16.1870   48.0260 C   0  0  0  0  0
   10.0000  -16.5170   48.8990 N   0  0  0  0  0
   10.7110  -17.6770   48.8810 C   0  0  0  0  0
   11.5990  -17.8940   49.7050 O   0  0  0  0  0
   10.4080  -18.7630   47.8470 C   0  0  0  0  0
    6.6563  -12.9900   47.6421 H   0  0  0  0  0
    5.0440  -12.9601   45.7541 H   0  0  0  0  0
    6.5418  -16.8046   44.5554 H   0  0  0  0  0
   10.2176  -15.8445   49.6344 H   0  0  0  0  0
   11.3021  -18.9589   47.2551 H   0  0  0  0  0
   10.1026  -19.6754   48.3591 H   0  0  0  0  0
    9.6042  -18.4257   47.1926 H   0  0  0  0  0
  1  2  4  0  0  0
  1 11  4  0  0  0
  2  3  4  0  0  0
  2  9  4  0  0  0
  3  4  4  0  0  0
  4  5  4  0  0  0
  5  6  1  0  0  0
  5  8  4  0  0  0
  6  7  3  0  0  0
  8  9  4  0  0  0
  9 10  4  0  0  0
 10 11  4  0  0  0
 11 12  1  0  0  0
 12 13  1  0  0  0
 13 14  2  0  0  0
 13 15  1  0  0  0
  3 16  1  0  0  0
  4 17  1  0  0  0
  8 18  1  0  0  0
 12 19  1  0  0  0
 15 20  1  0  0  0
 15 21  1  0  0  0
 15 22  1  0  0  0
M  END
$$$$
