4r6x_ligand
  -I-interpret- 

 47 49  0  0  0  0  0  0  0  0999 V2000
    8.4590   -0.6280   25.4500 N   0  3  0  0  0
    7.6180    0.3390   24.7130 C   0  0  0  0  0
    7.7650    1.7920   25.3280 C   0  0  0  0  0
    8.9730    2.6150   24.8650 C   0  0  0  0  0
    9.0910    4.3420   25.4410 S   0  0  0  0  0
    7.9120    0.2400   23.2680 C   0  0  0  0  0
    9.0350   -0.0540   22.9010 O   0  0  0  0  0
    7.0360    0.4280   22.4560 O   0  0  0  0  0
    9.7370    4.3590   27.1290 C   0  0  0  0  0
    8.8940    3.9640   28.2010 C   0  0  0  0  0
    9.7230    3.6980   29.3650 O   0  0  0  0  0
    8.0340    5.1050   28.5740 C   0  0  0  0  0
    6.6830    4.8090   28.3100 O   0  0  0  0  0
    8.2450    5.3260   30.0020 C   0  0  0  0  0
    7.0250    5.4220   30.6760 O   0  0  0  0  0
    8.9710    4.1130   30.4580 C   0  0  0  0  0
    9.7220    4.3740   31.7430 N   0  0  0  0  0
   10.6670    5.2940   31.9850 C   0  0  0  0  0
   11.0460    5.1510   33.2590 N   0  0  0  0  0
   10.3510    4.1530   33.8190 C   0  0  0  0  0
   10.3380    3.5830   35.1010 C   0  0  0  0  0
   11.1690    4.0530   36.0830 N   0  0  0  0  0
    9.4950    2.5600   35.3460 N   0  0  0  0  0
    8.6850    2.0930   34.3980 C   0  0  0  0  0
    8.6730    2.6230   33.1530 N   0  0  0  0  0
    9.4910    3.6450   32.8440 C   0  0  0  0  0
    8.2573   -0.5610   26.4476 H   0  0  0  0  0
    8.2549   -1.5725   25.1233 H   0  0  0  0  0
    9.4430   -0.4154   25.2858 H   0  0  0  0  0
    6.5608    0.0984   24.8249 H   0  0  0  0  0
    7.8895    1.6529   26.4019 H   0  0  0  0  0
    6.8828    2.3455   25.0063 H   0  0  0  0  0
    8.8879    2.6740   23.7799 H   0  0  0  0  0
    9.8464    2.1092   25.2768 H   0  0  0  0  0
    9.6018   -0.1666   23.6676 H   0  0  0  0  0
    9.9672    5.4057   27.3278 H   0  0  0  0  0
   10.5435    3.6258   27.1252 H   0  0  0  0  0
    8.3105    3.0934   27.9017 H   0  0  0  0  0
    8.2833    5.9960   27.9978 H   0  0  0  0  0
    6.1379    5.5595   28.5575 H   0  0  0  0  0
    8.7888    6.2505   30.1958 H   0  0  0  0  0
    7.1878    5.5668   31.6109 H   0  0  0  0  0
    8.3170    3.2904   30.7472 H   0  0  0  0  0
   11.0546    6.0238   31.2742 H   0  0  0  0  0
   11.8058    4.8250   35.8859 H   0  0  0  0  0
   11.1511    3.6310   37.0114 H   0  0  0  0  0
    8.0160    1.2644   34.6302 H   0  0  0  0  0
  1  2  1  0  0  0
  2  3  1  0  0  0
  2  6  1  0  0  0
  3  4  1  0  0  0
  4  5  1  0  0  0
  5  9  1  0  0  0
  6  7  1  0  0  0
  6  8  2  0  0  0
  9 10  1  0  0  0
 10 11  1  0  0  0
 10 12  1  0  0  0
 11 16  1  0  0  0
 12 13  1  0  0  0
 12 14  1  0  0  0
 14 15  1  0  0  0
 14 16  1  0  0  0
 16 17  1  0  0  0
 17 18  4  0  0  0
 17 26  4  0  0  0
 18 19  4  0  0  0
 19 20  4  0  0  0
 20 21  4  0  0  0
 20 26  4  0  0  0
 21 22  1  0  0  0
 21 23  4  0  0  0
 23 24  4  0  0  0
 24 25  4  0  0  0
 25 26  4  0  0  0
  1 27  1  0  0  0
  1 28  1  0  0  0
  1 29  1  0  0  0
  2 30  1  0  0  0
  3 31  1  0  0  0
  3 32  1  0  0  0
  4 33  1  0  0  0
  4 34  1  0  0  0
  7 35  1  0  0  0
  9 36  1  0  0  0
  9 37  1  0  0  0
 10 38  1  0  0  0
 12 39  1  0  0  0
 13 40  1  0  0  0
 14 41  1  0  0  0
 15 42  1  0  0  0
 16 43  1  0  0  0
 18 44  1  0  0  0
 22 45  1  0  0  0
 22 46  1  0  0  0
 24 47  1  0  0  0
M  END
$$$$
