1szm_ligand
  -I-interpret- 

 59 64  0  0  0  0  0  0  0  0999 V2000
   52.8760   35.7190   52.0040 C   0  0  0  0  0
   52.6130   34.5400   51.1430 N   0  3  0  0  0
   51.2060   34.0390   51.1440 C   0  0  0  0  0
   50.7120   34.1780   49.6960 C   0  0  0  0  0
   51.9680   34.2280   48.8180 C   0  0  0  0  0
   53.1370   34.6060   49.7490 C   0  0  0  0  0
   53.8400   35.9220   49.3600 C   0  0  0  0  0
   54.4350   35.9360   47.9350 C   0  0  0  0  0
   53.9720   37.1860   47.3260 N   0  0  0  0  0
   52.7580   37.3660   46.6510 C   0  0  0  0  0
   54.6140   38.4480   47.3360 C   0  0  0  0  0
   55.8480   38.7950   47.9020 C   0  0  0  0  0
   56.2760   40.1170   47.7660 C   0  0  0  0  0
   55.4680   41.0620   47.0890 C   0  0  0  0  0
   54.2580   40.6860   46.5490 C   0  0  0  0  0
   53.8150   39.3620   46.6630 C   0  0  0  0  0
   52.6340   38.6680   46.2220 C   0  0  0  0  0
   51.5480   39.0500   45.3150 C   0  0  0  0  0
   51.7510   39.7230   44.0330 C   0  0  0  0  0
   52.8100   40.1270   43.5370 O   0  0  0  0  0
   50.4970   39.8680   43.3690 N   0  0  0  0  0
   49.5440   39.2690   44.2510 C   0  0  0  0  0
   48.3440   39.2310   43.9710 O   0  0  0  0  0
   50.2000   38.7710   45.4560 C   0  0  0  0  0
   49.4490   38.0950   46.5400 C   0  0  0  0  0
   49.6990   38.0210   47.9770 C   0  0  0  0  0
   50.7370   38.4940   48.8320 C   0  0  0  0  0
   50.6920   38.2160   50.2020 C   0  0  0  0  0
   49.6250   37.4770   50.7580 C   0  0  0  0  0
   48.5850   37.0110   49.9470 C   0  0  0  0  0
   48.6540   37.2980   48.5730 C   0  0  0  0  0
   47.7350   36.9300   47.5740 N   0  0  0  0  0
   48.2550   37.4190   46.3450 C   0  0  0  0  0
   53.9519   35.8676   52.0956 H   0  0  0  0  0
   52.4227   36.6031   51.5556 H   0  0  0  0  0
   52.4459   35.5496   52.9911 H   0  0  0  0  0
   53.1815   33.8472   51.6301 H   0  0  0  0  0
   50.5823   34.6091   51.8325 H   0  0  0  0  0
   51.1534   33.0046   51.4836 H   0  0  0  0  0
   50.1094   35.0777   49.5712 H   0  0  0  0  0
   50.0712   33.3414   49.4176 H   0  0  0  0  0
   51.8554   34.9580   48.0164 H   0  0  0  0  0
   52.1469   33.2663   48.3371 H   0  0  0  0  0
   53.9590   33.8970   49.6498 H   0  0  0  0  0
   54.6707   36.0559   50.0530 H   0  0  0  0  0
   53.0863   36.7086   49.3978 H   0  0  0  0  0
   54.1108   35.0688   47.3597 H   0  0  0  0  0
   55.5235   35.8834   47.9575 H   0  0  0  0  0
   52.0156   36.5847   46.4883 H   0  0  0  0  0
   56.4530   38.0581   48.4303 H   0  0  0  0  0
   57.2358   40.4226   48.1826 H   0  0  0  0  0
   55.8057   42.0940   46.9945 H   0  0  0  0  0
   53.6427   41.4216   46.0309 H   0  0  0  0  0
   50.3191   40.3033   42.4639 H   0  0  0  0  0
   51.5642   39.0712   48.4189 H   0  0  0  0  0
   51.4919   38.5749   50.8496 H   0  0  0  0  0
   49.6117   37.2680   51.8277 H   0  0  0  0  0
   47.7519   36.4462   50.3652 H   0  0  0  0  0
   47.7769   37.2804   45.3753 H   0  0  0  0  0
  1  2  1  0  0  0
  2  3  1  0  0  0
  2  6  1  0  0  0
  3  4  1  0  0  0
  4  5  1  0  0  0
  5  6  1  0  0  0
  6  7  1  0  0  0
  7  8  1  0  0  0
  8  9  1  0  0  0
  9 10  4  0  0  0
  9 11  4  0  0  0
 10 17  4  0  0  0
 11 12  4  0  0  0
 11 16  4  0  0  0
 12 13  4  0  0  0
 13 14  4  0  0  0
 14 15  4  0  0  0
 15 16  4  0  0  0
 16 17  4  0  0  0
 17 18  1  0  0  0
 18 19  1  0  0  0
 18 24  2  0  0  0
 19 20  2  0  0  0
 19 21  1  0  0  0
 21 22  1  0  0  0
 22 23  2  0  0  0
 22 24  1  0  0  0
 24 25  1  0  0  0
 25 26  4  0  0  0
 25 33  4  0  0  0
 26 27  4  0  0  0
 26 31  4  0  0  0
 27 28  4  0  0  0
 28 29  4  0  0  0
 29 30  4  0  0  0
 30 31  4  0  0  0
 31 32  4  0  0  0
 32 33  4  0  0  0
  1 34  1  0  0  0
  1 35  1  0  0  0
  1 36  1  0  0  0
  2 37  1  0  0  0
  3 38  1  0  0  0
  3 39  1  0  0  0
  4 40  1  0  0  0
  4 41  1  0  0  0
  5 42  1  0  0  0
  5 43  1  0  0  0
  6 44  1  0  0  0
  7 45  1  0  0  0
  7 46  1  0  0  0
  8 47  1  0  0  0
  8 48  1  0  0  0
 10 49  1  0  0  0
 12 50  1  0  0  0
 13 51  1  0  0  0
 14 52  1  0  0  0
 15 53  1  0  0  0
 21 54  1  0  0  0
 27 55  1  0  0  0
 28 56  1  0  0  0
 29 57  1  0  0  0
 30 58  1  0  0  0
 33 59  1  0  0  0
M  END
$$$$
