### 
### Created by X-TOOL on Mon Sep 10 21:12:49 2018
### 

@<TRIPOS>MOLECULE
1kna_ligand
  107   106     1     0     0
SMALL
GAST_HUCK


@<TRIPOS>ATOM
      1 N          -0.2930   33.3000    2.3010 N.4       1 GLN         0.2380
      2 CA         -1.7140   33.0460    2.6680 C.3       1 GLN         0.0671
      3 C          -1.8310   32.0060    3.7810 C.2       1 GLN         0.2269
      4 O          -1.7680   32.3600    4.9550 O.2       1 GLN        -0.3907
      5 CB         -2.4980   32.5900    1.4400 C.3       1 GLN         0.0247
      6 CG         -3.9970   32.6460    1.6170 C.3       1 GLN         0.0443
      7 CD         -4.7490   32.3640    0.3270 C.2       1 GLN         0.1738
      8 OE1        -4.6760   31.2610   -0.2250 O.2       1 GLN        -0.3973
      9 NE2        -5.4750   33.3660   -0.1650 N.am      1 GLN        -0.3009
     10 N          -2.0010   30.7340    3.4160 N.am      1 THR        -0.2586
     11 CA         -2.1250   29.6620    4.4060 C.3       1 THR         0.1566
     12 C          -1.1810   28.5000    4.1150 C.2       1 THR         0.2065
     13 O          -0.5040   28.4700    3.0850 O.2       1 THR        -0.3943
     14 CB         -3.5580   29.0780    4.4520 C.3       1 THR         0.0924
     15 OG1        -3.7990   28.3060    3.2660 O.3       1 THR        -0.3874
     16 CG2        -4.5900   30.1890    4.5420 C.3       1 THR        -0.0346
     17 N          -1.1470   27.5380    5.0310 N.am      1 ALA        -0.2639
     18 CA         -0.3000   26.3670    4.8680 C.3       1 ALA         0.1282
     19 C          -0.6780   25.2700    5.8450 C.2       1 ALA         0.2036
     20 O          -1.2140   25.5340    6.9210 O.2       1 ALA        -0.3944
     21 CB          1.1780   26.7410    5.0500 C.3       1 ALA        -0.0244
     22 N          -0.3960   24.0330    5.4510 N.am      1 ARG        -0.2637
     23 CA         -0.6780   22.8690    6.2790 C.3       1 ARG         0.1311
     24 C           0.4920   22.7150    7.2480 C.2       1 ARG         0.2039
     25 O           1.6420   22.9350    6.8750 O.2       1 ARG        -0.3944
     26 CB         -0.7900   21.6280    5.3860 C.3       1 ARG        -0.0092
     27 CG         -1.1890   20.3440    6.0900 C.3       1 ARG        -0.0156
     28 CD         -1.0640   19.1560    5.1320 C.3       1 ARG         0.0627
     29 NE         -1.4640   17.8930    5.7410 N.pl3     1 ARG        -0.2723
     30 CZ         -2.7240   17.5400    5.9820 C.cat     1 ARG         0.2882
     31 NH1        -3.7190   18.3560    5.6640 N.pl3     1 ARG        -0.2849
     32 NH2        -2.9930   16.3650    6.5370 N.pl3     1 ARG        -0.2849
     33 N           0.1950   22.3560    8.4880 N.am      1 MLY        -0.2637
     34 CA          1.2260   22.1670    9.4960 C.3       1 MLY         0.1310
     35 CB          0.7770   22.7680   10.8290 C.3       1 MLY        -0.0122
     36 CG          1.8960   23.3430   11.6730 C.3       1 MLY        -0.0440
     37 CD          1.3960   23.7190   13.0580 C.3       1 MLY        -0.0123
     38 CE          0.8860   25.1510   13.0960 C.3       1 MLY        -0.0324
     39 NZ          0.9660   25.7120   14.4440 N.4       1 MLY         0.2309
     40 CH1         0.9950   27.1710   14.3730 C.3       1 MLY        -0.0433
     41 CH2        -0.1690   25.2230   15.2300 C.3       1 MLY        -0.0433
     42 C           1.4950   20.6770    9.6520 C.2       1 MLY         0.2040
     43 O           0.6680   19.9490   10.2010 O.2       1 MLY        -0.3944
     44 N           2.6410   20.2200    9.1580 N.am      1 SER        -0.2627
     45 CA          2.9810   18.8040    9.2430 C.3       1 SER         0.1356
     46 C           3.2170   18.3680   10.6850 C.2       1 SER         0.1267
     47 O           3.1510   19.2330   11.5830 O.2       1 SER        -0.3724
     48 CB          4.2270   18.5080    8.4040 C.3       1 SER         0.0830
     49 OG          5.3510   19.2310    8.8790 O.3       1 SER        -0.3903
     50 H1         -0.2538   33.9890    1.5663 H         1 GLN         0.2015
     51 H2          0.1297   32.4428    1.9807 H         1 GLN         0.2015
     52 H3          0.2067   33.6402    3.1076 H         1 GLN         0.2015
     53 H4         -2.1495   33.9886    3.0309 H         1 GLN         0.1100
     54 H5         -2.2143   31.5516    1.2136 H         1 GLN         0.0370
     55 H6         -2.2245   33.2376    0.5940 H         1 GLN         0.0370
     56 H7         -4.2724   33.6497    1.9730 H         1 GLN         0.0506
     57 H8         -4.2914   31.8973    2.3671 H         1 GLN         0.0506
     58 H9         -5.9920   33.2401   -1.0117 H         1 GLN         0.1814
     59 H10        -5.5032   34.2444    0.3122 H         1 GLN         0.1814
     60 H11        -2.0448   30.5072    2.4430 H         1 THR         0.1885
     61 H12        -1.8792   30.0823    5.3923 H         1 THR         0.0826
     62 H13        -3.6517   28.4281    5.3345 H         1 THR         0.0639
     63 H14        -3.1552   27.6099    3.2063 H         1 THR         0.2101
     64 H15        -5.5985   29.7509    4.5734 H         1 THR         0.0257
     65 H16        -4.5018   30.8436    3.6624 H         1 THR         0.0257
     66 H17        -4.4171   30.7770    5.4554 H         1 THR         0.0257
     67 H18        -1.7156   27.6209    5.8494 H         1 ALA         0.1883
     68 H19        -0.4390   25.9828    3.8467 H         1 ALA         0.0797
     69 H20         1.8015   25.8437    4.9232 H         1 ALA         0.0277
     70 H21         1.3303   27.1539    6.0581 H         1 ALA         0.0277
     71 H22         1.4611   27.4933    4.2990 H         1 ALA         0.0277
     72 H23         0.0248   23.8965    4.5542 H         1 ARG         0.1883
     73 H24        -1.6159   23.0128    6.8355 H         1 ARG         0.0800
     74 H25         0.1889   21.4633    4.9120 H         1 ARG         0.0313
     75 H26        -1.5423   21.8362    4.6110 H         1 ARG         0.0313
     76 H27        -2.2309   20.4262    6.4331 H         1 ARG         0.0301
     77 H28        -0.5294   20.1839    6.9556 H         1 ARG         0.0301
     78 H29        -0.0156   19.0738    4.8093 H         1 ARG         0.0689
     79 H30        -1.7036   19.3419    4.2566 H         1 ARG         0.0689
     80 H31        -0.7210   17.2293    6.0023 H         1 ARG         0.2642
     81 H32        -4.6929   18.0785    5.8524 H         1 ARG         0.2615
     82 H33        -3.5183   19.2676    5.2285 H         1 ARG         0.2615
     83 H34        -2.2251   15.7256    6.7869 H         1 ARG         0.2615
     84 H35        -3.9697   16.0924    6.7179 H         1 ARG         0.2615
     85 H36        -0.7626   22.2113    8.7373 H         1 MLY         0.1883
     86 H37         2.1486   22.6694    9.1699 H         1 MLY         0.0800
     87 H38         0.2801   21.9779   11.4111 H         1 MLY         0.0312
     88 H39         0.0590   23.5739   10.6170 H         1 MLY         0.0312
     89 H40         2.2945   24.2411   11.1784 H         1 MLY         0.0269
     90 H41         2.6948   22.5931   11.7704 H         1 MLY         0.0269
     91 H42         2.2220   23.6145   13.7769 H         1 MLY         0.0317
     92 H43         0.5772   23.0403   13.3390 H         1 MLY         0.0317
     93 H44        -0.1626   25.1661   12.7641 H         1 MLY         0.0814
     94 H45         1.4946   25.7655   12.4163 H         1 MLY         0.0814
     95 H46         1.8184   25.3976   14.8807 H         1 MLY         0.2028
     96 H47         1.0552   27.5864   15.3898 H         1 MLY         0.0777
     97 H48         0.0790   27.5326   13.8828 H         1 MLY         0.0777
     98 H49         1.8726   27.4925   13.7931 H         1 MLY         0.0777
     99 H50        -0.1503   24.1235   15.2561 H         1 MLY         0.0777
    100 H51        -1.1080   25.5629   14.7688 H         1 MLY         0.0777
    101 H52        -0.1011   25.6152   16.2554 H         1 MLY         0.0777
    102 H53         3.2787   20.8552    8.7223 H         1 SER         0.1885
    103 H54         2.1390   18.2228    8.8390 H         1 SER         0.0813
    104 H55         3.4374   17.3290   10.9254 H         1 SER         0.1374
    105 H56         4.0322   18.7937    7.3598 H         1 SER         0.0607
    106 H57         4.4459   17.4312    8.4548 H         1 SER         0.0607
    107 H58         5.1693   20.1624    8.8335 H         1 SER         0.2097
@<TRIPOS>BOND
     1    2    1 1  
     2    2    5 1  
     3    3    2 1  
     4    3    4 2  
     5    5    6 1  
     6    6    7 1  
     7    7    9 am 
     8    7    8 2  
     9   11   10 1  
    10   11   14 1  
    11   12   11 1  
    12   12   13 2  
    13   14   16 1  
    14   14   15 1  
    15   10    3 am 
    16   18   17 1  
    17   18   21 1  
    18   19   18 1  
    19   19   20 2  
    20   17   12 am 
    21   23   22 1  
    22   23   26 1  
    23   24   23 1  
    24   24   25 2  
    25   26   27 1  
    26   27   28 1  
    27   28   29 1  
    28   29   30 ar 
    29   30   32 ar 
    30   30   31 ar 
    31   22   19 am 
    32   44   45 1  
    33   45   48 1  
    34   45   46 1  
    35   46   47 2  
    36   48   49 1  
    37   34   33 1  
    38   34   35 1  
    39   42   34 1  
    40   35   36 1  
    41   36   37 1  
    42   37   38 1  
    43   38   39 1  
    44   39   40 1  
    45   39   41 1  
    46   42   43 2  
    47   33   24 am 
    48   42   44 am 
    49    1   50 1  
    50    1   51 1  
    51    1   52 1  
    52    2   53 1  
    53    5   54 1  
    54    5   55 1  
    55    6   56 1  
    56    6   57 1  
    57    9   58 1  
    58    9   59 1  
    59   10   60 1  
    60   11   61 1  
    61   14   62 1  
    62   15   63 1  
    63   16   64 1  
    64   16   65 1  
    65   16   66 1  
    66   17   67 1  
    67   18   68 1  
    68   21   69 1  
    69   21   70 1  
    70   21   71 1  
    71   22   72 1  
    72   23   73 1  
    73   26   74 1  
    74   26   75 1  
    75   27   76 1  
    76   27   77 1  
    77   28   78 1  
    78   28   79 1  
    79   29   80 1  
    80   31   81 1  
    81   31   82 1  
    82   32   83 1  
    83   32   84 1  
    84   33   85 1  
    85   34   86 1  
    86   35   87 1  
    87   35   88 1  
    88   36   89 1  
    89   36   90 1  
    90   37   91 1  
    91   37   92 1  
    92   38   93 1  
    93   38   94 1  
    94   39   95 1  
    95   40   96 1  
    96   40   97 1  
    97   40   98 1  
    98   41   99 1  
    99   41  100 1  
   100   41  101 1  
   101   44  102 1  
   102   45  103 1  
   103   46  104 1  
   104   48  105 1  
   105   48  106 1  
   106   49  107 1  
@<TRIPOS>SUBSTRUCTURE
     1 GLN         1

