1kna_ligand
  -I-interpret- 

106105  0  0  0  0  0  0  0  0999 V2000
   -0.2930   33.3000    2.3010 N   0  3  0  0  0
   -1.7140   33.0460    2.6680 C   0  0  0  0  0
   -1.8310   32.0060    3.7810 C   0  0  0  0  0
   -1.7680   32.3600    4.9550 O   0  0  0  0  0
   -2.4980   32.5900    1.4400 C   0  0  0  0  0
   -3.9970   32.6460    1.6170 C   0  0  0  0  0
   -4.7490   32.3640    0.3270 C   0  0  0  0  0
   -4.6760   31.2610   -0.2250 O   0  0  0  0  0
   -5.4750   33.3660   -0.1650 N   0  0  0  0  0
   -2.0010   30.7340    3.4160 N   0  0  0  0  0
   -2.1250   29.6620    4.4060 C   0  0  0  0  0
   -1.1810   28.5000    4.1150 C   0  0  0  0  0
   -0.5040   28.4700    3.0850 O   0  0  0  0  0
   -3.5580   29.0780    4.4520 C   0  0  0  0  0
   -3.7990   28.3060    3.2660 O   0  0  0  0  0
   -4.5900   30.1890    4.5420 C   0  0  0  0  0
   -1.1470   27.5380    5.0310 N   0  0  0  0  0
   -0.3000   26.3670    4.8680 C   0  0  0  0  0
   -0.6780   25.2700    5.8450 C   0  0  0  0  0
   -1.2140   25.5340    6.9210 O   0  0  0  0  0
    1.1780   26.7410    5.0500 C   0  0  0  0  0
   -0.3960   24.0330    5.4510 N   0  0  0  0  0
   -0.6780   22.8690    6.2790 C   0  0  0  0  0
    0.4920   22.7150    7.2480 C   0  0  0  0  0
    1.6420   22.9350    6.8750 O   0  0  0  0  0
   -0.7900   21.6280    5.3860 C   0  0  0  0  0
   -1.1890   20.3440    6.0900 C   0  0  0  0  0
   -1.0640   19.1560    5.1320 C   0  0  0  0  0
   -1.4640   17.8930    5.7410 N   0  0  0  0  0
   -2.7240   17.5400    5.9820 C   0  0  0  0  0
   -3.7190   18.3560    5.6640 N   0  0  0  0  0
   -2.9930   16.3650    6.5370 N   0  0  0  0  0
    0.1950   22.3560    8.4880 N   0  0  0  0  0
    1.2260   22.1670    9.4960 C   0  0  0  0  0
    0.7770   22.7680   10.8290 C   0  0  0  0  0
    1.8960   23.3430   11.6730 C   0  0  0  0  0
    1.3960   23.7190   13.0580 C   0  0  0  0  0
    0.8860   25.1510   13.0960 C   0  0  0  0  0
    0.9660   25.7120   14.4440 N   0  3  0  0  0
    0.9950   27.1710   14.3730 C   0  0  0  0  0
   -0.1690   25.2230   15.2300 C   0  0  0  0  0
    1.4950   20.6770    9.6520 C   0  0  0  0  0
    0.6680   19.9490   10.2010 O   0  0  0  0  0
    2.6410   20.2200    9.1580 N   0  0  0  0  0
    2.9810   18.8040    9.2430 C   0  0  0  0  0
    3.2170   18.3680   10.6850 C   0  0  0  0  0
    3.1510   19.2330   11.5830 O   0  0  0  0  0
    4.2270   18.5080    8.4040 C   0  0  0  0  0
    5.3510   19.2310    8.8790 O   0  0  0  0  0
   -0.2545   33.9973    1.5575 H   0  0  0  0  0
    0.2116   33.6441    3.1179 H   0  0  0  0  0
    0.1336   32.4320    1.9771 H   0  0  0  0  0
   -2.1343   33.9803    3.0402 H   0  0  0  0  0
   -2.2318   31.5497    1.2528 H   0  0  0  0  0
   -2.2422   33.2643    0.6227 H   0  0  0  0  0
   -4.2586   33.6522    1.9445 H   0  0  0  0  0
   -4.2777   31.8825    2.3425 H   0  0  0  0  0
   -5.9992   33.2389   -1.0307 H   0  0  0  0  0
   -5.5069   34.2607    0.3238 H   0  0  0  0  0
   -2.0457   30.5026    2.4236 H   0  0  0  0  0
   -1.8721   30.1257    5.3595 H   0  0  0  0  0
   -3.6449   28.4452    5.3352 H   0  0  0  0  0
   -4.6879   27.9446    3.2959 H   0  0  0  0  0
   -4.4176   30.7708    5.4474 H   0  0  0  0  0
   -4.5015   30.8369    3.6699 H   0  0  0  0  0
   -5.5888   29.7537    4.5730 H   0  0  0  0  0
   -1.7270   27.6226    5.8658 H   0  0  0  0  0
   -0.4515   25.9905    3.8564 H   0  0  0  0  0
    1.4572   27.4864    4.3054 H   0  0  0  0  0
    1.3276   27.1500    6.0492 H   0  0  0  0  0
    1.7948   25.8512    4.9241 H   0  0  0  0  0
    0.0332   23.8938    4.5362 H   0  0  0  0  0
   -1.6144   22.9861    6.8245 H   0  0  0  0  0
    0.2029   21.4563    4.9704 H   0  0  0  0  0
   -1.5760   21.8395    4.6610 H   0  0  0  0  0
   -2.2234   20.4263    6.4238 H   0  0  0  0  0
   -0.5302   20.1852    6.9437 H   0  0  0  0  0
   -0.0166   19.0697    4.8428 H   0  0  0  0  0
   -1.7234   19.3408    4.2840 H   0  0  0  0  0
   -0.7282   17.2357    5.9997 H   0  0  0  0  0
   -3.5203   19.2587    5.2327 H   0  0  0  0  0
   -3.9602   16.0951    6.7162 H   0  0  0  0  0
   -2.2326   15.7318    6.7844 H   0  0  0  0  0
   -0.7817   22.2084    8.7423 H   0  0  0  0  0
    2.1405   22.6720    9.1850 H   0  0  0  0  0
    0.3275   21.9599   11.4060 H   0  0  0  0  0
    0.1015   23.5907   10.5946 H   0  0  0  0  0
    2.2776   24.2392   11.1839 H   0  0  0  0  0
    2.6781   22.5908   11.7760 H   0  0  0  0  0
    2.2243   23.6285   13.7607 H   0  0  0  0  0
    0.5746   23.0526   13.3214 H   0  0  0  0  0
   -0.1577   25.1546   12.7816 H   0  0  0  0  0
    1.5045   25.7558   12.4328 H   0  0  0  0  0
    1.8258   25.4136   14.9046 H   0  0  0  0  0
    1.8650   27.4883   13.7981 H   0  0  0  0  0
    0.0869   27.5280   13.8871 H   0  0  0  0  0
    1.0546   27.5814   15.3810 H   0  0  0  0  0
   -1.0993   25.5348   14.7553 H   0  0  0  0  0
   -0.1324   24.1348   15.2805 H   0  0  0  0  0
   -0.1170   25.6367   16.2371 H   0  0  0  0  0
    3.2914   20.8679    8.7135 H   0  0  0  0  0
    2.1348   18.2386    8.8525 H   0  0  0  0  0
    3.4376   17.3280   10.9256 H   0  0  0  0  0
    4.0314   18.8073    7.3743 H   0  0  0  0  0
    4.4459   17.4423    8.4713 H   0  0  0  0  0
    6.1151   19.0259    8.3352 H   0  0  0  0  0
  2  1  1  0  0  0
  2  5  1  0  0  0
  3  2  1  0  0  0
  3  4  2  0  0  0
  5  6  1  0  0  0
  6  7  1  0  0  0
  7  9  1  0  0  0
  7  8  2  0  0  0
 11 10  1  0  0  0
 11 14  1  0  0  0
 12 11  1  0  0  0
 12 13  2  0  0  0
 14 16  1  0  0  0
 14 15  1  0  0  0
 10  3  1  0  0  0
 18 17  1  0  0  0
 18 21  1  0  0  0
 19 18  1  0  0  0
 19 20  2  0  0  0
 17 12  1  0  0  0
 23 22  1  0  0  0
 23 26  1  0  0  0
 24 23  1  0  0  0
 24 25  2  0  0  0
 26 27  1  0  0  0
 27 28  1  0  0  0
 28 29  1  0  0  0
 29 30  1  0  0  0
 30 32  1  0  0  0
 30 31  2  0  0  0
 22 19  1  0  0  0
 44 45  1  0  0  0
 45 48  1  0  0  0
 45 46  1  0  0  0
 46 47  2  0  0  0
 48 49  1  0  0  0
 34 33  1  0  0  0
 34 35  1  0  0  0
 42 34  1  0  0  0
 35 36  1  0  0  0
 36 37  1  0  0  0
 37 38  1  0  0  0
 38 39  1  0  0  0
 39 40  1  0  0  0
 39 41  1  0  0  0
 42 43  2  0  0  0
 33 24  1  0  0  0
 42 44  1  0  0  0
  1 50  1  0  0  0
  1 51  1  0  0  0
  1 52  1  0  0  0
  2 53  1  0  0  0
  5 54  1  0  0  0
  5 55  1  0  0  0
  6 56  1  0  0  0
  6 57  1  0  0  0
  9 58  1  0  0  0
  9 59  1  0  0  0
 10 60  1  0  0  0
 11 61  1  0  0  0
 14 62  1  0  0  0
 15 63  1  0  0  0
 16 64  1  0  0  0
 16 65  1  0  0  0
 16 66  1  0  0  0
 17 67  1  0  0  0
 18 68  1  0  0  0
 21 69  1  0  0  0
 21 70  1  0  0  0
 21 71  1  0  0  0
 22 72  1  0  0  0
 23 73  1  0  0  0
 26 74  1  0  0  0
 26 75  1  0  0  0
 27 76  1  0  0  0
 27 77  1  0  0  0
 28 78  1  0  0  0
 28 79  1  0  0  0
 29 80  1  0  0  0
 31 81  1  0  0  0
 32 82  1  0  0  0
 32 83  1  0  0  0
 33 84  1  0  0  0
 34 85  1  0  0  0
 35 86  1  0  0  0
 35 87  1  0  0  0
 36 88  1  0  0  0
 36 89  1  0  0  0
 37 90  1  0  0  0
 37 91  1  0  0  0
 38 92  1  0  0  0
 38 93  1  0  0  0
 39 94  1  0  0  0
 40 95  1  0  0  0
 40 96  1  0  0  0
 40 97  1  0  0  0
 41 98  1  0  0  0
 41 99  1  0  0  0
 41100  1  0  0  0
 44101  1  0  0  0
 45102  1  0  0  0
 46103  1  0  0  0
 48104  1  0  0  0
 48105  1  0  0  0
 49106  1  0  0  0
M  END
$$$$
