1b32_ligand
  -I-interpret- 

 65 64  0  0  0  0  0  0  0  0999 V2000
    6.9470   16.5650   15.2090 N   0  3  0  0  0
    6.4310   17.8370   14.5950 C   0  0  0  0  0
    5.2030   18.3330   15.3390 C   0  0  0  0  0
    4.4630   17.5300   15.9270 O   0  0  0  0  0
    6.2090   17.7120   13.0770 C   0  0  0  0  0
    5.2150   16.6570   12.6240 C   0  0  0  0  0
    5.1970   16.5260   11.0860 C   0  0  0  0  0
    6.4140   15.8330   10.4910 C   0  0  0  0  0
    6.6320   14.4330   10.9630 N   0  3  0  0  0
    5.0540   19.6500   15.3890 N   0  0  0  0  0
    3.9230   20.2920   16.0830 C   0  0  0  0  0
    2.6280   20.1380   15.3150 C   0  0  0  0  0
    2.5970   20.3970   14.1110 O   0  0  0  0  0
    4.2400   21.8120   16.1170 C   0  0  0  0  0
    5.4510   22.0780   17.0350 C   0  0  0  0  0
    5.0080   21.7180   18.7500 S   0  0  0  0  0
    5.5970   23.1860   19.5800 C   0  0  0  0  0
    1.5540   19.7940   16.0470 N   0  0  0  0  0
    0.2440   19.7000   15.4120 C   0  0  0  0  0
   -0.7890   20.5490   16.1700 C   0  0  0  0  0
   -1.7780   20.9220   15.4780 O   0  0  0  0  0
   -0.3060   18.2710   15.3280 C   0  0  0  0  0
   -1.3580   18.3550   14.1870 C   0  0  0  0  0
   -2.1190   17.0690   14.0400 C   0  0  0  0  0
   -3.3410   17.2780   13.1450 C   0  0  0  0  0
   -2.8640   16.9820   11.7550 N   0  3  0  0  0
   -0.5490   20.9310   17.3190 O   0  0  0  0  0
    7.0764   16.7009   16.2116 H   0  0  0  0  0
    6.2742   15.8150   15.0504 H   0  0  0  0  0
    7.8392   16.3193   14.7800 H   0  0  0  0  0
    7.2033   18.5980   14.7067 H   0  0  0  0  0
    7.1709   17.4230   12.6534 H   0  0  0  0  0
    5.8034   18.6697   12.7508 H   0  0  0  0  0
    4.2203   16.9514   12.9586 H   0  0  0  0  0
    5.5090   15.6979   13.0503 H   0  0  0  0  0
    5.1800   17.5383   10.6821 H   0  0  0  0  0
    4.3295   15.9177   10.8301 H   0  0  0  0  0
    7.2870   16.4093   10.7972 H   0  0  0  0  0
    6.2536   15.7821    9.4141 H   0  0  0  0  0
    7.4644   14.0501   10.5148 H   0  0  0  0  0
    6.7587   14.4325   11.9751 H   0  0  0  0  0
    5.8213   13.8636   10.7204 H   0  0  0  0  0
    5.7477   20.2405   14.9302 H   0  0  0  0  0
    3.8040   19.8379   17.0667 H   0  0  0  0  0
    3.3737   22.3505   16.5012 H   0  0  0  0  0
    4.4732   22.1523   15.1081 H   0  0  0  0  0
    5.7452   23.1241   16.9503 H   0  0  0  0  0
    6.2796   21.4369   16.7341 H   0  0  0  0  0
    6.6709   23.2851   19.4219 H   0  0  0  0  0
    5.0867   24.0601   19.1754 H   0  0  0  0  0
    5.3915   23.1055   20.6474 H   0  0  0  0  0
    1.6548   19.5994   17.0432 H   0  0  0  0  0
    0.3982   20.0660   14.3970 H   0  0  0  0  0
   -1.7494   20.4891   14.6216 H   0  0  0  0  0
   -0.7371   17.9327   16.2702 H   0  0  0  0  0
    0.4719   17.5346   15.1262 H   0  0  0  0  0
   -0.8356   18.5546   13.2514 H   0  0  0  0  0
   -2.0657   19.1479   14.4291 H   0  0  0  0  0
   -2.4499   16.7358   15.0236 H   0  0  0  0  0
   -1.4694   16.3197   13.5877 H   0  0  0  0  0
   -3.7327   18.2917   13.2288 H   0  0  0  0  0
   -4.1673   16.6285   13.4339 H   0  0  0  0  0
   -3.6357   17.1028   11.0991 H   0  0  0  0  0
   -2.1073   17.6217   11.5131 H   0  0  0  0  0
   -2.5256   16.0208   11.7104 H   0  0  0  0  0
  3  2  1  0  0  0
  2  5  1  0  0  0
  2  1  1  0  0  0
  5  6  1  0  0  0
  6  7  1  0  0  0
  7  8  1  0  0  0
  8  9  1  0  0  0
  3  4  2  0  0  0
 12 11  1  0  0  0
 11 14  1  0  0  0
 11 10  1  0  0  0
 14 15  1  0  0  0
 15 16  1  0  0  0
 16 17  1  0  0  0
 12 13  2  0  0  0
 19 20  1  0  0  0
 19 22  1  0  0  0
 18 19  1  0  0  0
 22 23  1  0  0  0
 23 24  1  0  0  0
 24 25  1  0  0  0
 25 26  1  0  0  0
 20 27  2  0  0  0
 20 21  1  0  0  0
 10  3  1  0  0  0
 12 18  1  0  0  0
  1 28  1  0  0  0
  1 29  1  0  0  0
  1 30  1  0  0  0
  2 31  1  0  0  0
  5 32  1  0  0  0
  5 33  1  0  0  0
  6 34  1  0  0  0
  6 35  1  0  0  0
  7 36  1  0  0  0
  7 37  1  0  0  0
  8 38  1  0  0  0
  8 39  1  0  0  0
  9 40  1  0  0  0
  9 41  1  0  0  0
  9 42  1  0  0  0
 10 43  1  0  0  0
 11 44  1  0  0  0
 14 45  1  0  0  0
 14 46  1  0  0  0
 15 47  1  0  0  0
 15 48  1  0  0  0
 17 49  1  0  0  0
 17 50  1  0  0  0
 17 51  1  0  0  0
 18 52  1  0  0  0
 19 53  1  0  0  0
 21 54  1  0  0  0
 22 55  1  0  0  0
 22 56  1  0  0  0
 23 57  1  0  0  0
 23 58  1  0  0  0
 24 59  1  0  0  0
 24 60  1  0  0  0
 25 61  1  0  0  0
 25 62  1  0  0  0
 26 63  1  0  0  0
 26 64  1  0  0  0
 26 65  1  0  0  0
M  END
$$$$
