6cen_ligand
  -I-interpret- 

 93 92  0  0  0  0  0  0  0  0999 V2000
   38.7190   24.4760   47.3710 C   0  0  0  0  0
   38.2680   25.1760   48.2740 O   0  0  0  0  0
   40.2240   24.3000   47.1990 C   0  0  0  0  0
   37.9350   23.8330   46.5240 N   0  0  0  0  0
   38.3630   22.6390   45.8010 C   0  0  0  0  0
   37.5510   23.0590   44.7020 C   0  0  0  0  0
   36.8270   23.9900   44.4570 O   0  0  0  0  0
   37.7430   22.1590   43.7140 N   0  0  0  0  0
   37.1440   22.2650   42.3560 C   0  0  0  0  0
   36.1670   21.1160   42.0720 C   0  0  0  0  0
   36.4470   19.9450   42.3760 O   0  0  0  0  0
   38.2490   22.2960   41.2730 C   0  0  0  0  0
   37.6850   22.5610   39.8890 C   0  0  0  0  0
   39.2620   23.3890   41.6080 C   0  0  0  0  0
   35.0190   21.4560   41.4790 N   0  0  0  0  0
   34.0150   20.4860   41.1450 C   0  0  0  0  0
   34.4820   19.6860   39.9590 C   0  0  0  0  0
   35.2260   20.1680   39.1090 O   0  0  0  0  0
   32.6780   21.1510   40.8000 C   0  0  0  0  0
   32.1320   22.1330   41.8570 C   0  0  0  0  0
   30.9640   22.9330   41.2550 C   0  0  0  0  0
   30.4230   23.9620   42.2180 C   0  0  0  0  0
   34.0370   18.4450   39.9020 N   0  0  0  0  0
   34.3160   17.5780   38.7870 C   0  0  0  0  0
   33.0090   17.0220   38.2410 C   0  0  0  0  0
   32.0360   16.8590   38.9740 O   0  0  0  0  0
   35.2410   16.4530   39.2590 C   0  0  0  0  0
   36.6210   16.9710   39.6610 C   0  0  0  0  0
   37.5140   15.8870   40.2430 C   0  0  0  0  0
   36.9870   15.3500   41.5010 N   0  0  0  0  0
   37.6060   14.4490   42.2710 C   0  0  0  0  0
   38.8050   13.9610   41.9300 N   0  0  0  0  0
   37.0240   14.0350   43.3960 N   0  0  0  0  0
   33.0120   16.7200   36.9530 N   0  0  0  0  0
   31.8280   16.2360   36.2510 C   0  0  0  0  0
   31.4510   14.8270   36.6970 C   0  0  0  0  0
   32.3300   13.9920   36.9540 O   0  0  0  0  0
   32.0200   16.3320   34.7230 C   0  0  0  0  0
   32.0670   17.8130   34.3100 C   0  0  0  0  0
   30.8920   15.6250   33.9610 C   0  0  0  0  0
   33.0540   18.1340   33.2110 C   0  0  0  0  0
   30.1870   14.7350   36.9040 N   0  0  0  0  0
   40.6847   25.2724   47.0247 H   0  0  0  0  0
   40.6420   23.8551   48.1020 H   0  0  0  0  0
   40.4172   23.6471   46.3478 H   0  0  0  0  0
   36.9906   24.1857   46.3686 H   0  0  0  0  0
   38.2432   21.6477   46.2380 H   0  0  0  0  0
   39.4214   22.4187   45.6622 H   0  0  0  0  0
   38.3374   21.3539   43.9114 H   0  0  0  0  0
   36.5834   23.1992   42.3236 H   0  0  0  0  0
   38.7250   21.3155   41.2648 H   0  0  0  0  0
   36.9768   21.7740   39.6298 H   0  0  0  0  0
   37.1766   23.5251   39.8837 H   0  0  0  0  0
   38.4980   22.5735   39.1630 H   0  0  0  0  0
   38.7563   24.3541   41.6390 H   0  0  0  0  0
   39.7109   23.1812   42.5793 H   0  0  0  0  0
   40.0391   23.4089   40.8440 H   0  0  0  0  0
   34.8505   22.4370   41.2563 H   0  0  0  0  0
   33.8623   19.8437   42.0123 H   0  0  0  0  0
   31.9453   20.3485   40.7143 H   0  0  0  0  0
   32.8456   21.7326   39.8935 H   0  0  0  0  0
   32.9237   22.8176   42.1616 H   0  0  0  0  0
   31.7821   21.5755   42.7258 H   0  0  0  0  0
   30.1612   22.2351   41.0174 H   0  0  0  0  0
   31.3299   23.4548   40.3707 H   0  0  0  0  0
   30.0644   23.4624   43.1179 H   0  0  0  0  0
   31.2149   24.6632   42.4813 H   0  0  0  0  0
   29.6004   24.5008   41.7477 H   0  0  0  0  0
   33.4757   18.0875   40.6750 H   0  0  0  0  0
   34.8116   18.1282   37.9871 H   0  0  0  0  0
   35.3690   15.7510   38.4350 H   0  0  0  0  0
   34.7870   15.9845   40.1322 H   0  0  0  0  0
   36.4800   17.7330   40.4275 H   0  0  0  0  0
   37.1062   17.3557   38.7640 H   0  0  0  0  0
   38.4913   16.3255   40.4450 H   0  0  0  0  0
   37.5689   15.0706   39.5229 H   0  0  0  0  0
   36.0775   15.6901   41.8132 H   0  0  0  0  0
   39.2667   13.2772   42.5297 H   0  0  0  0  0
   39.2569   14.2730   41.0704 H   0  0  0  0  0
   36.1123   14.4052   43.6647 H   0  0  0  0  0
   33.8795   16.8303   36.4280 H   0  0  0  0  0
   30.9898   16.8809   36.5148 H   0  0  0  0  0
   32.9565   15.8355   34.4689 H   0  0  0  0  0
   32.3783   18.3769   35.1893 H   0  0  0  0  0
   31.0773   18.0671   33.9305 H   0  0  0  0  0
   30.8729   14.5711   34.2384 H   0  0  0  0  0
   29.9381   16.0865   34.2161 H   0  0  0  0  0
   31.0663   15.7168   32.8890 H   0  0  0  0  0
   34.0589   17.8663   33.5373 H   0  0  0  0  0
   32.7976   17.5659   32.3168 H   0  0  0  0  0
   33.0147   19.2005   32.9892 H   0  0  0  0  0
   29.8000   13.8931   37.3303 H   0  0  0  0  0
   29.5700   15.5039   36.6421 H   0  0  0  0  0
  1  2  2  0  0  0
  1  3  1  0  0  0
  1  4  1  0  0  0
  4  5  1  0  0  0
  5  6  1  0  0  0
  6  7  2  0  0  0
  6  8  1  0  0  0
  8  9  1  0  0  0
  9 10  1  0  0  0
  9 12  1  0  0  0
 10 11  2  0  0  0
 10 15  1  0  0  0
 12 13  1  0  0  0
 12 14  1  0  0  0
 15 16  1  0  0  0
 16 17  1  0  0  0
 16 19  1  0  0  0
 17 18  2  0  0  0
 17 23  1  0  0  0
 19 20  1  0  0  0
 20 21  1  0  0  0
 21 22  1  0  0  0
 23 24  1  0  0  0
 24 25  1  0  0  0
 24 27  1  0  0  0
 25 26  2  0  0  0
 25 34  1  0  0  0
 27 28  1  0  0  0
 28 29  1  0  0  0
 29 30  1  0  0  0
 30 31  1  0  0  0
 31 32  1  0  0  0
 31 33  2  0  0  0
 34 35  1  0  0  0
 35 36  1  0  0  0
 35 38  1  0  0  0
 36 37  2  0  0  0
 36 42  1  0  0  0
 38 39  1  0  0  0
 38 40  1  0  0  0
 39 41  1  0  0  0
  3 43  1  0  0  0
  3 44  1  0  0  0
  3 45  1  0  0  0
  4 46  1  0  0  0
  5 47  1  0  0  0
  5 48  1  0  0  0
  8 49  1  0  0  0
  9 50  1  0  0  0
 12 51  1  0  0  0
 13 52  1  0  0  0
 13 53  1  0  0  0
 13 54  1  0  0  0
 14 55  1  0  0  0
 14 56  1  0  0  0
 14 57  1  0  0  0
 15 58  1  0  0  0
 16 59  1  0  0  0
 19 60  1  0  0  0
 19 61  1  0  0  0
 20 62  1  0  0  0
 20 63  1  0  0  0
 21 64  1  0  0  0
 21 65  1  0  0  0
 22 66  1  0  0  0
 22 67  1  0  0  0
 22 68  1  0  0  0
 23 69  1  0  0  0
 24 70  1  0  0  0
 27 71  1  0  0  0
 27 72  1  0  0  0
 28 73  1  0  0  0
 28 74  1  0  0  0
 29 75  1  0  0  0
 29 76  1  0  0  0
 30 77  1  0  0  0
 32 78  1  0  0  0
 32 79  1  0  0  0
 33 80  1  0  0  0
 34 81  1  0  0  0
 35 82  1  0  0  0
 38 83  1  0  0  0
 39 84  1  0  0  0
 39 85  1  0  0  0
 40 86  1  0  0  0
 40 87  1  0  0  0
 40 88  1  0  0  0
 41 89  1  0  0  0
 41 90  1  0  0  0
 41 91  1  0  0  0
 42 92  1  0  0  0
 42 93  1  0  0  0
M  END
$$$$
