### 
### Created by X-TOOL on Wed Jan  1 15:39:36 2020
### 

@<TRIPOS>MOLECULE
6cen_ligand
   94    93     1     0     0
SMALL
GAST_HUCK


@<TRIPOS>ATOM
      1 C          38.7190   24.4760   47.3710 C.2       1 ACE         0.1749
      2 O          38.2680   25.1760   48.2740 O.2       1 ACE        -0.3972
      3 CH3        40.2240   24.3000   47.1990 C.3       1 ACE         0.0258
      4 N          37.9350   23.8330   46.5240 N.am      1 GLY        -0.2685
      5 CA         38.3630   22.6390   45.8010 C.3       1 GLY         0.1200
      6 C          37.5510   23.0590   44.7020 C.2       1 GLY         0.2007
      7 O          36.8270   23.9900   44.4570 O.2       1 GLY        -0.3947
      8 N          37.7430   22.1590   43.7140 N.am      1 VAL        -0.2637
      9 CA         37.1440   22.2650   42.3560 C.3       1 VAL         0.1332
     10 C          36.1670   21.1160   42.0720 C.2       1 VAL         0.2041
     11 O          36.4470   19.9450   42.3760 O.2       1 VAL        -0.3944
     12 CB         38.2490   22.2960   41.2730 C.3       1 VAL        -0.0063
     13 CG1        37.6850   22.5610   39.8890 C.3       1 VAL        -0.0584
     14 CG2        39.2620   23.3890   41.6080 C.3       1 VAL        -0.0584
     15 N          35.0190   21.4560   41.4790 N.am      1 NLE        -0.2637
     16 CA         34.0150   20.4860   41.1450 C.3       1 NLE         0.1310
     17 C          34.4820   19.6860   39.9590 C.2       1 NLE         0.2039
     18 O          35.2260   20.1680   39.1090 O.2       1 NLE        -0.3944
     19 CB         32.6780   21.1510   40.8000 C.3       1 NLE        -0.0124
     20 CG         32.1320   22.1330   41.8570 C.3       1 NLE        -0.0491
     21 CD         30.9640   22.9330   41.2550 C.3       1 NLE        -0.0557
     22 CE         30.4230   23.9620   42.2180 C.3       1 NLE        -0.0653
     23 N          34.0370   18.4450   39.9020 N.am      1 ARG        -0.2637
     24 CA         34.3160   17.5780   38.7870 C.3       1 ARG         0.1311
     25 C          33.0090   17.0220   38.2410 C.2       1 ARG         0.2039
     26 O          32.0360   16.8590   38.9740 O.2       1 ARG        -0.3944
     27 CB         35.2410   16.4530   39.2590 C.3       1 ARG        -0.0092
     28 CG         36.6210   16.9710   39.6610 C.3       1 ARG        -0.0156
     29 CD         37.5140   15.8870   40.2430 C.3       1 ARG         0.0627
     30 NE         36.9870   15.3500   41.5010 N.pl3     1 ARG        -0.2723
     31 CZ         37.6060   14.4490   42.2710 C.cat     1 ARG         0.2882
     32 NH1        38.8050   13.9610   41.9300 N.pl3     1 ARG        -0.2849
     33 NH2        37.0240   14.0350   43.3960 N.pl3     1 ARG        -0.2849
     34 N          33.0120   16.7200   36.9530 N.am      1 ILE        -0.2635
     35 CA         31.8280   16.2360   36.2510 C.3       1 ILE         0.1332
     36 C          31.4510   14.8270   36.6970 C.2       1 ILE         0.1994
     37 O          32.3300   13.9920   36.9540 O.2       1 ILE        -0.3947
     38 CB         32.0200   16.3320   34.7230 C.3       1 ILE        -0.0037
     39 CG1        32.0670   17.8130   34.3100 C.3       1 ILE        -0.0491
     40 CG2        30.8920   15.6250   33.9610 C.3       1 ILE        -0.0582
     41 CD1        33.0540   18.1340   33.2110 C.3       1 ILE        -0.0648
     42 N          30.1870   14.7350   36.9040 N.am      1 NH2        -0.2990
     43 H1         40.4203   23.6413   46.3402 H         1 ACE         0.0467
     44 H2         40.6471   23.8510   48.1097 H         1 ACE         0.0467
     45 H3         40.6901   25.2807   47.0229 H         1 ACE         0.0467
     46 H4         37.0091   24.1788   46.3717 H         1 GLY         0.1880
     47 H5         38.0492   21.6910   46.2622 H         1 GLY         0.0763
     48 H6         39.4404   22.6014   45.5823 H         1 GLY         0.0763
     49 H7         38.3258   21.3697   43.9075 H         1 VAL         0.1883
     50 H8         36.5837   23.2102   42.3056 H         1 VAL         0.0802
     51 H9         38.7583   21.3210   41.2652 H         1 VAL         0.0343
     52 H10        38.5046   22.5739   39.1554 H         1 VAL         0.0234
     53 H11        37.1716   23.5338   39.8823 H         1 VAL         0.0234
     54 H12        36.9702   21.7673   39.6262 H         1 VAL         0.0234
     55 H13        39.6786   23.2082   42.6099 H         1 VAL         0.0234
     56 H14        38.7633   24.3693   41.5898 H         1 VAL         0.0234
     57 H15        40.0737   23.3767   40.8657 H         1 VAL         0.0234
     58 H16        34.8538   22.4178   41.2607 H         1 NLE         0.1883
     59 H17        33.8681   19.8152   42.0043 H         1 NLE         0.0800
     60 H18        31.9309   20.3562   40.6581 H         1 NLE         0.0312
     61 H19        32.8079   21.7046   39.8584 H         1 NLE         0.0312
     62 H20        32.9310   22.8242   42.1634 H         1 NLE         0.0267
     63 H21        31.7782   21.5699   42.7332 H         1 NLE         0.0267
     64 H22        30.1556   22.2355   40.9906 H         1 NLE         0.0263
     65 H23        31.3162   23.4467   40.3484 H         1 NLE         0.0263
     66 H24        29.5927   24.5065   41.7445 H         1 NLE         0.0230
     67 H25        31.2213   24.6703   42.4845 H         1 NLE         0.0230
     68 H26        30.0607   23.4591   43.1267 H         1 NLE         0.0230
     69 H27        33.4867   18.0945   40.6598 H         1 ARG         0.1883
     70 H28        34.8203   18.1503   37.9945 H         1 ARG         0.0800
     71 H29        35.3597   15.7258   38.4423 H         1 ARG         0.0313
     72 H30        34.7819   15.9576   40.1272 H         1 ARG         0.0313
     73 H31        36.4930   17.7621   40.4145 H         1 ARG         0.0301
     74 H32        37.1121   17.3892   38.7700 H         1 ARG         0.0301
     75 H33        38.5111   16.3122   40.4298 H         1 ARG         0.0689
     76 H34        37.5957   15.0667   39.5147 H         1 ARG         0.0689
     77 H35        36.0685   15.6934   41.8163 H         1 ARG         0.2642
     78 H36        39.2693   13.2674   42.5335 H         1 ARG         0.2615
     79 H37        39.2632   14.2791   41.0641 H         1 ARG         0.2615
     80 H38        36.1015   14.4058   43.6652 H         1 ARG         0.2615
     81 H39        37.4966   13.3442   43.9963 H         1 ARG         0.2615
     82 H40        33.8625   16.8281   36.4383 H         1 ILE         0.1883
     83 H41        30.9909   16.8975   36.5189 H         1 ILE         0.0802
     84 H42        32.9748   15.8542   34.4583 H         1 ILE         0.0345
     85 H43        32.3364   18.4069   35.1959 H         1 ILE         0.0267
     86 H44        31.0640   18.1039   33.9646 H         1 ILE         0.0267
     87 H45        30.8580   14.5658   34.2560 H         1 ILE         0.0235
     88 H46        31.0780   15.6985   32.8793 H         1 ILE         0.0235
     89 H47        29.9311   16.1035   34.2012 H         1 ILE         0.0235
     90 H48        33.0153   19.2101   32.9862 H         1 ILE         0.0230
     91 H49        32.7963   17.5613   32.3079 H         1 ILE         0.0230
     92 H50        34.0687   17.8643   33.5391 H         1 ILE         0.0230
     93 H51        29.7911   13.8665   37.2024 H         1 NH2         0.1815
     94 H52        29.5986   15.5318   36.7668 H         1 NH2         0.1815
@<TRIPOS>BOND
     1    1    2 2  
     2    1    3 1  
     3    1    4 am 
     4    4    5 1  
     5    5    6 1  
     6    6    7 2  
     7    6    8 am 
     8    8    9 1  
     9    9   10 1  
    10    9   12 1  
    11   10   11 2  
    12   10   15 am 
    13   12   13 1  
    14   12   14 1  
    15   15   16 1  
    16   16   17 1  
    17   16   19 1  
    18   17   18 2  
    19   17   23 am 
    20   19   20 1  
    21   20   21 1  
    22   21   22 1  
    23   23   24 1  
    24   24   25 1  
    25   24   27 1  
    26   25   26 2  
    27   25   34 am 
    28   27   28 1  
    29   28   29 1  
    30   29   30 1  
    31   30   31 ar 
    32   31   32 ar 
    33   31   33 ar 
    34   34   35 1  
    35   35   36 1  
    36   35   38 1  
    37   36   37 2  
    38   36   42 am 
    39   38   39 1  
    40   38   40 1  
    41   39   41 1  
    42    3   43 1  
    43    3   44 1  
    44    3   45 1  
    45    4   46 1  
    46    5   47 1  
    47    5   48 1  
    48    8   49 1  
    49    9   50 1  
    50   12   51 1  
    51   13   52 1  
    52   13   53 1  
    53   13   54 1  
    54   14   55 1  
    55   14   56 1  
    56   14   57 1  
    57   15   58 1  
    58   16   59 1  
    59   19   60 1  
    60   19   61 1  
    61   20   62 1  
    62   20   63 1  
    63   21   64 1  
    64   21   65 1  
    65   22   66 1  
    66   22   67 1  
    67   22   68 1  
    68   23   69 1  
    69   24   70 1  
    70   27   71 1  
    71   27   72 1  
    72   28   73 1  
    73   28   74 1  
    74   29   75 1  
    75   29   76 1  
    76   30   77 1  
    77   32   78 1  
    78   32   79 1  
    79   33   80 1  
    80   33   81 1  
    81   34   82 1  
    82   35   83 1  
    83   38   84 1  
    84   39   85 1  
    85   39   86 1  
    86   40   87 1  
    87   40   88 1  
    88   40   89 1  
    89   41   90 1  
    90   41   91 1  
    91   41   92 1  
    92   42   93 1  
    93   42   94 1  
@<TRIPOS>SUBSTRUCTURE
     1 ACE         1

