### 
### Created by X-TOOL on Mon Aug  2 16:11:42 2021
### 

@<TRIPOS>MOLECULE
6fzf_ligand
  216   217     1     0     0
SMALL
GAST_HUCK


@<TRIPOS>ATOM
      1 N         -41.2910   26.3980    2.4710 N.4       1 GLU         0.2380
      2 CA        -41.1290   25.1570    1.7180 C.3       1 GLU         0.0667
      3 C         -41.0530   25.3580    0.1950 C.2       1 GLU         0.2293
      4 O         -40.2750   24.6680   -0.4710 O.2       1 GLU        -0.3905
      5 CB        -42.2670   24.1920    2.0510 C.3       1 GLU         0.0194
      6 CG        -42.4860   24.0040    3.5380 C.3       1 GLU         0.0075
      7 CD        -43.2250   22.7200    3.8600 C.2       1 GLU         0.0351
      8 OE1       -42.8160   22.0210    4.8130 O.co2     1 GLU        -0.5690
      9 OE2       -44.2090   22.4070    3.1570 O.co2     1 GLU        -0.5690
     10 N         -41.8580   26.2720   -0.3550 N.am      1 GLU        -0.2471
     11 CA        -41.7930   26.5340   -1.8000 C.3       1 GLU         0.1339
     12 C         -40.3610   26.6740   -2.2860 C.2       1 GLU         0.2042
     13 O         -39.5780   27.4670   -1.7590 O.2       1 GLU        -0.3944
     14 CB        -42.5740   27.8400   -1.9530 C.3       1 GLU        -0.0104
     15 CG        -43.5970   27.7540   -0.8870 C.3       1 GLU        -0.0281
     16 CD        -42.9360   27.0480    0.2810 C.3       1 GLU         0.0371
     17 N         -40.0310   25.8940   -3.3110 N.am      1 GLU        -0.2616
     18 CA        -38.6700   25.8010   -3.8230 C.3       1 GLU         0.1539
     19 C         -38.1560   27.1540   -4.2940 C.2       1 GLU         0.2062
     20 O         -38.7510   27.7840   -5.1740 O.2       1 GLU        -0.3943
     21 CB        -38.6390   24.7940   -4.9740 C.3       1 GLU         0.0843
     22 OG        -37.3820   24.7860   -5.6250 O.3       1 GLU        -0.3903
     23 N         -37.0260   27.5890   -3.7360 N.am      1 GLU        -0.2636
     24 CA        -36.3720   28.7800   -4.2690 C.3       1 GLU         0.1312
     25 C         -35.7100   28.4910   -5.6050 C.2       1 GLU         0.2039
     26 O         -35.6000   29.3910   -6.4430 O.2       1 GLU        -0.3944
     27 CB        -35.3430   29.3220   -3.2760 C.3       1 GLU        -0.0101
     28 CG        -35.8840   29.7020   -1.8860 C.3       1 GLU        -0.0425
     29 CD1       -34.7900   30.2650   -0.9870 C.3       1 GLU        -0.0625
     30 CD2       -37.0030   30.7090   -2.0120 C.3       1 GLU        -0.0625
     31 N         -35.2510   27.2560   -5.8190 N.am      1 GLU        -0.2637
     32 CA        -34.6920   26.9050   -7.1200 C.3       1 GLU         0.1312
     33 C         -35.7550   26.9760   -8.2040 C.2       1 GLU         0.2039
     34 O         -35.4950   27.4570   -9.3140 O.2       1 GLU        -0.3944
     35 CB        -34.0830   25.5060   -7.0860 C.3       1 GLU        -0.0101
     36 CG        -32.7750   25.3390   -6.3250 C.3       1 GLU        -0.0425
     37 CD1       -32.3950   23.8620   -6.2800 C.3       1 GLU        -0.0625
     38 CD2       -31.7000   26.1540   -7.0080 C.3       1 GLU        -0.0625
     39 N         -36.9570   26.4870   -7.9100 N.am      1 GLU        -0.2637
     40 CA        -38.0350   26.6310   -8.8780 C.3       1 GLU         0.1310
     41 C         -38.2870   28.0980   -9.1830 C.2       1 GLU         0.2039
     42 O         -38.4410   28.4750  -10.3480 O.2       1 GLU        -0.3944
     43 CB        -39.3060   25.9510   -8.3720 C.3       1 GLU        -0.0122
     44 CG        -39.2400   24.4330   -8.4530 C.3       1 GLU        -0.0440
     45 CD        -40.6040   23.8040   -8.2540 C.3       1 GLU        -0.0124
     46 CE        -40.5110   22.2960   -8.3240 C.3       1 GLU        -0.0354
     47 NZ        -41.8530   21.6570   -8.2510 N.4       1 GLU         0.2185
     48 N         -38.3000   28.9500   -8.1520 N.am      1 GLU        -0.2637
     49 CA        -38.5200   30.3720   -8.3850 C.3       1 GLU         0.1310
     50 C         -37.4840   30.9310   -9.3460 C.2       1 GLU         0.2039
     51 O         -37.8160   31.6720  -10.2830 O.2       1 GLU        -0.3944
     52 CB        -38.4790   31.1320   -7.0630 C.3       1 GLU        -0.0122
     53 CG        -39.6540   30.8340   -6.1300 C.3       1 GLU        -0.0440
     54 CD        -39.4970   31.6470   -4.8430 C.3       1 GLU        -0.0124
     55 CE        -40.7990   31.7530   -4.0640 C.3       1 GLU        -0.0354
     56 NZ        -41.8760   32.3100   -4.9220 N.4       1 GLU         0.2185
     57 N         -36.2180   30.5820   -9.1310 N.am      1 GLU        -0.2637
     58 CA        -35.1560   31.0500  -10.0140 C.3       1 GLU         0.1312
     59 C         -35.2840   30.4580  -11.4090 C.2       1 GLU         0.2039
     60 O         -34.9380   31.1110  -12.4030 O.2       1 GLU        -0.3944
     61 CB        -33.8010   30.6890   -9.4220 C.3       1 GLU        -0.0101
     62 CG        -33.3840   31.4230   -8.1560 C.3       1 GLU        -0.0425
     63 CD1       -32.0950   30.7940   -7.6680 C.3       1 GLU        -0.0625
     64 CD2       -33.2030   32.9080   -8.4310 C.3       1 GLU        -0.0625
     65 N         -35.7290   29.2020  -11.5030 N.am      1 GLU        -0.2637
     66 CA        -35.8500   28.5700  -12.8090 C.3       1 GLU         0.1312
     67 C         -37.0390   29.1200  -13.5840 C.2       1 GLU         0.2039
     68 O         -36.9780   29.2310  -14.8120 O.2       1 GLU        -0.3944
     69 CB        -35.9740   27.0530  -12.6500 C.3       1 GLU        -0.0101
     70 CG        -34.6630   26.3340  -12.3520 C.3       1 GLU        -0.0425
     71 CD1       -34.9550   24.9280  -11.8570 C.3       1 GLU        -0.0625
     72 CD2       -33.7910   26.2950  -13.6230 C.3       1 GLU        -0.0625
     73 N         -38.1140   29.4830  -12.8910 N.am      1 GLU        -0.2637
     74 CA        -39.2820   30.0110  -13.5790 C.3       1 GLU         0.1312
     75 C         -39.1860   31.5010  -13.8550 C.2       1 GLU         0.2039
     76 O         -39.9840   32.0180  -14.6460 O.2       1 GLU        -0.3944
     77 CB        -40.5450   29.7250  -12.7750 C.3       1 GLU        -0.0101
     78 CG        -40.8070   28.2240  -12.6600 C.3       1 GLU        -0.0425
     79 CD1       -42.0830   27.9660  -11.8730 C.3       1 GLU        -0.0625
     80 CD2       -40.8640   27.5850  -14.0440 C.3       1 GLU        -0.0625
     81 N         -38.2400   32.1940  -13.2380 N.am      1 GLU        -0.2640
     82 CA        -38.1190   33.6210  -13.4790 C.3       1 GLU         0.1284
     83 C         -37.7770   33.8580  -14.9500 C.2       1 GLU         0.2061
     84 O         -36.9980   33.0980  -15.5370 O.2       1 GLU        -0.3942
     85 CB        -37.0510   34.2330  -12.5740 C.3       1 GLU        -0.0244
     86 N         -38.3560   34.8770  -15.5800 N.am      1 GLU        -0.2498
     87 CA        -38.1230   35.0990  -17.0130 C.3       1 GLU         0.1337
     88 C         -36.7360   35.6640  -17.2820 C.2       1 GLU         0.2035
     89 O         -36.0190   36.1120  -16.3830 O.2       1 GLU        -0.3944
     90 CB        -39.2120   36.1030  -17.4040 C.3       1 GLU        -0.0104
     91 CG        -40.1980   36.0830  -16.2690 C.3       1 GLU        -0.0281
     92 CD        -39.4040   35.7620  -15.0480 C.3       1 GLU         0.0369
     93 N         -36.3650   35.6320  -18.5610 N.am      1 GLU        -0.2697
     94 CA        -35.1010   36.1930  -19.0430 C.3       1 GLU         0.0916
     95 C         -33.8880   35.3810  -18.5780 C.2       1 GLU         0.0598
     96 O         -32.7440   35.7030  -18.9140 O.co2     1 GLU        -0.5666
     97 CB        -34.9670   37.6500  -18.6030 C.3       1 GLU        -0.0300
     98 OXT       -34.0140   34.3830  -17.8630 O.co2     1 GLU        -0.5666
     99 H1        -41.3329   26.1900    3.4564 H         1 GLU         0.2015
    100 H2        -42.1439   26.8543    2.1873 H         1 GLU         0.2015
    101 H3        -40.5080   27.0061    2.2890 H         1 GLU         0.2015
    102 H4        -40.1822   24.6980    2.0389 H         1 GLU         0.1099
    103 H5        -42.0340   23.2129    1.6072 H         1 GLU         0.0363
    104 H6        -43.1954   24.5832    1.6094 H         1 GLU         0.0363
    105 H7        -43.0730   24.8532    3.9179 H         1 GLU         0.0434
    106 H8        -41.5067   23.9820    4.0385 H         1 GLU         0.0434
    107 H9        -42.2813   25.7239   -2.3615 H         1 GLU         0.0802
    108 H10       -43.0440   27.9037   -2.9455 H         1 GLU         0.0313
    109 H11       -41.9191   28.7106   -1.8008 H         1 GLU         0.0313
    110 H12       -44.4656   27.1777   -1.2382 H         1 GLU         0.0287
    111 H13       -43.9218   28.7617   -0.5886 H         1 GLU         0.0287
    112 H14       -42.5274   27.7738    0.9994 H         1 GLU         0.0524
    113 H15       -43.6481   26.3851    0.7943 H         1 GLU         0.0524
    114 H16       -40.7462   25.3489   -3.7484 H         1 GLU         0.1884
    115 H17       -38.0141   25.4415   -3.0164 H         1 GLU         0.0823
    116 H18       -39.4173   25.0617   -5.7038 H         1 GLU         0.0606
    117 H19       -38.8407   23.7891   -4.5748 H         1 GLU         0.0606
    118 H20       -36.7051   24.5506   -5.0013 H         1 GLU         0.2097
    119 H21       -36.6292   27.1026   -2.9576 H         1 GLU         0.1883
    120 H22       -37.1406   29.5512   -4.4257 H         1 GLU         0.0800
    121 H23       -34.8893   30.2212   -3.7182 H         1 GLU         0.0315
    122 H24       -34.5702   28.5516   -3.1375 H         1 GLU         0.0315
    123 H25       -36.2837   28.7921   -1.4145 H         1 GLU         0.0298
    124 H26       -35.2175   30.5229   -0.0068 H         1 GLU         0.0232
    125 H27       -34.3633   31.1671   -1.4497 H         1 GLU         0.0232
    126 H28       -33.9995   29.5114   -0.8555 H         1 GLU         0.0232
    127 H29       -37.7918   30.3012   -2.6612 H         1 GLU         0.0232
    128 H30       -36.6118   31.6390   -2.4503 H         1 GLU         0.0232
    129 H31       -37.4202   30.9200   -1.0163 H         1 GLU         0.0232
    130 H32       -35.2902   26.5732   -5.0895 H         1 GLU         0.1883
    131 H33       -33.8978   27.6268   -7.3615 H         1 GLU         0.0800
    132 H34       -33.9032   25.1971   -8.1263 H         1 GLU         0.0315
    133 H35       -34.8223   24.8335   -6.6264 H         1 GLU         0.0315
    134 H36       -32.9035   25.7057   -5.2959 H         1 GLU         0.0298
    135 H37       -31.4499   23.7432   -5.7299 H         1 GLU         0.0232
    136 H38       -32.2724   23.4835   -7.3055 H         1 GLU         0.0232
    137 H39       -33.1887   23.2945   -5.7721 H         1 GLU         0.0232
    138 H40       -31.9987   27.2125   -7.0267 H         1 GLU         0.0232
    139 H41       -31.5650   25.7929   -8.0382 H         1 GLU         0.0232
    140 H42       -30.7543   26.0496   -6.4559 H         1 GLU         0.0232
    141 H43       -37.1177   26.0271   -7.0367 H         1 GLU         0.1883
    142 H44       -37.7288   26.1346   -9.8107 H         1 GLU         0.0800
    143 H45       -40.1549   26.2979   -8.9794 H         1 GLU         0.0312
    144 H46       -39.4640   26.2395   -7.3224 H         1 GLU         0.0312
    145 H47       -38.5591   24.0631   -7.6723 H         1 GLU         0.0269
    146 H48       -38.8549   24.1447   -9.4422 H         1 GLU         0.0269
    147 H49       -41.2848   24.1609   -9.0408 H         1 GLU         0.0317
    148 H50       -40.9966   24.0965   -7.2690 H         1 GLU         0.0317
    149 H51       -39.8994   21.9373   -7.4831 H         1 GLU         0.0813
    150 H52       -40.0324   22.0122   -9.2729 H         1 GLU         0.0813
    151 H53       -41.7513   20.6554   -8.3005 H         1 GLU         0.1994
    152 H54       -42.4193   21.9757   -9.0216 H         1 GLU         0.1994
    153 H55       -42.2974   21.9070   -7.3815 H         1 GLU         0.1994
    154 H56       -38.1588   28.6116   -7.2217 H         1 GLU         0.1883
    155 H57       -39.5161   30.5017   -8.8334 H         1 GLU         0.0800
    156 H58       -38.4796   32.2094   -7.2846 H         1 GLU         0.0312
    157 H59       -37.5482   30.8655   -6.5409 H         1 GLU         0.0312
    158 H60       -39.6677   29.7612   -5.8874 H         1 GLU         0.0269
    159 H61       -40.5962   31.1098   -6.6261 H         1 GLU         0.0269
    160 H62       -39.1576   32.6603   -5.1040 H         1 GLU         0.0317
    161 H63       -38.7431   31.1602   -4.2069 H         1 GLU         0.0317
    162 H64       -40.6492   32.4133   -3.1971 H         1 GLU         0.0813
    163 H65       -41.0949   30.7523   -3.7160 H         1 GLU         0.0813
    164 H66       -42.7301   32.3731   -4.3905 H         1 GLU         0.1994
    165 H67       -42.0186   31.7064   -5.7166 H         1 GLU         0.1994
    166 H68       -41.6102   33.2285   -5.2411 H         1 GLU         0.1994
    167 H69       -35.9924   29.9924   -8.3555 H         1 GLU         0.1883
    168 H70       -35.2274   32.1448  -10.0937 H         1 GLU         0.0800
    169 H71       -33.0390   30.8909  -10.1891 H         1 GLU         0.0315
    170 H72       -33.8146   29.6132   -9.1929 H         1 GLU         0.0315
    171 H73       -34.1622   31.2993   -7.3885 H         1 GLU         0.0298
    172 H74       -31.7634   31.3022   -6.7505 H         1 GLU         0.0232
    173 H75       -31.3212   30.8951   -8.4432 H         1 GLU         0.0232
    174 H76       -32.2645   29.7280   -7.4559 H         1 GLU         0.0232
    175 H77       -34.1540   33.3343   -8.7828 H         1 GLU         0.0232
    176 H78       -32.4314   33.0467   -9.2026 H         1 GLU         0.0232
    177 H79       -32.8928   33.4170   -7.5065 H         1 GLU         0.0232
    178 H80       -35.9788   28.6964  -10.6772 H         1 GLU         0.1883
    179 H81       -34.9365   28.7864  -13.3823 H         1 GLU         0.0800
    180 H82       -36.3848   26.6430  -13.5844 H         1 GLU         0.0315
    181 H83       -36.6710   26.8510  -11.8233 H         1 GLU         0.0315
    182 H84       -34.1223   26.8827  -11.5668 H         1 GLU         0.0298
    183 H85       -34.0082   24.4108  -11.6425 H         1 GLU         0.0232
    184 H86       -35.5081   24.3745  -12.6301 H         1 GLU         0.0232
    185 H87       -35.5601   24.9804  -10.9399 H         1 GLU         0.0232
    186 H88       -33.5924   27.3221  -13.9631 H         1 GLU         0.0232
    187 H89       -34.3199   25.7428  -14.4138 H         1 GLU         0.0232
    188 H90       -32.8385   25.7924  -13.3990 H         1 GLU         0.0232
    189 H91       -38.1197   29.3929  -11.8951 H         1 GLU         0.1883
    190 H92       -39.3619   29.4934  -14.5463 H         1 GLU         0.0800
    191 H93       -41.4021   30.2003  -13.2745 H         1 GLU         0.0315
    192 H94       -40.4292   30.1461  -11.7654 H         1 GLU         0.0315
    193 H95       -39.9699   27.7696  -12.1097 H         1 GLU         0.0298
    194 H96       -42.2560   26.8821  -11.8001 H         1 GLU         0.0232
    195 H97       -42.9328   28.4391  -12.3869 H         1 GLU         0.0232
    196 H98       -41.9830   28.3901  -10.8630 H         1 GLU         0.0232
    197 H99       -39.9272   27.7919  -14.5822 H         1 GLU         0.0232
    198 H100      -41.7107   28.0046  -14.6070 H         1 GLU         0.0232
    199 H101      -40.9951   26.4977  -13.9408 H         1 GLU         0.0232
    200 H102      -37.6118   31.7362  -12.6089 H         1 GLU         0.1883
    201 H103      -39.0833   34.1013  -13.2567 H         1 GLU         0.0797
    202 H104      -36.9763   35.3123  -12.7730 H         1 GLU         0.0277
    203 H105      -36.0812   33.7550  -12.7762 H         1 GLU         0.0277
    204 H106      -37.3265   34.0725  -11.5212 H         1 GLU         0.0277
    205 H107      -38.2422   34.1595  -17.5726 H         1 GLU         0.0802
    206 H108      -39.6985   35.7975  -18.3421 H         1 GLU         0.0313
    207 H109      -38.7833   37.1089  -17.5239 H         1 GLU         0.0313
    208 H110      -40.9647   35.3132  -16.4409 H         1 GLU         0.0287
    209 H111      -40.6817   37.0653  -16.1642 H         1 GLU         0.0287
    210 H112      -38.9709   36.6705  -14.6041 H         1 GLU         0.0524
    211 H113      -40.0193   35.2445  -14.2973 H         1 GLU         0.0524
    212 H114      -36.9793   35.2042  -19.2241 H         1 GLU         0.1875
    213 H115      -35.1200   36.1674  -20.1425 H         1 GLU         0.0723
    214 H116      -34.0143   38.0581  -18.9715 H         1 GLU         0.0270
    215 H117      -34.9890   37.7049  -17.5046 H         1 GLU         0.0270
    216 H118      -35.8012   38.2360  -19.0162 H         1 GLU         0.0270
@<TRIPOS>BOND
     1    1    2 1  
     2    2    3 1  
     3    2    5 1  
     4    3    4 2  
     5    3   10 am 
     6    5    6 1  
     7    6    7 1  
     8    7    8 ar 
     9    7    9 ar 
    10   10   11 1  
    11   10   16 1  
    12   11   12 1  
    13   11   14 1  
    14   12   13 2  
    15   12   17 am 
    16   14   15 1  
    17   15   16 1  
    18   17   18 1  
    19   18   19 1  
    20   18   21 1  
    21   19   20 2  
    22   19   23 am 
    23   21   22 1  
    24   23   24 1  
    25   24   25 1  
    26   24   27 1  
    27   25   26 2  
    28   25   31 am 
    29   27   28 1  
    30   28   29 1  
    31   28   30 1  
    32   31   32 1  
    33   32   33 1  
    34   32   35 1  
    35   33   34 2  
    36   33   39 am 
    37   35   36 1  
    38   36   37 1  
    39   36   38 1  
    40   39   40 1  
    41   40   41 1  
    42   40   43 1  
    43   41   42 2  
    44   41   48 am 
    45   43   44 1  
    46   44   45 1  
    47   45   46 1  
    48   46   47 1  
    49   48   49 1  
    50   49   50 1  
    51   49   52 1  
    52   50   51 2  
    53   50   57 am 
    54   52   53 1  
    55   53   54 1  
    56   54   55 1  
    57   55   56 1  
    58   57   58 1  
    59   58   59 1  
    60   58   61 1  
    61   59   60 2  
    62   59   65 am 
    63   61   62 1  
    64   62   63 1  
    65   62   64 1  
    66   65   66 1  
    67   66   67 1  
    68   66   69 1  
    69   67   68 2  
    70   67   73 am 
    71   69   70 1  
    72   70   71 1  
    73   70   72 1  
    74   73   74 1  
    75   74   75 1  
    76   74   77 1  
    77   75   76 2  
    78   75   81 am 
    79   77   78 1  
    80   78   79 1  
    81   78   80 1  
    82   81   82 1  
    83   82   83 1  
    84   82   85 1  
    85   83   84 2  
    86   83   86 am 
    87   86   87 1  
    88   86   92 1  
    89   87   88 1  
    90   87   90 1  
    91   88   89 2  
    92   88   93 am 
    93   90   91 1  
    94   91   92 1  
    95   93   94 1  
    96   94   95 1  
    97   94   97 1  
    98   95   96 ar 
    99   95   98 ar 
   100    1   99 1  
   101    1  100 1  
   102    1  101 1  
   103    2  102 1  
   104    5  103 1  
   105    5  104 1  
   106    6  105 1  
   107    6  106 1  
   108   11  107 1  
   109   14  108 1  
   110   14  109 1  
   111   15  110 1  
   112   15  111 1  
   113   16  112 1  
   114   16  113 1  
   115   17  114 1  
   116   18  115 1  
   117   21  116 1  
   118   21  117 1  
   119   22  118 1  
   120   23  119 1  
   121   24  120 1  
   122   27  121 1  
   123   27  122 1  
   124   28  123 1  
   125   29  124 1  
   126   29  125 1  
   127   29  126 1  
   128   30  127 1  
   129   30  128 1  
   130   30  129 1  
   131   31  130 1  
   132   32  131 1  
   133   35  132 1  
   134   35  133 1  
   135   36  134 1  
   136   37  135 1  
   137   37  136 1  
   138   37  137 1  
   139   38  138 1  
   140   38  139 1  
   141   38  140 1  
   142   39  141 1  
   143   40  142 1  
   144   43  143 1  
   145   43  144 1  
   146   44  145 1  
   147   44  146 1  
   148   45  147 1  
   149   45  148 1  
   150   46  149 1  
   151   46  150 1  
   152   47  151 1  
   153   47  152 1  
   154   47  153 1  
   155   48  154 1  
   156   49  155 1  
   157   52  156 1  
   158   52  157 1  
   159   53  158 1  
   160   53  159 1  
   161   54  160 1  
   162   54  161 1  
   163   55  162 1  
   164   55  163 1  
   165   56  164 1  
   166   56  165 1  
   167   56  166 1  
   168   57  167 1  
   169   58  168 1  
   170   61  169 1  
   171   61  170 1  
   172   62  171 1  
   173   63  172 1  
   174   63  173 1  
   175   63  174 1  
   176   64  175 1  
   177   64  176 1  
   178   64  177 1  
   179   65  178 1  
   180   66  179 1  
   181   69  180 1  
   182   69  181 1  
   183   70  182 1  
   184   71  183 1  
   185   71  184 1  
   186   71  185 1  
   187   72  186 1  
   188   72  187 1  
   189   72  188 1  
   190   73  189 1  
   191   74  190 1  
   192   77  191 1  
   193   77  192 1  
   194   78  193 1  
   195   79  194 1  
   196   79  195 1  
   197   79  196 1  
   198   80  197 1  
   199   80  198 1  
   200   80  199 1  
   201   81  200 1  
   202   82  201 1  
   203   85  202 1  
   204   85  203 1  
   205   85  204 1  
   206   87  205 1  
   207   90  206 1  
   208   90  207 1  
   209   91  208 1  
   210   91  209 1  
   211   92  210 1  
   212   92  211 1  
   213   93  212 1  
   214   94  213 1  
   215   97  214 1  
   216   97  215 1  
   217   97  216 1  
@<TRIPOS>SUBSTRUCTURE
     1 GLU         1

