6fzf_ligand
  -I-interpret- 

218219  0  0  0  0  0  0  0  0999 V2000
  -41.2910   26.3980    2.4710 N   0  3  0  0  0
  -41.1290   25.1570    1.7180 C   0  0  0  0  0
  -41.0530   25.3580    0.1950 C   0  0  0  0  0
  -40.2750   24.6680   -0.4710 O   0  0  0  0  0
  -42.2670   24.1920    2.0510 C   0  0  0  0  0
  -42.4860   24.0040    3.5380 C   0  0  0  0  0
  -43.2250   22.7200    3.8600 C   0  0  0  0  0
  -42.8160   22.0210    4.8130 O   0  0  0  0  0
  -44.2090   22.4070    3.1570 O   0  0  0  0  0
  -41.8580   26.2720   -0.3550 N   0  0  0  0  0
  -41.7930   26.5340   -1.8000 C   0  0  0  0  0
  -40.3610   26.6740   -2.2860 C   0  0  0  0  0
  -39.5780   27.4670   -1.7590 O   0  0  0  0  0
  -42.5740   27.8400   -1.9530 C   0  0  0  0  0
  -43.5970   27.7540   -0.8870 C   0  0  0  0  0
  -42.9360   27.0480    0.2810 C   0  0  0  0  0
  -40.0310   25.8940   -3.3110 N   0  0  0  0  0
  -38.6700   25.8010   -3.8230 C   0  0  0  0  0
  -38.1560   27.1540   -4.2940 C   0  0  0  0  0
  -38.7510   27.7840   -5.1740 O   0  0  0  0  0
  -38.6390   24.7940   -4.9740 C   0  0  0  0  0
  -37.3820   24.7860   -5.6250 O   0  0  0  0  0
  -37.0260   27.5890   -3.7360 N   0  0  0  0  0
  -36.3720   28.7800   -4.2690 C   0  0  0  0  0
  -35.7100   28.4910   -5.6050 C   0  0  0  0  0
  -35.6000   29.3910   -6.4430 O   0  0  0  0  0
  -35.3430   29.3220   -3.2760 C   0  0  0  0  0
  -35.8840   29.7020   -1.8860 C   0  0  0  0  0
  -34.7900   30.2650   -0.9870 C   0  0  0  0  0
  -37.0030   30.7090   -2.0120 C   0  0  0  0  0
  -35.2510   27.2560   -5.8190 N   0  0  0  0  0
  -34.6920   26.9050   -7.1200 C   0  0  0  0  0
  -35.7550   26.9760   -8.2040 C   0  0  0  0  0
  -35.4950   27.4570   -9.3140 O   0  0  0  0  0
  -34.0830   25.5060   -7.0860 C   0  0  0  0  0
  -32.7750   25.3390   -6.3250 C   0  0  0  0  0
  -32.3950   23.8620   -6.2800 C   0  0  0  0  0
  -31.7000   26.1540   -7.0080 C   0  0  0  0  0
  -36.9570   26.4870   -7.9100 N   0  0  0  0  0
  -38.0350   26.6310   -8.8780 C   0  0  0  0  0
  -38.2870   28.0980   -9.1830 C   0  0  0  0  0
  -38.4410   28.4750  -10.3480 O   0  0  0  0  0
  -39.3060   25.9510   -8.3720 C   0  0  0  0  0
  -39.2400   24.4330   -8.4530 C   0  0  0  0  0
  -40.6040   23.8040   -8.2540 C   0  0  0  0  0
  -40.5110   22.2960   -8.3240 C   0  0  0  0  0
  -41.8530   21.6570   -8.2510 N   0  3  0  0  0
  -38.3000   28.9500   -8.1520 N   0  0  0  0  0
  -38.5200   30.3720   -8.3850 C   0  0  0  0  0
  -37.4840   30.9310   -9.3460 C   0  0  0  0  0
  -37.8160   31.6720  -10.2830 O   0  0  0  0  0
  -38.4790   31.1320   -7.0630 C   0  0  0  0  0
  -39.6540   30.8340   -6.1300 C   0  0  0  0  0
  -39.4970   31.6470   -4.8430 C   0  0  0  0  0
  -40.7990   31.7530   -4.0640 C   0  0  0  0  0
  -41.8760   32.3100   -4.9220 N   0  3  0  0  0
  -36.2180   30.5820   -9.1310 N   0  0  0  0  0
  -35.1560   31.0500  -10.0140 C   0  0  0  0  0
  -35.2840   30.4580  -11.4090 C   0  0  0  0  0
  -34.9380   31.1110  -12.4030 O   0  0  0  0  0
  -33.8010   30.6890   -9.4220 C   0  0  0  0  0
  -33.3840   31.4230   -8.1560 C   0  0  0  0  0
  -32.0950   30.7940   -7.6680 C   0  0  0  0  0
  -33.2030   32.9080   -8.4310 C   0  0  0  0  0
  -35.7290   29.2020  -11.5030 N   0  0  0  0  0
  -35.8500   28.5700  -12.8090 C   0  0  0  0  0
  -37.0390   29.1200  -13.5840 C   0  0  0  0  0
  -36.9780   29.2310  -14.8120 O   0  0  0  0  0
  -35.9740   27.0530  -12.6500 C   0  0  0  0  0
  -34.6630   26.3340  -12.3520 C   0  0  0  0  0
  -34.9550   24.9280  -11.8570 C   0  0  0  0  0
  -33.7910   26.2950  -13.6230 C   0  0  0  0  0
  -38.1140   29.4830  -12.8910 N   0  0  0  0  0
  -39.2820   30.0110  -13.5790 C   0  0  0  0  0
  -39.1860   31.5010  -13.8550 C   0  0  0  0  0
  -39.9840   32.0180  -14.6460 O   0  0  0  0  0
  -40.5450   29.7250  -12.7750 C   0  0  0  0  0
  -40.8070   28.2240  -12.6600 C   0  0  0  0  0
  -42.0830   27.9660  -11.8730 C   0  0  0  0  0
  -40.8640   27.5850  -14.0440 C   0  0  0  0  0
  -38.2400   32.1940  -13.2380 N   0  0  0  0  0
  -38.1190   33.6210  -13.4790 C   0  0  0  0  0
  -37.7770   33.8580  -14.9500 C   0  0  0  0  0
  -36.9980   33.0980  -15.5370 O   0  0  0  0  0
  -37.0510   34.2330  -12.5740 C   0  0  0  0  0
  -38.3560   34.8770  -15.5800 N   0  0  0  0  0
  -38.1230   35.0990  -17.0130 C   0  0  0  0  0
  -36.7360   35.6640  -17.2820 C   0  0  0  0  0
  -36.0190   36.1120  -16.3830 O   0  0  0  0  0
  -39.2120   36.1030  -17.4040 C   0  0  0  0  0
  -40.1980   36.0830  -16.2690 C   0  0  0  0  0
  -39.4040   35.7620  -15.0480 C   0  0  0  0  0
  -36.3650   35.6320  -18.5610 N   0  0  0  0  0
  -35.1010   36.1930  -19.0430 C   0  0  0  0  0
  -33.8880   35.3810  -18.5780 C   0  0  0  0  0
  -32.7440   35.7030  -18.9140 O   0  0  0  0  0
  -34.9670   37.6500  -18.6030 C   0  0  0  0  0
  -34.0140   34.3830  -17.8630 O   0  0  0  0  0
  -40.5278   27.0350    2.2425 H   0  0  0  0  0
  -42.1815   26.8301    2.2245 H   0  0  0  0  0
  -41.2764   26.1925    3.4700 H   0  0  0  0  0
  -40.1690   24.7411    2.0239 H   0  0  0  0  0
  -42.0043   23.2200    1.6336 H   0  0  0  0  0
  -43.1835   24.6113    1.6358 H   0  0  0  0  0
  -43.0898   24.8377    3.8964 H   0  0  0  0  0
  -41.5085   23.9581    4.0181 H   0  0  0  0  0
  -42.0533   22.4439    5.2143 H   0  0  0  0  0
  -42.2044   25.7199   -2.3968 H   0  0  0  0  0
  -43.0112   27.9529   -2.9451 H   0  0  0  0  0
  -41.9400   28.7212   -1.8551 H   0  0  0  0  0
  -44.4753   27.2070   -1.2297 H   0  0  0  0  0
  -43.9472   28.7451   -0.5988 H   0  0  0  0  0
  -42.5637   27.7428    1.0338 H   0  0  0  0  0
  -43.6311   26.4201    0.8384 H   0  0  0  0  0
  -40.7605   25.3380   -3.7572 H   0  0  0  0  0
  -38.0165   25.4670   -3.0170 H   0  0  0  0  0
  -39.4012   25.0769   -5.7000 H   0  0  0  0  0
  -38.8226   23.7997   -4.5669 H   0  0  0  0  0
  -37.3971   24.1452   -6.3397 H   0  0  0  0  0
  -36.6213   27.0928   -2.9420 H   0  0  0  0  0
  -37.1398   29.5376   -4.4257 H   0  0  0  0  0
  -34.9489   30.2395   -3.7130 H   0  0  0  0  0
  -34.6206   28.5217   -3.1156 H   0  0  0  0  0
  -36.2642   28.7892   -1.4274 H   0  0  0  0  0
  -34.0074   29.5174   -0.8575 H   0  0  0  0  0
  -34.3680   31.1588   -1.4466 H   0  0  0  0  0
  -35.2148   30.5201   -0.0161 H   0  0  0  0  0
  -36.6288   31.6063   -2.5048 H   0  0  0  0  0
  -37.8121   30.2792   -2.6026 H   0  0  0  0  0
  -37.3727   30.9655   -1.0192 H   0  0  0  0  0
  -35.2910   26.5595   -5.0749 H   0  0  0  0  0
  -33.9082   27.6266   -7.3503 H   0  0  0  0  0
  -33.8582   25.2544   -8.1224 H   0  0  0  0  0
  -34.8094   24.8780   -6.5701 H   0  0  0  0  0
  -32.8871   25.6938   -5.3005 H   0  0  0  0  0
  -33.1822   23.3008   -5.7766 H   0  0  0  0  0
  -32.2739   23.4882   -7.2967 H   0  0  0  0  0
  -31.4584   23.7456   -5.7347 H   0  0  0  0  0
  -31.5767   25.8041   -8.0329 H   0  0  0  0  0
  -31.9908   27.2045   -7.0138 H   0  0  0  0  0
  -30.7603   26.0388   -6.4679 H   0  0  0  0  0
  -37.1209   26.0180   -7.0192 H   0  0  0  0  0
  -37.7353   26.1403   -9.8040 H   0  0  0  0  0
  -40.1326   26.2817   -9.0008 H   0  0  0  0  0
  -39.4335   26.2226   -7.3241 H   0  0  0  0  0
  -38.5773   24.0746   -7.6653 H   0  0  0  0  0
  -38.8742   24.1565   -9.4419 H   0  0  0  0  0
  -41.2720   24.1533   -9.0413 H   0  0  0  0  0
  -40.9843   24.0890   -7.2731 H   0  0  0  0  0
  -39.9192   21.9490   -7.4770 H   0  0  0  0  0
  -40.0528   22.0242   -9.2750 H   0  0  0  0  0
  -41.7489   20.6436   -8.3011 H   0  0  0  0  0
  -42.3017   21.9108   -7.3708 H   0  0  0  0  0
  -42.4250   21.9802   -9.0312 H   0  0  0  0  0
  -38.1560   28.6048   -7.2031 H   0  0  0  0  0
  -39.5042   30.4973   -8.8363 H   0  0  0  0  0
  -38.5204   32.1946   -7.3021 H   0  0  0  0  0
  -37.5710   30.8248   -6.5441 H   0  0  0  0  0
  -39.6689   29.7708   -5.8903 H   0  0  0  0  0
  -40.5881   31.1058   -6.6215 H   0  0  0  0  0
  -39.1835   32.6546   -5.1159 H   0  0  0  0  0
  -38.7656   31.1425   -4.2117 H   0  0  0  0  0
  -40.6481   32.4150   -3.2113 H   0  0  0  0  0
  -41.0926   30.7583   -3.7288 H   0  0  0  0  0
  -42.7397   32.3734   -4.3832 H   0  0  0  0  0
  -41.6059   33.2393   -5.2443 H   0  0  0  0  0
  -42.0193   31.6984   -5.7256 H   0  0  0  0  0
  -35.9879   29.9806   -8.3400 H   0  0  0  0  0
  -35.2449   32.1328  -10.1022 H   0  0  0  0  0
  -33.0640   30.9577  -10.1788 H   0  0  0  0  0
  -33.8664   29.6360   -9.1482 H   0  0  0  0  0
  -34.1551   31.3357   -7.3905 H   0  0  0  0  0
  -32.2643   29.7379   -7.4582 H   0  0  0  0  0
  -31.3291   30.8948   -8.4370 H   0  0  0  0  0
  -31.7675   31.2984   -6.7589 H   0  0  0  0  0
  -32.4314   33.0445   -9.1887 H   0  0  0  0  0
  -34.1434   33.3272   -8.7887 H   0  0  0  0  0
  -32.9049   33.4127   -7.5120 H   0  0  0  0  0
  -35.9838   28.6863  -10.6607 H   0  0  0  0  0
  -34.9484   28.7967  -13.3781 H   0  0  0  0  0
  -36.3405   26.6635  -13.5998 H   0  0  0  0  0
  -36.6331   26.8760  -11.8000 H   0  0  0  0  0
  -34.1183   26.8706  -11.5752 H   0  0  0  0  0
  -35.5546   24.9813  -10.9483 H   0  0  0  0  0
  -35.5031   24.3807  -12.6239 H   0  0  0  0  0
  -34.0161   24.4166  -11.6448 H   0  0  0  0  0
  -34.3240   25.7638  -14.4116 H   0  0  0  0  0
  -33.5793   27.3136  -13.9482 H   0  0  0  0  0
  -32.8554   25.7802  -13.4045 H   0  0  0  0  0
  -38.1198   29.3911  -11.8752 H   0  0  0  0  0
  -39.3262   29.5039  -14.5428 H   0  0  0  0  0
  -41.3910   30.1853  -13.2853 H   0  0  0  0  0
  -40.4152   30.1309  -11.7718 H   0  0  0  0  0
  -39.9826   27.7633  -12.1158 H   0  0  0  0  0
  -41.9826   28.3867  -10.8725 H   0  0  0  0  0
  -42.9242   28.4353  -12.3832 H   0  0  0  0  0
  -42.2533   26.8918  -11.8014 H   0  0  0  0  0
  -41.6675   28.0425  -14.6212 H   0  0  0  0  0
  -39.9137   27.7415  -14.5544 H   0  0  0  0  0
  -41.0513   26.5161  -13.9418 H   0  0  0  0  0
  -37.5993   31.7270  -12.5963 H   0  0  0  0  0
  -39.0685   34.1040  -13.2483 H   0  0  0  0  0
  -37.3252   34.0733  -11.5312 H   0  0  0  0  0
  -36.0906   33.7585  -12.7753 H   0  0  0  0  0
  -36.9780   35.3024  -12.7721 H   0  0  0  0  0
  -38.1674   34.1738  -17.5875 H   0  0  0  0  0
  -39.6837   35.8346  -18.3493 H   0  0  0  0  0
  -38.8004   37.1002  -17.5597 H   0  0  0  0  0
  -40.9824   35.3452  -16.4377 H   0  0  0  0  0
  -40.7086   37.0409  -16.1699 H   0  0  0  0  0
  -39.0067   36.6463  -14.5497 H   0  0  0  0  0
  -39.9974   35.2988  -14.2597 H   0  0  0  0  0
  -36.9916   35.1957  -19.2373 H   0  0  0  0  0
  -35.1204   36.1451  -20.1318 H   0  0  0  0  0
  -32.7825   36.4889  -19.4639 H   0  0  0  0  0
  -35.7941   38.2296  -19.0130 H   0  0  0  0  0
  -34.9890   37.7030  -17.5145 H   0  0  0  0  0
  -34.0227   38.0532  -18.9687 H   0  0  0  0  0
  1  2  1  0  0  0
  2  3  1  0  0  0
  2  5  1  0  0  0
  3  4  2  0  0  0
  3 10  1  0  0  0
  5  6  1  0  0  0
  6  7  1  0  0  0
  7  8  1  0  0  0
  7  9  2  0  0  0
 10 11  1  0  0  0
 10 16  1  0  0  0
 11 12  1  0  0  0
 11 14  1  0  0  0
 12 13  2  0  0  0
 12 17  1  0  0  0
 14 15  1  0  0  0
 15 16  1  0  0  0
 17 18  1  0  0  0
 18 19  1  0  0  0
 18 21  1  0  0  0
 19 20  2  0  0  0
 19 23  1  0  0  0
 21 22  1  0  0  0
 23 24  1  0  0  0
 24 25  1  0  0  0
 24 27  1  0  0  0
 25 26  2  0  0  0
 25 31  1  0  0  0
 27 28  1  0  0  0
 28 29  1  0  0  0
 28 30  1  0  0  0
 31 32  1  0  0  0
 32 33  1  0  0  0
 32 35  1  0  0  0
 33 34  2  0  0  0
 33 39  1  0  0  0
 35 36  1  0  0  0
 36 37  1  0  0  0
 36 38  1  0  0  0
 39 40  1  0  0  0
 40 41  1  0  0  0
 40 43  1  0  0  0
 41 42  2  0  0  0
 41 48  1  0  0  0
 43 44  1  0  0  0
 44 45  1  0  0  0
 45 46  1  0  0  0
 46 47  1  0  0  0
 48 49  1  0  0  0
 49 50  1  0  0  0
 49 52  1  0  0  0
 50 51  2  0  0  0
 50 57  1  0  0  0
 52 53  1  0  0  0
 53 54  1  0  0  0
 54 55  1  0  0  0
 55 56  1  0  0  0
 57 58  1  0  0  0
 58 59  1  0  0  0
 58 61  1  0  0  0
 59 60  2  0  0  0
 59 65  1  0  0  0
 61 62  1  0  0  0
 62 63  1  0  0  0
 62 64  1  0  0  0
 65 66  1  0  0  0
 66 67  1  0  0  0
 66 69  1  0  0  0
 67 68  2  0  0  0
 67 73  1  0  0  0
 69 70  1  0  0  0
 70 71  1  0  0  0
 70 72  1  0  0  0
 73 74  1  0  0  0
 74 75  1  0  0  0
 74 77  1  0  0  0
 75 76  2  0  0  0
 75 81  1  0  0  0
 77 78  1  0  0  0
 78 79  1  0  0  0
 78 80  1  0  0  0
 81 82  1  0  0  0
 82 83  1  0  0  0
 82 85  1  0  0  0
 83 84  2  0  0  0
 83 86  1  0  0  0
 86 87  1  0  0  0
 86 92  1  0  0  0
 87 88  1  0  0  0
 87 90  1  0  0  0
 88 89  2  0  0  0
 88 93  1  0  0  0
 90 91  1  0  0  0
 91 92  1  0  0  0
 93 94  1  0  0  0
 94 95  1  0  0  0
 94 97  1  0  0  0
 95 96  1  0  0  0
 95 98  2  0  0  0
  1 99  1  0  0  0
  1100  1  0  0  0
  1101  1  0  0  0
  2102  1  0  0  0
  5103  1  0  0  0
  5104  1  0  0  0
  6105  1  0  0  0
  6106  1  0  0  0
  8107  1  0  0  0
 11108  1  0  0  0
 14109  1  0  0  0
 14110  1  0  0  0
 15111  1  0  0  0
 15112  1  0  0  0
 16113  1  0  0  0
 16114  1  0  0  0
 17115  1  0  0  0
 18116  1  0  0  0
 21117  1  0  0  0
 21118  1  0  0  0
 22119  1  0  0  0
 23120  1  0  0  0
 24121  1  0  0  0
 27122  1  0  0  0
 27123  1  0  0  0
 28124  1  0  0  0
 29125  1  0  0  0
 29126  1  0  0  0
 29127  1  0  0  0
 30128  1  0  0  0
 30129  1  0  0  0
 30130  1  0  0  0
 31131  1  0  0  0
 32132  1  0  0  0
 35133  1  0  0  0
 35134  1  0  0  0
 36135  1  0  0  0
 37136  1  0  0  0
 37137  1  0  0  0
 37138  1  0  0  0
 38139  1  0  0  0
 38140  1  0  0  0
 38141  1  0  0  0
 39142  1  0  0  0
 40143  1  0  0  0
 43144  1  0  0  0
 43145  1  0  0  0
 44146  1  0  0  0
 44147  1  0  0  0
 45148  1  0  0  0
 45149  1  0  0  0
 46150  1  0  0  0
 46151  1  0  0  0
 47152  1  0  0  0
 47153  1  0  0  0
 47154  1  0  0  0
 48155  1  0  0  0
 49156  1  0  0  0
 52157  1  0  0  0
 52158  1  0  0  0
 53159  1  0  0  0
 53160  1  0  0  0
 54161  1  0  0  0
 54162  1  0  0  0
 55163  1  0  0  0
 55164  1  0  0  0
 56165  1  0  0  0
 56166  1  0  0  0
 56167  1  0  0  0
 57168  1  0  0  0
 58169  1  0  0  0
 61170  1  0  0  0
 61171  1  0  0  0
 62172  1  0  0  0
 63173  1  0  0  0
 63174  1  0  0  0
 63175  1  0  0  0
 64176  1  0  0  0
 64177  1  0  0  0
 64178  1  0  0  0
 65179  1  0  0  0
 66180  1  0  0  0
 69181  1  0  0  0
 69182  1  0  0  0
 70183  1  0  0  0
 71184  1  0  0  0
 71185  1  0  0  0
 71186  1  0  0  0
 72187  1  0  0  0
 72188  1  0  0  0
 72189  1  0  0  0
 73190  1  0  0  0
 74191  1  0  0  0
 77192  1  0  0  0
 77193  1  0  0  0
 78194  1  0  0  0
 79195  1  0  0  0
 79196  1  0  0  0
 79197  1  0  0  0
 80198  1  0  0  0
 80199  1  0  0  0
 80200  1  0  0  0
 81201  1  0  0  0
 82202  1  0  0  0
 85203  1  0  0  0
 85204  1  0  0  0
 85205  1  0  0  0
 87206  1  0  0  0
 90207  1  0  0  0
 90208  1  0  0  0
 91209  1  0  0  0
 91210  1  0  0  0
 92211  1  0  0  0
 92212  1  0  0  0
 93213  1  0  0  0
 94214  1  0  0  0
 96215  1  0  0  0
 97216  1  0  0  0
 97217  1  0  0  0
 97218  1  0  0  0
M  END
$$$$
