5xmr_ligand
  -I-interpret- 

 68 72  0  0  0  0  0  0  0  0999 V2000
   29.9600   35.8240   97.0790 C   0  0  0  0  0
   30.2900   34.5940   97.5450 C   0  0  0  0  0
   30.1330   33.3330   96.6990 C   0  0  0  0  0
   29.8330   33.6730   95.2600 C   0  0  0  0  0
   29.5070   35.0260   94.8010 C   0  0  0  0  0
   30.7250   34.4330   98.7460 C   0  0  0  0  0
   29.7660   32.9040   93.9720 C   0  0  0  0  0
   30.0190   31.4440   93.6780 C   0  0  0  0  0
   28.9240   32.5520   97.2740 C   0  0  0  0  0
   28.8870   31.1050   96.7970 C   0  0  0  0  0
   31.4500   32.5500   96.8040 C   0  0  0  0  0
   31.7060   31.7660   97.9470 C   0  0  0  0  0
   32.8800   31.0400   98.0750 C   0  0  0  0  0
   33.8350   31.0940   97.0790 C   0  0  0  0  0
   33.6250   31.8510   95.9350 C   0  0  0  0  0
   32.4430   32.5770   95.7940 C   0  0  0  0  0
   39.0010   32.4420   92.2330 O   0  0  0  0  0
   37.8360   31.7010   91.8270 S   0  0  0  0  0
   37.3430   32.2730   90.6300 O   0  0  0  0  0
   38.1880   30.1450   91.3260 C   0  0  0  0  0
   38.6780   29.1730   92.3890 C   0  0  0  0  0
   39.4530   29.5600   93.5030 C   0  0  0  0  0
   39.8660   28.6130   94.4450 C   0  0  0  0  0
   39.5190   27.2700   94.2810 C   0  0  0  0  0
   38.7530   26.8720   93.1790 C   0  0  0  0  0
   38.3350   27.8190   92.2360 C   0  0  0  0  0
   36.6900   31.7650   92.9420 C   0  0  0  0  0
   35.3390   31.7000   92.5820 C   0  0  0  0  0
   34.3400   31.7200   93.5500 C   0  0  0  0  0
   37.0300   31.8740   94.2910 C   0  0  0  0  0
   36.0310   31.9060   95.2490 C   0  0  0  0  0
   34.6810   31.8420   94.8880 C   0  0  0  0  0
   33.1320   30.2290   99.3140 C   0  0  0  0  0
   32.0400   29.9820  100.0260 F   0  0  0  0  0
   33.9320   30.9830  100.0340 F   0  0  0  0  0
   33.7360   29.0960   98.9840 F   0  0  0  0  0
   27.5460   33.2070   97.0710 C   0  0  0  0  0
   31.1260   34.2970   99.8290 N   0  0  0  0  0
   30.0820   36.9360   97.8240 N   0  0  0  0  0
   29.4440   33.8050   93.0180 N   0  0  0  0  0
   29.2710   35.1270   93.4740 N   0  0  0  0  0
   29.4530   36.0350   95.7230 O   0  0  0  0  0
   31.0433   31.1916   93.9523 H   0  0  0  0  0
   29.3257   30.8329   94.2559 H   0  0  0  0  0
   29.8699   31.2577   92.6144 H   0  0  0  0  0
   29.1077   32.5783   98.3481 H   0  0  0  0  0
   28.1394   30.5545   97.3681 H   0  0  0  0  0
   28.6289   31.0793   95.7383 H   0  0  0  0  0
   29.8664   30.6499   96.9447 H   0  0  0  0  0
   30.9659   31.7298   98.7464 H   0  0  0  0  0
   34.7643   30.5357   97.1927 H   0  0  0  0  0
   32.2810   33.1726   94.8956 H   0  0  0  0  0
   39.0042   30.2398   90.6098 H   0  0  0  0  0
   37.2502   29.7322   90.9541 H   0  0  0  0  0
   39.7320   30.6060   93.6301 H   0  0  0  0  0
   40.4580   28.9224   95.3063 H   0  0  0  0  0
   39.8452   26.5306   95.0124 H   0  0  0  0  0
   38.4816   25.8237   93.0548 H   0  0  0  0  0
   37.7403   27.5041   91.3785 H   0  0  0  0  0
   35.0659   31.6328   91.5289 H   0  0  0  0  0
   33.2931   31.6400   93.2574 H   0  0  0  0  0
   38.0768   31.9336   94.5890 H   0  0  0  0  0
   36.3009   31.9823   96.3023 H   0  0  0  0  0
   27.2864   33.1836   96.0126 H   0  0  0  0  0
   26.7969   32.6589   97.6424 H   0  0  0  0  0
   27.5823   34.2407   97.4147 H   0  0  0  0  0
   30.4344   36.8738   98.7792 H   0  0  0  0  0
   29.8222   37.8421   97.4342 H   0  0  0  0  0
  2  1  2  0  0  0
  1 39  1  0  0  0
  1 42  1  0  0  0
  3  2  1  0  0  0
  2  6  1  0  0  0
  3  4  1  0  0  0
  3  9  1  0  0  0
 11  3  1  0  0  0
  4  5  4  0  0  0
  4  7  4  0  0  0
  5 41  4  0  0  0
  5 42  1  0  0  0
  6 38  3  0  0  0
  7  8  1  0  0  0
  7 40  4  0  0  0
  9 10  1  0  0  0
  9 37  1  0  0  0
 11 12  4  0  0  0
 16 11  4  0  0  0
 13 12  4  0  0  0
 14 13  4  0  0  0
 13 33  1  0  0  0
 15 14  4  0  0  0
 15 16  4  0  0  0
 32 15  1  0  0  0
 18 17  2  0  0  0
 18 19  2  0  0  0
 18 20  1  0  0  0
 27 18  1  0  0  0
 20 21  1  0  0  0
 21 22  4  0  0  0
 21 26  4  0  0  0
 22 23  4  0  0  0
 23 24  4  0  0  0
 25 24  4  0  0  0
 26 25  4  0  0  0
 28 27  4  0  0  0
 27 30  4  0  0  0
 29 28  4  0  0  0
 29 32  4  0  0  0
 30 31  4  0  0  0
 31 32  4  0  0  0
 33 34  1  0  0  0
 33 35  1  0  0  0
 33 36  1  0  0  0
 40 41  4  0  0  0
  8 43  1  0  0  0
  8 44  1  0  0  0
  8 45  1  0  0  0
  9 46  1  0  0  0
 10 47  1  0  0  0
 10 48  1  0  0  0
 10 49  1  0  0  0
 12 50  1  0  0  0
 14 51  1  0  0  0
 16 52  1  0  0  0
 20 53  1  0  0  0
 20 54  1  0  0  0
 22 55  1  0  0  0
 23 56  1  0  0  0
 24 57  1  0  0  0
 25 58  1  0  0  0
 26 59  1  0  0  0
 28 60  1  0  0  0
 29 61  1  0  0  0
 30 62  1  0  0  0
 31 63  1  0  0  0
 37 64  1  0  0  0
 37 65  1  0  0  0
 37 66  1  0  0  0
 39 67  1  0  0  0
 39 68  1  0  0  0
M  END
$$$$
