5i8p_ligand
  -I-interpret- 

 57 60  0  0  0  0  0  0  0  0999 V2000
  121.8610   31.3010   24.8030 O   0  0  0  0  0
  123.1040   31.1910   24.9040 C   0  0  0  0  0
  123.6470   30.0210   24.5670 N   0  0  0  0  0
  122.6060   29.0610   24.1540 C   0  0  0  0  0
  123.8330   32.2350   25.3340 N   0  0  0  0  0
  125.1660   32.1180   25.4330 C   0  0  0  0  0
  125.7710   30.9030   25.1000 C   0  0  0  0  0
  125.0020   29.8150   24.6520 C   0  0  0  0  0
  125.7020   28.6100   24.3200 N   0  0  0  0  0
  126.9980   28.3630   24.9620 C   0  0  0  0  0
  127.1970   26.8440   25.0910 C   0  0  0  0  0
  127.2320   26.0660   23.6120 S   0  0  0  0  0
  126.7380   24.7180   23.7110 O   0  0  0  0  0
  128.5640   26.0500   23.0890 O   0  0  0  0  0
  126.2880   26.9260   22.5680 C   0  0  0  0  0
  125.1890   27.6120   23.3640 C   0  0  0  0  0
  125.8590   33.2170   25.8800 O   0  0  0  0  0
  125.1460   34.3440   26.4330 C   0  0  0  0  0
  126.0270   34.9850   27.4860 C   0  0  0  0  0
  126.4930   36.2890   27.3150 C   0  0  0  0  0
  127.3130   36.8730   28.2790 C   0  0  0  0  0
  127.7700   38.1270   28.1040 F   0  0  0  0  0
  127.6630   36.1660   29.4210 C   0  0  0  0  0
  127.2070   34.8680   29.5920 C   0  0  0  0  0
  127.5900   34.2190   30.7190 F   0  0  0  0  0
  126.3920   34.2730   28.6260 C   0  0  0  0  0
  128.4970   36.7060   30.3810 O   0  0  0  0  0
  129.7910   36.1970   30.4280 C   0  0  0  0  0
  130.6890   36.5480   31.4350 C   0  0  0  0  0
  131.9810   36.0190   31.4450 C   0  0  0  0  0
  132.9580   36.4020   32.5330 C   0  0  0  0  0
  133.8890   35.4690   32.6640 F   0  0  0  0  0
  133.5650   37.5400   32.2460 F   0  0  0  0  0
  132.2990   36.5380   33.6710 F   0  0  0  0  0
  132.3720   35.1280   30.4560 C   0  0  0  0  0
  134.0340   34.4440   30.4710 Cl  0  0  0  0  0
  131.4850   34.7620   29.4470 C   0  0  0  0  0
  130.2110   35.3060   29.4360 C   0  0  0  0  0
  122.8037   28.7287   23.1349 H   0  0  0  0  0
  122.6177   28.2029   24.8260 H   0  0  0  0  0
  121.6300   29.5445   24.1970 H   0  0  0  0  0
  126.8523   30.7978   25.1888 H   0  0  0  0  0
  127.0187   28.8260   25.9485 H   0  0  0  0  0
  127.7990   28.7934   24.3609 H   0  0  0  0  0
  126.3561   26.4446   25.6579 H   0  0  0  0  0
  128.1562   26.6738   25.5800 H   0  0  0  0  0
  125.8489   26.2579   21.8270 H   0  0  0  0  0
  126.8911   27.6706   22.0484 H   0  0  0  0  0
  124.5442   28.1331   22.6563 H   0  0  0  0  0
  124.6666   26.8448   23.9355 H   0  0  0  0  0
  124.2071   34.0140   26.8777 H   0  0  0  0  0
  124.9128   35.0637   25.6483 H   0  0  0  0  0
  126.2149   36.8529   26.4246 H   0  0  0  0  0
  126.0413   33.2503   28.7646 H   0  0  0  0  0
  130.3806   37.2395   32.2191 H   0  0  0  0  0
  131.7895   34.0556   28.6747 H   0  0  0  0  0
  129.5215   35.0336   28.6370 H   0  0  0  0  0
  1  2  2  0  0  0
  2  3  1  0  0  0
  2  5  1  0  0  0
  3  4  1  0  0  0
  3  8  1  0  0  0
  5  6  2  0  0  0
  6  7  1  0  0  0
  6 17  1  0  0  0
  7  8  2  0  0  0
  8  9  1  0  0  0
  9 10  1  0  0  0
  9 16  1  0  0  0
 10 11  1  0  0  0
 11 12  1  0  0  0
 12 13  2  0  0  0
 12 14  2  0  0  0
 12 15  1  0  0  0
 15 16  1  0  0  0
 17 18  1  0  0  0
 18 19  1  0  0  0
 19 20  4  0  0  0
 19 26  4  0  0  0
 20 21  4  0  0  0
 21 22  1  0  0  0
 21 23  4  0  0  0
 23 24  4  0  0  0
 23 27  1  0  0  0
 24 25  1  0  0  0
 24 26  4  0  0  0
 27 28  1  0  0  0
 28 29  4  0  0  0
 28 38  4  0  0  0
 29 30  4  0  0  0
 30 31  1  0  0  0
 30 35  4  0  0  0
 31 32  1  0  0  0
 31 33  1  0  0  0
 31 34  1  0  0  0
 35 36  1  0  0  0
 35 37  4  0  0  0
 37 38  4  0  0  0
  4 39  1  0  0  0
  4 40  1  0  0  0
  4 41  1  0  0  0
  7 42  1  0  0  0
 10 43  1  0  0  0
 10 44  1  0  0  0
 11 45  1  0  0  0
 11 46  1  0  0  0
 15 47  1  0  0  0
 15 48  1  0  0  0
 16 49  1  0  0  0
 16 50  1  0  0  0
 18 51  1  0  0  0
 18 52  1  0  0  0
 20 53  1  0  0  0
 26 54  1  0  0  0
 29 55  1  0  0  0
 37 56  1  0  0  0
 38 57  1  0  0  0
M  END
$$$$
