6i7a_ligand
  -I-interpret- 

 93 93  0  0  0  0  0  0  0  0999 V2000
  -15.4950   -8.3350    2.2960 N   0  3  0  0  0
  -14.9010   -8.6250    3.5950 C   0  0  0  0  0
  -14.5170   -7.3380    4.3170 C   0  0  0  0  0
  -14.5460   -6.2530    3.7340 O   0  0  0  0  0
  -13.6750   -9.5280    3.4370 C   0  0  0  0  0
  -14.1620   -7.4650    5.5910 N   0  0  0  0  0
  -13.7330   -6.3160    6.3710 C   0  0  0  0  0
  -12.2740   -5.9880    6.0800 C   0  0  0  0  0
  -11.4790   -6.8570    5.7090 O   0  0  0  0  0
  -13.9230   -6.5790    7.8650 C   0  0  0  0  0
  -11.9250   -4.7150    6.2510 N   0  0  0  0  0
  -10.5760   -4.2370    5.9960 C   0  0  0  0  0
  -10.0490   -3.5060    7.2230 C   0  0  0  0  0
  -10.7970   -3.1540    8.1390 O   0  0  0  0  0
  -10.5300   -3.3150    4.7700 C   0  0  0  0  0
  -11.2360   -1.9940    5.0080 C   0  0  0  0  0
  -12.4810   -1.9600    4.9270 O   0  0  0  0  0
  -10.5450   -0.9900    5.2800 O   0  0  0  0  0
   -8.7360   -3.2780    7.2280 N   0  0  0  0  0
   -8.0610   -2.5530    8.2930 C   0  0  0  0  0
   -7.1660   -1.4800    7.6880 C   0  0  0  0  0
   -6.7460   -1.5800    6.5320 O   0  0  0  0  0
   -7.2240   -3.4950    9.1770 C   0  0  0  0  0
   -6.5880   -2.7430   10.2180 O   0  0  0  0  0
   -6.1620   -4.2100    8.3470 C   0  0  0  0  0
   -6.8890   -0.4440    8.4770 N   0  0  0  0  0
   -5.9860    0.6280    8.0810 C   0  0  0  0  0
   -4.6110    0.4870    8.7220 C   0  0  0  0  0
   -3.8320    1.4450    8.7270 O   0  0  0  0  0
   -6.5930    1.9910    8.4300 C   0  0  0  0  0
   -6.4040    2.2640    9.8230 O   0  0  0  0  0
   -8.0840    2.0090    8.1150 C   0  0  0  0  0
   -4.2950   -0.6940    9.2340 N   0  0  0  0  0
   -3.1320   -0.9880   10.0590 C   0  0  0  0  0
   -2.4990   -2.2720    9.5210 C   0  0  0  0  0
   -3.1850   -3.0350    8.8280 O   0  0  0  0  0
   -3.5950   -1.1180   11.5170 C   0  0  0  0  0
   -4.1690    0.1230   11.9510 O   0  0  0  0  0
   -2.4740   -1.5060   12.4620 C   0  0  0  0  0
   -1.1930   -2.5370    9.7500 N   0  0  0  0  0
   -0.7410   -3.8920    9.4060 C   0  0  0  0  0
   -1.2490   -4.9390   10.3910 C   0  0  0  0  0
   -1.0270   -4.7840   11.5910 O   0  0  0  0  0
    0.7900   -3.7820    9.4490 C   0  0  0  0  0
    1.0840   -2.5800   10.2740 C   0  0  0  0  0
   -0.0640   -1.6400   10.0620 C   0  0  0  0  0
   -1.8670   -5.9110    9.9600 O   0  0  0  0  0
  -16.3089   -7.7333    2.4223 H   0  0  0  0  0
  -14.8090   -7.8620    1.7077 H   0  0  0  0  0
  -15.7814   -9.2075    1.8520 H   0  0  0  0  0
  -15.6452   -9.1477    4.1959 H   0  0  0  0  0
  -12.9134   -9.0064    2.8573 H   0  0  0  0  0
  -13.2781   -9.7752    4.4216 H   0  0  0  0  0
  -13.9636  -10.4432    2.9200 H   0  0  0  0  0
  -14.1910   -8.3854    6.0296 H   0  0  0  0  0
  -14.3479   -5.4624    6.0859 H   0  0  0  0  0
  -13.2990   -7.4202    8.1668 H   0  0  0  0  0
  -13.6355   -5.6912    8.4283 H   0  0  0  0  0
  -14.9695   -6.8124    8.0613 H   0  0  0  0  0
  -12.6294   -4.0510    6.5725 H   0  0  0  0  0
   -9.9432   -5.0995    5.7867 H   0  0  0  0  0
  -11.0358   -3.8228    3.9488 H   0  0  0  0  0
   -9.4841   -3.1017    4.5494 H   0  0  0  0  0
   -9.6169   -1.2353    5.2916 H   0  0  0  0  0
   -8.1786   -3.6282    6.4488 H   0  0  0  0  0
   -8.8202   -2.0915    8.9245 H   0  0  0  0  0
   -7.8888   -4.2401    9.6140 H   0  0  0  0  0
   -6.0675   -3.3346   10.7663 H   0  0  0  0  0
   -6.6467   -4.7961    7.5662 H   0  0  0  0  0
   -5.5009   -3.4724    7.8919 H   0  0  0  0  0
   -5.5824   -4.8704    8.9920 H   0  0  0  0  0
   -7.3273   -0.3992    9.3969 H   0  0  0  0  0
   -5.8527    0.5565    7.0015 H   0  0  0  0  0
   -6.0933    2.7535    7.8326 H   0  0  0  0  0
   -6.7862    3.1187   10.0352 H   0  0  0  0  0
   -8.2319    1.8170    7.0523 H   0  0  0  0  0
   -8.5866    1.2375    8.6983 H   0  0  0  0  0
   -8.4961    2.9854    8.3699 H   0  0  0  0  0
   -4.9257   -1.4695    9.0310 H   0  0  0  0  0
   -2.3815   -0.1983   10.0249 H   0  0  0  0  0
   -4.3341   -1.9187   11.5448 H   0  0  0  0  0
   -4.4577    0.0392   12.8627 H   0  0  0  0  0
   -2.0608   -2.4677   12.1580 H   0  0  0  0  0
   -1.6929   -0.7465   12.4283 H   0  0  0  0  0
   -2.8655   -1.5816   13.4764 H   0  0  0  0  0
   -1.1206   -4.2194    8.4381 H   0  0  0  0  0
   -0.5347   -3.9703   11.7217 H   0  0  0  0  0
    1.2102   -3.6893    8.4475 H   0  0  0  0  0
    1.2411   -4.6775    9.8763 H   0  0  0  0  0
    2.0282   -2.1215    9.9799 H   0  0  0  0  0
    1.1902   -2.8411   11.3269 H   0  0  0  0  0
   -0.2570   -1.0142   10.9333 H   0  0  0  0  0
    0.1283   -0.9195    9.2670 H   0  0  0  0  0
  1  2  1  0  0  0
  2  3  1  0  0  0
  2  5  1  0  0  0
  3  4  2  0  0  0
  3  6  1  0  0  0
  6  7  1  0  0  0
  7  8  1  0  0  0
  7 10  1  0  0  0
  8  9  2  0  0  0
  8 11  1  0  0  0
 11 12  1  0  0  0
 12 13  1  0  0  0
 12 15  1  0  0  0
 13 14  2  0  0  0
 13 19  1  0  0  0
 15 16  1  0  0  0
 16 17  2  0  0  0
 16 18  1  0  0  0
 19 20  1  0  0  0
 20 21  1  0  0  0
 20 23  1  0  0  0
 21 22  2  0  0  0
 21 26  1  0  0  0
 23 24  1  0  0  0
 23 25  1  0  0  0
 26 27  1  0  0  0
 27 28  1  0  0  0
 27 30  1  0  0  0
 28 29  2  0  0  0
 28 33  1  0  0  0
 30 31  1  0  0  0
 30 32  1  0  0  0
 33 34  1  0  0  0
 34 35  1  0  0  0
 34 37  1  0  0  0
 35 36  2  0  0  0
 35 40  1  0  0  0
 37 38  1  0  0  0
 37 39  1  0  0  0
 40 41  1  0  0  0
 40 46  1  0  0  0
 41 42  1  0  0  0
 41 44  1  0  0  0
 42 43  1  0  0  0
 42 47  2  0  0  0
 44 45  1  0  0  0
 45 46  1  0  0  0
  1 48  1  0  0  0
  1 49  1  0  0  0
  1 50  1  0  0  0
  2 51  1  0  0  0
  5 52  1  0  0  0
  5 53  1  0  0  0
  5 54  1  0  0  0
  6 55  1  0  0  0
  7 56  1  0  0  0
 10 57  1  0  0  0
 10 58  1  0  0  0
 10 59  1  0  0  0
 11 60  1  0  0  0
 12 61  1  0  0  0
 15 62  1  0  0  0
 15 63  1  0  0  0
 18 64  1  0  0  0
 19 65  1  0  0  0
 20 66  1  0  0  0
 23 67  1  0  0  0
 24 68  1  0  0  0
 25 69  1  0  0  0
 25 70  1  0  0  0
 25 71  1  0  0  0
 26 72  1  0  0  0
 27 73  1  0  0  0
 30 74  1  0  0  0
 31 75  1  0  0  0
 32 76  1  0  0  0
 32 77  1  0  0  0
 32 78  1  0  0  0
 33 79  1  0  0  0
 34 80  1  0  0  0
 37 81  1  0  0  0
 38 82  1  0  0  0
 39 83  1  0  0  0
 39 84  1  0  0  0
 39 85  1  0  0  0
 41 86  1  0  0  0
 43 87  1  0  0  0
 44 88  1  0  0  0
 44 89  1  0  0  0
 45 90  1  0  0  0
 45 91  1  0  0  0
 46 92  1  0  0  0
 46 93  1  0  0  0
M  END
$$$$
