5w2p_ligand
  -I-interpret- 

 35 36  0  0  0  0  0  0  0  0999 V2000
   50.5740   -8.1870  -20.1330 N   0  0  0  0  0
   46.9970   -6.6090  -17.7610 C   0  0  0  0  0
   46.4250   -6.5700  -19.0400 C   0  0  0  0  0
   47.1750   -6.9640  -20.1290 C   0  0  0  0  0
   48.4950   -7.4160  -19.9430 C   0  0  0  0  0
   49.5000   -7.9000  -20.8480 C   0  0  0  0  0
   49.0540   -7.4590  -18.6800 C   0  0  0  0  0
   47.7980   -4.8040  -15.1860 O   0  0  0  0  0
   46.6900   -5.7630  -15.1450 S   0  0  0  0  0
   45.5520   -5.0550  -14.5570 O   0  0  0  0  0
   47.1390   -7.2450  -14.1880 C   0  0  0  0  0
   45.9330   -7.8810  -13.4930 C   0  0  0  0  0
   46.3080   -9.2260  -12.8630 C   0  0  0  0  0
   45.1330   -9.8930  -12.1420 C   0  0  0  0  0
   46.1440   -6.1930  -16.6810 N   0  0  0  0  0
   48.2970   -7.0510  -17.5510 C   0  0  0  0  0
   50.3240   -7.9240  -18.8260 N   0  0  0  0  0
   51.2740   -8.1230  -17.7460 C   0  0  0  0  0
   45.3974   -6.2316  -19.1731 H   0  0  0  0  0
   46.7465   -6.9254  -21.1305 H   0  0  0  0  0
   49.3959   -8.0104  -21.9274 H   0  0  0  0  0
   47.8513   -6.9459  -13.4191 H   0  0  0  0  0
   47.5545   -7.9785  -14.8789 H   0  0  0  0  0
   45.1508   -8.0479  -14.2335 H   0  0  0  0  0
   45.5894   -7.2100  -12.7057 H   0  0  0  0  0
   47.0904   -9.0427  -12.1266 H   0  0  0  0  0
   46.6287   -9.8917  -13.6643 H   0  0  0  0  0
   44.7788   -9.2390  -11.3451 H   0  0  0  0  0
   44.3262  -10.0714  -12.8529 H   0  0  0  0  0
   45.4606  -10.8416  -11.7166 H   0  0  0  0  0
   45.1398   -6.1555  -16.8561 H   0  0  0  0  0
   48.7233   -7.0835  -16.5483 H   0  0  0  0  0
   51.5599   -9.1740  -17.7044 H   0  0  0  0  0
   52.1584   -7.5114  -17.9244 H   0  0  0  0  0
   50.8143   -7.8325  -16.8013 H   0  0  0  0  0
  1  6  4  0  0  0
 17  1  4  0  0  0
  2  3  4  0  0  0
 15  2  1  0  0  0
  2 16  4  0  0  0
  3  4  4  0  0  0
  4  5  4  0  0  0
  5  6  4  0  0  0
  7  5  4  0  0  0
 16  7  4  0  0  0
  7 17  4  0  0  0
  9  8  2  0  0  0
  9 10  2  0  0  0
  9 11  1  0  0  0
  9 15  1  0  0  0
 11 12  1  0  0  0
 12 13  1  0  0  0
 13 14  1  0  0  0
 17 18  1  0  0  0
  3 19  1  0  0  0
  4 20  1  0  0  0
  6 21  1  0  0  0
 11 22  1  0  0  0
 11 23  1  0  0  0
 12 24  1  0  0  0
 12 25  1  0  0  0
 13 26  1  0  0  0
 13 27  1  0  0  0
 14 28  1  0  0  0
 14 29  1  0  0  0
 14 30  1  0  0  0
 15 31  1  0  0  0
 16 32  1  0  0  0
 18 33  1  0  0  0
 18 34  1  0  0  0
 18 35  1  0  0  0
M  END
$$$$
