4na7_ligand
  -I-interpret- 

 82 86  0  0  0  0  0  0  0  0999 V2000
    4.2040   30.5120   21.2050 C   0  0  0  0  0
    2.9400   29.9970   21.3570 C   0  0  0  0  0
    5.2680   29.6580   21.0170 C   0  0  0  0  0
    0.1130   27.4770   28.3820 C   0  0  0  0  0
   -1.0640   27.9280   28.9490 C   0  0  0  0  0
    0.3280   24.4150   19.4470 C   0  0  0  0  0
    2.7380   28.6240   21.3550 C   0  0  0  0  0
    5.0750   28.2820   21.0250 C   0  0  0  0  0
    0.5170   24.1120   20.7840 C   0  0  0  0  0
    1.5740   25.6830   25.6130 C   0  0  0  0  0
    2.4160   25.5000   27.8610 C   0  0  0  0  0
   -2.3070   26.2410   27.7820 C   0  0  0  0  0
    2.1440   25.9850   19.5270 C   0  0  0  0  0
    3.6320   24.5530   26.0160 C   0  0  0  0  0
    0.1050   26.4040   27.4980 C   0  0  0  0  0
    1.4050   25.8980   26.9800 C   0  0  0  0  0
   -2.2690   27.2700   28.7170 C   0  0  0  0  0
    1.1150   25.3750   18.8110 C   0  0  0  0  0
   -1.1330   25.8170   27.1700 C   0  0  0  0  0
    3.8100   27.7410   21.2330 C   0  0  0  0  0
    2.6770   25.0050   25.1110 C   0  0  0  0  0
    2.3820   25.6570   20.8600 C   0  0  0  0  0
    1.5570   24.7110   21.4980 C   0  0  0  0  0
    3.5410   24.8440   27.3730 C   0  0  0  0  0
    1.0320   25.6610   17.3190 C   0  0  0  0  0
   -3.4570   27.6640   29.5510 C   0  0  0  0  0
   -1.2890   24.7710   26.1300 C   0  0  0  0  0
    5.1590   25.2500   29.2410 C   0  0  0  0  0
    3.3890   26.2400   23.0890 C   0  0  0  0  0
    2.9250   24.8790   23.6170 C   0  0  0  0  0
    3.6120   26.2460   21.5510 C   0  0  0  0  0
    4.8430   25.4140   21.1350 C   0  0  0  0  0
    7.5350   24.2870   30.7350 C   0  0  0  0  0
    7.2600   26.7040   31.4110 C   0  0  0  0  0
    6.5040   25.9390   29.1470 C   0  0  0  0  0
    7.5040   25.7290   30.2750 C   0  0  0  0  0
    0.5370   24.7470   16.5060 N   0  0  0  0  0
    1.7730   24.3500   22.8350 N   0  0  0  0  0
    1.6820   26.7890   16.7870 N   0  0  0  0  0
   -4.5760   26.9310   29.4620 N   0  0  0  0  0
    4.7710   24.7080   28.0650 N   0  0  0  0  0
   -3.4160   28.7010   30.1880 O   0  0  0  0  0
   -1.5560   25.0880   25.0100 O   0  0  0  0  0
    4.4860   25.2720   30.2660 O   0  0  0  0  0
   -1.1470   23.5270   26.4950 O   0  0  0  0  0
    4.3641   31.5898   21.2330 H   0  0  0  0  0
    2.0913   30.6699   21.4798 H   0  0  0  0  0
    6.2675   30.0640   20.8610 H   0  0  0  0  0
    1.0549   27.9664   28.6298 H   0  0  0  0  0
   -1.0487   28.8116   29.5870 H   0  0  0  0  0
   -0.4469   23.8960   18.8829 H   0  0  0  0  0
    1.7261   28.2301   21.4502 H   0  0  0  0  0
    5.9249   27.6183   20.8664 H   0  0  0  0  0
   -0.1471   23.4046   21.2807 H   0  0  0  0  0
    0.8204   26.0570   24.9199 H   0  0  0  0  0
    2.3223   25.7036   28.9277 H   0  0  0  0  0
   -3.2559   25.7677   27.5295 H   0  0  0  0  0
    2.7715   26.7294   19.0368 H   0  0  0  0  0
    4.4701   23.9577   25.6536 H   0  0  0  0  0
    4.3409   26.4755   23.5650 H   0  0  0  0  0
    2.6109   26.9687   23.3160 H   0  0  0  0  0
    3.7001   24.1253   23.4783 H   0  0  0  0  0
    5.0070   25.5214   20.0628 H   0  0  0  0  0
    5.7201   25.7700   21.6755 H   0  0  0  0  0
    4.6685   24.3649   21.3739 H   0  0  0  0  0
    8.3350   24.1566   31.4638 H   0  0  0  0  0
    6.5793   24.0325   31.1932 H   0  0  0  0  0
    7.7130   23.6373   29.8780 H   0  0  0  0  0
    6.3005   26.4825   31.8784 H   0  0  0  0  0
    8.0562   26.6066   32.1490 H   0  0  0  0  0
    7.2485   27.7210   31.0191 H   0  0  0  0  0
    6.2805   27.0058   29.1576 H   0  0  0  0  0
    6.9796   25.5186   28.2609 H   0  0  0  0  0
    8.4994   25.9434   29.8860 H   0  0  0  0  0
    0.2127   23.8547   16.8788 H   0  0  0  0  0
    1.1224   23.7064   23.2855 H   0  0  0  0  0
    1.7693   26.8980   15.7766 H   0  0  0  0  0
    2.0662   27.4981   17.4116 H   0  0  0  0  0
   -5.4256   27.2376   29.9359 H   0  0  0  0  0
   -4.5778   26.0667   28.9204 H   0  0  0  0  0
    5.4641   24.1147   27.6090 H   0  0  0  0  0
   -0.9350   23.4914   27.4306 H   0  0  0  0  0
  2  1  4  0  0  0
  3  1  4  0  0  0
  7  2  4  0  0  0
  8  3  4  0  0  0
  4  5  4  0  0  0
 15  4  4  0  0  0
  5 17  4  0  0  0
  9  6  4  0  0  0
  6 18  4  0  0  0
 20  7  4  0  0  0
 20  8  4  0  0  0
 23  9  4  0  0  0
 16 10  4  0  0  0
 21 10  4  0  0  0
 11 16  4  0  0  0
 24 11  4  0  0  0
 12 17  4  0  0  0
 19 12  4  0  0  0
 13 18  4  0  0  0
 22 13  4  0  0  0
 14 21  4  0  0  0
 24 14  4  0  0  0
 16 15  1  0  0  0
 15 19  4  0  0  0
 17 26  1  0  0  0
 18 25  1  0  0  0
 19 27  1  0  0  0
 31 20  1  0  0  0
 21 30  1  0  0  0
 23 22  4  0  0  0
 31 22  1  0  0  0
 38 23  1  0  0  0
 41 24  1  0  0  0
 25 37  2  0  0  0
 25 39  1  0  0  0
 26 40  1  0  0  0
 26 42  2  0  0  0
 27 43  2  0  0  0
 27 45  1  0  0  0
 35 28  1  0  0  0
 28 41  1  0  0  0
 28 44  2  0  0  0
 30 29  1  0  0  0
 29 31  1  0  0  0
 30 38  1  0  0  0
 31 32  1  0  0  0
 36 33  1  0  0  0
 36 34  1  0  0  0
 35 36  1  0  0  0
  1 46  1  0  0  0
  2 47  1  0  0  0
  3 48  1  0  0  0
  4 49  1  0  0  0
  5 50  1  0  0  0
  6 51  1  0  0  0
  7 52  1  0  0  0
  8 53  1  0  0  0
  9 54  1  0  0  0
 10 55  1  0  0  0
 11 56  1  0  0  0
 12 57  1  0  0  0
 13 58  1  0  0  0
 14 59  1  0  0  0
 29 60  1  0  0  0
 29 61  1  0  0  0
 30 62  1  0  0  0
 32 63  1  0  0  0
 32 64  1  0  0  0
 32 65  1  0  0  0
 33 66  1  0  0  0
 33 67  1  0  0  0
 33 68  1  0  0  0
 34 69  1  0  0  0
 34 70  1  0  0  0
 34 71  1  0  0  0
 35 72  1  0  0  0
 35 73  1  0  0  0
 36 74  1  0  0  0
 37 75  1  0  0  0
 38 76  1  0  0  0
 39 77  1  0  0  0
 39 78  1  0  0  0
 40 79  1  0  0  0
 40 80  1  0  0  0
 41 81  1  0  0  0
 45 82  1  0  0  0
M  END
$$$$
