5a3w_ligand
  -I-interpret- 

 17 17  0  0  0  0  0  0  0  0999 V2000
   88.4210   63.3640   14.0130 O   0  0  0  0  0
   87.9330   64.5050   14.3700 C   0  0  0  0  0
   88.5150   65.1990   15.2740 O   0  0  0  0  0
   86.6610   65.0620   13.7100 C   0  0  0  0  0
   86.5300   66.4500   13.4930 C   0  0  0  0  0
   85.3780   66.9480   12.8780 C   0  0  0  0  0
   85.6040   64.1930   13.3050 C   0  0  0  0  0
   84.5310   64.7920   12.7190 C   0  0  0  0  0
   84.4230   66.1180   12.5210 N   0  0  0  0  0
   83.3320   63.9510   12.2990 C   0  0  0  0  0
   82.2430   64.5810   12.0990 O   0  0  0  0  0
   83.4190   62.7320   12.2130 O   0  0  0  0  0
   87.8662   62.9794   13.3305 H   0  0  0  0  0
   87.3231   67.1303   13.8034 H   0  0  0  0  0
   85.2721   68.0174   12.6956 H   0  0  0  0  0
   85.6528   63.1146   13.4557 H   0  0  0  0  0
   82.3928   65.5220   12.2162 H   0  0  0  0  0
  1  2  1  0  0  0
  2  3  2  0  0  0
  2  4  1  0  0  0
  4  5  4  0  0  0
  4  7  4  0  0  0
  5  6  4  0  0  0
  6  9  4  0  0  0
  7  8  4  0  0  0
  8  9  4  0  0  0
  8 10  1  0  0  0
 10 11  1  0  0  0
 10 12  2  0  0  0
  1 13  1  0  0  0
  5 14  1  0  0  0
  6 15  1  0  0  0
  7 16  1  0  0  0
 11 17  1  0  0  0
M  END
$$$$
