3u90_ligand
  -I-interpret- 

 43 42  0  0  0  0  0  0  0  0999 V2000
   34.4850    0.7670   29.4020 S   0  0  0  0  0
   35.3350    0.2190   28.3760 O   0  0  0  0  0
   34.7070    0.1030   30.6940 O   0  0  0  0  0
   34.7570    2.1760   29.5450 O   0  0  0  0  0
   33.0800    0.5270   29.0420 O   0  0  0  0  0
   35.8860    0.3440   31.3730 C   0  0  0  0  0
   28.9420   -0.2360   34.4220 C   0  0  0  0  0
   30.3060    0.3250   34.6520 C   0  0  0  0  0
   31.0460   -0.5080   35.6470 C   0  0  0  0  0
   32.4650   -0.0470   35.7140 C   0  0  0  0  0
   33.1120   -0.5480   36.9610 C   0  0  0  0  0
   34.3080    0.2840   37.2880 C   0  0  0  0  0
   35.5590   -0.4120   36.8630 C   0  0  0  0  0
   36.2760    0.4100   35.8470 C   0  0  0  0  0
   36.9770   -0.4810   34.8740 C   0  0  0  0  0
   37.0310    0.1710   33.5310 C   0  0  0  0  0
   35.7440   -0.0480   32.8070 C   0  0  0  0  0
   32.5097    0.8907   29.7232 H   0  0  0  0  0
   36.1205    1.4069   31.3150 H   0  0  0  0  0
   36.6852   -0.2427   30.9200 H   0  0  0  0  0
   29.0285   -1.2539   34.0418 H   0  0  0  0  0
   28.3904   -0.2436   35.3621 H   0  0  0  0  0
   28.4145    0.3813   33.6948 H   0  0  0  0  0
   30.2136    1.3410   35.0359 H   0  0  0  0  0
   30.8544    0.3265   33.7100 H   0  0  0  0  0
   31.0151   -1.5544   35.3435 H   0  0  0  0  0
   30.5813   -0.4058   36.6277 H   0  0  0  0  0
   32.4861    1.0428   35.7146 H   0  0  0  0  0
   33.0067   -0.4342   34.8510 H   0  0  0  0  0
   33.4250   -1.5813   36.8115 H   0  0  0  0  0
   32.3988   -0.4881   37.7831 H   0  0  0  0  0
   34.3420    0.4487   38.3650 H   0  0  0  0  0
   34.2340    1.2347   36.7600 H   0  0  0  0  0
   35.3032   -1.3783   36.4284 H   0  0  0  0  0
   36.2037   -0.5547   37.7303 H   0  0  0  0  0
   37.0092    1.0418   36.3484 H   0  0  0  0  0
   35.5557    1.0294   35.3126 H   0  0  0  0  0
   36.4334   -1.4224   34.7939 H   0  0  0  0  0
   37.9926   -0.6654   35.2241 H   0  0  0  0  0
   37.8467   -0.2636   32.9532 H   0  0  0  0  0
   37.1944    1.2412   33.6575 H   0  0  0  0  0
   35.4778   -1.1035   32.8637 H   0  0  0  0  0
   34.9669    0.5614   33.2683 H   0  0  0  0  0
  1  2  2  0  0  0
  3  1  1  0  0  0
  1  4  2  0  0  0
  1  5  1  0  0  0
  6  3  1  0  0  0
 17  6  1  0  0  0
  8  7  1  0  0  0
  9  8  1  0  0  0
 10  9  1  0  0  0
 11 10  1  0  0  0
 12 11  1  0  0  0
 13 12  1  0  0  0
 14 13  1  0  0  0
 15 14  1  0  0  0
 16 15  1  0  0  0
 16 17  1  0  0  0
  5 18  1  0  0  0
  6 19  1  0  0  0
  6 20  1  0  0  0
  7 21  1  0  0  0
  7 22  1  0  0  0
  7 23  1  0  0  0
  8 24  1  0  0  0
  8 25  1  0  0  0
  9 26  1  0  0  0
  9 27  1  0  0  0
 10 28  1  0  0  0
 10 29  1  0  0  0
 11 30  1  0  0  0
 11 31  1  0  0  0
 12 32  1  0  0  0
 12 33  1  0  0  0
 13 34  1  0  0  0
 13 35  1  0  0  0
 14 36  1  0  0  0
 14 37  1  0  0  0
 15 38  1  0  0  0
 15 39  1  0  0  0
 16 40  1  0  0  0
 16 41  1  0  0  0
 17 42  1  0  0  0
 17 43  1  0  0  0
M  END
$$$$
