3fw4_ligand
  -I-interpret- 

 14 14  0  0  0  0  0  0  0  0999 V2000
   25.3410   79.6410   61.4600 C   0  0  0  0  0
   26.2400   78.9920   62.2990 C   0  0  0  0  0
   27.4220   79.6240   62.6720 C   0  0  0  0  0
   28.2940   78.9800   63.4990 O   0  0  0  0  0
   27.7060   80.9030   62.2070 C   0  0  0  0  0
   28.8620   81.5270   62.5700 O   0  0  0  0  0
   26.8080   81.5520   61.3630 C   0  0  0  0  0
   25.6270   80.9180   60.9870 C   0  0  0  0  0
   24.4117   79.1492   61.1726 H   0  0  0  0  0
   26.0189   77.9891   62.6641 H   0  0  0  0  0
   29.0545   79.5430   63.6613 H   0  0  0  0  0
   28.8970   82.3956   62.1627 H   0  0  0  0  0
   27.0296   82.5547   60.9975 H   0  0  0  0  0
   24.9260   81.4222   60.3218 H   0  0  0  0  0
  1  2  4  0  0  0
  1  8  4  0  0  0
  2  3  4  0  0  0
  3  4  1  0  0  0
  3  5  4  0  0  0
  5  6  1  0  0  0
  5  7  4  0  0  0
  7  8  4  0  0  0
  1  9  1  0  0  0
  2 10  1  0  0  0
  4 11  1  0  0  0
  6 12  1  0  0  0
  7 13  1  0  0  0
  8 14  1  0  0  0
M  END
$$$$
