5g42_ligand
  -I-interpret- 

 20 21  0  0  0  0  0  0  0  0999 V2000
  -27.0210    6.0200  -13.2770 C   0  0  0  0  0
  -26.8210    7.3840  -13.4300 C   0  0  0  0  0
  -28.6440    7.5070  -14.9970 C   0  0  0  0  0
  -28.8400    6.1550  -14.8300 C   0  0  0  0  0
  -28.0510    5.4220  -13.9850 C   0  0  0  0  0
  -27.6360    8.1120  -14.2810 C   0  0  0  0  0
  -28.0970    3.0630  -13.1190 C   0  0  0  0  0
  -29.8620    5.3390  -15.5190 C   0  0  0  0  0
  -29.5240    3.9420  -15.0090 C   0  0  0  0  0
  -28.4520    4.0690  -14.0340 N   0  0  0  0  0
  -28.7880    1.8760  -13.2770 N   0  0  0  0  0
  -27.2330    3.1470  -12.2520 O   0  0  0  0  0
  -27.4380    9.8150  -14.5090 Cl  0  0  0  0  0
  -26.3835    5.4329  -12.6160 H   0  0  0  0  0
  -26.0226    7.8829  -12.8806 H   0  0  0  0  0
  -29.2702    8.0833  -15.6780 H   0  0  0  0  0
  -30.6471    5.6520  -16.2073 H   0  0  0  0  0
  -30.0013    3.0127  -15.3201 H   0  0  0  0  0
  -28.5778    1.0795  -12.6755 H   0  0  0  0  0
  -29.5080    1.7967  -13.9951 H   0  0  0  0  0
  2  1  4  0  0  0
  1  5  4  0  0  0
  6  2  4  0  0  0
  3  4  4  0  0  0
  3  6  4  0  0  0
  4  5  4  0  0  0
  4  8  4  0  0  0
  5 10  4  0  0  0
  6 13  1  0  0  0
 10  7  1  0  0  0
  7 11  1  0  0  0
  7 12  2  0  0  0
  8  9  4  0  0  0
  9 10  4  0  0  0
  1 14  1  0  0  0
  2 15  1  0  0  0
  3 16  1  0  0  0
  8 17  1  0  0  0
  9 18  1  0  0  0
 11 19  1  0  0  0
 11 20  1  0  0  0
M  END
$$$$
