1ahy_ligand
  -I-interpret- 

 12 11  0  0  0  0  0  0  0  0999 V2000
   -9.5480   53.2920   24.8840 C   0  0  0  0  0
   -9.1740   52.0800   24.9770 O   0  0  0  0  0
  -10.2880   53.8910   25.7420 O   0  0  0  0  0
   -9.1070   54.1020   23.7050 C   0  0  0  0  0
   -9.4240   55.3490   23.3490 C   0  0  0  0  0
  -10.3320   56.3460   24.0030 C   0  0  0  0  0
  -11.4260   56.6050   23.4540 O   0  0  0  0  0
   -9.9720   56.9270   25.0550 O   0  0  0  0  0
  -10.4360   54.7962   25.4587 H   0  0  0  0  0
   -8.4182   53.5933   23.0306 H   0  0  0  0  0
   -8.9448   55.6987   22.4346 H   0  0  0  0  0
   -9.1110   56.5974   25.3226 H   0  0  0  0  0
  1  2  2  0  0  0
  1  3  1  0  0  0
  1  4  1  0  0  0
  4  5  2  0  0  0
  5  6  1  0  0  0
  6  7  2  0  0  0
  6  8  1  0  0  0
  3  9  1  0  0  0
  4 10  1  0  0  0
  5 11  1  0  0  0
  8 12  1  0  0  0
M  END
$$$$
