6py0_ligand
  -I-interpret- 

 53 53  0  0  0  0  0  0  0  0999 V2000
   -5.0810    1.3490  -11.8940 C   0  0  0  0  0
   -3.8930    0.4540  -12.2450 C   0  0  0  0  0
   -4.2060   -0.5510  -13.3680 C   0  0  0  0  0
   -5.6000   -1.1470  -13.2400 C   0  0  0  0  0
   -6.5220    0.0370  -13.2390 C   0  0  0  0  0
   -6.4350    0.7140  -12.1270 C   0  0  0  0  0
   -7.5800    0.8070  -11.2060 C   0  0  0  0  0
   -7.4450    0.4430   -9.9520 C   0  0  0  0  0
   -8.4760    0.4990   -8.9110 C   0  0  0  0  0
   -8.3260    1.4060   -7.9520 C   0  0  0  0  0
   -9.2010    1.5390   -6.8130 C   0  0  0  0  0
   -8.7260    0.9260   -5.7340 C   0  0  0  0  0
   -9.3080    0.8380   -4.3940 C   0  0  0  0  0
   -8.8530   -0.0870   -3.5460 C   0  0  0  0  0
   -9.4170   -0.2040   -2.1530 C   0  0  0  0  0
   -8.6630   -1.1700   -1.4040 O   0  0  0  0  0
   -4.9900    2.5740  -12.7720 C   0  0  0  0  0
   -4.9470    1.7250  -10.4360 C   0  0  0  0  0
   -7.3460    0.4930  -14.3980 C   0  0  0  0  0
   -9.6140   -0.4630   -8.9180 C   0  0  0  0  0
  -10.3700    1.7810   -3.9680 C   0  0  0  0  0
   -3.6326   -0.1160  -11.3532 H   0  0  0  0  0
   -3.0844    1.0974  -12.5919 H   0  0  0  0  0
   -3.4838   -1.3648  -13.3036 H   0  0  0  0  0
   -4.1512   -0.0219  -14.3194 H   0  0  0  0  0
   -5.7050   -1.7449  -12.3347 H   0  0  0  0  0
   -5.8240   -1.8361  -14.0543 H   0  0  0  0  0
   -7.4383   -0.2125  -13.7740 H   0  0  0  0  0
   -7.0083    1.1264  -11.2967 H   0  0  0  0  0
   -8.5398    1.1781  -11.5654 H   0  0  0  0  0
   -6.4684    0.0608   -9.6548 H   0  0  0  0  0
   -7.4857    2.0957   -8.0311 H   0  0  0  0  0
  -10.1461    2.0816   -6.8350 H   0  0  0  0  0
   -7.7704    0.4183   -5.8650 H   0  0  0  0  0
   -8.0630   -0.7669   -3.8651 H   0  0  0  0  0
  -10.4574   -0.5240   -2.2105 H   0  0  0  0  0
   -9.3567    0.7646   -1.6566 H   0  0  0  0  0
   -9.0261   -1.2406   -0.5181 H   0  0  0  0  0
   -5.7903    3.2666  -12.5113 H   0  0  0  0  0
   -4.0252    3.0578  -12.6197 H   0  0  0  0  0
   -5.0890    2.2789  -13.8166 H   0  0  0  0  0
   -3.9820    2.2049  -10.2731 H   0  0  0  0  0
   -5.7471    2.4137  -10.1647 H   0  0  0  0  0
   -5.0156    0.8266   -9.8226 H   0  0  0  0  0
   -8.3881    0.5784  -14.0900 H   0  0  0  0  0
   -6.9858    1.4637  -14.7387 H   0  0  0  0  0
   -7.2635   -0.2314  -15.2082 H   0  0  0  0  0
   -9.5815   -1.0688   -8.0124 H   0  0  0  0  0
  -10.5537    0.0881   -8.9545 H   0  0  0  0  0
   -9.5362   -1.1095   -9.7921 H   0  0  0  0  0
  -11.2616    1.2198   -3.6883 H   0  0  0  0  0
  -10.0195    2.3586   -3.1126 H   0  0  0  0  0
  -10.6068    2.4554   -4.7910 H   0  0  0  0  0
  1  2  1  0  0  0
  1  6  1  0  0  0
  1 17  1  0  0  0
  1 18  1  0  0  0
  2  3  1  0  0  0
  3  4  1  0  0  0
  4  5  1  0  0  0
  5  6  1  0  0  0
  5 19  1  0  0  0
  6  7  1  0  0  0
  7  8  2  0  0  0
  8  9  1  0  0  0
  9 10  2  0  0  0
  9 20  1  0  0  0
 10 11  1  0  0  0
 11 12  2  0  0  0
 12 13  1  0  0  0
 13 14  2  0  0  0
 13 21  1  0  0  0
 14 15  1  0  0  0
 15 16  1  0  0  0
  2 22  1  0  0  0
  2 23  1  0  0  0
  3 24  1  0  0  0
  3 25  1  0  0  0
  4 26  1  0  0  0
  4 27  1  0  0  0
  5 28  1  0  0  0
  6 29  1  0  0  0
  7 30  1  0  0  0
  8 31  1  0  0  0
 10 32  1  0  0  0
 11 33  1  0  0  0
 12 34  1  0  0  0
 14 35  1  0  0  0
 15 36  1  0  0  0
 15 37  1  0  0  0
 16 38  1  0  0  0
 17 39  1  0  0  0
 17 40  1  0  0  0
 17 41  1  0  0  0
 18 42  1  0  0  0
 18 43  1  0  0  0
 18 44  1  0  0  0
 19 45  1  0  0  0
 19 46  1  0  0  0
 19 47  1  0  0  0
 20 48  1  0  0  0
 20 49  1  0  0  0
 20 50  1  0  0  0
 21 51  1  0  0  0
 21 52  1  0  0  0
 21 53  1  0  0  0
M  END
$$$$
