1xur_ligand
  -I-interpret- 

 42 44  0  0  0  0  0  0  0  0999 V2000
  -11.8390   27.3620   44.9950 C   0  0  0  0  0
  -11.2640   27.9440   46.1050 C   0  0  0  0  0
   -9.8910   28.0020   46.1830 C   0  0  0  0  0
  -11.0400   26.8450   43.9760 N   0  0  0  0  0
   -9.2680   28.5980   47.3590 C   0  0  0  0  0
   -7.2040   28.8140   48.6930 C   0  0  0  0  0
   -7.3710   28.0130   49.9660 C   0  0  0  0  0
  -13.2980   27.2780   44.9040 C   0  0  0  0  0
  -16.5660   23.9480   44.0130 C   0  0  0  0  0
  -15.9670   23.6480   46.7810 C   0  0  0  0  0
   -8.1990   26.8560   49.9990 C   0  0  0  0  0
   -8.3730   26.1020   51.1730 C   0  0  0  0  0
   -7.7090   26.5020   52.3400 C   0  0  0  0  0
   -6.7090   28.4050   51.1400 C   0  0  0  0  0
   -9.0910   27.4840   45.1630 N   0  0  0  0  0
   -9.6630   26.9010   44.0460 C   0  0  0  0  0
   -7.9450   28.2920   47.5220 N   0  0  0  0  0
  -13.8020   26.3210   44.0370 N   0  0  0  0  0
  -15.2520   26.1090   43.8640 C   0  0  0  0  0
  -15.7770   24.9150   44.6530 C   0  0  0  0  0
  -17.0470   22.8440   44.7570 N   0  0  0  0  0
  -16.7560   22.6860   46.1310 C   0  0  0  0  0
  -15.4860   24.7510   46.0390 C   0  0  0  0  0
   -6.8860   27.6440   52.3100 N   0  0  0  0  0
  -14.1120   27.9570   45.5400 O   0  0  0  0  0
   -9.8000   29.3030   48.2140 O   0  0  0  0  0
  -11.8841   28.3498   46.9043 H   0  0  0  0  0
   -6.1453   28.7787   48.4361 H   0  0  0  0  0
   -7.5970   29.8104   48.8949 H   0  0  0  0  0
  -16.8062   24.0456   42.9543 H   0  0  0  0  0
  -15.7292   23.5463   47.8399 H   0  0  0  0  0
   -8.7125   26.5457   49.0890 H   0  0  0  0  0
   -9.0141   25.2205   51.1751 H   0  0  0  0  0
   -7.8284   25.9343   53.2628 H   0  0  0  0  0
   -6.0672   29.2860   51.1451 H   0  0  0  0  0
   -9.0439   26.4977   43.2447 H   0  0  0  0  0
   -7.4690   27.7046   46.8374 H   0  0  0  0  0
  -13.1508   25.7460   43.5025 H   0  0  0  0  0
  -15.4358   25.9157   42.8071 H   0  0  0  0  0
  -15.7639   26.9995   44.2289 H   0  0  0  0  0
  -17.1401   21.8263   46.6801 H   0  0  0  0  0
  -14.8736   25.4993   46.5422 H   0  0  0  0  0
  1  2  4  0  0  0
  1  4  4  0  0  0
  8  1  1  0  0  0
  2  3  4  0  0  0
  3  5  1  0  0  0
  3 15  4  0  0  0
  4 16  4  0  0  0
  5 17  1  0  0  0
  5 26  2  0  0  0
  6  7  1  0  0  0
 17  6  1  0  0  0
  7 11  4  0  0  0
  7 14  4  0  0  0
 18  8  1  0  0  0
  8 25  2  0  0  0
 20  9  4  0  0  0
  9 21  4  0  0  0
 10 22  4  0  0  0
 23 10  4  0  0  0
 11 12  4  0  0  0
 12 13  4  0  0  0
 24 13  4  0  0  0
 14 24  4  0  0  0
 16 15  4  0  0  0
 19 18  1  0  0  0
 20 19  1  0  0  0
 20 23  4  0  0  0
 21 22  4  0  0  0
  2 27  1  0  0  0
  6 28  1  0  0  0
  6 29  1  0  0  0
  9 30  1  0  0  0
 10 31  1  0  0  0
 11 32  1  0  0  0
 12 33  1  0  0  0
 13 34  1  0  0  0
 14 35  1  0  0  0
 16 36  1  0  0  0
 17 37  1  0  0  0
 18 38  1  0  0  0
 19 39  1  0  0  0
 19 40  1  0  0  0
 22 41  1  0  0  0
 23 42  1  0  0  0
M  END
$$$$
