### 
### Created by X-TOOL on Mon Sep 10 21:13:01 2018
### 

@<TRIPOS>MOLECULE
3h6z_ligand
  128   128     1     0     0
SMALL
GAST_HUCK


@<TRIPOS>ATOM
      1 N          52.9280   24.5360   28.5430 N.4       1 HIS         0.2394
      2 CA         52.7940   25.6450   29.5530 C.3       1 HIS         0.0761
      3 C          53.2540   27.0020   29.0260 C.2       1 HIS         0.2288
      4 O          54.1740   27.0940   28.2020 O.2       1 HIS        -0.3905
      5 CB         53.5710   25.3310   30.8500 C.3       1 HIS         0.0628
      6 CG         52.7400   24.6850   31.9160 C.2       1 HIS         0.0593
      7 ND1        51.3720   25.0740   32.1330 N.pl3     1 HIS        -0.2622
      8 CD2        53.0870   23.6830   32.8410 C.2       1 HIS        -0.0274
      9 CE1        50.9050   24.3310   33.1300 C.2       1 HIS         0.0875
     10 NE2        51.9270   23.4770   33.5790 N.2       1 HIS        -0.3437
     11 N          52.6020   28.0520   29.4980 N.am      1 ARG        -0.2609
     12 CA         53.1710   29.3740   29.4010 C.3       1 ARG         0.1312
     13 C          52.9810   30.0050   30.7620 C.2       1 ARG         0.2039
     14 O          53.8730   30.6920   31.2680 O.2       1 ARG        -0.3944
     15 CB         52.5280   30.2010   28.2930 C.3       1 ARG        -0.0092
     16 CG         53.3530   31.4160   27.9380 C.3       1 ARG        -0.0156
     17 CD         53.3660   31.6810   26.4540 C.3       1 ARG         0.0627
     18 NE         53.6420   33.0880   26.1710 N.pl3     1 ARG        -0.2723
     19 CZ         52.9900   33.8110   25.2610 C.cat     1 ARG         0.2882
     20 NH1        52.0030   33.2700   24.5480 N.pl3     1 ARG        -0.2849
     21 NH2        53.3130   35.0850   25.0740 N.pl3     1 ARG        -0.2849
     22 N          51.8230   29.7360   31.3610 N.am      1 MLZ        -0.2637
     23 CA         51.5380   30.1940   32.7020 C.3       1 MLZ         0.1310
     24 CB         50.0600   30.4710   32.8750 C.3       1 MLZ        -0.0122
     25 CG         49.7740   31.9090   32.4880 C.3       1 MLZ        -0.0440
     26 CD         48.4180   32.2980   33.0260 C.3       1 MLZ        -0.0124
     27 CE         47.8110   33.3370   32.1160 C.3       1 MLZ        -0.0339
     28 NZ         46.4880   33.6960   32.5660 N.4       1 MLZ         0.2248
     29 CM         45.9350   34.9790   32.1850 C.3       1 MLZ        -0.0449
     30 C          52.0430   29.2040   33.6970 C.2       1 MLZ         0.2039
     31 O          51.6720   28.0260   33.7000 O.2       1 MLZ        -0.3944
     32 N          52.9310   29.6920   34.5440 N.am      1 VAL        -0.2635
     33 CA         53.5250   28.8820   35.5820 C.3       1 VAL         0.1332
     34 C          52.5290   28.7810   36.7510 C.2       1 VAL         0.2041
     35 O          51.6640   29.6490   36.9050 O.2       1 VAL        -0.3944
     36 CB         54.9290   29.4530   35.9800 C.3       1 VAL        -0.0063
     37 CG1        54.8250   30.5250   37.0650 C.3       1 VAL        -0.0584
     38 CG2        55.8620   28.3260   36.3810 C.3       1 VAL        -0.0584
     39 N          52.6270   27.7110   37.5400 N.am      1 LEU        -0.2637
     40 CA         51.7420   27.5190   38.6830 C.3       1 LEU         0.1312
     41 C          51.9230   28.6530   39.6890 C.2       1 LEU         0.2033
     42 O          53.0410   29.0420   40.0060 O.2       1 LEU        -0.3944
     43 CB         51.9830   26.1570   39.3400 C.3       1 LEU        -0.0101
     44 CG         51.2560   25.8400   40.6490 C.3       1 LEU        -0.0425
     45 CD1        49.7470   25.9000   40.4670 C.3       1 LEU        -0.0625
     46 CD2        51.6760   24.4930   41.1670 C.3       1 LEU        -0.0625
     47 N          50.8110   29.1980   40.1690 N.am      1 ARG        -0.2695
     48 CA         50.8480   30.3090   41.1140 C.3       1 ARG         0.0945
     49 C          50.0190   30.0630   42.3670 C.2       1 ARG         0.0601
     50 O          48.9480   29.4540   42.3490 O.co2     1 ARG        -0.5666
     51 CB         50.4680   31.6140   40.4260 C.3       1 ARG        -0.0148
     52 CG         51.5430   32.0570   39.4610 C.3       1 ARG        -0.0162
     53 CD         51.2530   33.3920   38.8530 C.3       1 ARG         0.0627
     54 NE         52.4360   34.2460   38.9200 N.pl3     1 ARG        -0.2723
     55 CZ         53.3610   34.3550   37.9690 C.cat     1 ARG         0.2882
     56 NH1        53.2640   33.6690   36.8360 N.pl3     1 ARG        -0.2849
     57 NH2        54.3900   35.1690   38.1570 N.pl3     1 ARG        -0.2849
     58 OXT        50.4460   30.4580   43.4480 O.co2     1 ARG        -0.5666
     59 H1         52.6095   23.6706   28.9500 H         1 HIS         0.2017
     60 H2         53.8943   24.4439   28.2713 H         1 HIS         0.2017
     61 H3         52.3698   24.7511   27.7317 H         1 HIS         0.2017
     62 H4         51.7265   25.7273   29.8054 H         1 HIS         0.1123
     63 H5         53.9737   26.2737   31.2490 H         1 HIS         0.0525
     64 H6         54.4013   24.6539   30.6007 H         1 HIS         0.0525
     65 H7         50.8517   25.7944   31.6122 H         1 HIS         0.2386
     66 H8         54.0474   23.1820   32.9534 H         1 HIS         0.0324
     67 H9         49.8946   24.3762   33.5338 H         1 HIS         0.1149
     68 H10        51.7067   27.9281   29.9259 H         1 ARG         0.1885
     69 H11        54.2463   29.2915   29.1846 H         1 ARG         0.0800
     70 H12        51.5346   30.5329   28.6292 H         1 ARG         0.0313
     71 H13        52.4206   29.5714   27.3974 H         1 ARG         0.0313
     72 H14        54.3865   31.2543   28.2781 H         1 ARG         0.0301
     73 H15        52.9312   32.2930   28.4508 H         1 ARG         0.0301
     74 H16        52.3846   31.4163   26.0336 H         1 ARG         0.0689
     75 H17        54.1448   31.0613   25.9856 H         1 ARG         0.0689
     76 H18        54.3884   33.5505   26.7095 H         1 ARG         0.2642
     77 H19        51.5042   33.8359   23.8467 H         1 ARG         0.2615
     78 H20        51.7388   32.2859   24.6982 H         1 ARG         0.2615
     79 H21        54.0751   35.5089   25.6221 H         1 ARG         0.2615
     80 H22        52.8015   35.6496   24.3808 H         1 ARG         0.2615
     81 H23        51.1329   29.2036   30.8708 H         1 MLZ         0.1883
     82 H24        52.0768   31.1394   32.8626 H         1 MLZ         0.0800
     83 H25        49.7757   30.3091   33.9252 H         1 MLZ         0.0312
     84 H26        49.4807   29.7942   32.2298 H         1 MLZ         0.0312
     85 H27        49.7781   32.0046   31.3922 H         1 MLZ         0.0269
     86 H28        50.5442   32.5672   32.9164 H         1 MLZ         0.0269
     87 H29        48.5277   32.7130   34.0388 H         1 MLZ         0.0317
     88 H30        47.7667   31.4122   33.0612 H         1 MLZ         0.0317
     89 H31        47.7479   32.9313   31.0955 H         1 MLZ         0.0814
     90 H32        48.4482   34.2336   32.1154 H         1 MLZ         0.0814
     91 H33        46.5025   33.6693   33.5735 H         1 MLZ         0.2011
     92 H34        45.8577   32.9895   32.2202 H         1 MLZ         0.2011
     93 H35        44.9268   35.0851   32.6120 H         1 MLZ         0.0777
     94 H36        45.8772   35.0423   31.0884 H         1 MLZ         0.0777
     95 H37        46.5808   35.7842   32.5652 H         1 MLZ         0.0777
     96 H38        53.2004   30.6517   34.4643 H         1 VAL         0.1883
     97 H39        53.6826   27.8675   35.1871 H         1 VAL         0.0802
     98 H40        55.3558   29.9342   35.0877 H         1 VAL         0.0343
     99 H41        55.8308   30.8957   37.3118 H         1 VAL         0.0234
    100 H42        54.3627   30.0926   37.9646 H         1 VAL         0.0234
    101 H43        54.2067   31.3581   36.6993 H         1 VAL         0.0234
    102 H44        55.9055   27.5809   35.5729 H         1 VAL         0.0234
    103 H45        55.4881   27.8496   37.2993 H         1 VAL         0.0234
    104 H46        56.8690   28.7302   36.5615 H         1 VAL         0.0234
    105 H47        53.3251   27.0226   37.3431 H         1 LEU         0.1883
    106 H48        50.7035   27.5437   38.3213 H         1 LEU         0.0800
    107 H49        53.0618   26.0792   39.5404 H         1 LEU         0.0315
    108 H50        51.6891   25.3878   38.6106 H         1 LEU         0.0315
    109 H51        51.5410   26.5991   41.3923 H         1 LEU         0.0298
    110 H52        49.2530   25.6683   41.4221 H         1 LEU         0.0232
    111 H53        49.4397   25.1657   39.7078 H         1 LEU         0.0232
    112 H54        49.4570   26.9093   40.1396 H         1 LEU         0.0232
    113 H55        52.7688   24.4723   41.2908 H         1 LEU         0.0232
    114 H56        51.3733   23.7143   40.4515 H         1 LEU         0.0232
    115 H57        51.1934   24.3067   42.1378 H         1 LEU         0.0232
    116 H58        49.9257   28.8376   39.8752 H         1 ARG         0.1875
    117 H59        51.8923   30.4106   41.4443 H         1 ARG         0.0726
    118 H60        50.3273   32.3939   41.1888 H         1 ARG         0.0307
    119 H61        49.5282   31.4677   39.8734 H         1 ARG         0.0307
    120 H62        51.6222   31.3124   38.6553 H         1 ARG         0.0301
    121 H63        52.4994   32.1159   40.0013 H         1 ARG         0.0301
    122 H64        50.4286   33.8699   39.4025 H         1 ARG         0.0689
    123 H65        50.9623   33.2564   37.8008 H         1 ARG         0.0689
    124 H66        52.5650   34.8097   39.7724 H         1 ARG         0.2642
    125 H67        53.9895   33.7662   36.1114 H         1 ARG         0.2615
    126 H68        52.4632   33.0398   36.6819 H         1 ARG         0.2615
    127 H69        54.4703   35.7035   39.0338 H         1 ARG         0.2615
    128 H70        55.1093   35.2670   37.4263 H         1 ARG         0.2615
@<TRIPOS>BOND
     1    1    2 1  
     2    2    3 1  
     3    2    5 1  
     4    3    4 2  
     5    3   11 am 
     6    5    6 1  
     7    6    7 1  
     8    6    8 2  
     9    7    9 1  
    10    8   10 1  
    11    9   10 2  
    12   11   12 1  
    13   12   13 1  
    14   12   15 1  
    15   13   14 2  
    16   13   22 am 
    17   15   16 1  
    18   16   17 1  
    19   17   18 1  
    20   18   19 ar 
    21   19   20 ar 
    22   19   21 ar 
    23   22   23 1  
    24   23   24 1  
    25   23   30 1  
    26   24   25 1  
    27   25   26 1  
    28   26   27 1  
    29   27   28 1  
    30   28   29 1  
    31   30   31 2  
    32   30   32 am 
    33   32   33 1  
    34   33   34 1  
    35   33   36 1  
    36   34   35 2  
    37   34   39 am 
    38   36   37 1  
    39   36   38 1  
    40   39   40 1  
    41   40   41 1  
    42   40   43 1  
    43   41   42 2  
    44   41   47 am 
    45   43   44 1  
    46   44   45 1  
    47   44   46 1  
    48   47   48 1  
    49   48   49 1  
    50   48   51 1  
    51   49   50 ar 
    52   49   58 ar 
    53   51   52 1  
    54   52   53 1  
    55   53   54 1  
    56   54   55 ar 
    57   55   56 ar 
    58   55   57 ar 
    59    1   59 1  
    60    1   60 1  
    61    1   61 1  
    62    2   62 1  
    63    5   63 1  
    64    5   64 1  
    65    7   65 1  
    66    8   66 1  
    67    9   67 1  
    68   11   68 1  
    69   12   69 1  
    70   15   70 1  
    71   15   71 1  
    72   16   72 1  
    73   16   73 1  
    74   17   74 1  
    75   17   75 1  
    76   18   76 1  
    77   20   77 1  
    78   20   78 1  
    79   21   79 1  
    80   21   80 1  
    81   22   81 1  
    82   23   82 1  
    83   24   83 1  
    84   24   84 1  
    85   25   85 1  
    86   25   86 1  
    87   26   87 1  
    88   26   88 1  
    89   27   89 1  
    90   27   90 1  
    91   28   91 1  
    92   28   92 1  
    93   29   93 1  
    94   29   94 1  
    95   29   95 1  
    96   32   96 1  
    97   33   97 1  
    98   36   98 1  
    99   37   99 1  
   100   37  100 1  
   101   37  101 1  
   102   38  102 1  
   103   38  103 1  
   104   38  104 1  
   105   39  105 1  
   106   40  106 1  
   107   43  107 1  
   108   43  108 1  
   109   44  109 1  
   110   45  110 1  
   111   45  111 1  
   112   45  112 1  
   113   46  113 1  
   114   46  114 1  
   115   46  115 1  
   116   47  116 1  
   117   48  117 1  
   118   51  118 1  
   119   51  119 1  
   120   52  120 1  
   121   52  121 1  
   122   53  122 1  
   123   53  123 1  
   124   54  124 1  
   125   56  125 1  
   126   56  126 1  
   127   57  127 1  
   128   57  128 1  
@<TRIPOS>SUBSTRUCTURE
     1 HIS         1

