3h6z_ligand
  -I-interpret- 

126126  0  0  0  0  0  0  0  0999 V2000
   52.9280   24.5360   28.5430 N   0  3  0  0  0
   52.7940   25.6450   29.5530 C   0  0  0  0  0
   53.2540   27.0020   29.0260 C   0  0  0  0  0
   54.1740   27.0940   28.2020 O   0  0  0  0  0
   53.5710   25.3310   30.8500 C   0  0  0  0  0
   52.7400   24.6850   31.9160 C   0  0  0  0  0
   51.3720   25.0740   32.1330 N   0  0  0  0  0
   53.0870   23.6830   32.8410 C   0  0  0  0  0
   50.9050   24.3310   33.1300 C   0  0  0  0  0
   51.9270   23.4770   33.5790 N   0  0  0  0  0
   52.6020   28.0520   29.4980 N   0  0  0  0  0
   53.1710   29.3740   29.4010 C   0  0  0  0  0
   52.9810   30.0050   30.7620 C   0  0  0  0  0
   53.8730   30.6920   31.2680 O   0  0  0  0  0
   52.5280   30.2010   28.2930 C   0  0  0  0  0
   53.3530   31.4160   27.9380 C   0  0  0  0  0
   53.3660   31.6810   26.4540 C   0  0  0  0  0
   53.6420   33.0880   26.1710 N   0  0  0  0  0
   52.9900   33.8110   25.2610 C   0  0  0  0  0
   52.0030   33.2700   24.5480 N   0  0  0  0  0
   53.3130   35.0850   25.0740 N   0  0  0  0  0
   51.8230   29.7360   31.3610 N   0  0  0  0  0
   51.5380   30.1940   32.7020 C   0  0  0  0  0
   50.0600   30.4710   32.8750 C   0  0  0  0  0
   49.7740   31.9090   32.4880 C   0  0  0  0  0
   48.4180   32.2980   33.0260 C   0  0  0  0  0
   47.8110   33.3370   32.1160 C   0  0  0  0  0
   46.4880   33.6960   32.5660 N   0  3  0  0  0
   45.9350   34.9790   32.1850 C   0  0  0  0  0
   52.0430   29.2040   33.6970 C   0  0  0  0  0
   51.6720   28.0260   33.7000 O   0  0  0  0  0
   52.9310   29.6920   34.5440 N   0  0  0  0  0
   53.5250   28.8820   35.5820 C   0  0  0  0  0
   52.5290   28.7810   36.7510 C   0  0  0  0  0
   51.6640   29.6490   36.9050 O   0  0  0  0  0
   54.9290   29.4530   35.9800 C   0  0  0  0  0
   54.8250   30.5250   37.0650 C   0  0  0  0  0
   55.8620   28.3260   36.3810 C   0  0  0  0  0
   52.6270   27.7110   37.5400 N   0  0  0  0  0
   51.7420   27.5190   38.6830 C   0  0  0  0  0
   51.9230   28.6530   39.6890 C   0  0  0  0  0
   53.0410   29.0420   40.0060 O   0  0  0  0  0
   51.9830   26.1570   39.3400 C   0  0  0  0  0
   51.2560   25.8400   40.6490 C   0  0  0  0  0
   49.7470   25.9000   40.4670 C   0  0  0  0  0
   51.6760   24.4930   41.1670 C   0  0  0  0  0
   50.8110   29.1980   40.1690 N   0  0  0  0  0
   50.8480   30.3090   41.1140 C   0  0  0  0  0
   50.0190   30.0630   42.3670 C   0  0  0  0  0
   48.9480   29.4540   42.3490 O   0  0  0  0  0
   50.4680   31.6140   40.4260 C   0  0  0  0  0
   51.5430   32.0570   39.4610 C   0  0  0  0  0
   51.2530   33.3920   38.8530 C   0  0  0  0  0
   52.4360   34.2460   38.9200 N   0  0  0  0  0
   53.3610   34.3550   37.9690 C   0  0  0  0  0
   53.2640   33.6690   36.8360 N   0  0  0  0  0
   54.3900   35.1690   38.1570 N   0  0  0  0  0
   50.4460   30.4580   43.4480 O   0  0  0  0  0
   52.4034   24.7781   27.7024 H   0  0  0  0  0
   53.9122   24.4102   28.3065 H   0  0  0  0  0
   52.5589   23.6712   28.9384 H   0  0  0  0  0
   51.7262   25.7058   29.7633 H   0  0  0  0  0
   53.9300   26.2794   31.2498 H   0  0  0  0  0
   54.3651   24.6310   30.5901 H   0  0  0  0  0
   54.0483   23.1816   32.9535 H   0  0  0  0  0
   49.8937   24.3762   33.5342 H   0  0  0  0  0
   51.6888   27.9256   29.9344 H   0  0  0  0  0
   54.2260   29.3256   29.1314 H   0  0  0  0  0
   51.5546   30.5424   28.6451 H   0  0  0  0  0
   52.4466   29.5743   27.4049 H   0  0  0  0  0
   54.3787   31.2354   28.2595 H   0  0  0  0  0
   52.9130   32.2815   28.4334 H   0  0  0  0  0
   52.3865   31.4298   26.0471 H   0  0  0  0  0
   54.1490   31.0744   25.9990 H   0  0  0  0  0
   54.3811   33.5460   26.7042 H   0  0  0  0  0
   51.5002   33.8342   23.8630 H   0  0  0  0  0
   51.7502   32.2917   24.6872 H   0  0  0  0  0
   54.0588   35.5084   25.6262 H   0  0  0  0  0
   51.1190   29.1930   30.8610 H   0  0  0  0  0
   52.0585   31.1359   32.8749 H   0  0  0  0  0
   49.7765   30.3086   33.9149 H   0  0  0  0  0
   49.4848   29.7992   32.2379 H   0  0  0  0  0
   49.7826   32.0078   31.4025 H   0  0  0  0  0
   50.5388   32.5630   32.9069 H   0  0  0  0  0
   48.5235   32.7053   34.0315 H   0  0  0  0  0
   47.7721   31.4209   33.0663 H   0  0  0  0  0
   47.7421   32.9269   31.1084 H   0  0  0  0  0
   48.4409   34.2265   32.1261 H   0  0  0  0  0
   46.5598   33.7345   33.5827 H   0  0  0  0  0
   45.8704   33.0076   32.1357 H   0  0  0  0  0
   46.5758   35.7759   32.5623 H   0  0  0  0  0
   45.8783   35.0405   31.0982 H   0  0  0  0  0
   44.9361   35.0829   32.6087 H   0  0  0  0  0
   53.2058   30.6709   34.4627 H   0  0  0  0  0
   53.7168   27.8671   35.2338 H   0  0  0  0  0
   55.3529   29.9463   35.1053 H   0  0  0  0  0
   54.2121   31.3498   36.7015 H   0  0  0  0  0
   54.3668   30.0953   37.9558 H   0  0  0  0  0
   55.8222   30.8915   37.3086 H   0  0  0  0  0
   55.4400   27.7923   37.2326 H   0  0  0  0  0
   55.9813   27.6392   35.5430 H   0  0  0  0  0
   56.8327   28.7396   36.6545 H   0  0  0  0  0
   53.3390   27.0088   37.3391 H   0  0  0  0  0
   50.7116   27.5365   38.3280 H   0  0  0  0  0
   53.0433   26.1456   39.5925 H   0  0  0  0  0
   51.6120   25.4247   38.6230 H   0  0  0  0  0
   51.5328   26.5967   41.3831 H   0  0  0  0  0
   49.4610   26.9005   40.1425 H   0  0  0  0  0
   49.4439   25.1721   39.7145 H   0  0  0  0  0
   49.2587   25.6703   41.4140 H   0  0  0  0  0
   51.4308   23.7289   40.4294 H   0  0  0  0  0
   52.7509   24.4937   41.3478 H   0  0  0  0  0
   51.1498   24.2830   42.0982 H   0  0  0  0  0
   49.9080   28.8304   39.8693 H   0  0  0  0  0
   51.8778   30.3925   41.4613 H   0  0  0  0  0
   48.7370   29.2065   41.4458 H   0  0  0  0  0
   50.3445   32.3849   41.1866 H   0  0  0  0  0
   49.5441   31.4573   39.8692 H   0  0  0  0  0
   51.5938   31.3247   38.6552 H   0  0  0  0  0
   52.4791   32.1357   40.0138 H   0  0  0  0  0
   50.4402   33.8654   39.4038 H   0  0  0  0  0
   50.9715   33.2544   37.8090 H   0  0  0  0  0
   52.5637   34.8042   39.7641 H   0  0  0  0  0
   53.9792   33.7700   36.1158 H   0  0  0  0  0
   52.4743   33.0411   36.6860 H   0  0  0  0  0
   54.4663   35.7030   39.0227 H   0  0  0  0  0
  1  2  1  0  0  0
  2  3  1  0  0  0
  2  5  1  0  0  0
  3  4  2  0  0  0
  3 11  1  0  0  0
  5  6  1  0  0  0
  6  7  4  0  0  0
  6  8  4  0  0  0
  7  9  4  0  0  0
  8 10  4  0  0  0
  9 10  4  0  0  0
 11 12  1  0  0  0
 12 13  1  0  0  0
 12 15  1  0  0  0
 13 14  2  0  0  0
 13 22  1  0  0  0
 15 16  1  0  0  0
 16 17  1  0  0  0
 17 18  1  0  0  0
 18 19  1  0  0  0
 19 20  1  0  0  0
 19 21  2  0  0  0
 22 23  1  0  0  0
 23 24  1  0  0  0
 23 30  1  0  0  0
 24 25  1  0  0  0
 25 26  1  0  0  0
 26 27  1  0  0  0
 27 28  1  0  0  0
 28 29  1  0  0  0
 30 31  2  0  0  0
 30 32  1  0  0  0
 32 33  1  0  0  0
 33 34  1  0  0  0
 33 36  1  0  0  0
 34 35  2  0  0  0
 34 39  1  0  0  0
 36 37  1  0  0  0
 36 38  1  0  0  0
 39 40  1  0  0  0
 40 41  1  0  0  0
 40 43  1  0  0  0
 41 42  2  0  0  0
 41 47  1  0  0  0
 43 44  1  0  0  0
 44 45  1  0  0  0
 44 46  1  0  0  0
 47 48  1  0  0  0
 48 49  1  0  0  0
 48 51  1  0  0  0
 49 50  1  0  0  0
 49 58  2  0  0  0
 51 52  1  0  0  0
 52 53  1  0  0  0
 53 54  1  0  0  0
 54 55  1  0  0  0
 55 56  1  0  0  0
 55 57  2  0  0  0
  1 59  1  0  0  0
  1 60  1  0  0  0
  1 61  1  0  0  0
  2 62  1  0  0  0
  5 63  1  0  0  0
  5 64  1  0  0  0
  8 65  1  0  0  0
  9 66  1  0  0  0
 11 67  1  0  0  0
 12 68  1  0  0  0
 15 69  1  0  0  0
 15 70  1  0  0  0
 16 71  1  0  0  0
 16 72  1  0  0  0
 17 73  1  0  0  0
 17 74  1  0  0  0
 18 75  1  0  0  0
 20 76  1  0  0  0
 20 77  1  0  0  0
 21 78  1  0  0  0
 22 79  1  0  0  0
 23 80  1  0  0  0
 24 81  1  0  0  0
 24 82  1  0  0  0
 25 83  1  0  0  0
 25 84  1  0  0  0
 26 85  1  0  0  0
 26 86  1  0  0  0
 27 87  1  0  0  0
 27 88  1  0  0  0
 28 89  1  0  0  0
 28 90  1  0  0  0
 29 91  1  0  0  0
 29 92  1  0  0  0
 29 93  1  0  0  0
 32 94  1  0  0  0
 33 95  1  0  0  0
 36 96  1  0  0  0
 37 97  1  0  0  0
 37 98  1  0  0  0
 37 99  1  0  0  0
 38100  1  0  0  0
 38101  1  0  0  0
 38102  1  0  0  0
 39103  1  0  0  0
 40104  1  0  0  0
 43105  1  0  0  0
 43106  1  0  0  0
 44107  1  0  0  0
 45108  1  0  0  0
 45109  1  0  0  0
 45110  1  0  0  0
 46111  1  0  0  0
 46112  1  0  0  0
 46113  1  0  0  0
 47114  1  0  0  0
 48115  1  0  0  0
 50116  1  0  0  0
 51117  1  0  0  0
 51118  1  0  0  0
 52119  1  0  0  0
 52120  1  0  0  0
 53121  1  0  0  0
 53122  1  0  0  0
 54123  1  0  0  0
 56124  1  0  0  0
 56125  1  0  0  0
 57126  1  0  0  0
M  END
$$$$
