5nfb_ligand
  -I-interpret- 

 85 88  0  0  0  0  0  0  0  0999 V2000
   27.0530  -12.6930   -2.2490 O   0  0  0  0  0
   27.5580  -11.5940   -1.9700 C   0  0  0  0  0
   28.9570  -11.2200   -2.3700 C   0  0  0  0  0
   26.8140  -10.5670   -1.3340 N   0  0  0  0  0
   25.3790  -10.8190   -1.1640 C   0  0  0  0  0
   24.9280   -9.9910    0.0800 C   0  0  0  0  0
   25.4290  -10.7010    1.2960 N   0  0  0  0  0
   26.5560  -10.2380    1.8890 C   0  0  0  0  0
   26.8720  -10.8460    3.2020 C   0  0  0  0  0
   26.3910  -12.1110    3.6860 C   0  0  0  0  0
   26.7530  -12.5140    4.9970 C   0  0  0  0  0
   27.5180  -11.6190    5.7830 C   0  0  0  0  0
   27.9740  -10.3760    5.2520 C   0  0  0  0  0
   28.7450   -9.4300    5.8970 O   0  0  0  0  0
   29.3050   -8.2300    5.2520 C   0  0  0  0  0
   27.6080   -9.9940    3.9710 C   0  0  0  0  0
   27.2180   -9.3030    1.4710 O   0  0  0  0  0
   24.6950  -10.2220   -2.2700 O   0  0  0  0  0
   23.3000  -10.4040   -2.2490 C   0  0  0  0  0
   22.7280   -9.8840   -3.5980 C   0  0  0  0  0
   22.9890   -8.4530   -3.8120 O   0  0  0  0  0
   22.7500   -9.5580   -1.0500 C   0  0  0  0  0
   23.4400  -10.0170    0.2290 C   0  0  0  0  0
   22.9430   -9.2350    1.3770 O   0  0  0  0  0
   21.3800   -9.7930   -0.9530 O   0  0  0  0  0
   20.5530   -8.7130   -1.4240 C   0  0  0  0  0
   19.1530   -9.1800   -1.3210 C   0  0  0  0  0
   18.9370  -10.2170   -2.3630 O   0  0  0  0  0
   18.1640   -8.0890   -1.6230 C   0  0  0  0  0
   18.5120   -6.8620   -0.7890 C   0  0  0  0  0
   18.0700   -7.1410    0.5690 O   0  0  0  0  0
   19.9700   -6.5020   -0.9200 C   0  0  0  0  0
   20.3100   -5.3280   -0.0500 C   0  0  0  0  0
   21.6840   -5.0610   -0.0840 O   0  0  0  0  0
   20.7050   -7.6650   -0.4890 O   0  0  0  0  0
   16.8920   -8.5890   -1.4210 O   0  0  0  0  0
   15.9060   -7.8710   -2.1760 C   0  0  0  0  0
   14.5320   -8.4830   -2.1390 C   0  0  0  0  0
   13.4750   -7.8450   -2.7670 C   0  0  0  0  0
   12.2560   -8.4880   -2.6680 C   0  0  0  0  0
   12.0590   -9.7270   -2.0280 C   0  0  0  0  0
   13.0840  -10.3710   -1.4380 C   0  0  0  0  0
   14.3280   -9.7250   -1.5490 C   0  0  0  0  0
   12.9100  -11.6290   -0.7740 O   0  0  0  0  0
   13.9630  -12.4350   -0.1260 C   0  0  0  0  0
   29.6609  -11.9243   -1.9266 H   0  0  0  0  0
   29.0440  -11.2526   -3.4560 H   0  0  0  0  0
   29.1776  -10.2128   -2.0166 H   0  0  0  0  0
   27.2517   -9.7032   -1.0135 H   0  0  0  0  0
   25.1774  -11.8866   -1.0764 H   0  0  0  0  0
   25.2973   -8.9720   -0.0358 H   0  0  0  0  0
   24.9359  -11.5121    1.6694 H   0  0  0  0  0
   25.7630  -12.7455    3.0606 H   0  0  0  0  0
   26.4507  -13.4854    5.3882 H   0  0  0  0  0
   27.7628  -11.8842    6.8115 H   0  0  0  0  0
   29.9638   -8.5309    4.4374 H   0  0  0  0  0
   28.4933   -7.6188    4.8576 H   0  0  0  0  0
   29.8709   -7.6555    5.9854 H   0  0  0  0  0
   27.9061   -9.0206    3.5816 H   0  0  0  0  0
   23.0161  -11.4492   -2.1267 H   0  0  0  0  0
   21.6477  -10.0279   -3.5808 H   0  0  0  0  0
   23.2138  -10.4364   -4.4023 H   0  0  0  0  0
   22.6171   -8.1836   -4.6550 H   0  0  0  0  0
   22.9389   -8.4952   -1.2013 H   0  0  0  0  0
   23.1880  -11.0590    0.4263 H   0  0  0  0  0
   23.3823   -9.5301    2.1780 H   0  0  0  0  0
   20.8060   -8.4027   -2.4378 H   0  0  0  0  0
   19.0032   -9.5398   -0.3031 H   0  0  0  0  0
   18.0324  -10.5347   -2.3140 H   0  0  0  0  0
   18.2039   -7.7609   -2.6617 H   0  0  0  0  0
   17.9987   -5.9675   -1.1419 H   0  0  0  0  0
   18.2714   -6.3890    1.1307 H   0  0  0  0  0
   20.2149   -6.2230   -1.9448 H   0  0  0  0  0
   20.0233   -5.5580    0.9762 H   0  0  0  0  0
   19.7741   -4.4529   -0.4176 H   0  0  0  0  0
   21.8765   -4.3076    0.4789 H   0  0  0  0  0
   16.2318   -7.8763   -3.2162 H   0  0  0  0  0
   15.8264   -6.8768   -1.7363 H   0  0  0  0  0
   13.5962   -6.9027   -3.3013 H   0  0  0  0  0
   11.3881   -8.0036   -3.1155 H   0  0  0  0  0
   11.0635  -10.1706   -2.0100 H   0  0  0  0  0
   15.1993  -10.2375   -1.1411 H   0  0  0  0  0
   14.7182  -12.7048   -0.8642 H   0  0  0  0  0
   14.4246  -11.8534    0.6720 H   0  0  0  0  0
   13.5211  -13.3399    0.2911 H   0  0  0  0  0
  1  2  2  0  0  0
  2  3  1  0  0  0
  2  4  1  0  0  0
  4  5  1  0  0  0
  5  6  1  0  0  0
  5 18  1  0  0  0
  6  7  1  0  0  0
  6 23  1  0  0  0
  7  8  1  0  0  0
  8  9  1  0  0  0
  8 17  2  0  0  0
  9 10  4  0  0  0
  9 16  4  0  0  0
 10 11  4  0  0  0
 11 12  4  0  0  0
 12 13  4  0  0  0
 13 14  1  0  0  0
 13 16  4  0  0  0
 14 15  1  0  0  0
 18 19  1  0  0  0
 19 20  1  0  0  0
 19 22  1  0  0  0
 20 21  1  0  0  0
 22 23  1  0  0  0
 22 25  1  0  0  0
 23 24  1  0  0  0
 25 26  1  0  0  0
 26 27  1  0  0  0
 26 35  1  0  0  0
 27 28  1  0  0  0
 27 29  1  0  0  0
 29 30  1  0  0  0
 29 36  1  0  0  0
 30 31  1  0  0  0
 30 32  1  0  0  0
 32 33  1  0  0  0
 32 35  1  0  0  0
 33 34  1  0  0  0
 36 37  1  0  0  0
 37 38  1  0  0  0
 38 39  4  0  0  0
 38 43  4  0  0  0
 39 40  4  0  0  0
 40 41  4  0  0  0
 41 42  4  0  0  0
 42 43  4  0  0  0
 42 44  1  0  0  0
 44 45  1  0  0  0
  3 46  1  0  0  0
  3 47  1  0  0  0
  3 48  1  0  0  0
  4 49  1  0  0  0
  5 50  1  0  0  0
  6 51  1  0  0  0
  7 52  1  0  0  0
 10 53  1  0  0  0
 11 54  1  0  0  0
 12 55  1  0  0  0
 15 56  1  0  0  0
 15 57  1  0  0  0
 15 58  1  0  0  0
 16 59  1  0  0  0
 19 60  1  0  0  0
 20 61  1  0  0  0
 20 62  1  0  0  0
 21 63  1  0  0  0
 22 64  1  0  0  0
 23 65  1  0  0  0
 24 66  1  0  0  0
 26 67  1  0  0  0
 27 68  1  0  0  0
 28 69  1  0  0  0
 29 70  1  0  0  0
 30 71  1  0  0  0
 31 72  1  0  0  0
 32 73  1  0  0  0
 33 74  1  0  0  0
 33 75  1  0  0  0
 34 76  1  0  0  0
 37 77  1  0  0  0
 37 78  1  0  0  0
 39 79  1  0  0  0
 40 80  1  0  0  0
 41 81  1  0  0  0
 43 82  1  0  0  0
 45 83  1  0  0  0
 45 84  1  0  0  0
 45 85  1  0  0  0
M  END
$$$$
