3rxm_ligand
  -I-interpret- 

 21 22  0  0  0  0  0  0  0  0999 V2000
   -1.8110  -13.2780   18.3170 C   0  0  0  0  0
   -3.1100  -13.4840   18.9220 N   0  3  0  0  0
   -1.2070  -14.5710   14.5140 S   0  0  0  0  0
   -1.7380  -13.9920   16.9860 C   0  0  0  0  0
   -2.2930  -15.2280   16.7640 N   0  0  0  0  0
   -3.9090  -17.7880   15.8520 S   0  0  0  0  0
   -1.0970  -13.4800   15.8520 C   0  0  0  0  0
   -2.0970  -15.6720   15.5040 C   0  0  0  0  0
   -2.6200  -16.9860   15.0450 C   0  0  0  0  0
   -2.1340  -17.6890   13.9500 C   0  0  0  0  0
   -2.8280  -18.8980   13.7750 C   0  0  0  0  0
   -3.8260  -19.0960   14.7240 C   0  0  0  0  0
   -1.0413  -13.6755   18.9786 H   0  0  0  0  0
   -1.6552  -12.2108   18.1593 H   0  0  0  0  0
   -3.1472  -12.9983   19.8182 H   0  0  0  0  0
   -3.8336  -13.1163   18.3043 H   0  0  0  0  0
   -3.2612  -14.4821   19.0683 H   0  0  0  0  0
   -0.5918  -12.5148   15.8164 H   0  0  0  0  0
   -1.3205  -17.3473   13.3101 H   0  0  0  0  0
   -2.6073  -19.6078   12.9778 H   0  0  0  0  0
   -4.4768  -19.9699   14.7529 H   0  0  0  0  0
  1  2  1  0  0  0
  4  1  1  0  0  0
  3  7  4  0  0  0
  8  3  4  0  0  0
  5  4  4  0  0  0
  4  7  4  0  0  0
  8  5  4  0  0  0
  9  6  4  0  0  0
  6 12  4  0  0  0
  8  9  1  0  0  0
  9 10  4  0  0  0
 10 11  4  0  0  0
 11 12  4  0  0  0
  1 13  1  0  0  0
  1 14  1  0  0  0
  2 15  1  0  0  0
  2 16  1  0  0  0
  2 17  1  0  0  0
  7 18  1  0  0  0
 10 19  1  0  0  0
 11 20  1  0  0  0
 12 21  1  0  0  0
M  END
$$$$
