### 
### Created by X-TOOL on Mon Sep 10 21:13:33 2018
### 

@<TRIPOS>MOLECULE
5o4y_ligand
  260   267     1     0     0
SMALL
GAST_HUCK


@<TRIPOS>ATOM
      1 N         -20.4660   20.2510   18.4990 N.am      1 PHE        -0.2631
      2 CA        -19.2790   20.7580   19.0850 C.3       1 PHE         0.1406
      3 C         -19.6570   21.6210   20.1680 C.2       1 PHE         0.2082
      4 O         -19.8860   21.0340   21.1810 O.2       1 PHE        -0.3940
      5 CB        -18.2630   21.4050   18.1910 C.3       1 PHE         0.0214
      6 CG        -17.1030   21.9900   18.9370 C.ar      1 PHE        -0.0386
      7 CD1       -16.5820   23.1840   18.5650 C.ar      1 PHE        -0.0601
      8 CD2       -16.5440   21.3400   20.0010 C.ar      1 PHE        -0.0601
      9 CE1       -15.5200   23.7100   19.2420 C.ar      1 PHE        -0.0686
     10 CE2       -15.4780   21.8690   20.6820 C.ar      1 PHE        -0.0686
     11 CZ        -14.9690   23.0610   20.3020 C.ar      1 PHE        -0.0687
     12 N         -19.8150   22.8870   20.0380 N.am      1 MAA        -0.2530
     13 CM        -20.3980   23.4540   18.8500 C.3       1 MAA         0.0254
     14 CA        -19.4280   23.6680   21.1890 C.3       1 MAA         0.1306
     15 CB        -19.8160   25.0730   20.8390 C.3       1 MAA        -0.0242
     16 C         -20.0910   23.3610   22.4850 C.2       1 MAA         0.2039
     17 O         -19.6160   23.7130   23.4680 O.2       1 MAA        -0.3944
     18 N         -21.1950   22.7100   22.4370 N.am      1 ASN        -0.2616
     19 CA        -22.1390   22.4600   23.4780 C.3       1 ASN         0.1478
     20 C         -21.8400   21.3210   24.4070 C.2       1 ASN         0.2088
     21 O         -21.6720   20.2200   23.9910 O.2       1 ASN        -0.3940
     22 CB        -23.4370   22.1400   22.7900 C.3       1 ASN         0.0773
     23 CG        -24.6130   21.8530   23.6870 C.2       1 ASN         0.1780
     24 OD1       -25.5730   21.3920   23.2100 O.2       1 ASN        -0.3970
     25 ND2       -24.6480   22.1020   24.9580 N.am      1 ASN        -0.3007
     26 N         -21.7490   21.6130   25.6700 N.am      1 PRO        -0.2497
     27 CA        -21.7220   20.7370   26.7880 C.3       1 PRO         0.1338
     28 C         -22.0660   19.3220   26.8410 C.2       1 PRO         0.2042
     29 O         -21.1320   18.7540   27.2230 O.2       1 PRO        -0.3944
     30 CB        -22.2410   21.4660   27.9550 C.3       1 PRO        -0.0104
     31 CG        -22.2880   22.8660   27.4870 C.3       1 PRO        -0.0281
     32 CD        -21.5200   22.8940   26.2200 C.3       1 PRO         0.0369
     33 N         -23.0480   18.5060   26.6830 N.am      1 HIS        -0.2619
     34 CA        -24.4380   18.3660   26.3860 C.3       1 HIS         0.1421
     35 C         -24.5850   17.6120   25.1690 C.2       1 HIS         0.2060
     36 O         -25.5090   16.8860   25.1120 O.2       1 HIS        -0.3942
     37 CB        -25.5390   19.3440   26.5860 C.3       1 HIS         0.0427
     38 CG        -25.4800   19.9220   27.9300 C.2       1 HIS         0.0561
     39 ND1       -25.2230   19.2850   29.0380 N.pl3     1 HIS        -0.2623
     40 CD2       -25.6610   21.2320   28.2050 C.2       1 HIS        -0.0276
     41 CE1       -25.2390   20.1550   30.0270 C.2       1 HIS         0.0875
     42 NE2       -25.5160   21.3470   29.5130 N.2       1 HIS        -0.3437
     43 N         -23.7100   17.7220   24.2430 N.am      1 LEU        -0.2636
     44 CA        -23.9180   17.0300   23.0290 C.3       1 LEU         0.1312
     45 C         -23.0220   15.9100   22.7130 C.2       1 LEU         0.2040
     46 O         -23.3660   14.8660   23.0740 O.2       1 LEU        -0.3944
     47 CB        -24.0240   18.0560   21.9490 C.3       1 LEU        -0.0101
     48 CG        -25.4440   18.2570   21.4750 C.3       1 LEU        -0.0425
     49 CD1       -26.3890   18.4170   22.6240 C.3       1 LEU        -0.0625
     50 CD2       -25.5610   19.4490   20.5500 C.3       1 LEU        -0.0625
     51 N         -21.9690   16.0380   22.0220 N.am      1 SER        -0.2616
     52 CA        -21.1930   14.9330   21.6360 C.3       1 SER         0.1539
     53 C         -20.4450   15.3380   20.5270 C.2       1 SER         0.2063
     54 O         -21.0020   15.7660   19.5780 O.2       1 SER        -0.3943
     55 CB        -21.9300   13.7880   21.0530 C.3       1 SER         0.0843
     56 OG        -22.7710   13.2090   22.0180 O.3       1 SER        -0.3903
     57 N         -19.2030   15.2370   20.7020 N.am      1 TRP        -0.2626
     58 CA        -18.3890   15.7810   19.7090 C.3       1 TRP         0.1352
     59 C         -17.8220   14.7300   18.8330 C.2       1 TRP         0.2052
     60 O         -17.9930   13.5670   19.0000 O.2       1 TRP        -0.3942
     61 CB        -17.4600   16.8410   20.2960 C.3       1 TRP         0.0042
     62 CG        -18.1310   17.8510   21.1780 C.2       1 TRP        -0.0418
     63 CD1       -19.4330   18.1810   21.3580 C.2       1 TRP         0.0167
     64 CD2       -17.4270   18.6740   22.1340 C.ar      1 TRP        -0.0214
     65 NE1       -19.5780   19.1230   22.2840 N.pl3     1 TRP        -0.2890
     66 CE2       -18.4240   19.4520   22.7930 C.ar      1 TRP         0.0603
     67 CE3       -16.1170   18.7980   22.4150 C.ar      1 TRP        -0.0747
     68 CZ2       -18.0170   20.3330   23.7200 C.ar      1 TRP        -0.0443
     69 CZ3       -15.7540   19.6890   23.3540 C.ar      1 TRP        -0.0792
     70 CH2       -16.6920   20.4320   23.9900 C.ar      1 TRP        -0.0768
     71 N         -17.2040   15.3680   17.9180 N.am      1 SER        -0.2615
     72 CA        -16.1840   15.1740   17.0060 C.3       1 SER         0.1539
     73 C         -15.6060   14.0110   16.4320 C.2       1 SER         0.2063
     74 O         -16.4390   13.2070   16.1480 O.2       1 SER        -0.3943
     75 CB        -15.2050   16.0250   17.5930 C.3       1 SER         0.0843
     76 OG        -14.9430   16.7590   16.4470 O.3       1 SER        -0.3903
     77 N         -14.3230   13.9270   16.0610 N.am      1 TRP        -0.2626
     78 CA        -13.1660   14.8040   15.9720 C.3       1 TRP         0.1354
     79 C         -12.9310   15.2860   14.6190 C.2       1 TRP         0.2074
     80 O         -13.0220   14.4320   13.8250 O.2       1 TRP        -0.3941
     81 CB        -11.9980   13.9480   16.2310 C.3       1 TRP         0.0042
     82 CG        -10.7370   14.6670   16.0070 C.2       1 TRP        -0.0418
     83 CD1       -10.0360   14.7460   14.8680 C.2       1 TRP         0.0167
     84 CD2        -9.9650   15.3680   16.9910 C.ar      1 TRP        -0.0214
     85 NE1        -8.9280   15.4340   15.0470 N.pl3     1 TRP        -0.2890
     86 CE2        -8.8170   15.8360   16.2850 C.ar      1 TRP         0.0603
     87 CE3       -10.1330   15.6180   18.3070 C.ar      1 TRP        -0.0747
     88 CZ2        -7.8800   16.5410   16.9990 C.ar      1 TRP        -0.0443
     89 CZ3        -9.1820   16.3340   18.9720 C.ar      1 TRP        -0.0792
     90 CH2        -8.0690   16.7950   18.3310 C.ar      1 TRP        -0.0768
     91 N         -12.6320   16.5380   14.2910 N.am      1 9KK        -0.2528
     92 CE         -8.0890   20.1710   16.0460 C.3       1 9KK        -0.0653
     93 CD         -9.1170   19.0720   15.9690 C.3       1 9KK        -0.0557
     94 CG        -10.3430   19.5020   15.2350 C.3       1 9KK        -0.0491
     95 CB        -10.9800   18.3380   14.4960 C.3       1 9KK        -0.0122
     96 CA        -12.0770   17.5660   15.2190 C.3       1 9KK         0.1336
     97 CM        -12.7870   16.8850   12.9130 C.3       1 9KK         0.0254
     98 C         -12.8970   18.5310   16.0390 C.2       1 9KK         0.2063
     99 O         -12.7920   18.5530   17.2420 O.2       1 9KK        -0.3942
    100 N         -13.6370   19.4160   15.4800 N.am      1 9KK        -0.2529
    101 CE        -11.4170   23.3020   17.1000 C.3       1 9KK        -0.0653
    102 CD        -12.8070   22.9270   17.5010 C.3       1 9KK        -0.0557
    103 CG        -13.5100   22.0580   16.5000 C.3       1 9KK        -0.0491
    104 CB        -14.2300   20.9150   17.1820 C.3       1 9KK        -0.0122
    105 CA        -14.7880   19.8930   16.2200 C.3       1 9KK         0.1334
    106 CM        -13.3450   19.9210   14.1880 C.3       1 9KK         0.0254
    107 C         -15.8860   20.5100   15.4760 C.2       1 9KK         0.2041
    108 O         -15.7680   21.6170   15.0900 O.2       1 9KK        -0.3944
    109 N         -16.9990   19.9620   15.1660 N.am      1 ARG        -0.2637
    110 CA        -17.4790   18.6390   15.1120 C.3       1 ARG         0.1311
    111 C         -18.4440   18.1690   16.0960 C.2       1 ARG         0.2039
    112 O         -18.1850   18.0680   17.2110 O.2       1 ARG        -0.3944
    113 CB        -16.5940   17.6130   14.4880 C.3       1 ARG        -0.0092
    114 CG        -16.0270   18.1470   13.1990 C.3       1 ARG        -0.0156
    115 CD        -16.6330   17.5930   11.9470 C.3       1 ARG         0.0627
    116 NE        -15.8490   18.1190   10.8800 N.pl3     1 ARG        -0.2723
    117 CZ        -15.3760   17.3550    9.9500 C.cat     1 ARG         0.2882
    118 NH1       -14.5440   17.8160    9.1640 N.pl3     1 ARG        -0.2849
    119 NH2       -15.7310   16.0990    9.8500 N.pl3     1 ARG        -0.2849
    120 N         -19.5790   17.8220   15.5990 N.am      1 CCS        -0.2629
    121 CA        -20.4930   17.1070   16.3760 C.3       1 CCS         0.1400
    122 CB        -21.9030   17.5260   16.2350 C.3       1 CCS         0.0364
    123 SG        -22.0140   19.1700   16.6400 S.3       1 CCS        -0.1344
    124 CD        -22.6050   19.3860   18.2190 C.3       1 CCS         0.0836
    125 CE        -21.6380   20.1200   19.0320 C.2       1 CCS         0.1883
    126 OZ2       -22.0620   20.4510   20.0450 O.2       1 CCS        -0.3960
    127 C         -20.4090   15.6910   16.0320 C.2       1 CCS         0.2045
    128 O         -20.0280   15.3160   14.9860 O.2       1 CCS        -0.3944
    129 N         -20.7940   14.8780   16.9460 N.am      1 GLY        -0.2664
    130 CA        -20.8810   13.4940   16.6850 C.3       1 GLY         0.1198
    131 C         -22.2730   13.2290   16.2440 C.2       1 GLY         0.1960
    132 O         -23.2020   13.7020   16.8310 O.2       1 GLY        -0.3951
    133 N         -22.3650   12.4480   15.1980 N.am      1 NH2        -0.2992
    134 H1        -20.3873   19.9552   17.5470 H         1 PHE         0.1884
    135 H2        -18.7652   19.8900   19.5237 H         1 PHE         0.0823
    136 H3        -18.7567   22.2099   17.6268 H         1 PHE         0.0474
    137 H4        -17.8813   20.6473   17.4909 H         1 PHE         0.0474
    138 H5        -17.0097   23.7230   17.7274 H         1 PHE         0.0557
    139 H6        -16.9521   20.3856   20.3134 H         1 PHE         0.0557
    140 H7        -15.1083   24.6626   18.9288 H         1 PHE         0.0599
    141 H8        -15.0464   21.3339   21.5201 H         1 PHE         0.0599
    142 H9        -14.1312   23.4950   20.8358 H         1 PHE         0.0559
    143 H10       -20.6012   22.6535   18.1234 H         1 MAA         0.0488
    144 H11       -19.6993   24.1804   18.4094 H         1 MAA         0.0488
    145 H12       -21.3390   23.9612   19.1095 H         1 MAA         0.0488
    146 H13       -18.3401   23.5805   21.3261 H         1 MAA         0.0799
    147 H14       -19.5539   25.7437   21.6706 H         1 MAA         0.0277
    148 H15       -20.9000   25.1198   20.6579 H         1 MAA         0.0277
    149 H16       -19.2788   25.3866   19.9318 H         1 MAA         0.0277
    150 H17       -21.4271   22.3231   21.5446 H         1 ASN         0.1885
    151 H18       -22.2406   23.3749   24.0801 H         1 ASN         0.0826
    152 H19       -23.2726   21.2543   22.1587 H         1 ASN         0.0551
    153 H20       -23.7009   22.9988   22.1554 H         1 ASN         0.0551
    154 H21       -25.4670   21.8825   25.4881 H         1 ASN         0.1814
    155 H22       -23.8560   22.5136   25.4089 H         1 ASN         0.1814
    156 H23       -20.6392   20.6769   26.9720 H         1 PRO         0.0802
    157 H24       -21.5662   21.3612   28.8173 H         1 PRO         0.0313
    158 H25       -23.2444   21.1082   28.2290 H         1 PRO         0.0313
    159 H26       -21.8266   23.5338   28.2294 H         1 PRO         0.0287
    160 H27       -23.3285   23.1764   27.3111 H         1 PRO         0.0287
    161 H28       -21.8940   23.6825   25.5504 H         1 PRO         0.0524
    162 H29       -20.4489   23.0540   26.4125 H         1 PRO         0.0524
    163 H30       -22.6874   17.5848   26.8292 H         1 HIS         0.1885
    164 H31       -24.7166   17.6359   27.1602 H         1 HIS         0.0824
    165 H32       -26.5042   18.8330   26.4548 H         1 HIS         0.0491
    166 H33       -25.4463   20.1492   25.8423 H         1 HIS         0.0491
    167 H34       -25.0391   18.2753   29.1251 H         1 HIS         0.2386
    168 H35       -25.8809   22.0283   27.4955 H         1 HIS         0.0324
    169 H36       -25.0575   19.9355   31.0781 H         1 HIS         0.1149
    170 H37       -22.8951   18.2863   24.3755 H         1 LEU         0.1883
    171 H38       -24.9120   16.5672   23.1169 H         1 LEU         0.0800
    172 H39       -23.4102   17.7333   21.0952 H         1 LEU         0.0315
    173 H40       -23.6425   19.0132   22.3339 H         1 LEU         0.0315
    174 H41       -25.7390   17.3588   20.9127 H         1 LEU         0.0298
    175 H42       -27.4103   18.5608   22.2415 H         1 LEU         0.0232
    176 H43       -26.0947   19.2923   23.2217 H         1 LEU         0.0232
    177 H44       -26.3568   17.5155   23.2535 H         1 LEU         0.0232
    178 H45       -24.8652   19.3283   19.7066 H         1 LEU         0.0232
    179 H46       -25.3122   20.3673   21.1020 H         1 LEU         0.0232
    180 H47       -26.5906   19.5178   20.1689 H         1 LEU         0.0232
    181 H48       -21.6810   16.9539   21.7425 H         1 SER         0.1884
    182 H49       -20.5668   14.6074   22.4797 H         1 SER         0.0823
    183 H50       -21.2103   13.0349   20.6997 H         1 SER         0.0606
    184 H51       -22.5375   14.1403   20.2063 H         1 SER         0.0606
    185 H52       -23.3946   13.8575   22.3231 H         1 SER         0.2097
    186 H53       -18.8199   14.7902   21.5105 H         1 TRP         0.1884
    187 H54       -19.0618   16.3466   19.0476 H         1 TRP         0.0815
    188 H55       -16.9845   17.3781   19.4621 H         1 TRP         0.0397
    189 H56       -16.6886   16.3283   20.8894 H         1 TRP         0.0397
    190 H57       -20.2592   17.7295   20.8108 H         1 TRP         0.0795
    191 H58       -20.4794   19.5368   22.5617 H         1 TRP         0.2216
    192 H59       -15.3763   18.1973   21.8996 H         1 TRP         0.0540
    193 H60       -18.7347   20.9543   24.2435 H         1 TRP         0.0541
    194 H61       -14.7065   19.8136   23.6035 H         1 TRP         0.0510
    195 H62       -16.3688   21.1364   24.7479 H         1 TRP         0.0530
    196 H63       -17.5706   16.2946   17.8347 H         1 SER         0.1884
    197 H64       -16.5604   15.6796   16.1045 H         1 SER         0.0823
    198 H65       -14.3246   15.4734   17.9545 H         1 SER         0.0606
    199 H66       -15.6119   16.6413   18.4082 H         1 SER         0.0606
    200 H67       -14.2817   17.4143   16.6363 H         1 SER         0.2097
    201 H68       -14.0958   13.0007   15.7604 H         1 TRP         0.1884
    202 H69       -13.2504   15.6374   16.6849 H         1 TRP         0.0815
    203 H70       -12.0370   13.0787   15.5582 H         1 TRP         0.0397
    204 H71       -12.0320   13.6050   17.2756 H         1 TRP         0.0397
    205 H72       -10.3415   14.3012   13.9221 H         1 TRP         0.0795
    206 H73        -8.2385   15.6298   14.3073 H         1 TRP         0.2216
    207 H74       -11.0116   15.2546   18.8277 H         1 TRP         0.0540
    208 H75        -6.9842   16.8991   16.5047 H         1 TRP         0.0541
    209 H76        -9.3124   16.5406   20.0281 H         1 TRP         0.0510
    210 H77        -7.3294   17.3663   18.8802 H         1 TRP         0.0530
    211 H78        -7.2062   19.8095   16.5937 H         1 9KK         0.0230
    212 H79        -8.5171   21.0374   16.5715 H         1 9KK         0.0230
    213 H80        -7.7932   20.4683   15.0291 H         1 9KK         0.0230
    214 H81        -9.3998   18.7783   16.9906 H         1 9KK         0.0263
    215 H82        -8.6759   18.2093   15.4483 H         1 9KK         0.0263
    216 H83       -10.0708   20.2818   14.5085 H         1 9KK         0.0267
    217 H84       -11.0679   19.9089   15.9554 H         1 9KK         0.0267
    218 H85       -10.1796   17.6239   14.2521 H         1 9KK         0.0312
    219 H86       -11.4134   18.7347   13.5661 H         1 9KK         0.0312
    220 H87       -11.5719   16.9596   15.9853 H         1 9KK         0.0802
    221 H88       -13.2042   16.0281   12.3638 H         1 9KK         0.0488
    222 H89       -11.8072   17.1502   12.4892 H         1 9KK         0.0488
    223 H90       -13.4689   17.7437   12.8255 H         1 9KK         0.0488
    224 H91       -10.9689   23.9357   17.8795 H         1 9KK         0.0230
    225 H92       -11.4461   23.8551   16.1497 H         1 9KK         0.0230
    226 H93       -10.8128   22.3912   16.9758 H         1 9KK         0.0230
    227 H94       -13.3917   23.8496   17.6312 H         1 9KK         0.0263
    228 H95       -12.7584   22.3856   18.4573 H         1 9KK         0.0263
    229 H96       -12.7697   21.6480   15.7973 H         1 9KK         0.0267
    230 H97       -14.2422   22.6656   15.9481 H         1 9KK         0.0267
    231 H98       -15.0619   21.3294   17.7704 H         1 9KK         0.0312
    232 H99       -13.5215   20.4093   17.8544 H         1 9KK         0.0312
    233 H100      -15.2087   19.0428   16.7768 H         1 9KK         0.0802
    234 H101      -12.4379   19.4342   13.8005 H         1 9KK         0.0488
    235 H102      -13.1814   21.0071   14.2472 H         1 9KK         0.0488
    236 H103      -14.1890   19.7135   13.5138 H         1 9KK         0.0488
    237 H104      -17.6926   20.6310   14.8987 H         1 ARG         0.1883
    238 H105      -18.1785   18.7730   14.2737 H         1 ARG         0.0800
    239 H106      -17.1776   16.7037   14.2816 H         1 ARG         0.0313
    240 H107      -15.7712   17.3721   15.1772 H         1 ARG         0.0313
    241 H108      -14.9508   17.9202   13.1830 H         1 ARG         0.0301
    242 H109      -16.1722   19.2373   13.1914 H         1 ARG         0.0301
    243 H110      -17.6799   17.9167   11.8507 H         1 ARG         0.0689
    244 H111      -16.5879   16.4939   11.9517 H         1 ARG         0.0689
    245 H112      -15.6547   19.1300   10.8487 H         1 ARG         0.2642
    246 H113      -14.1566   17.2219    8.4171 H         1 ARG         0.2615
    247 H114      -14.2369   18.7950    9.2547 H         1 ARG         0.2615
    248 H115      -16.4249   15.7065   10.5022 H         1 ARG         0.2615
    249 H116      -15.3165   15.5033    9.1191 H         1 ARG         0.2615
    250 H117      -19.8067   18.0644   14.6559 H         1 CCS         0.1884
    251 H118      -20.2069   17.2378   17.4300 H         1 CCS         0.0808
    252 H119      -22.5365   16.9330   16.9110 H         1 CCS         0.0426
    253 H120      -22.2335   17.3757   15.1967 H         1 CCS         0.0426
    254 H121      -22.7878   18.4017   18.6748 H         1 CCS         0.0616
    255 H122      -23.5473   19.9521   18.1785 H         1 CCS         0.0616
    256 H123      -21.0346   15.2278   17.8514 H         1 GLY         0.1881
    257 H124      -20.6571   12.9215   17.5972 H         1 GLY         0.0763
    258 H125      -20.1723   13.2126   15.8922 H         1 GLY         0.0763
    259 H126      -23.2634   12.2124   14.8274 H         1 NH2         0.1815
    260 H127      -21.5369   12.0868   14.7693 H         1 NH2         0.1815
@<TRIPOS>BOND
     1    2    1 1  
     2    1  125 am 
     3    3    2 1  
     4    2    5 1  
     5    3    4 2  
     6   12    3 am 
     7    5    6 1  
     8    6    7 ar 
     9    6    8 ar 
    10    7    9 ar 
    11    8   10 ar 
    12    9   11 ar 
    13   10   11 ar 
    14   12   13 1  
    15   14   12 1  
    16   14   15 1  
    17   16   14 1  
    18   16   17 2  
    19   18   16 am 
    20   19   18 1  
    21   20   19 1  
    22   19   22 1  
    23   20   21 2  
    24   26   20 am 
    25   22   23 1  
    26   23   24 2  
    27   23   25 am 
    28   27   26 1  
    29   26   32 1  
    30   28   27 1  
    31   27   30 1  
    32   28   29 2  
    33   33   28 am 
    34   30   31 1  
    35   31   32 1  
    36   34   33 1  
    37   35   34 1  
    38   34   37 1  
    39   35   36 2  
    40   43   35 am 
    41   37   38 1  
    42   38   39 1  
    43   38   40 2  
    44   39   41 1  
    45   40   42 1  
    46   42   41 2  
    47   44   43 1  
    48   45   44 1  
    49   44   47 1  
    50   45   46 2  
    51   51   45 am 
    52   47   48 1  
    53   48   49 1  
    54   48   50 1  
    55   52   51 1  
    56   53   52 1  
    57   52   55 1  
    58   53   54 2  
    59   57   53 am 
    60   55   56 1  
    61   58   57 1  
    62   59   58 1  
    63   58   61 1  
    64   59   60 2  
    65   71   59 am 
    66   61   62 1  
    67   62   63 2  
    68   62   64 1  
    69   63   65 1  
    70   64   66 ar 
    71   64   67 ar 
    72   66   65 1  
    73   66   68 ar 
    74   67   69 ar 
    75   68   70 ar 
    76   69   70 ar 
    77   72   71 1  
    78   73   72 1  
    79   72   75 1  
    80   73   74 2  
    81   77   73 am 
    82   75   76 1  
    83   78   77 1  
    84   79   78 1  
    85   78   81 1  
    86   79   80 2  
    87   91   79 am 
    88   81   82 1  
    89   82   83 2  
    90   82   84 1  
    91   83   85 1  
    92   84   86 ar 
    93   84   87 ar 
    94   86   85 1  
    95   86   88 ar 
    96   87   89 ar 
    97   88   90 ar 
    98   89   90 ar 
    99   96   91 1  
   100   91   97 1  
   101   93   92 1  
   102   94   93 1  
   103   95   94 1  
   104   96   95 1  
   105   98   96 1  
   106   98   99 2  
   107  100   98 am 
   108  105  100 1  
   109  100  106 1  
   110  102  101 1  
   111  103  102 1  
   112  104  103 1  
   113  104  105 1  
   114  105  107 1  
   115  107  108 2  
   116  107  109 am 
   117  109  110 1  
   118  110  111 1  
   119  110  113 1  
   120  111  112 2  
   121  111  120 am 
   122  113  114 1  
   123  114  115 1  
   124  115  116 1  
   125  116  117 ar 
   126  117  118 ar 
   127  117  119 ar 
   128  120  121 1  
   129  121  122 1  
   130  121  127 1  
   131  122  123 1  
   132  123  124 1  
   133  124  125 1  
   134  125  126 2  
   135  127  128 2  
   136  127  129 am 
   137  129  130 1  
   138  130  131 1  
   139  131  132 2  
   140  131  133 am 
   141    1  134 1  
   142    2  135 1  
   143    5  136 1  
   144    5  137 1  
   145    7  138 1  
   146    8  139 1  
   147    9  140 1  
   148   10  141 1  
   149   11  142 1  
   150   13  143 1  
   151   13  144 1  
   152   13  145 1  
   153   14  146 1  
   154   15  147 1  
   155   15  148 1  
   156   15  149 1  
   157   18  150 1  
   158   19  151 1  
   159   22  152 1  
   160   22  153 1  
   161   25  154 1  
   162   25  155 1  
   163   27  156 1  
   164   30  157 1  
   165   30  158 1  
   166   31  159 1  
   167   31  160 1  
   168   32  161 1  
   169   32  162 1  
   170   33  163 1  
   171   34  164 1  
   172   37  165 1  
   173   37  166 1  
   174   39  167 1  
   175   40  168 1  
   176   41  169 1  
   177   43  170 1  
   178   44  171 1  
   179   47  172 1  
   180   47  173 1  
   181   48  174 1  
   182   49  175 1  
   183   49  176 1  
   184   49  177 1  
   185   50  178 1  
   186   50  179 1  
   187   50  180 1  
   188   51  181 1  
   189   52  182 1  
   190   55  183 1  
   191   55  184 1  
   192   56  185 1  
   193   57  186 1  
   194   58  187 1  
   195   61  188 1  
   196   61  189 1  
   197   63  190 1  
   198   65  191 1  
   199   67  192 1  
   200   68  193 1  
   201   69  194 1  
   202   70  195 1  
   203   71  196 1  
   204   72  197 1  
   205   75  198 1  
   206   75  199 1  
   207   76  200 1  
   208   77  201 1  
   209   78  202 1  
   210   81  203 1  
   211   81  204 1  
   212   83  205 1  
   213   85  206 1  
   214   87  207 1  
   215   88  208 1  
   216   89  209 1  
   217   90  210 1  
   218   92  211 1  
   219   92  212 1  
   220   92  213 1  
   221   93  214 1  
   222   93  215 1  
   223   94  216 1  
   224   94  217 1  
   225   95  218 1  
   226   95  219 1  
   227   96  220 1  
   228   97  221 1  
   229   97  222 1  
   230   97  223 1  
   231  101  224 1  
   232  101  225 1  
   233  101  226 1  
   234  102  227 1  
   235  102  228 1  
   236  103  229 1  
   237  103  230 1  
   238  104  231 1  
   239  104  232 1  
   240  105  233 1  
   241  106  234 1  
   242  106  235 1  
   243  106  236 1  
   244  109  237 1  
   245  110  238 1  
   246  113  239 1  
   247  113  240 1  
   248  114  241 1  
   249  114  242 1  
   250  115  243 1  
   251  115  244 1  
   252  116  245 1  
   253  118  246 1  
   254  118  247 1  
   255  119  248 1  
   256  119  249 1  
   257  120  250 1  
   258  121  251 1  
   259  122  252 1  
   260  122  253 1  
   261  124  254 1  
   262  124  255 1  
   263  129  256 1  
   264  130  257 1  
   265  130  258 1  
   266  133  259 1  
   267  133  260 1  
@<TRIPOS>SUBSTRUCTURE
     1 PHE         1

