5o4y_ligand
  -I-interpret- 

256263  0  0  0  0  0  0  0  0999 V2000
  -20.4660   20.2510   18.4990 N   0  0  0  0  0
  -19.2790   20.7580   19.0850 C   0  0  0  0  0
  -19.6570   21.6210   20.1680 C   0  0  0  0  0
  -19.8860   21.0340   21.1810 O   0  0  0  0  0
  -18.2630   21.4050   18.1910 C   0  0  0  0  0
  -17.1030   21.9900   18.9370 C   0  0  0  0  0
  -16.5820   23.1840   18.5650 C   0  0  0  0  0
  -16.5440   21.3400   20.0010 C   0  0  0  0  0
  -15.5200   23.7100   19.2420 C   0  0  0  0  0
  -15.4780   21.8690   20.6820 C   0  0  0  0  0
  -14.9690   23.0610   20.3020 C   0  0  0  0  0
  -19.8150   22.8870   20.0380 N   0  0  0  0  0
  -20.3980   23.4540   18.8500 C   0  0  0  0  0
  -19.4280   23.6680   21.1890 C   0  0  0  0  0
  -19.8160   25.0730   20.8390 C   0  0  0  0  0
  -20.0910   23.3610   22.4850 C   0  0  0  0  0
  -19.6160   23.7130   23.4680 O   0  0  0  0  0
  -21.1950   22.7100   22.4370 N   0  0  0  0  0
  -22.1390   22.4600   23.4780 C   0  0  0  0  0
  -21.8400   21.3210   24.4070 C   0  0  0  0  0
  -21.6720   20.2200   23.9910 O   0  0  0  0  0
  -23.4370   22.1400   22.7900 C   0  0  0  0  0
  -24.6130   21.8530   23.6870 C   0  0  0  0  0
  -25.5730   21.3920   23.2100 O   0  0  0  0  0
  -24.6480   22.1020   24.9580 N   0  0  0  0  0
  -21.7490   21.6130   25.6700 N   0  0  0  0  0
  -21.7220   20.7370   26.7880 C   0  0  0  0  0
  -22.0660   19.3220   26.8410 C   0  0  0  0  0
  -21.1320   18.7540   27.2230 O   0  0  0  0  0
  -22.2410   21.4660   27.9550 C   0  0  0  0  0
  -22.2880   22.8660   27.4870 C   0  0  0  0  0
  -21.5200   22.8940   26.2200 C   0  0  0  0  0
  -23.0480   18.5060   26.6830 N   0  0  0  0  0
  -24.4380   18.3660   26.3860 C   0  0  0  0  0
  -24.5850   17.6120   25.1690 C   0  0  0  0  0
  -25.5090   16.8860   25.1120 O   0  0  0  0  0
  -25.5390   19.3440   26.5860 C   0  0  0  0  0
  -25.4800   19.9220   27.9300 C   0  0  0  0  0
  -25.2230   19.2850   29.0380 N   0  0  0  0  0
  -25.6610   21.2320   28.2050 C   0  0  0  0  0
  -25.2390   20.1550   30.0270 C   0  0  0  0  0
  -25.5160   21.3470   29.5130 N   0  0  0  0  0
  -23.7100   17.7220   24.2430 N   0  0  0  0  0
  -23.9180   17.0300   23.0290 C   0  0  0  0  0
  -23.0220   15.9100   22.7130 C   0  0  0  0  0
  -23.3660   14.8660   23.0740 O   0  0  0  0  0
  -24.0240   18.0560   21.9490 C   0  0  0  0  0
  -25.4440   18.2570   21.4750 C   0  0  0  0  0
  -26.3890   18.4170   22.6240 C   0  0  0  0  0
  -25.5610   19.4490   20.5500 C   0  0  0  0  0
  -21.9690   16.0380   22.0220 N   0  0  0  0  0
  -21.1930   14.9330   21.6360 C   0  0  0  0  0
  -20.4450   15.3380   20.5270 C   0  0  0  0  0
  -21.0020   15.7660   19.5780 O   0  0  0  0  0
  -21.9300   13.7880   21.0530 C   0  0  0  0  0
  -22.7710   13.2090   22.0180 O   0  0  0  0  0
  -19.2030   15.2370   20.7020 N   0  0  0  0  0
  -18.3890   15.7810   19.7090 C   0  0  0  0  0
  -17.8220   14.7300   18.8330 C   0  0  0  0  0
  -17.9930   13.5670   19.0000 O   0  0  0  0  0
  -17.4600   16.8410   20.2960 C   0  0  0  0  0
  -18.1310   17.8510   21.1780 C   0  0  0  0  0
  -19.4330   18.1810   21.3580 C   0  0  0  0  0
  -17.4270   18.6740   22.1340 C   0  0  0  0  0
  -19.5780   19.1230   22.2840 N   0  0  0  0  0
  -18.4240   19.4520   22.7930 C   0  0  0  0  0
  -16.1170   18.7980   22.4150 C   0  0  0  0  0
  -18.0170   20.3330   23.7200 C   0  0  0  0  0
  -15.7540   19.6890   23.3540 C   0  0  0  0  0
  -16.6920   20.4320   23.9900 C   0  0  0  0  0
  -17.2040   15.3680   17.9180 N   0  0  0  0  0
  -16.1840   15.1740   17.0060 C   0  0  0  0  0
  -15.6060   14.0110   16.4320 C   0  0  0  0  0
  -16.4390   13.2070   16.1480 O   0  0  0  0  0
  -15.2050   16.0250   17.5930 C   0  0  0  0  0
  -14.9430   16.7590   16.4470 O   0  0  0  0  0
  -14.3230   13.9270   16.0610 N   0  0  0  0  0
  -13.1660   14.8040   15.9720 C   0  0  0  0  0
  -12.9310   15.2860   14.6190 C   0  0  0  0  0
  -13.0220   14.4320   13.8250 O   0  0  0  0  0
  -11.9980   13.9480   16.2310 C   0  0  0  0  0
  -10.7370   14.6670   16.0070 C   0  0  0  0  0
  -10.0360   14.7460   14.8680 C   0  0  0  0  0
   -9.9650   15.3680   16.9910 C   0  0  0  0  0
   -8.9280   15.4340   15.0470 N   0  0  0  0  0
   -8.8170   15.8360   16.2850 C   0  0  0  0  0
  -10.1330   15.6180   18.3070 C   0  0  0  0  0
   -7.8800   16.5410   16.9990 C   0  0  0  0  0
   -9.1820   16.3340   18.9720 C   0  0  0  0  0
   -8.0690   16.7950   18.3310 C   0  0  0  0  0
  -12.6320   16.5380   14.2910 N   0  0  0  0  0
   -8.0890   20.1710   16.0460 C   0  0  0  0  0
   -9.1170   19.0720   15.9690 C   0  0  0  0  0
  -10.3430   19.5020   15.2350 C   0  0  0  0  0
  -10.9800   18.3380   14.4960 C   0  0  0  0  0
  -12.0770   17.5660   15.2190 C   0  0  0  0  0
  -12.7870   16.8850   12.9130 C   0  0  0  0  0
  -12.8970   18.5310   16.0390 C   0  0  0  0  0
  -12.7920   18.5530   17.2420 O   0  0  0  0  0
  -13.6370   19.4160   15.4800 N   0  0  0  0  0
  -11.4170   23.3020   17.1000 C   0  0  0  0  0
  -12.8070   22.9270   17.5010 C   0  0  0  0  0
  -13.5100   22.0580   16.5000 C   0  0  0  0  0
  -14.2300   20.9150   17.1820 C   0  0  0  0  0
  -14.7880   19.8930   16.2200 C   0  0  0  0  0
  -13.3450   19.9210   14.1880 C   0  0  0  0  0
  -15.8860   20.5100   15.4760 C   0  0  0  0  0
  -15.7680   21.6170   15.0900 O   0  0  0  0  0
  -16.9990   19.9620   15.1660 N   0  0  0  0  0
  -17.4790   18.6390   15.1120 C   0  0  0  0  0
  -18.4440   18.1690   16.0960 C   0  0  0  0  0
  -18.1850   18.0680   17.2110 O   0  0  0  0  0
  -16.5940   17.6130   14.4880 C   0  0  0  0  0
  -16.0270   18.1470   13.1990 C   0  0  0  0  0
  -16.6330   17.5930   11.9470 C   0  0  0  0  0
  -15.8490   18.1190   10.8800 N   0  0  0  0  0
  -15.3760   17.3550    9.9500 C   0  0  0  0  0
  -14.5440   17.8160    9.1640 N   0  0  0  0  0
  -15.7310   16.0990    9.8500 N   0  0  0  0  0
  -19.5790   17.8220   15.5990 N   0  0  0  0  0
  -20.4930   17.1070   16.3760 C   0  0  0  0  0
  -21.9030   17.5260   16.2350 C   0  0  0  0  0
  -22.0140   19.1700   16.6400 S   0  0  0  0  0
  -22.6050   19.3860   18.2190 C   0  0  0  0  0
  -21.6380   20.1200   19.0320 C   0  0  0  0  0
  -22.0620   20.4510   20.0450 O   0  0  0  0  0
  -20.4090   15.6910   16.0320 C   0  0  0  0  0
  -20.0280   15.3160   14.9860 O   0  0  0  0  0
  -20.7940   14.8780   16.9460 N   0  0  0  0  0
  -20.8810   13.4940   16.6850 C   0  0  0  0  0
  -22.2730   13.2290   16.2440 C   0  0  0  0  0
  -23.2020   13.7020   16.8310 O   0  0  0  0  0
  -22.3650   12.4480   15.1980 N   0  0  0  0  0
  -20.3857   19.9493   17.5280 H   0  0  0  0  0
  -18.7273   19.8786   19.4172 H   0  0  0  0  0
  -18.7597   22.2195   17.6637 H   0  0  0  0  0
  -17.8720   20.6350   17.5259 H   0  0  0  0  0
  -17.0121   23.7260   17.7228 H   0  0  0  0  0
  -16.9543   20.3803   20.3151 H   0  0  0  0  0
  -15.1061   24.6679   18.9271 H   0  0  0  0  0
  -15.0440   21.3310   21.5248 H   0  0  0  0  0
  -14.1266   23.4974   20.8387 H   0  0  0  0  0
  -21.3302   23.9563   19.1084 H   0  0  0  0  0
  -19.7047   24.1736   18.4145 H   0  0  0  0  0
  -20.5989   22.6599   18.1308 H   0  0  0  0  0
  -18.3718   23.4617   21.3623 H   0  0  0  0  0
  -19.2831   25.3825   19.9399 H   0  0  0  0  0
  -20.8902   25.1180   20.6598 H   0  0  0  0  0
  -19.5558   25.7366   21.6637 H   0  0  0  0  0
  -21.4317   22.3153   21.5267 H   0  0  0  0  0
  -22.1361   23.3479   24.1102 H   0  0  0  0  0
  -23.2614   21.2290   22.2179 H   0  0  0  0  0
  -23.7028   23.0267   22.2144 H   0  0  0  0  0
  -25.4899   21.8949   25.4953 H   0  0  0  0  0
  -23.8336   22.5052   25.4213 H   0  0  0  0  0
  -20.6628   20.4908   26.7132 H   0  0  0  0  0
  -21.6175   21.3399   28.8401 H   0  0  0  0  0
  -23.2145   21.0992   28.2803 H   0  0  0  0  0
  -21.8609   23.5453   28.2247 H   0  0  0  0  0
  -23.3147   23.1994   27.3358 H   0  0  0  0  0
  -21.8374   23.6978   25.5557 H   0  0  0  0  0
  -20.4610   23.0992   26.3767 H   0  0  0  0  0
  -22.6802   17.5664   26.8322 H   0  0  0  0  0
  -24.6874   17.9214   27.3494 H   0  0  0  0  0
  -26.4928   18.8305   26.4648 H   0  0  0  0  0
  -25.4366   20.1445   25.8533 H   0  0  0  0  0
  -25.8811   22.0291   27.4948 H   0  0  0  0  0
  -25.0573   19.9353   31.0791 H   0  0  0  0  0
  -22.8788   18.2976   24.3781 H   0  0  0  0  0
  -24.8467   16.4695   23.1359 H   0  0  0  0  0
  -23.4330   17.7116   21.1004 H   0  0  0  0  0
  -23.6676   19.0042   22.3514 H   0  0  0  0  0
  -25.7166   17.3592   20.9203 H   0  0  0  0  0
  -26.3562   17.5232   23.2470 H   0  0  0  0  0
  -26.0963   19.2846   23.2154 H   0  0  0  0  0
  -27.4005   18.5594   22.2437 H   0  0  0  0  0
  -25.2436   20.3488   21.0770 H   0  0  0  0  0
  -24.9259   19.2942   19.6778 H   0  0  0  0  0
  -26.5975   19.5596   20.2313 H   0  0  0  0  0
  -21.6752   16.9722   21.7369 H   0  0  0  0  0
  -20.6784   14.6296   22.5477 H   0  0  0  0  0
  -21.2142   13.0410   20.7097 H   0  0  0  0  0
  -22.5356   14.1416   20.2185 H   0  0  0  0  0
  -23.2421   12.4692   21.6277 H   0  0  0  0  0
  -18.8123   14.7813   21.5266 H   0  0  0  0  0
  -18.9695   16.3586   18.9896 H   0  0  0  0  0
  -17.0359   17.3893   19.4548 H   0  0  0  0  0
  -16.7331   16.3152   20.9151 H   0  0  0  0  0
  -20.2600   17.7291   20.8103 H   0  0  0  0  0
  -15.3722   18.1940   21.8967 H   0  0  0  0  0
  -18.7387   20.9577   24.2464 H   0  0  0  0  0
  -14.7007   19.8143   23.6048 H   0  0  0  0  0
  -16.3670   21.1403   24.7521 H   0  0  0  0  0
  -17.5779   16.3132   17.8330 H   0  0  0  0  0
  -16.6944   15.2899   16.0499 H   0  0  0  0  0
  -14.3525   15.5352   18.0636 H   0  0  0  0  0
  -15.5140   16.5890   18.4731 H   0  0  0  0  0
  -14.2748   17.4212   16.6383 H   0  0  0  0  0
  -14.0912   12.9822   15.7544 H   0  0  0  0  0
  -13.3230   15.6417   16.6515 H   0  0  0  0  0
  -12.0357   13.0997   15.5476 H   0  0  0  0  0
  -12.0307   13.6284   17.2726 H   0  0  0  0  0
  -10.3417   14.3008   13.9212 H   0  0  0  0  0
  -11.0164   15.2526   18.8306 H   0  0  0  0  0
   -6.9792   16.9011   16.5019 H   0  0  0  0  0
   -9.3131   16.5417   20.0340 H   0  0  0  0  0
   -7.3253   17.3694   18.8833 H   0  0  0  0  0
   -7.7968   20.4647   15.0378 H   0  0  0  0  0
   -8.5144   21.0288   16.5668 H   0  0  0  0  0
   -7.2148   19.8116   16.5889 H   0  0  0  0  0
   -9.4053   18.8038   16.9854 H   0  0  0  0  0
   -8.6768   18.2311   15.4331 H   0  0  0  0  0
  -10.0627   20.2636   14.5073 H   0  0  0  0  0
  -11.0617   19.8899   15.9569 H   0  0  0  0  0
  -10.1767   17.6207   14.3278 H   0  0  0  0  0
  -11.4558   18.7722   13.6167 H   0  0  0  0  0
  -11.7903   16.8958   16.0294 H   0  0  0  0  0
  -12.1402   16.2522   12.3053 H   0  0  0  0  0
  -13.8254   16.7362   12.6168 H   0  0  0  0  0
  -12.5132   17.9303   12.7699 H   0  0  0  0  0
  -10.8194   22.3987   16.9772 H   0  0  0  0  0
  -11.4472   23.8500   16.1582 H   0  0  0  0  0
  -10.9741   23.9299   17.8731 H   0  0  0  0  0
  -13.3803   23.8497   17.5911 H   0  0  0  0  0
  -12.7368   22.3621   18.4306 H   0  0  0  0  0
  -12.7693   21.6449   15.8153 H   0  0  0  0  0
  -14.2428   22.6631   15.9662 H   0  0  0  0  0
  -15.0700   21.3393   17.7321 H   0  0  0  0  0
  -13.5060   20.4050   17.8174 H   0  0  0  0  0
  -15.2604   19.0133   16.6572 H   0  0  0  0  0
  -12.3611   20.3901   14.1965 H   0  0  0  0  0
  -13.3522   19.1019   13.4689 H   0  0  0  0  0
  -14.0979   20.6580   13.9087 H   0  0  0  0  0
  -17.7064   20.6444   14.8934 H   0  0  0  0  0
  -18.2046   18.8294   14.3212 H   0  0  0  0  0
  -17.1737   16.7132   14.2821 H   0  0  0  0  0
  -15.7780   17.3766   15.1709 H   0  0  0  0  0
  -14.9741   17.8656   13.1840 H   0  0  0  0  0
  -16.2284   19.2182   13.1926 H   0  0  0  0  0
  -17.6809   17.8772   11.8506 H   0  0  0  0  0
  -16.6261   16.5030   11.9482 H   0  0  0  0  0
  -15.6566   19.1202   10.8490 H   0  0  0  0  0
  -14.2399   18.7855    9.2539 H   0  0  0  0  0
  -15.3205   15.5091    9.1262 H   0  0  0  0  0
  -16.4181   15.7103   10.4959 H   0  0  0  0  0
  -19.8113   18.0693   14.6371 H   0  0  0  0  0
  -20.2111   17.3102   17.4091 H   0  0  0  0  0
  -22.5364   16.9347   16.8962 H   0  0  0  0  0
  -22.2383   17.3703   15.2096 H   0  0  0  0  0
  -22.7765   18.4084   18.6695 H   0  0  0  0  0
  -23.5339   19.9545   18.1745 H   0  0  0  0  0
  -21.0394   15.2348   17.8695 H   0  0  0  0  0
  -20.6394   12.9150   17.5764 H   0  0  0  0  0
  -20.1674   13.1985   15.9159 H   0  0  0  0  0
  -23.2817   12.2009   14.8251 H   0  0  0  0  0
  -21.5200   12.0864   14.7556 H   0  0  0  0  0
  2  1  1  0  0  0
  1125  1  0  0  0
  3  2  1  0  0  0
  2  5  1  0  0  0
  3  4  2  0  0  0
 12  3  1  0  0  0
  5  6  1  0  0  0
  6  7  4  0  0  0
  6  8  4  0  0  0
  7  9  4  0  0  0
  8 10  4  0  0  0
  9 11  4  0  0  0
 10 11  4  0  0  0
 12 13  1  0  0  0
 14 12  1  0  0  0
 14 15  1  0  0  0
 16 14  1  0  0  0
 16 17  2  0  0  0
 18 16  1  0  0  0
 19 18  1  0  0  0
 20 19  1  0  0  0
 19 22  1  0  0  0
 20 21  2  0  0  0
 26 20  1  0  0  0
 22 23  1  0  0  0
 23 24  2  0  0  0
 23 25  1  0  0  0
 27 26  1  0  0  0
 26 32  1  0  0  0
 28 27  1  0  0  0
 27 30  1  0  0  0
 28 29  2  0  0  0
 33 28  1  0  0  0
 30 31  1  0  0  0
 31 32  1  0  0  0
 34 33  1  0  0  0
 35 34  1  0  0  0
 34 37  1  0  0  0
 35 36  2  0  0  0
 43 35  1  0  0  0
 37 38  1  0  0  0
 38 39  4  0  0  0
 38 40  4  0  0  0
 39 41  4  0  0  0
 40 42  4  0  0  0
 42 41  4  0  0  0
 44 43  1  0  0  0
 45 44  1  0  0  0
 44 47  1  0  0  0
 45 46  2  0  0  0
 51 45  1  0  0  0
 47 48  1  0  0  0
 48 49  1  0  0  0
 48 50  1  0  0  0
 52 51  1  0  0  0
 53 52  1  0  0  0
 52 55  1  0  0  0
 53 54  2  0  0  0
 57 53  1  0  0  0
 55 56  1  0  0  0
 58 57  1  0  0  0
 59 58  1  0  0  0
 58 61  1  0  0  0
 59 60  2  0  0  0
 71 59  1  0  0  0
 61 62  1  0  0  0
 62 63  4  0  0  0
 62 64  4  0  0  0
 63 65  4  0  0  0
 64 66  4  0  0  0
 64 67  4  0  0  0
 66 65  4  0  0  0
 66 68  4  0  0  0
 67 69  4  0  0  0
 68 70  4  0  0  0
 69 70  4  0  0  0
 72 71  1  0  0  0
 73 72  1  0  0  0
 72 75  1  0  0  0
 73 74  2  0  0  0
 77 73  1  0  0  0
 75 76  1  0  0  0
 78 77  1  0  0  0
 79 78  1  0  0  0
 78 81  1  0  0  0
 79 80  2  0  0  0
 91 79  1  0  0  0
 81 82  1  0  0  0
 82 83  4  0  0  0
 82 84  4  0  0  0
 83 85  4  0  0  0
 84 86  4  0  0  0
 84 87  4  0  0  0
 86 85  4  0  0  0
 86 88  4  0  0  0
 87 89  4  0  0  0
 88 90  4  0  0  0
 89 90  4  0  0  0
 96 91  1  0  0  0
 91 97  1  0  0  0
 93 92  1  0  0  0
 94 93  1  0  0  0
 95 94  1  0  0  0
 96 95  1  0  0  0
 98 96  1  0  0  0
 98 99  2  0  0  0
100 98  1  0  0  0
105100  1  0  0  0
100106  1  0  0  0
102101  1  0  0  0
103102  1  0  0  0
104103  1  0  0  0
104105  1  0  0  0
105107  1  0  0  0
107108  2  0  0  0
107109  1  0  0  0
109110  1  0  0  0
110111  1  0  0  0
110113  1  0  0  0
111112  2  0  0  0
111120  1  0  0  0
113114  1  0  0  0
114115  1  0  0  0
115116  1  0  0  0
116117  1  0  0  0
117118  2  0  0  0
117119  1  0  0  0
120121  1  0  0  0
121122  1  0  0  0
121127  1  0  0  0
122123  1  0  0  0
123124  1  0  0  0
124125  1  0  0  0
125126  2  0  0  0
127128  2  0  0  0
127129  1  0  0  0
129130  1  0  0  0
130131  1  0  0  0
131132  2  0  0  0
131133  1  0  0  0
  1134  1  0  0  0
  2135  1  0  0  0
  5136  1  0  0  0
  5137  1  0  0  0
  7138  1  0  0  0
  8139  1  0  0  0
  9140  1  0  0  0
 10141  1  0  0  0
 11142  1  0  0  0
 13143  1  0  0  0
 13144  1  0  0  0
 13145  1  0  0  0
 14146  1  0  0  0
 15147  1  0  0  0
 15148  1  0  0  0
 15149  1  0  0  0
 18150  1  0  0  0
 19151  1  0  0  0
 22152  1  0  0  0
 22153  1  0  0  0
 25154  1  0  0  0
 25155  1  0  0  0
 27156  1  0  0  0
 30157  1  0  0  0
 30158  1  0  0  0
 31159  1  0  0  0
 31160  1  0  0  0
 32161  1  0  0  0
 32162  1  0  0  0
 33163  1  0  0  0
 34164  1  0  0  0
 37165  1  0  0  0
 37166  1  0  0  0
 40167  1  0  0  0
 41168  1  0  0  0
 43169  1  0  0  0
 44170  1  0  0  0
 47171  1  0  0  0
 47172  1  0  0  0
 48173  1  0  0  0
 49174  1  0  0  0
 49175  1  0  0  0
 49176  1  0  0  0
 50177  1  0  0  0
 50178  1  0  0  0
 50179  1  0  0  0
 51180  1  0  0  0
 52181  1  0  0  0
 55182  1  0  0  0
 55183  1  0  0  0
 56184  1  0  0  0
 57185  1  0  0  0
 58186  1  0  0  0
 61187  1  0  0  0
 61188  1  0  0  0
 63189  1  0  0  0
 67190  1  0  0  0
 68191  1  0  0  0
 69192  1  0  0  0
 70193  1  0  0  0
 71194  1  0  0  0
 72195  1  0  0  0
 75196  1  0  0  0
 75197  1  0  0  0
 76198  1  0  0  0
 77199  1  0  0  0
 78200  1  0  0  0
 81201  1  0  0  0
 81202  1  0  0  0
 83203  1  0  0  0
 87204  1  0  0  0
 88205  1  0  0  0
 89206  1  0  0  0
 90207  1  0  0  0
 92208  1  0  0  0
 92209  1  0  0  0
 92210  1  0  0  0
 93211  1  0  0  0
 93212  1  0  0  0
 94213  1  0  0  0
 94214  1  0  0  0
 95215  1  0  0  0
 95216  1  0  0  0
 96217  1  0  0  0
 97218  1  0  0  0
 97219  1  0  0  0
 97220  1  0  0  0
101221  1  0  0  0
101222  1  0  0  0
101223  1  0  0  0
102224  1  0  0  0
102225  1  0  0  0
103226  1  0  0  0
103227  1  0  0  0
104228  1  0  0  0
104229  1  0  0  0
105230  1  0  0  0
106231  1  0  0  0
106232  1  0  0  0
106233  1  0  0  0
109234  1  0  0  0
110235  1  0  0  0
113236  1  0  0  0
113237  1  0  0  0
114238  1  0  0  0
114239  1  0  0  0
115240  1  0  0  0
115241  1  0  0  0
116242  1  0  0  0
118243  1  0  0  0
119244  1  0  0  0
119245  1  0  0  0
120246  1  0  0  0
121247  1  0  0  0
122248  1  0  0  0
122249  1  0  0  0
124250  1  0  0  0
124251  1  0  0  0
129252  1  0  0  0
130253  1  0  0  0
130254  1  0  0  0
133255  1  0  0  0
133256  1  0  0  0
M  END
$$$$
