### 
### Created by X-TOOL on Wed Jan  1 15:39:37 2020
### 

@<TRIPOS>MOLECULE
6eji_ligand
   64    66     1     0     0
SMALL
GAST_HUCK


@<TRIPOS>ATOM
      1 C1'        14.9880    4.3710   21.3290 C.3       1 UD2         0.2196
      2 C2'        15.8910    3.3730   22.0340 C.3       1 UD2         0.1260
      3 C3'        16.1810    2.2170   21.1310 C.3       1 UD2         0.1114
      4 C4'        14.9150    1.5530   20.7000 C.3       1 UD2         0.1117
      5 C5'        13.9430    2.5640   20.0970 C.3       1 UD2         0.1133
      6 C6'        12.6540    1.9340   19.7220 C.3       1 UD2         0.0730
      7 C7'        17.6160    3.8800   23.7950 C.2       1 UD2         0.1734
      8 C8'        18.8850    4.5840   24.2670 C.3       1 UD2         0.0257
      9 N2'        17.1430    4.0740   22.4490 N.am      1 UD2        -0.2762
     10 O1'        15.5980    4.6120   20.1280 O.3       1 UD2        -0.2157
     11 O3'        17.0370    1.2830   21.7880 O.3       1 UD2        -0.3867
     12 O4'        14.3140    0.9180   21.8370 O.3       1 UD2        -0.3865
     13 O5'        13.7010    3.7550   20.9860 O.3       1 UD2        -0.3366
     14 O6'        11.9250    1.5770   20.8900 O.3       1 UD2        -0.3924
     15 O7'        17.0190    3.1660   24.5350 O.2       1 UD2        -0.3974
     16 N1         18.2260    8.0650   11.7170 N.am      1 UD2        -0.1592
     17 C2         17.9090    8.7140   10.5580 C.2       1 UD2         0.3328
     18 N3         18.7640    9.6140   10.0580 N.am      1 UD2        -0.1865
     19 C4         19.9110    9.8970   10.6570 C.2       1 UD2         0.1822
     20 C5         20.2550    9.2510   11.8440 C.2       1 UD2         0.0062
     21 C6         19.3680    8.3180   12.3620 C.2       1 UD2         0.0591
     22 O2         16.8670    8.4730    9.9910 O.2       1 UD2        -0.3815
     23 O4         20.6520   10.7160   10.1700 O.2       1 UD2        -0.4124
     24 C1B        17.2640    7.0840   12.2490 C.3       1 UD2         0.2059
     25 C2B        17.3080    5.6880   12.0520 C.3       1 UD2         0.1387
     26 O2'        17.7300    5.0210   10.8860 O.3       1 UD2        -0.3836
     27 C3B        16.3130    5.2340   12.9690 C.3       1 UD2         0.1149
     28 C4B        16.2530    6.3030   13.8810 C.3       1 UD2         0.1189
     29 O4B        16.3560    7.3580   13.1350 O.3       1 UD2        -0.3363
     30 O3B        15.2540    4.3720   12.6410 O.3       1 UD2        -0.3864
     31 C5B        16.8590    6.2530   15.2750 C.3       1 UD2         0.1128
     32 O5B        16.7020    4.9520   15.7860 O.3       1 UD2        -0.2476
     33 PA         17.3440    4.7500   17.3120 P.3       1 UD2         0.2972
     34 O1A        16.9290    3.4860   17.9180 O.co2     1 UD2        -0.6127
     35 O2A        18.8010    4.6200   17.2860 O.co2     1 UD2        -0.6127
     36 O3A        16.8600    6.0810   18.2180 O.3       1 UD2        -0.1318
     37 PB         16.4830    5.9940   19.8480 P.3       1 UD2         0.2996
     38 O1B        17.6990    6.0590   20.6460 O.co2     1 UD2        -0.6127
     39 O2B        15.7850    7.1960   20.2810 O.co2     1 UD2        -0.6127
     40 H1         14.8514    5.2843   21.9267 H         1 UD2         0.0996
     41 H2         15.3804    2.9960   22.9324 H         1 UD2         0.0637
     42 H3         16.6973    2.5945   20.2361 H         1 UD2         0.0645
     43 H4         15.1502    0.7915   19.9418 H         1 UD2         0.0647
     44 H5         14.4067    2.9388   19.1727 H         1 UD2         0.0647
     45 H6         12.8506    1.0307   19.1259 H         1 UD2         0.0584
     46 H7         12.0616    2.6444   19.1267 H         1 UD2         0.0584
     47 H8         19.0852    4.3154   25.3148 H         1 UD2         0.0467
     48 H9         18.7517    5.6729   24.1867 H         1 UD2         0.0467
     49 H10        19.7328    4.2711   23.6399 H         1 UD2         0.0467
     50 H11        17.6389    4.6617   21.8097 H         1 UD2         0.1857
     51 H12        17.8364    1.7214   22.0551 H         1 UD2         0.2100
     52 H13        13.5219    0.4692   21.5657 H         1 UD2         0.2100
     53 H14        12.4347    0.9621   21.4045 H         1 UD2         0.2095
     54 H15        18.5303   10.0862    9.2081 H         1 UD2         0.2259
     55 H16        21.1934    9.4725   12.3502 H         1 UD2         0.0258
     56 H17        19.6015    7.7954   13.2885 H         1 UD2         0.1178
     57 H18        16.5933    7.2553   11.3941 H         1 UD2         0.0997
     58 H19        18.2125    5.4508   12.6313 H         1 UD2         0.0676
     59 H20        17.6611    4.0826   11.0168 H         1 UD2         0.2101
     60 H21        16.8896    4.5018   13.5533 H         1 UD2         0.0648
     61 H22        15.1887    6.3101   14.1587 H         1 UD2         0.0651
     62 H23        15.5517    3.7355   12.0016 H         1 UD2         0.2100
     63 H24        16.3445    6.9725   15.9288 H         1 UD2         0.0648
     64 H25        17.9287    6.5042   15.2234 H         1 UD2         0.0648
@<TRIPOS>BOND
     1    1    2 1  
     2   10    1 1  
     3    1   13 1  
     4    2    3 1  
     5    2    9 1  
     6    3    4 1  
     7    3   11 1  
     8    5    4 1  
     9    4   12 1  
    10    5    6 1  
    11   13    5 1  
    12    6   14 1  
    13    7    8 1  
    14    9    7 am 
    15    7   15 2  
    16   37   10 1  
    17   16   17 am 
    18   16   21 1  
    19   24   16 1  
    20   17   18 am 
    21   17   22 2  
    22   18   19 am 
    23   20   19 1  
    24   19   23 2  
    25   21   20 2  
    26   24   25 1  
    27   29   24 1  
    28   25   26 1  
    29   27   25 1  
    30   28   27 1  
    31   27   30 1  
    32   28   29 1  
    33   31   28 1  
    34   32   31 1  
    35   33   32 1  
    36   33   34 ar 
    37   33   35 ar 
    38   36   33 1  
    39   36   37 1  
    40   37   38 ar 
    41   37   39 ar 
    42    1   40 1  
    43    2   41 1  
    44    3   42 1  
    45    4   43 1  
    46    5   44 1  
    47    6   45 1  
    48    6   46 1  
    49    8   47 1  
    50    8   48 1  
    51    8   49 1  
    52    9   50 1  
    53   11   51 1  
    54   12   52 1  
    55   14   53 1  
    56   18   54 1  
    57   20   55 1  
    58   21   56 1  
    59   24   57 1  
    60   25   58 1  
    61   26   59 1  
    62   27   60 1  
    63   28   61 1  
    64   30   62 1  
    65   31   63 1  
    66   31   64 1  
@<TRIPOS>SUBSTRUCTURE
     1 UD2         1

