6eji_ligand
  -I-interpret- 

 66 68  0  0  0  0  0  0  0  0999 V2000
   14.9880    4.3710   21.3290 C   0  0  0  0  0
   15.8910    3.3730   22.0340 C   0  0  0  0  0
   16.1810    2.2170   21.1310 C   0  0  0  0  0
   14.9150    1.5530   20.7000 C   0  0  0  0  0
   13.9430    2.5640   20.0970 C   0  0  0  0  0
   12.6540    1.9340   19.7220 C   0  0  0  0  0
   17.6160    3.8800   23.7950 C   0  0  0  0  0
   18.8850    4.5840   24.2670 C   0  0  0  0  0
   17.1430    4.0740   22.4490 N   0  0  0  0  0
   15.5980    4.6120   20.1280 O   0  0  0  0  0
   17.0370    1.2830   21.7880 O   0  0  0  0  0
   14.3140    0.9180   21.8370 O   0  0  0  0  0
   13.7010    3.7550   20.9860 O   0  0  0  0  0
   11.9250    1.5770   20.8900 O   0  0  0  0  0
   17.0190    3.1660   24.5350 O   0  0  0  0  0
   18.2260    8.0650   11.7170 N   0  0  0  0  0
   17.9090    8.7140   10.5580 C   0  0  0  0  0
   18.7640    9.6140   10.0580 N   0  0  0  0  0
   19.9110    9.8970   10.6570 C   0  0  0  0  0
   20.2550    9.2510   11.8440 C   0  0  0  0  0
   19.3680    8.3180   12.3620 C   0  0  0  0  0
   16.8670    8.4730    9.9910 O   0  0  0  0  0
   20.6520   10.7160   10.1700 O   0  0  0  0  0
   17.2640    7.0840   12.2490 C   0  0  0  0  0
   17.3080    5.6880   12.0520 C   0  0  0  0  0
   17.7300    5.0210   10.8860 O   0  0  0  0  0
   16.3130    5.2340   12.9690 C   0  0  0  0  0
   16.2530    6.3030   13.8810 C   0  0  0  0  0
   16.3560    7.3580   13.1350 O   0  0  0  0  0
   15.2540    4.3720   12.6410 O   0  0  0  0  0
   16.8590    6.2530   15.2750 C   0  0  0  0  0
   16.7020    4.9520   15.7860 O   0  0  0  0  0
   17.3440    4.7500   17.3120 P   0  0  0  0  0
   16.9290    3.4860   17.9180 O   0  0  0  0  0
   18.8010    4.6200   17.2860 O   0  0  0  0  0
   16.8600    6.0810   18.2180 O   0  0  0  0  0
   16.4830    5.9940   19.8480 P   0  0  0  0  0
   17.6990    6.0590   20.6460 O   0  0  0  0  0
   15.7850    7.1960   20.2810 O   0  0  0  0  0
   14.8294    5.2466   21.9585 H   0  0  0  0  0
   15.3989    2.9762   22.9220 H   0  0  0  0  0
   16.6880    2.5909   20.2415 H   0  0  0  0  0
   15.1468    0.8123   19.9346 H   0  0  0  0  0
   14.4287    2.9297   19.1923 H   0  0  0  0  0
   12.8521    1.0364   19.1362 H   0  0  0  0  0
   12.0671    2.6421   19.1371 H   0  0  0  0  0
   18.6490    5.2245   25.1168 H   0  0  0  0  0
   19.6226    3.8391   24.5656 H   0  0  0  0  0
   19.2866    5.1895   23.4545 H   0  0  0  0  0
   17.6488    4.6735   21.7970 H   0  0  0  0  0
   17.8448    1.7260   22.0579 H   0  0  0  0  0
   14.9303    0.2840   22.2109 H   0  0  0  0  0
   11.0935    1.1706   20.6351 H   0  0  0  0  0
   18.5256   10.0957    9.1911 H   0  0  0  0  0
   21.1943    9.4727   12.3507 H   0  0  0  0  0
   19.6017    7.7949   13.2893 H   0  0  0  0  0
   17.3426    7.6569   11.3250 H   0  0  0  0  0
   18.2930    5.2332   12.1576 H   0  0  0  0  0
   17.6604    4.0727   11.0182 H   0  0  0  0  0
   16.5192    4.2729   13.4401 H   0  0  0  0  0
   15.3150    6.2652   14.4349 H   0  0  0  0  0
   14.7195    4.2119   13.4222 H   0  0  0  0  0
   16.3563    6.9699   15.9242 H   0  0  0  0  0
   17.9176    6.5084   15.2289 H   0  0  0  0  0
   19.1848    5.4106   16.8997 H   0  0  0  0  0
   18.2536    5.3018   20.4443 H   0  0  0  0  0
  1  2  1  0  0  0
 10  1  1  0  0  0
  1 13  1  0  0  0
  2  3  1  0  0  0
  2  9  1  0  0  0
  3  4  1  0  0  0
  3 11  1  0  0  0
  5  4  1  0  0  0
  4 12  1  0  0  0
  5  6  1  0  0  0
 13  5  1  0  0  0
  6 14  1  0  0  0
  7  8  1  0  0  0
  9  7  1  0  0  0
  7 15  2  0  0  0
 37 10  1  0  0  0
 16 17  1  0  0  0
 16 21  1  0  0  0
 24 16  1  0  0  0
 17 18  1  0  0  0
 17 22  2  0  0  0
 18 19  1  0  0  0
 20 19  1  0  0  0
 19 23  2  0  0  0
 21 20  2  0  0  0
 24 25  1  0  0  0
 29 24  1  0  0  0
 25 26  1  0  0  0
 27 25  1  0  0  0
 28 27  1  0  0  0
 27 30  1  0  0  0
 28 29  1  0  0  0
 31 28  1  0  0  0
 32 31  1  0  0  0
 33 32  1  0  0  0
 33 34  2  0  0  0
 33 35  1  0  0  0
 36 33  1  0  0  0
 36 37  1  0  0  0
 37 38  1  0  0  0
 37 39  2  0  0  0
  1 40  1  0  0  0
  2 41  1  0  0  0
  3 42  1  0  0  0
  4 43  1  0  0  0
  5 44  1  0  0  0
  6 45  1  0  0  0
  6 46  1  0  0  0
  8 47  1  0  0  0
  8 48  1  0  0  0
  8 49  1  0  0  0
  9 50  1  0  0  0
 11 51  1  0  0  0
 12 52  1  0  0  0
 14 53  1  0  0  0
 18 54  1  0  0  0
 20 55  1  0  0  0
 21 56  1  0  0  0
 24 57  1  0  0  0
 25 58  1  0  0  0
 26 59  1  0  0  0
 27 60  1  0  0  0
 28 61  1  0  0  0
 30 62  1  0  0  0
 31 63  1  0  0  0
 31 64  1  0  0  0
 35 65  1  0  0  0
 38 66  1  0  0  0
M  END
$$$$
