3uo5_ligand
  -I-interpret- 

 37 39  0  0  0  0  0  0  0  0999 V2000
   -2.1810  -33.5520    3.2570 C   0  0  0  0  0
   -1.7540  -33.7930    1.8580 C   0  0  0  0  0
   -1.4650  -34.1310    4.2860 C   0  0  0  0  0
   -1.8640  -33.9050    5.5930 C   0  0  0  0  0
   -2.9730  -33.1120    5.8760 C   0  0  0  0  0
   -3.6910  -32.5520    4.8300 C   0  0  0  0  0
   -3.2880  -32.7670    3.5210 C   0  0  0  0  0
   -3.3290  -32.9430    7.2600 N   0  0  0  0  0
   -3.9930  -31.8340    7.8650 C   0  0  0  0  0
   -3.9490  -31.7430    9.1930 N   0  0  0  0  0
   -4.5450  -30.7290    9.8430 C   0  0  0  0  0
   -5.2200  -29.7640    9.1100 C   0  0  0  0  0
   -5.2590  -29.8810    7.7350 C   0  0  0  0  0
   -4.6420  -30.9120    7.1480 N   0  0  0  0  0
   -5.9520  -28.9190    6.9430 N   0  0  0  0  0
   -6.1920  -29.2000    5.5590 C   0  0  0  0  0
   -7.4520  -29.5850    5.1280 C   0  0  0  0  0
   -7.6630  -29.8440    3.7820 C   0  0  0  0  0
   -6.6270  -29.7230    2.8670 C   0  0  0  0  0
   -5.3750  -29.3360    3.2970 C   0  0  0  0  0
   -5.1580  -29.0750    4.6430 C   0  0  0  0  0
   -0.5740  -34.1790    1.6200 O   0  0  0  0  0
   -2.5840  -33.6240    0.9280 O   0  0  0  0  0
   -0.5984  -34.7568    4.0728 H   0  0  0  0  0
   -1.3018  -34.3543    6.4117 H   0  0  0  0  0
   -4.5713  -31.9434    5.0368 H   0  0  0  0  0
   -3.8445  -32.3166    2.6991 H   0  0  0  0  0
   -3.0761  -33.7088    7.8844 H   0  0  0  0  0
   -4.4987  -30.6658   10.9302 H   0  0  0  0  0
   -5.7104  -28.9290    9.6103 H   0  0  0  0  0
   -6.2723  -28.0431    7.3561 H   0  0  0  0  0
   -8.2703  -29.6834    5.8413 H   0  0  0  0  0
   -8.6528  -30.1457    3.4394 H   0  0  0  0  0
   -6.8020  -29.9331    1.8119 H   0  0  0  0  0
   -4.5584  -29.2354    2.5821 H   0  0  0  0  0
   -4.1682  -28.7697    4.9824 H   0  0  0  0  0
   -0.0895  -34.2512    2.4456 H   0  0  0  0  0
  1  2  1  0  0  0
  1  3  4  0  0  0
  1  7  4  0  0  0
  2 22  1  0  0  0
  2 23  2  0  0  0
  3  4  4  0  0  0
  4  5  4  0  0  0
  5  6  4  0  0  0
  5  8  1  0  0  0
  6  7  4  0  0  0
  8  9  1  0  0  0
  9 10  4  0  0  0
  9 14  4  0  0  0
 10 11  4  0  0  0
 11 12  4  0  0  0
 12 13  4  0  0  0
 13 14  4  0  0  0
 13 15  1  0  0  0
 15 16  1  0  0  0
 16 17  4  0  0  0
 16 21  4  0  0  0
 17 18  4  0  0  0
 18 19  4  0  0  0
 19 20  4  0  0  0
 20 21  4  0  0  0
  3 24  1  0  0  0
  4 25  1  0  0  0
  6 26  1  0  0  0
  7 27  1  0  0  0
  8 28  1  0  0  0
 11 29  1  0  0  0
 12 30  1  0  0  0
 15 31  1  0  0  0
 17 32  1  0  0  0
 18 33  1  0  0  0
 19 34  1  0  0  0
 20 35  1  0  0  0
 21 36  1  0  0  0
 22 37  1  0  0  0
M  END
$$$$
