2y81_ligand
  -I-interpret- 

 57 61  0  0  0  0  0  0  0  0999 V2000
    6.5580    2.1280   21.7640 F   0  0  0  0  0
    7.1050    2.7690   20.7220 C   0  0  0  0  0
    7.7510    1.9970   19.7680 C   0  0  0  0  0
    8.6430   -0.3770   16.7140 C   0  0  0  0  0
    8.1050    0.9760   16.8300 N   0  3  0  0  0
    8.3280    2.6230   18.6590 C   0  0  0  0  0
    8.2410    4.0190   18.5510 C   0  0  0  0  0
    7.5870    4.7840   19.5220 C   0  0  0  0  0
    6.9980    4.1590   20.6290 C   0  0  0  0  0
    6.3100    4.8860   21.6570 N   0  0  0  0  0
    6.8270    5.9660   22.2800 C   0  0  0  0  0
    7.9510    6.4300   22.0890 O   0  0  0  0  0
    4.9930    4.5170   22.1910 C   0  0  0  0  0
    4.5210    5.7620   22.9240 C   0  0  0  0  0
    5.8000    6.5060   23.2780 C   0  0  0  0  0
    5.6520    7.9460   23.2330 N   0  0  0  0  0
    6.1150    8.8680   24.4610 S   0  0  0  0  0
   10.1700    0.9170   18.1050 C   0  0  0  0  0
    5.4170    8.4920   25.6450 O   0  0  0  0  0
    5.9190   10.1660   23.9000 O   0  0  0  0  0
    7.8520    8.6210   24.7410 C   0  0  0  0  0
   10.0110   -0.4160   17.3910 C   0  0  0  0  0
    8.2790    7.9230   25.8430 C   0  0  0  0  0
    8.7650    9.1440   23.8100 C   0  0  0  0  0
   10.1140    8.9660   24.0030 C   0  0  0  0  0
   10.5810    8.2530   25.1330 C   0  0  0  0  0
   11.9530    8.0570   25.3430 C   0  0  0  0  0
   12.3780    7.3730   26.4560 C   0  0  0  0  0
   14.0900    7.1520   26.6590 Cl  0  0  0  0  0
    9.6660    7.7250   26.0730 C   0  0  0  0  0
   10.1480    7.0250   27.2100 C   0  0  0  0  0
   11.4960    6.8490   27.3930 C   0  0  0  0  0
    9.0420    1.8170   17.5900 C   0  0  0  0  0
    7.8082    0.9144   19.8815 H   0  0  0  0  0
    8.7408   -0.6490   15.6630 H   0  0  0  0  0
    7.9701   -1.0868   17.1951 H   0  0  0  0  0
    7.2087    0.9435   17.3158 H   0  0  0  0  0
    7.9757    1.3700   15.8981 H   0  0  0  0  0
    8.6922    4.5174   17.6930 H   0  0  0  0  0
    7.5354    5.8677   19.4175 H   0  0  0  0  0
    5.0459    3.6495   22.8488 H   0  0  0  0  0
    4.3009    4.2177   21.4039 H   0  0  0  0  0
    3.9339    5.5163   23.8089 H   0  0  0  0  0
    3.8533    6.3675   22.3112 H   0  0  0  0  0
    6.1063    6.3343   24.3099 H   0  0  0  0  0
    5.2458    8.3819   22.4051 H   0  0  0  0  0
   11.1465    1.3568   17.9020 H   0  0  0  0  0
   10.1100    0.7925   19.1862 H   0  0  0  0  0
   10.8062   -0.5678   16.6611 H   0  0  0  0  0
   10.0785   -1.2476   18.0924 H   0  0  0  0  0
    7.5497    7.5187   26.5450 H   0  0  0  0  0
    8.4046    9.6891   22.9376 H   0  0  0  0  0
   10.8252    9.3744   23.2850 H   0  0  0  0  0
   12.6782    8.4449   24.6276 H   0  0  0  0  0
    9.4443    6.6258   27.9404 H   0  0  0  0  0
   11.8698    6.3059   28.2610 H   0  0  0  0  0
    9.4928    2.5791   16.9543 H   0  0  0  0  0
  2  1  1  0  0  0
  3  2  4  0  0  0
  2  9  4  0  0  0
  6  3  4  0  0  0
  5  4  1  0  0  0
  4 22  1  0  0  0
 33  5  1  0  0  0
  6  7  4  0  0  0
  6 33  1  0  0  0
  7  8  4  0  0  0
  8  9  4  0  0  0
  9 10  1  0  0  0
 10 11  1  0  0  0
 10 13  1  0  0  0
 11 12  2  0  0  0
 11 15  1  0  0  0
 13 14  1  0  0  0
 14 15  1  0  0  0
 15 16  1  0  0  0
 16 17  1  0  0  0
 17 19  2  0  0  0
 17 20  2  0  0  0
 17 21  1  0  0  0
 22 18  1  0  0  0
 18 33  1  0  0  0
 21 23  4  0  0  0
 21 24  4  0  0  0
 23 30  4  0  0  0
 24 25  4  0  0  0
 25 26  4  0  0  0
 26 27  4  0  0  0
 26 30  4  0  0  0
 27 28  4  0  0  0
 28 29  1  0  0  0
 28 32  4  0  0  0
 30 31  4  0  0  0
 31 32  4  0  0  0
  3 34  1  0  0  0
  4 35  1  0  0  0
  4 36  1  0  0  0
  5 37  1  0  0  0
  5 38  1  0  0  0
  7 39  1  0  0  0
  8 40  1  0  0  0
 13 41  1  0  0  0
 13 42  1  0  0  0
 14 43  1  0  0  0
 14 44  1  0  0  0
 15 45  1  0  0  0
 16 46  1  0  0  0
 18 47  1  0  0  0
 18 48  1  0  0  0
 22 49  1  0  0  0
 22 50  1  0  0  0
 23 51  1  0  0  0
 24 52  1  0  0  0
 25 53  1  0  0  0
 27 54  1  0  0  0
 31 55  1  0  0  0
 32 56  1  0  0  0
 33 57  1  0  0  0
M  END
$$$$
