4amy_ligand
  -I-interpret- 

 69 71  0  0  0  0  0  0  0  0999 V2000
   42.9140   37.7210   86.5560 C   0  0  0  0  0
   44.3120   37.9110   85.9890 C   0  0  0  0  0
   45.4370   37.8610   87.0280 C   0  0  0  0  0
   45.4360   36.5620   87.7900 C   0  0  0  0  0
   45.8150   35.3850   87.1580 C   0  0  0  0  0
   45.0450   36.5570   89.1310 C   0  0  0  0  0
   45.7970   34.1940   87.8840 C   0  0  0  0  0
   45.0270   35.3640   89.8600 C   0  0  0  0  0
   45.4020   34.1830   89.2250 C   0  0  0  0  0
   41.8950   37.4990   85.4450 C   0  0  0  0  0
   42.2130   37.7030   84.2860 O   0  0  0  0  0
   39.3280   38.0190   83.8010 C   0  0  0  0  0
   39.5160   39.2010   84.1410 O   0  0  0  0  0
   39.7340   36.8600   84.6510 C   0  0  0  0  0
   38.5480   36.1740   85.3480 C   0  0  0  0  0
   39.0750   35.7480   86.7250 C   0  0  0  0  0
   40.1590   36.7950   87.0860 C   0  0  0  0  0
   39.6670   37.9700   87.9940 C   0  0  0  0  0
   39.4340   37.3620   89.3840 C   0  0  0  0  0
   38.3980   38.7200   87.5170 C   0  0  0  0  0
   40.7390   39.0270   88.2190 C   0  0  0  0  0
   40.6530   37.1170   85.7470 N   0  0  0  0  0
   36.8170   39.0660   82.0680 C   0  0  0  0  0
   35.8990   37.9780   81.9630 O   0  0  0  0  0
   36.5730   39.5570   83.5050 C   0  0  0  0  0
   37.1850   40.8160   83.7490 O   0  0  0  0  0
   38.2520   38.6210   81.6880 C   0  0  0  0  0
   38.2550   37.8250   80.3770 C   0  0  0  0  0
   38.2950   36.3520   80.7040 C   0  0  0  0  0
   38.5630   36.2480   82.2090 C   0  0  0  0  0
   38.7540   37.6370   82.6550 N   0  0  0  0  0
   42.6371   38.6192   87.1080 H   0  0  0  0  0
   42.9176   36.8454   87.2052 H   0  0  0  0  0
   44.3396   38.9035   85.5392 H   0  0  0  0  0
   44.4862   37.0903   85.2932 H   0  0  0  0  0
   45.2853   38.6747   87.7372 H   0  0  0  0  0
   46.3898   37.9519   86.5064 H   0  0  0  0  0
   46.1215   35.3917   86.1120 H   0  0  0  0  0
   44.7518   37.4898   89.6126 H   0  0  0  0  0
   46.0938   33.2630   87.4011 H   0  0  0  0  0
   44.7247   35.3586   90.9072 H   0  0  0  0  0
   45.3875   33.2434   89.7773 H   0  0  0  0  0
   40.2248   36.2551   83.8886 H   0  0  0  0  0
   38.1873   35.3194   84.7756 H   0  0  0  0  0
   37.6934   36.8448   85.4366 H   0  0  0  0  0
   39.4827   34.7373   86.7048 H   0  0  0  0  0
   38.2792   35.7197   87.4693 H   0  0  0  0  0
   40.9507   36.4490   87.7505 H   0  0  0  0  0
   38.6818   36.5762   89.3140 H   0  0  0  0  0
   40.3679   36.9407   89.7561 H   0  0  0  0  0
   39.0874   38.1389   90.0655 H   0  0  0  0  0
   38.5826   39.1557   86.5350 H   0  0  0  0  0
   37.5654   38.0193   87.4544 H   0  0  0  0  0
   38.1564   39.5108   88.2272 H   0  0  0  0  0
   41.6025   38.5698   88.7022 H   0  0  0  0  0
   41.0388   39.4486   87.2596 H   0  0  0  0  0
   40.3406   39.8169   88.8558 H   0  0  0  0  0
   36.6764   39.8924   81.3713 H   0  0  0  0  0
   35.9660   37.5876   81.0885 H   0  0  0  0  0
   37.0054   38.8293   84.1917 H   0  0  0  0  0
   35.4982   39.6670   83.6495 H   0  0  0  0  0
   37.0096   41.0859   84.6535 H   0  0  0  0  0
   38.8424   39.5359   81.6382 H   0  0  0  0  0
   39.1273   38.0956   79.7820 H   0  0  0  0  0
   37.3560   38.0524   79.8042 H   0  0  0  0  0
   39.0736   35.8463   80.1329 H   0  0  0  0  0
   37.3546   35.8679   80.4406 H   0  0  0  0  0
   39.4348   35.6299   82.4236 H   0  0  0  0  0
   37.7404   35.7631   82.7346 H   0  0  0  0  0
  1  2  1  0  0  0
 10  1  1  0  0  0
  2  3  1  0  0  0
  3  4  1  0  0  0
  4  5  4  0  0  0
  4  6  4  0  0  0
  5  7  4  0  0  0
  6  8  4  0  0  0
  7  9  4  0  0  0
  8  9  4  0  0  0
 10 11  2  0  0  0
 22 10  1  0  0  0
 12 13  2  0  0  0
 12 14  1  0  0  0
 31 12  1  0  0  0
 14 15  1  0  0  0
 14 22  1  0  0  0
 15 16  1  0  0  0
 17 16  1  0  0  0
 17 18  1  0  0  0
 22 17  1  0  0  0
 18 19  1  0  0  0
 18 20  1  0  0  0
 18 21  1  0  0  0
 23 24  1  0  0  0
 23 25  1  0  0  0
 27 23  1  0  0  0
 25 26  1  0  0  0
 27 28  1  0  0  0
 27 31  1  0  0  0
 28 29  1  0  0  0
 29 30  1  0  0  0
 30 31  1  0  0  0
  1 32  1  0  0  0
  1 33  1  0  0  0
  2 34  1  0  0  0
  2 35  1  0  0  0
  3 36  1  0  0  0
  3 37  1  0  0  0
  5 38  1  0  0  0
  6 39  1  0  0  0
  7 40  1  0  0  0
  8 41  1  0  0  0
  9 42  1  0  0  0
 14 43  1  0  0  0
 15 44  1  0  0  0
 15 45  1  0  0  0
 16 46  1  0  0  0
 16 47  1  0  0  0
 17 48  1  0  0  0
 19 49  1  0  0  0
 19 50  1  0  0  0
 19 51  1  0  0  0
 20 52  1  0  0  0
 20 53  1  0  0  0
 20 54  1  0  0  0
 21 55  1  0  0  0
 21 56  1  0  0  0
 21 57  1  0  0  0
 23 58  1  0  0  0
 24 59  1  0  0  0
 25 60  1  0  0  0
 25 61  1  0  0  0
 26 62  1  0  0  0
 27 63  1  0  0  0
 28 64  1  0  0  0
 28 65  1  0  0  0
 29 66  1  0  0  0
 29 67  1  0  0  0
 30 68  1  0  0  0
 30 69  1  0  0  0
M  END
$$$$
