### 
### Created by X-TOOL on Mon Sep 10 21:12:48 2018
### 

@<TRIPOS>MOLECULE
1imx_ligand
  135   138     1     0     0
SMALL
GAST_HUCK


@<TRIPOS>ATOM
      1 C1         18.4000   21.1850   25.7540 C.3       1 CPQ        -0.0448
      2 C2         18.1220   20.0480   26.8330 C.3       1 CPQ        -0.0259
      3 C3         18.9370   21.6810   28.8800 C.3       1 CPQ        -0.0227
      4 C4         19.7810   21.8160   30.0490 C.3       1 CPQ         0.0614
      5 C5         19.5180   20.6820   31.1570 C.3       1 CPQ         0.0001
      6 C6         19.6990   19.2170   30.4710 C.3       1 CPQ        -0.0299
      7 C7         19.5250   18.1760   31.5930 C.3       1 CPQ        -0.0491
      8 C8         20.0400   18.8810   32.8230 C.3       1 CPQ        -0.0491
      9 C9         20.4730   20.4200   32.3270 C.3       1 CPQ        -0.0303
     10 C10        17.8670   20.9750   31.6680 C.3       1 CPQ        -0.0567
     11 C11        16.4900   20.2510   27.4180 C.3       1 CPQ        -0.0590
     12 C12        19.7780   21.0740   25.2000 C.3       1 CPQ        -0.0263
     13 C13        20.0280   19.6670   24.5400 C.3       1 CPQ         0.0555
     14 C14        19.7900   18.5260   25.5800 C.3       1 CPQ        -0.0235
     15 C15        18.3780   18.5890   26.1590 C.3       1 CPQ        -0.0330
     16 C16        18.1130   17.4510   27.2150 C.3       1 CPQ        -0.0494
     17 C17        18.9690   17.6070   28.4690 C.3       1 CPQ        -0.0494
     18 C18        18.8030   19.0610   29.1930 C.3       1 CPQ        -0.0342
     19 C19        19.1110   20.2110   28.1770 C.3       1 CPQ        -0.0299
     20 C20        20.3660   21.3290   33.5210 C.3       1 CPQ        -0.0384
     21 C21        20.7120   22.9530   33.1410 C.3       1 CPQ        -0.0620
     22 C22        21.4680   20.8120   34.6390 C.3       1 CPQ        -0.0332
     23 C23        21.5780   21.5170   35.9920 C.3       1 CPQ         0.0377
     24 O2         21.3840   19.5540   24.0090 O.3       1 CPQ        -0.3918
     25 O4         21.1980   21.6850   29.5350 O.3       1 CPQ        -0.3912
     26 C57        22.2590   22.9080   36.2390 C.2       1 CPQ         0.1784
     27 N59        22.4090   23.5970   37.3940 N.am      1 CPQ        -0.2731
     28 C74        23.1410   24.9730   37.2510 C.3       1 CPQ         0.0357
     29 C75        22.9550   26.1210   38.4470 C.3       1 CPQ        -0.0123
     30 C76        23.7660   27.4170   38.0110 C.3       1 CPQ         0.0328
     31 N77        24.2290   27.9780   39.3140 N.am      1 CPQ        -0.2847
     32 C78        24.0710   29.3220   39.7390 C.2       1 CPQ         0.2076
     33 C80        24.6650   29.6540   41.1140 C.3       1 CPQ         0.1717
     34 O86        25.2760   28.4430   41.6970 O.3       1 CPQ        -0.3687
     35 C81        23.4600   30.3340   42.0150 C.3       1 CPQ         0.1263
     36 O87        22.2190   29.5000   42.1750 O.3       1 CPQ        -0.3841
     37 C82        24.0220   30.7340   43.4860 C.3       1 CPQ         0.1136
     38 O88        24.4940   29.4820   44.1330 O.3       1 CPQ        -0.3863
     39 C83        22.8920   31.4100   44.3890 C.3       1 CPQ         0.1066
     40 O89        22.4400   32.6560   43.7170 O.3       1 CPQ        -0.3869
     41 C84        23.4140   31.8180   45.8510 C.3       1 CPQ         0.0727
     42 O85        22.3810   32.4470   46.7000 O.3       1 CPQ        -0.3924
     43 O79        23.5060   30.2110   39.0650 O.2       1 CPQ        -0.3941
     44 C68        22.0050   23.2760   38.7430 C.3       1 CPQ         0.0357
     45 C69        20.4520   23.4480   39.0140 C.3       1 CPQ        -0.0123
     46 C70        20.0430   23.1450   40.4330 C.3       1 CPQ         0.0328
     47 N71        21.2230   22.7740   41.2260 N.am      1 CPQ        -0.2847
     48 C72        21.2240   22.4530   42.4970 C.2       1 CPQ         0.2076
     49 C90        22.6090   22.5290   43.1950 C.3       1 CPQ         0.1717
     50 O96        22.6200   21.8310   44.4540 O.3       1 CPQ        -0.3687
     51 C91        23.0400   24.0980   43.2640 C.3       1 CPQ         0.1263
     52 O97        21.8450   24.9890   43.2630 O.3       1 CPQ        -0.3841
     53 C92        23.9310   24.4970   44.5930 C.3       1 CPQ         0.1136
     54 O98        23.7010   25.9380   44.8010 O.3       1 CPQ        -0.3863
     55 C93        25.4770   24.1790   44.2840 C.3       1 CPQ         0.1066
     56 O99        25.5570   22.7230   44.1190 O.3       1 CPQ        -0.3869
     57 C94        26.5460   24.4800   45.4250 C.3       1 CPQ         0.0727
     58 O95        27.8830   24.1100   44.9060 O.3       1 CPQ        -0.3924
     59 O73        20.1840   22.0880   43.1050 O.2       1 CPQ        -0.3941
     60 O58        22.6940   23.3910   35.2650 O.2       1 CPQ        -0.3969
     61 H1         18.2830   22.1692   26.2311 H         1 CPQ         0.0271
     62 H2         17.6741   21.0866   24.9334 H         1 CPQ         0.0271
     63 H3         19.2086   22.4593   28.1517 H         1 CPQ         0.0293
     64 H4         17.8869   21.8107   29.1809 H         1 CPQ         0.0293
     65 H5         19.6258   22.8045   30.5058 H         1 CPQ         0.0599
     66 H6         20.7382   19.1337   30.1202 H         1 CPQ         0.0310
     67 H7         20.1158   17.2720   31.3836 H         1 CPQ         0.0268
     68 H8         18.4663   17.9026   31.7128 H         1 CPQ         0.0268
     69 H9         20.9138   18.3507   33.2295 H         1 CPQ         0.0268
     70 H10        19.2536   18.9341   33.5903 H         1 CPQ         0.0268
     71 H11        21.5105   20.4460   31.9625 H         1 CPQ         0.0310
     72 H12        17.2363   21.1550   30.7849 H         1 CPQ         0.0236
     73 H13        17.8376   21.8565   32.3254 H         1 CPQ         0.0236
     74 H14        17.4910   20.0974   32.2143 H         1 CPQ         0.0236
     75 H15        16.2701   19.4763   28.1673 H         1 CPQ         0.0235
     76 H16        15.7854   20.1594   26.5783 H         1 CPQ         0.0235
     77 H17        16.3860   21.2452   27.8772 H         1 CPQ         0.0235
     78 H18        20.5026   21.2195   26.0147 H         1 CPQ         0.0290
     79 H19        19.9203   21.8552   24.4388 H         1 CPQ         0.0290
     80 H20        19.3163   19.5440   23.7104 H         1 CPQ         0.0593
     81 H21        20.5178   18.6294   26.3983 H         1 CPQ         0.0293
     82 H22        19.9310   17.5542   25.0844 H         1 CPQ         0.0293
     83 H23        17.6648   18.4572   25.3320 H         1 CPQ         0.0307
     84 H24        18.3401   16.4796   26.7515 H         1 CPQ         0.0268
     85 H25        17.0526   17.4796   27.5059 H         1 CPQ         0.0268
     86 H26        20.0246   17.4760   28.1887 H         1 CPQ         0.0268
     87 H27        18.6805   16.8254   29.1872 H         1 CPQ         0.0268
     88 H28        17.7538   19.1558   29.5094 H         1 CPQ         0.0306
     89 H29        20.1566   20.1135   27.8496 H         1 CPQ         0.0310
     90 H30        19.3489   21.2654   33.9350 H         1 CPQ         0.0302
     91 H31        20.6188   23.5695   34.0472 H         1 CPQ         0.0233
     92 H32        20.0030   23.3106   32.3798 H         1 CPQ         0.0233
     93 H33        21.7377   23.0278   32.7506 H         1 CPQ         0.0233
     94 H34        22.4577   20.8816   34.1641 H         1 CPQ         0.0292
     95 H35        21.2354   19.7576   34.8491 H         1 CPQ         0.0292
     96 H36        22.1116   20.8113   36.6456 H         1 CPQ         0.0502
     97 H37        20.5427   21.6328   36.3451 H         1 CPQ         0.0502
     98 H38        21.4883   18.7092   23.5870 H         1 CPQ         0.2098
     99 H39        21.3589   22.3534   28.8793 H         1 CPQ         0.2098
    100 H40        22.7913   25.4272   36.3122 H         1 CPQ         0.0523
    101 H41        24.2172   24.7584   37.1759 H         1 CPQ         0.0523
    102 H42        23.3494   25.7361   39.3990 H         1 CPQ         0.0304
    103 H43        21.8898   26.3688   38.5647 H         1 CPQ         0.0304
    104 H44        23.1168   28.1302   37.4820 H         1 CPQ         0.0520
    105 H45        24.6192   27.1521   37.3693 H         1 CPQ         0.0520
    106 H46        24.6909   27.3519   39.9422 H         1 CPQ         0.1851
    107 H47        25.4622   30.4020   40.9915 H         1 CPQ         0.0865
    108 H48        25.6425   28.6529   42.5480 H         1 CPQ         0.2134
    109 H49        23.1615   31.2590   41.5000 H         1 CPQ         0.0672
    110 H50        21.5876   29.9722   42.7051 H         1 CPQ         0.2102
    111 H51        24.8606   31.4375   43.3778 H         1 CPQ         0.0648
    112 H52        25.1830   29.0947   43.6059 H         1 CPQ         0.2100
    113 H53        22.0503   30.7091   44.4902 H         1 CPQ         0.0643
    114 H54        21.7663   33.0713   44.2424 H         1 CPQ         0.2100
    115 H55        24.2472   32.5270   45.7363 H         1 CPQ         0.0584
    116 H56        23.7726   30.9096   46.3571 H         1 CPQ         0.0584
    117 H57        22.7558   32.6618   47.5461 H         1 CPQ         0.2095
    118 H58        22.5509   23.9361   39.4331 H         1 CPQ         0.0523
    119 H59        22.2766   22.2294   38.9448 H         1 CPQ         0.0523
    120 H60        19.9059   22.7683   38.3434 H         1 CPQ         0.0304
    121 H61        20.1739   24.4880   38.7879 H         1 CPQ         0.0304
    122 H62        19.3253   22.3114   40.4355 H         1 CPQ         0.0520
    123 H63        19.5722   24.0356   40.8748 H         1 CPQ         0.0520
    124 H64        22.1044   22.7656   40.7538 H         1 CPQ         0.1851
    125 H65        23.3402   22.0184   42.5512 H         1 CPQ         0.0865
    126 H66        23.4822   21.9017   44.8465 H         1 CPQ         0.2134
    127 H67        23.6427   24.3121   42.3691 H         1 CPQ         0.0672
    128 H68        22.1271   25.8953   43.3038 H         1 CPQ         0.2102
    129 H69        23.6029   23.9261   45.4741 H         1 CPQ         0.0648
    130 H70        22.7746   26.0923   44.9440 H         1 CPQ         0.2100
    131 H71        25.7700   24.7097   43.3661 H         1 CPQ         0.0643
    132 H72        26.4551   22.4754   43.9330 H         1 CPQ         0.2100
    133 H73        26.3148   23.8842   46.3203 H         1 CPQ         0.0584
    134 H74        26.5277   25.5495   45.6815 H         1 CPQ         0.0584
    135 H75        27.8905   23.1865   44.6832 H         1 CPQ         0.2095
@<TRIPOS>BOND
     1    2    1 1  
     2    1   12 1  
     3    2   11 1  
     4    2   15 1  
     5   19    2 1  
     6    3    4 1  
     7   19    3 1  
     8    4    5 1  
     9    4   25 1  
    10    5    6 1  
    11    5    9 1  
    12    5   10 1  
    13    6    7 1  
    14    6   18 1  
    15    7    8 1  
    16    8    9 1  
    17    9   20 1  
    18   12   13 1  
    19   13   14 1  
    20   13   24 1  
    21   14   15 1  
    22   15   16 1  
    23   16   17 1  
    24   17   18 1  
    25   18   19 1  
    26   20   21 1  
    27   20   22 1  
    28   22   23 1  
    29   23   26 1  
    30   26   27 am 
    31   26   60 2  
    32   27   28 1  
    33   27   44 1  
    34   28   29 1  
    35   29   30 1  
    36   30   31 1  
    37   31   32 am 
    38   32   33 1  
    39   32   43 2  
    40   33   34 1  
    41   33   35 1  
    42   35   36 1  
    43   35   37 1  
    44   37   38 1  
    45   37   39 1  
    46   39   40 1  
    47   39   41 1  
    48   41   42 1  
    49   44   45 1  
    50   45   46 1  
    51   46   47 1  
    52   47   48 am 
    53   48   49 1  
    54   48   59 2  
    55   49   50 1  
    56   49   51 1  
    57   51   52 1  
    58   51   53 1  
    59   53   54 1  
    60   53   55 1  
    61   55   56 1  
    62   55   57 1  
    63   57   58 1  
    64    1   61 1  
    65    1   62 1  
    66    3   63 1  
    67    3   64 1  
    68    4   65 1  
    69    6   66 1  
    70    7   67 1  
    71    7   68 1  
    72    8   69 1  
    73    8   70 1  
    74    9   71 1  
    75   10   72 1  
    76   10   73 1  
    77   10   74 1  
    78   11   75 1  
    79   11   76 1  
    80   11   77 1  
    81   12   78 1  
    82   12   79 1  
    83   13   80 1  
    84   14   81 1  
    85   14   82 1  
    86   15   83 1  
    87   16   84 1  
    88   16   85 1  
    89   17   86 1  
    90   17   87 1  
    91   18   88 1  
    92   19   89 1  
    93   20   90 1  
    94   21   91 1  
    95   21   92 1  
    96   21   93 1  
    97   22   94 1  
    98   22   95 1  
    99   23   96 1  
   100   23   97 1  
   101   24   98 1  
   102   25   99 1  
   103   28  100 1  
   104   28  101 1  
   105   29  102 1  
   106   29  103 1  
   107   30  104 1  
   108   30  105 1  
   109   31  106 1  
   110   33  107 1  
   111   34  108 1  
   112   35  109 1  
   113   36  110 1  
   114   37  111 1  
   115   38  112 1  
   116   39  113 1  
   117   40  114 1  
   118   41  115 1  
   119   41  116 1  
   120   42  117 1  
   121   44  118 1  
   122   44  119 1  
   123   45  120 1  
   124   45  121 1  
   125   46  122 1  
   126   46  123 1  
   127   47  124 1  
   128   49  125 1  
   129   50  126 1  
   130   51  127 1  
   131   52  128 1  
   132   53  129 1  
   133   54  130 1  
   134   55  131 1  
   135   56  132 1  
   136   57  133 1  
   137   57  134 1  
   138   58  135 1  
@<TRIPOS>SUBSTRUCTURE
     1 CPQ         1

