1imx_ligand
  -I-interpret- 

135138  0  0  0  0  0  0  0  0999 V2000
   18.4000   21.1850   25.7540 C   0  0  0  0  0
   18.1220   20.0480   26.8330 C   0  0  0  0  0
   18.9370   21.6810   28.8800 C   0  0  0  0  0
   19.7810   21.8160   30.0490 C   0  0  0  0  0
   19.5180   20.6820   31.1570 C   0  0  0  0  0
   19.6990   19.2170   30.4710 C   0  0  0  0  0
   19.5250   18.1760   31.5930 C   0  0  0  0  0
   20.0400   18.8810   32.8230 C   0  0  0  0  0
   20.4730   20.4200   32.3270 C   0  0  0  0  0
   17.8670   20.9750   31.6680 C   0  0  0  0  0
   16.4900   20.2510   27.4180 C   0  0  0  0  0
   19.7780   21.0740   25.2000 C   0  0  0  0  0
   20.0280   19.6670   24.5400 C   0  0  0  0  0
   19.7900   18.5260   25.5800 C   0  0  0  0  0
   18.3780   18.5890   26.1590 C   0  0  0  0  0
   18.1130   17.4510   27.2150 C   0  0  0  0  0
   18.9690   17.6070   28.4690 C   0  0  0  0  0
   18.8030   19.0610   29.1930 C   0  0  0  0  0
   19.1110   20.2110   28.1770 C   0  0  0  0  0
   20.3660   21.3290   33.5210 C   0  0  0  0  0
   20.7120   22.9530   33.1410 C   0  0  0  0  0
   21.4680   20.8120   34.6390 C   0  0  0  0  0
   21.5780   21.5170   35.9920 C   0  0  0  0  0
   21.3840   19.5540   24.0090 O   0  0  0  0  0
   21.1980   21.6850   29.5350 O   0  0  0  0  0
   22.2590   22.9080   36.2390 C   0  0  0  0  0
   22.4090   23.5970   37.3940 N   0  0  0  0  0
   23.1410   24.9730   37.2510 C   0  0  0  0  0
   22.9550   26.1210   38.4470 C   0  0  0  0  0
   23.7660   27.4170   38.0110 C   0  0  0  0  0
   24.2290   27.9780   39.3140 N   0  0  0  0  0
   24.0710   29.3220   39.7390 C   0  0  0  0  0
   24.6650   29.6540   41.1140 C   0  0  0  0  0
   25.2760   28.4430   41.6970 O   0  0  0  0  0
   23.4600   30.3340   42.0150 C   0  0  0  0  0
   22.2190   29.5000   42.1750 O   0  0  0  0  0
   24.0220   30.7340   43.4860 C   0  0  0  0  0
   24.4940   29.4820   44.1330 O   0  0  0  0  0
   22.8920   31.4100   44.3890 C   0  0  0  0  0
   22.4400   32.6560   43.7170 O   0  0  0  0  0
   23.4140   31.8180   45.8510 C   0  0  0  0  0
   22.3810   32.4470   46.7000 O   0  0  0  0  0
   23.5060   30.2110   39.0650 O   0  0  0  0  0
   22.0050   23.2760   38.7430 C   0  0  0  0  0
   20.4520   23.4480   39.0140 C   0  0  0  0  0
   20.0430   23.1450   40.4330 C   0  0  0  0  0
   21.2230   22.7740   41.2260 N   0  0  0  0  0
   21.2240   22.4530   42.4970 C   0  0  0  0  0
   22.6090   22.5290   43.1950 C   0  0  0  0  0
   22.6200   21.8310   44.4540 O   0  0  0  0  0
   23.0400   24.0980   43.2640 C   0  0  0  0  0
   21.8450   24.9890   43.2630 O   0  0  0  0  0
   23.9310   24.4970   44.5930 C   0  0  0  0  0
   23.7010   25.9380   44.8010 O   0  0  0  0  0
   25.4770   24.1790   44.2840 C   0  0  0  0  0
   25.5570   22.7230   44.1190 O   0  0  0  0  0
   26.5460   24.4800   45.4250 C   0  0  0  0  0
   27.8830   24.1100   44.9060 O   0  0  0  0  0
   20.1840   22.0880   43.1050 O   0  0  0  0  0
   22.6940   23.3910   35.2650 O   0  0  0  0  0
   18.2957   22.1567   26.2368 H   0  0  0  0  0
   17.6862   21.0731   24.9379 H   0  0  0  0  0
   19.2248   22.4446   28.1574 H   0  0  0  0  0
   17.8982   21.7936   29.1903 H   0  0  0  0  0
   19.5768   22.7672   30.5405 H   0  0  0  0  0
   20.6932   19.0611   30.0522 H   0  0  0  0  0
   20.0653   17.2517   31.3883 H   0  0  0  0  0
   18.4894   17.8542   31.7028 H   0  0  0  0  0
   20.8899   18.3519   33.2540 H   0  0  0  0  0
   19.2803   18.9175   33.6038 H   0  0  0  0  0
   21.4937   20.5745   31.9771 H   0  0  0  0  0
   17.4957   20.1048   32.2092 H   0  0  0  0  0
   17.8392   21.8486   32.3193 H   0  0  0  0  0
   17.2431   21.1532   30.7921 H   0  0  0  0  0
   15.7917   20.1414   26.5883 H   0  0  0  0  0
   16.2796   19.4945   28.1740 H   0  0  0  0  0
   16.3831   21.2435   27.8558 H   0  0  0  0  0
   20.4881   21.2013   26.0171 H   0  0  0  0  0
   19.9033   21.8398   24.4345 H   0  0  0  0  0
   19.3224   19.5686   23.7151 H   0  0  0  0  0
   20.5047   18.6441   26.3945 H   0  0  0  0  0
   19.9169   17.5668   25.0780 H   0  0  0  0  0
   17.6798   18.4343   25.3364 H   0  0  0  0  0
   18.3652   16.4970   26.7520 H   0  0  0  0  0
   17.0661   17.5060   27.5133 H   0  0  0  0  0
   20.0120   17.5075   28.1685 H   0  0  0  0  0
   18.6481   16.8473   29.1817 H   0  0  0  0  0
   17.7667   19.1281   29.5241 H   0  0  0  0  0
   20.1497   20.1353   27.8553 H   0  0  0  0  0
   19.3416   21.2894   33.8914 H   0  0  0  0  0
   21.7285   23.0257   32.7543 H   0  0  0  0  0
   20.0088   23.3061   32.3867 H   0  0  0  0  0
   20.6193   23.5628   34.0397 H   0  0  0  0  0
   22.4350   20.9814   34.1653 H   0  0  0  0  0
   21.1494   19.7992   34.8858 H   0  0  0  0  0
   22.2266   20.8419   36.5503 H   0  0  0  0  0
   20.5345   21.7278   36.2262 H   0  0  0  0  0
   21.5010   18.6863   23.6153 H   0  0  0  0  0
   21.3606   22.3604   28.8724 H   0  0  0  0  0
   22.7105   25.4271   36.3585 H   0  0  0  0  0
   24.2028   24.7271   37.2625 H   0  0  0  0  0
   23.3323   25.7413   39.3965 H   0  0  0  0  0
   21.9001   26.3622   38.5779 H   0  0  0  0  0
   23.1613   28.1210   37.4392 H   0  0  0  0  0
   24.5885   27.1918   37.3321 H   0  0  0  0  0
   24.7001   27.3394   39.9548 H   0  0  0  0  0
   25.4789   30.3772   41.0627 H   0  0  0  0  0
   25.6463   28.6551   42.5569 H   0  0  0  0  0
   23.1546   31.2124   41.4465 H   0  0  0  0  0
   21.5810   29.9771   42.7106 H   0  0  0  0  0
   24.8270   31.4615   43.3816 H   0  0  0  0  0
   24.8339   29.6837   45.0078 H   0  0  0  0  0
   22.0938   30.6770   44.5061 H   0  0  0  0  0
   21.7592   33.0757   44.2480 H   0  0  0  0  0
   24.2135   32.5469   45.7186 H   0  0  0  0  0
   23.7309   30.9022   46.3499 H   0  0  0  0  0
   22.7597   32.6641   47.5550 H   0  0  0  0  0
   22.5260   23.9652   39.4076 H   0  0  0  0  0
   22.2466   22.2263   38.9102 H   0  0  0  0  0
   19.9298   22.7421   38.3681 H   0  0  0  0  0
   20.2024   24.4912   38.8202 H   0  0  0  0  0
   19.3348   22.3164   40.4336 H   0  0  0  0  0
   19.5801   24.0297   40.8701 H   0  0  0  0  0
   22.1221   22.7654   40.7443 H   0  0  0  0  0
   23.3703   22.0011   42.6207 H   0  0  0  0  0
   23.4913   21.9025   44.8506 H   0  0  0  0  0
   23.6533   24.2422   42.3745 H   0  0  0  0  0
   22.1300   25.9048   43.3042 H   0  0  0  0  0
   23.6549   23.9364   45.4861 H   0  0  0  0  0
   24.1978   26.2328   45.5678 H   0  0  0  0  0
   25.7266   24.8212   43.4394 H   0  0  0  0  0
   26.4646   22.4728   43.9310 H   0  0  0  0  0
   26.3155   23.9020   46.3199 H   0  0  0  0  0
   26.5244   25.5363   45.6931 H   0  0  0  0  0
   28.5454   24.2834   45.5788 H   0  0  0  0  0
  2  1  1  0  0  0
  1 12  1  0  0  0
  2 11  1  0  0  0
  2 15  1  0  0  0
 19  2  1  0  0  0
  3  4  1  0  0  0
 19  3  1  0  0  0
  4  5  1  0  0  0
  4 25  1  0  0  0
  5  6  1  0  0  0
  5  9  1  0  0  0
  5 10  1  0  0  0
  6  7  1  0  0  0
  6 18  1  0  0  0
  7  8  1  0  0  0
  8  9  1  0  0  0
  9 20  1  0  0  0
 12 13  1  0  0  0
 13 14  1  0  0  0
 13 24  1  0  0  0
 14 15  1  0  0  0
 15 16  1  0  0  0
 16 17  1  0  0  0
 17 18  1  0  0  0
 18 19  1  0  0  0
 20 21  1  0  0  0
 20 22  1  0  0  0
 22 23  1  0  0  0
 23 26  1  0  0  0
 26 27  1  0  0  0
 26 60  2  0  0  0
 27 28  1  0  0  0
 27 44  1  0  0  0
 28 29  1  0  0  0
 29 30  1  0  0  0
 30 31  1  0  0  0
 31 32  1  0  0  0
 32 33  1  0  0  0
 32 43  2  0  0  0
 33 34  1  0  0  0
 33 35  1  0  0  0
 35 36  1  0  0  0
 35 37  1  0  0  0
 37 38  1  0  0  0
 37 39  1  0  0  0
 39 40  1  0  0  0
 39 41  1  0  0  0
 41 42  1  0  0  0
 44 45  1  0  0  0
 45 46  1  0  0  0
 46 47  1  0  0  0
 47 48  1  0  0  0
 48 49  1  0  0  0
 48 59  2  0  0  0
 49 50  1  0  0  0
 49 51  1  0  0  0
 51 52  1  0  0  0
 51 53  1  0  0  0
 53 54  1  0  0  0
 53 55  1  0  0  0
 55 56  1  0  0  0
 55 57  1  0  0  0
 57 58  1  0  0  0
  1 61  1  0  0  0
  1 62  1  0  0  0
  3 63  1  0  0  0
  3 64  1  0  0  0
  4 65  1  0  0  0
  6 66  1  0  0  0
  7 67  1  0  0  0
  7 68  1  0  0  0
  8 69  1  0  0  0
  8 70  1  0  0  0
  9 71  1  0  0  0
 10 72  1  0  0  0
 10 73  1  0  0  0
 10 74  1  0  0  0
 11 75  1  0  0  0
 11 76  1  0  0  0
 11 77  1  0  0  0
 12 78  1  0  0  0
 12 79  1  0  0  0
 13 80  1  0  0  0
 14 81  1  0  0  0
 14 82  1  0  0  0
 15 83  1  0  0  0
 16 84  1  0  0  0
 16 85  1  0  0  0
 17 86  1  0  0  0
 17 87  1  0  0  0
 18 88  1  0  0  0
 19 89  1  0  0  0
 20 90  1  0  0  0
 21 91  1  0  0  0
 21 92  1  0  0  0
 21 93  1  0  0  0
 22 94  1  0  0  0
 22 95  1  0  0  0
 23 96  1  0  0  0
 23 97  1  0  0  0
 24 98  1  0  0  0
 25 99  1  0  0  0
 28100  1  0  0  0
 28101  1  0  0  0
 29102  1  0  0  0
 29103  1  0  0  0
 30104  1  0  0  0
 30105  1  0  0  0
 31106  1  0  0  0
 33107  1  0  0  0
 34108  1  0  0  0
 35109  1  0  0  0
 36110  1  0  0  0
 37111  1  0  0  0
 38112  1  0  0  0
 39113  1  0  0  0
 40114  1  0  0  0
 41115  1  0  0  0
 41116  1  0  0  0
 42117  1  0  0  0
 44118  1  0  0  0
 44119  1  0  0  0
 45120  1  0  0  0
 45121  1  0  0  0
 46122  1  0  0  0
 46123  1  0  0  0
 47124  1  0  0  0
 49125  1  0  0  0
 50126  1  0  0  0
 51127  1  0  0  0
 52128  1  0  0  0
 53129  1  0  0  0
 54130  1  0  0  0
 55131  1  0  0  0
 56132  1  0  0  0
 57133  1  0  0  0
 57134  1  0  0  0
 58135  1  0  0  0
M  END
$$$$
