1oky_ligand
  -I-interpret- 

 60 67  0  0  0  0  0  0  0  0999 V2000
   79.0350   16.3860   11.2820 C   0  0  0  0  0
   77.8990   17.1580   10.9460 C   0  0  0  0  0
   77.9010   18.5690   11.1480 C   0  0  0  0  0
   79.0390   19.2190   11.6900 C   0  0  0  0  0
   80.1720   18.4500   12.0230 C   0  0  0  0  0
   81.4560   18.6890   12.5280 N   0  0  0  0  0
   82.1620   17.5250   12.6060 C   0  0  0  0  0
   83.5010   17.2790   12.9720 C   0  0  0  0  0
   84.4620   18.1500   13.3760 N   0  0  0  0  0
   85.6630   17.4770   13.5610 C   0  0  0  0  0
   86.9680   17.8380   13.9420 C   0  0  0  0  0
   87.9610   16.8310   14.0070 C   0  0  0  0  0
   87.6450   15.4760   13.6890 C   0  0  0  0  0
   86.3290   15.1170   13.3060 C   0  0  0  0  0
   85.3640   16.1270   13.2480 C   0  0  0  0  0
   84.0490   16.0220   12.8990 C   0  0  0  0  0
   83.2170   14.9360   12.4400 C   0  0  0  0  0
   83.4570   13.6030   12.2610 C   0  0  0  0  0
   82.2810   13.0800   11.7860 N   0  0  0  0  0
   81.3250   14.0980   11.6890 C   0  0  0  0  0
   81.9340   15.2170   12.0980 C   0  0  0  0  0
   81.3610   16.5220   12.1640 C   0  0  0  0  0
   80.1540   17.0530   11.8120 C   0  0  0  0  0
   81.9390   19.9300   12.8720 C   0  0  0  0  0
   82.5570   20.6210   11.6100 C   0  0  0  0  0
   83.7480   21.4550   12.0550 C   0  0  0  0  0
   84.8470   20.5230   12.5590 C   0  0  0  0  0
   84.2780   19.5950   13.6580 C   0  0  0  0  0
   82.8890   19.8450   13.9800 O   0  0  0  0  0
   84.4930   12.9810   12.5040 O   0  0  0  0  0
   84.2510   22.2420   10.9160 N   0  3  0  0  0
   83.7160   23.5440   10.4810 C   0  0  0  0  0
   83.0910   19.6450   10.6910 O   0  0  0  0  0
   82.1780   19.4040    9.6140 C   0  0  0  0  0
   80.7910   20.8240   13.4030 C   0  0  0  0  0
   79.0432   15.3060   11.1346 H   0  0  0  0  0
   77.0168   16.6713   10.5302 H   0  0  0  0  0
   77.0199   19.1537   10.8835 H   0  0  0  0  0
   79.0373   20.2977   11.8467 H   0  0  0  0  0
   87.2101   18.8732   14.1826 H   0  0  0  0  0
   88.9768   17.0931   14.3028 H   0  0  0  0  0
   88.4211   14.7124   13.7411 H   0  0  0  0  0
   86.0766   14.0846   13.0639 H   0  0  0  0  0
   80.2940   13.9992   11.3493 H   0  0  0  0  0
   81.7730   21.2091   11.1329 H   0  0  0  0  0
   83.4462   22.1329   12.8534 H   0  0  0  0  0
   85.6628   21.1159   12.9727 H   0  0  0  0  0
   85.2169   19.9186   11.7308 H   0  0  0  0  0
   84.8792   19.8537   14.5296 H   0  0  0  0  0
   84.0279   21.6409   10.1228 H   0  0  0  0  0
   85.1928   22.4867   11.2217 H   0  0  0  0  0
   82.6653   23.4325   10.2133 H   0  0  0  0  0
   83.8107   24.2641   11.2937 H   0  0  0  0  0
   84.2776   23.8952    9.6153 H   0  0  0  0  0
   81.2359   19.0301   10.0148 H   0  0  0  0  0
   82.0010   20.3343    9.0743 H   0  0  0  0  0
   82.6048   18.6648    8.9361 H   0  0  0  0  0
   81.1884   21.8034   13.6694 H   0  0  0  0  0
   80.0322   20.9368   12.6287 H   0  0  0  0  0
   80.3474   20.3588   14.2833 H   0  0  0  0  0
  1  2  4  0  0  0
  1 23  4  0  0  0
  2  3  4  0  0  0
  3  4  4  0  0  0
  4  5  4  0  0  0
  5  6  4  0  0  0
  5 23  4  0  0  0
  6  7  4  0  0  0
  6 24  1  0  0  0
  7  8  4  0  0  0
  7 22  4  0  0  0
  8  9  4  0  0  0
  8 16  4  0  0  0
  9 10  4  0  0  0
  9 28  1  0  0  0
 10 11  4  0  0  0
 10 15  4  0  0  0
 11 12  4  0  0  0
 12 13  4  0  0  0
 13 14  4  0  0  0
 14 15  4  0  0  0
 15 16  4  0  0  0
 16 17  4  0  0  0
 17 18  1  0  0  0
 17 21  4  0  0  0
 18 19  1  0  0  0
 18 30  2  0  0  0
 19 20  2  0  0  0
 20 21  1  0  0  0
 21 22  4  0  0  0
 22 23  4  0  0  0
 24 25  1  0  0  0
 24 29  1  0  0  0
 24 35  1  0  0  0
 25 26  1  0  0  0
 25 33  1  0  0  0
 26 27  1  0  0  0
 26 31  1  0  0  0
 27 28  1  0  0  0
 28 29  1  0  0  0
 31 32  1  0  0  0
 33 34  1  0  0  0
  1 36  1  0  0  0
  2 37  1  0  0  0
  3 38  1  0  0  0
  4 39  1  0  0  0
 11 40  1  0  0  0
 12 41  1  0  0  0
 13 42  1  0  0  0
 14 43  1  0  0  0
 20 44  1  0  0  0
 25 45  1  0  0  0
 26 46  1  0  0  0
 27 47  1  0  0  0
 27 48  1  0  0  0
 28 49  1  0  0  0
 31 50  1  0  0  0
 31 51  1  0  0  0
 32 52  1  0  0  0
 32 53  1  0  0  0
 32 54  1  0  0  0
 34 55  1  0  0  0
 34 56  1  0  0  0
 34 57  1  0  0  0
 35 58  1  0  0  0
 35 59  1  0  0  0
 35 60  1  0  0  0
M  END
$$$$
