4yve_ligand
  -I-interpret- 

 38 40  0  0  0  0  0  0  0  0999 V2000
   49.3180  108.1110   35.4390 C   0  0  0  0  0
   49.0530  105.6780   35.3420 C   0  0  0  0  0
   48.0550  104.6880   35.4150 C   0  0  0  0  0
   48.2170  103.4570   34.7720 C   0  0  0  0  0
   49.3960  103.1850   34.0800 C   0  0  0  0  0
   50.4030  104.1500   34.0040 C   0  0  0  0  0
   50.2370  105.3850   34.6340 C   0  0  0  0  0
   51.6620  103.8880   33.2230 C   0  0  0  0  0
   51.3680  104.2180   31.7870 C   0  0  0  0  0
   48.8800  106.8700   36.0090 O   0  0  0  0  0
   50.9510  103.2500   29.5650 C   0  0  0  0  0
   50.5970  102.3380   27.5490 C   0  0  0  0  0
   50.4730  103.6280   27.1590 C   0  0  0  0  0
   50.5230  101.1950   26.5970 C   0  0  0  0  0
   51.2370  105.3720   31.4500 O   0  0  0  0  0
   51.2190  103.1890   30.9300 N   0  0  0  0  0
   50.8670  102.1800   28.8370 N   0  0  0  0  0
   50.7100  104.6840   28.5520 S   0  0  0  0  0
   50.3220  101.4100   25.2190 C   0  0  0  0  0
   50.2840  100.3270   24.3560 C   0  0  0  0  0
   50.4790   99.0960   24.7990 N   0  0  0  0  0
   50.7100   98.8530   26.0800 C   0  0  0  0  0
   50.7410   99.8720   27.0220 C   0  0  0  0  0
   50.3939  108.0714   35.2686 H   0  0  0  0  0
   48.8046  108.2755   34.4917 H   0  0  0  0  0
   49.0873  108.9260   36.1251 H   0  0  0  0  0
   47.1438  104.8836   35.9803 H   0  0  0  0  0
   47.4228  102.7115   34.8118 H   0  0  0  0  0
   49.5324  102.2173   33.5972 H   0  0  0  0  0
   51.0305  106.1302   34.5780 H   0  0  0  0  0
   51.9674  102.8465   33.3236 H   0  0  0  0  0
   52.4820  104.5003   33.5983 H   0  0  0  0  0
   50.2601  103.9620   26.1435 H   0  0  0  0  0
   51.3137  102.2548   31.3283 H   0  0  0  0  0
   50.1972  102.4222   24.8344 H   0  0  0  0  0
   50.0905  100.4917   23.2960 H   0  0  0  0  0
   50.8802   97.8260   26.4032 H   0  0  0  0  0
   50.9309   99.6509   28.0723 H   0  0  0  0  0
 10  1  1  0  0  0
  2  3  4  0  0  0
  7  2  4  0  0  0
  2 10  1  0  0  0
  4  3  4  0  0  0
  5  4  4  0  0  0
  6  5  4  0  0  0
  6  7  4  0  0  0
  8  6  1  0  0  0
  9  8  1  0  0  0
  9 15  2  0  0  0
 16  9  1  0  0  0
 11 16  1  0  0  0
 17 11  4  0  0  0
 11 18  4  0  0  0
 12 13  4  0  0  0
 12 14  1  0  0  0
 12 17  4  0  0  0
 13 18  4  0  0  0
 14 19  4  0  0  0
 14 23  4  0  0  0
 19 20  4  0  0  0
 20 21  4  0  0  0
 21 22  4  0  0  0
 22 23  4  0  0  0
  1 24  1  0  0  0
  1 25  1  0  0  0
  1 26  1  0  0  0
  3 27  1  0  0  0
  4 28  1  0  0  0
  5 29  1  0  0  0
  7 30  1  0  0  0
  8 31  1  0  0  0
  8 32  1  0  0  0
 13 33  1  0  0  0
 16 34  1  0  0  0
 19 35  1  0  0  0
 20 36  1  0  0  0
 22 37  1  0  0  0
 23 38  1  0  0  0
M  END
$$$$
