4c70_ligand
  -I-interpret- 

 34 34  0  0  0  0  0  0  0  0999 V2000
   -9.0420  -17.5140    9.3310 C   0  0  0  0  0
   -4.0940  -23.9120    8.3910 O   0  0  0  0  0
   -5.1920  -21.5570    8.4310 S   0  0  0  0  0
   -8.7600  -18.5790    8.5770 C   0  0  0  0  0
   -7.7320  -22.6680    5.5500 O   0  0  0  0  0
   -7.5040  -19.2210    8.0540 C   0  0  0  0  0
   -6.1610  -18.6030    8.3350 C   0  0  0  0  0
   -7.5040  -20.3790    7.3720 C   0  0  0  0  0
   -6.3140  -21.1850    6.9380 C   0  0  0  0  0
   -5.4760  -20.4740    5.8380 C   0  0  0  0  0
   -5.0070  -23.3050    7.9220 C   0  0  0  0  0
   -5.8860  -23.6470    6.7630 C   0  0  0  0  0
   -5.9910  -25.0310    6.1770 C   0  0  0  0  0
   -6.9690  -25.9850    7.0390 C   0  0  0  0  0
   -6.3680  -26.6890    8.2800 C   0  0  0  0  0
   -6.6650  -22.5930    6.3920 C   0  0  0  0  0
   -8.2358  -16.8878    9.7130 H   0  0  0  0  0
  -10.0785  -17.2706    9.5646 H   0  0  0  0  0
   -9.6575  -19.1129    8.2645 H   0  0  0  0  0
   -8.1168  -21.7949    5.4443 H   0  0  0  0  0
   -5.5603  -19.2952    8.9250 H   0  0  0  0  0
   -5.6549  -18.3928    7.3928 H   0  0  0  0  0
   -6.2985  -17.6750    8.8900 H   0  0  0  0  0
   -8.4813  -20.7795    7.1027 H   0  0  0  0  0
   -6.1008  -20.3017    4.9616 H   0  0  0  0  0
   -5.1124  -19.5200    6.2198 H   0  0  0  0  0
   -4.6294  -21.1036    5.5642 H   0  0  0  0  0
   -4.9960  -25.4761    6.1771 H   0  0  0  0  0
   -6.4021  -24.9435    5.1713 H   0  0  0  0  0
   -7.2682  -26.7861    6.3631 H   0  0  0  0  0
   -7.7528  -25.3319    7.4228 H   0  0  0  0  0
   -5.5414  -27.3278    7.9690 H   0  0  0  0  0
   -6.0045  -25.9382    8.9816 H   0  0  0  0  0
   -7.1364  -27.2949    8.7601 H   0  0  0  0  0
  4  1  2  0  0  0
 11  2  2  0  0  0
  9  3  1  0  0  0
  3 11  1  0  0  0
  6  4  1  0  0  0
 16  5  1  0  0  0
  6  7  1  0  0  0
  8  6  2  0  0  0
  9  8  1  0  0  0
  9 10  1  0  0  0
  9 16  1  0  0  0
 11 12  1  0  0  0
 12 13  1  0  0  0
 12 16  2  0  0  0
 13 14  1  0  0  0
 14 15  1  0  0  0
  1 17  1  0  0  0
  1 18  1  0  0  0
  4 19  1  0  0  0
  5 20  1  0  0  0
  7 21  1  0  0  0
  7 22  1  0  0  0
  7 23  1  0  0  0
  8 24  1  0  0  0
 10 25  1  0  0  0
 10 26  1  0  0  0
 10 27  1  0  0  0
 13 28  1  0  0  0
 13 29  1  0  0  0
 14 30  1  0  0  0
 14 31  1  0  0  0
 15 32  1  0  0  0
 15 33  1  0  0  0
 15 34  1  0  0  0
M  END
$$$$
