4bgy_ligand
  -I-interpret- 

 88 90  0  0  0  0  0  0  0  0999 V2000
  -23.0570   29.6730   96.2540 C   0  0  0  0  0
  -23.1970   29.1360   97.6530 C   0  0  0  0  0
  -22.3010   29.9820   98.5510 C   0  0  0  0  0
  -22.8170   31.4160   98.5060 C   0  0  0  0  0
  -24.2550   31.4240   98.9760 C   0  0  0  0  0
  -25.0910   30.5180   98.0860 C   0  0  0  0  0
  -26.5540   30.4860   98.4720 C   0  0  0  0  0
  -27.2590   29.2710   97.8960 C   0  0  0  0  0
  -28.7700   29.4700   97.9120 C   0  0  0  0  0
  -25.7580   33.2900   99.3570 C   0  0  0  0  0
  -26.1010   34.7130   99.0290 C   0  0  0  0  0
  -24.6960   32.7860   98.7440 N   0  0  0  0  0
  -21.9030   29.8390   95.7930 O   0  0  0  0  0
  -24.0970   29.9320   95.6140 O   0  0  0  0  0
  -22.0290   32.2820   99.3200 O   0  0  0  0  0
  -24.5530   29.1970   98.1070 O   0  0  0  0  0
  -26.6610   30.4870   99.8870 O   0  0  0  0  0
  -26.8120   29.0690   96.5510 O   0  0  0  0  0
  -29.4080   28.3620   97.2830 O   0  0  0  0  0
  -26.4180   32.6330  100.1370 O   0  0  0  0  0
  -22.0520   25.1370  100.0930 C   0  0  0  0  0
  -21.8050   26.1350   98.9770 C   0  0  0  0  0
  -22.9570   27.1130   98.8440 C   0  0  0  0  0
  -24.2830   26.3870   98.8000 C   0  0  0  0  0
  -24.4020   25.4450   99.9880 C   0  0  0  0  0
  -25.7300   24.6900   99.9960 C   0  0  0  0  0
  -20.5860   26.8260   99.2520 O   0  0  0  0  0
  -22.7580   27.7900   97.6180 O   0  0  0  0  0
  -24.3150   25.6400   97.5890 O   0  0  0  0  0
  -23.3240   24.5130   99.9350 O   0  0  0  0  0
  -25.5120   23.3310  100.3900 O   0  0  0  0  0
  -19.8440   20.7600  101.8610 C   0  0  0  0  0
  -21.3310   20.8170  101.5490 C   0  0  0  0  0
  -21.6130   21.9250  100.5500 C   0  0  0  0  0
  -21.0270   23.2330  101.0550 C   0  0  0  0  0
  -19.5860   23.0840  101.5490 C   0  0  0  0  0
  -19.0880   24.3650  102.2140 C   0  0  0  0  0
  -21.7980   18.4630  101.6830 C   0  0  0  0  0
  -22.0820   17.1740  100.9730 C   0  0  0  0  0
  -21.6220   19.5400  100.9200 N   0  0  0  0  0
  -19.5730   19.6570  102.7300 O   0  0  0  0  0
  -23.0230   22.0840  100.3660 O   0  0  0  0  0
  -21.0310   24.1600   99.9790 O   0  0  0  0  0
  -19.4770   21.9960  102.4690 O   0  0  0  0  0
  -20.1440   24.9550  102.9770 O   0  0  0  0  0
  -21.7300   18.5220  102.9000 O   0  0  0  0  0
  -21.2688   29.9401   98.2032 H   0  0  0  0  0
  -22.3238   29.6035   99.5729 H   0  0  0  0  0
  -22.7502   31.7845   97.4824 H   0  0  0  0  0
  -24.3496   31.0930  100.0102 H   0  0  0  0  0
  -25.0442   30.9318   97.0787 H   0  0  0  0  0
  -27.0392   31.3707   98.0598 H   0  0  0  0  0
  -27.0215   28.3978   98.5037 H   0  0  0  0  0
  -29.0194   30.3839   97.3728 H   0  0  0  0  0
  -29.1131   29.5460   98.9438 H   0  0  0  0  0
  -27.1014   34.7542   98.5981 H   0  0  0  0  0
  -26.0712   35.3117   99.9394 H   0  0  0  0  0
  -25.3788   35.1035   98.3120 H   0  0  0  0  0
  -24.1750   33.3720   98.0916 H   0  0  0  0  0
  -21.2557   29.5770   96.4518 H   0  0  0  0  0
  -21.1197   32.2686   99.0126 H   0  0  0  0  0
  -26.2123   31.2587  100.2402 H   0  0  0  0  0
  -27.2539   28.3018   96.1800 H   0  0  0  0  0
  -30.3590   28.4923   97.2958 H   0  0  0  0  0
  -22.0422   25.6293  101.0655 H   0  0  0  0  0
  -21.7277   25.6035   98.0285 H   0  0  0  0  0
  -22.9815   27.7935   99.6951 H   0  0  0  0  0
  -25.1104   27.0952   98.8433 H   0  0  0  0  0
  -24.3626   26.0386  100.9014 H   0  0  0  0  0
  -26.1626   24.7106   98.9957 H   0  0  0  0  0
  -26.4109   25.1654  100.7020 H   0  0  0  0  0
  -20.4155   27.4622   98.5536 H   0  0  0  0  0
  -25.1471   25.1650   97.5292 H   0  0  0  0  0
  -26.3495   22.8617  100.3932 H   0  0  0  0  0
  -19.2613   20.6138  100.9515 H   0  0  0  0  0
  -21.9276   21.0051  102.4416 H   0  0  0  0  0
  -21.1553   21.6574   99.5976 H   0  0  0  0  0
  -21.6336   23.5679  101.8964 H   0  0  0  0  0
  -18.9645   22.8822  100.6766 H   0  0  0  0  0
  -18.7616   25.0668  101.4465 H   0  0  0  0  0
  -18.2541   24.1281  102.8747 H   0  0  0  0  0
  -21.3039   16.4494  101.2131 H   0  0  0  0  0
  -23.0500   16.7894  101.2941 H   0  0  0  0  0
  -22.0979   17.3491   99.8973 H   0  0  0  0  0
  -21.6907   19.4693   99.9048 H   0  0  0  0  0
  -18.6331   19.6266  102.9230 H   0  0  0  0  0
  -23.1846   22.7871   99.7326 H   0  0  0  0  0
  -19.8258   25.7597  103.3928 H   0  0  0  0  0
  2  1  1  0  0  0
  1 13  1  0  0  0
  1 14  2  0  0  0
  2  3  1  0  0  0
  2 16  1  0  0  0
 28  2  1  0  0  0
  3  4  1  0  0  0
  4  5  1  0  0  0
  4 15  1  0  0  0
  6  5  1  0  0  0
  5 12  1  0  0  0
  6  7  1  0  0  0
 16  6  1  0  0  0
  7  8  1  0  0  0
  7 17  1  0  0  0
  8  9  1  0  0  0
  8 18  1  0  0  0
  9 19  1  0  0  0
 10 11  1  0  0  0
 12 10  1  0  0  0
 10 20  2  0  0  0
 21 22  1  0  0  0
 21 30  1  0  0  0
 43 21  1  0  0  0
 22 23  1  0  0  0
 22 27  1  0  0  0
 23 24  1  0  0  0
 23 28  1  0  0  0
 25 24  1  0  0  0
 24 29  1  0  0  0
 25 26  1  0  0  0
 30 25  1  0  0  0
 26 31  1  0  0  0
 33 32  1  0  0  0
 32 41  1  0  0  0
 32 44  1  0  0  0
 33 34  1  0  0  0
 40 33  1  0  0  0
 34 35  1  0  0  0
 34 42  1  0  0  0
 35 36  1  0  0  0
 35 43  1  0  0  0
 36 37  1  0  0  0
 44 36  1  0  0  0
 37 45  1  0  0  0
 38 39  1  0  0  0
 38 40  1  0  0  0
 38 46  2  0  0  0
  3 47  1  0  0  0
  3 48  1  0  0  0
  4 49  1  0  0  0
  5 50  1  0  0  0
  6 51  1  0  0  0
  7 52  1  0  0  0
  8 53  1  0  0  0
  9 54  1  0  0  0
  9 55  1  0  0  0
 11 56  1  0  0  0
 11 57  1  0  0  0
 11 58  1  0  0  0
 12 59  1  0  0  0
 13 60  1  0  0  0
 15 61  1  0  0  0
 17 62  1  0  0  0
 18 63  1  0  0  0
 19 64  1  0  0  0
 21 65  1  0  0  0
 22 66  1  0  0  0
 23 67  1  0  0  0
 24 68  1  0  0  0
 25 69  1  0  0  0
 26 70  1  0  0  0
 26 71  1  0  0  0
 27 72  1  0  0  0
 29 73  1  0  0  0
 31 74  1  0  0  0
 32 75  1  0  0  0
 33 76  1  0  0  0
 34 77  1  0  0  0
 35 78  1  0  0  0
 36 79  1  0  0  0
 37 80  1  0  0  0
 37 81  1  0  0  0
 39 82  1  0  0  0
 39 83  1  0  0  0
 39 84  1  0  0  0
 40 85  1  0  0  0
 41 86  1  0  0  0
 42 87  1  0  0  0
 45 88  1  0  0  0
M  END
$$$$
