1uu8_ligand
  -I-interpret- 

 55 59  0  0  0  0  0  0  0  0999 V2000
   21.2110   82.7320   28.9170 C   0  0  0  0  0
   22.0130   83.1720   27.7670 N   0  3  0  0  0
   21.3240   83.3210   26.4750 C   0  0  0  0  0
   23.4430   82.8110   27.7940 C   0  0  0  0  0
   24.0330   82.4730   26.4210 C   0  0  0  0  0
   23.5990   81.1010   25.8940 C   0  0  0  0  0
   24.3450   79.9750   26.4790 N   0  0  0  0  0
   25.6270   80.0290   26.8540 C   0  0  0  0  0
   23.8380   78.7500   26.6070 C   0  0  0  0  0
   22.6000   78.1790   26.3290 C   0  0  0  0  0
   22.4150   76.8160   26.5390 C   0  0  0  0  0
   23.4610   76.0360   27.0260 C   0  0  0  0  0
   24.6950   76.6180   27.3060 C   0  0  0  0  0
   24.8860   77.9790   27.0950 C   0  0  0  0  0
   25.9910   78.8060   27.2390 C   0  0  0  0  0
   27.3070   78.5400   27.6120 C   0  0  0  0  0
   28.0140   77.4010   27.2330 C   0  0  0  0  0
   27.6040   76.4380   26.5910 O   0  0  0  0  0
   29.2570   77.5830   27.6770 N   0  0  0  0  0
   29.4330   78.7400   28.3140 C   0  0  0  0  0
   30.4810   79.1680   28.7910 O   0  0  0  0  0
   28.1920   79.3690   28.2920 C   0  0  0  0  0
   27.9160   80.5880   28.9100 C   0  0  0  0  0
   26.8090   81.0660   29.5920 C   0  0  0  0  0
   25.5640   80.5180   29.8900 C   0  0  0  0  0
   24.6270   81.2670   30.5960 C   0  0  0  0  0
   24.9300   82.5620   31.0100 C   0  0  0  0  0
   26.1750   83.1100   30.7190 C   0  0  0  0  0
   27.1060   82.3550   30.0100 C   0  0  0  0  0
   28.3460   82.5940   29.5830 N   0  0  0  0  0
   28.8430   81.5430   28.9250 C   0  0  0  0  0
   20.4117   83.4508   29.0972 H   0  0  0  0  0
   20.7803   81.7534   28.7049 H   0  0  0  0  0
   21.8482   82.6665   29.7989 H   0  0  0  0  0
   22.1135   84.1721   27.9407 H   0  0  0  0  0
   20.8972   82.3625   26.1796 H   0  0  0  0  0
   20.5286   84.0599   26.5720 H   0  0  0  0  0
   22.0377   83.6505   25.7199 H   0  0  0  0  0
   23.9857   83.6773   28.1722 H   0  0  0  0  0
   23.5372   81.9184   28.4125 H   0  0  0  0  0
   25.1180   82.4575   26.5241 H   0  0  0  0  0
   23.6764   83.2239   25.7160 H   0  0  0  0  0
   23.7867   81.0916   24.8203 H   0  0  0  0  0
   22.5502   80.9683   26.1596 H   0  0  0  0  0
   26.2615   80.9152   26.8463 H   0  0  0  0  0
   21.7831   78.7934   25.9504 H   0  0  0  0  0
   21.4500   76.3580   26.3220 H   0  0  0  0  0
   23.3137   74.9683   27.1883 H   0  0  0  0  0
   25.5112   76.0064   27.6906 H   0  0  0  0  0
   30.0034   76.9010   27.5420 H   0  0  0  0  0
   25.3236   79.5039   29.5708 H   0  0  0  0  0
   23.6516   80.8382   30.8260 H   0  0  0  0  0
   24.1925   83.1453   31.5613 H   0  0  0  0  0
   26.4198   84.1215   31.0431 H   0  0  0  0  0
   29.8351   81.4787   28.4781 H   0  0  0  0  0
  5  4  1  0  0  0
  6  5  1  0  0  0
  8 15  4  0  0  0
  9 10  4  0  0  0
  9 14  4  0  0  0
 10 11  4  0  0  0
 11 12  4  0  0  0
 13 12  4  0  0  0
 14 13  4  0  0  0
 14 15  4  0  0  0
 15 16  1  0  0  0
 16 17  1  0  0  0
 16 22  2  0  0  0
 17 18  2  0  0  0
 20 21  2  0  0  0
 22 20  1  0  0  0
 22 23  1  0  0  0
 23 24  4  0  0  0
 23 31  4  0  0  0
 24 25  4  0  0  0
 24 29  4  0  0  0
 25 26  4  0  0  0
 26 27  4  0  0  0
 28 27  4  0  0  0
 29 28  4  0  0  0
 17 19  1  0  0  0
 20 19  1  0  0  0
  7  8  4  0  0  0
  7  9  4  0  0  0
  7  6  1  0  0  0
  4  2  1  0  0  0
  2  3  1  0  0  0
  2  1  1  0  0  0
 31 30  4  0  0  0
 30 29  4  0  0  0
  1 32  1  0  0  0
  1 33  1  0  0  0
  1 34  1  0  0  0
  2 35  1  0  0  0
  3 36  1  0  0  0
  3 37  1  0  0  0
  3 38  1  0  0  0
  4 39  1  0  0  0
  4 40  1  0  0  0
  5 41  1  0  0  0
  5 42  1  0  0  0
  6 43  1  0  0  0
  6 44  1  0  0  0
  8 45  1  0  0  0
 10 46  1  0  0  0
 11 47  1  0  0  0
 12 48  1  0  0  0
 13 49  1  0  0  0
 19 50  1  0  0  0
 25 51  1  0  0  0
 26 52  1  0  0  0
 27 53  1  0  0  0
 28 54  1  0  0  0
 31 55  1  0  0  0
M  END
$$$$
