### 
### Created by X-TOOL on Mon Sep 10 21:13:04 2018
### 

@<TRIPOS>MOLECULE
3ixj_ligand
  111   114     1     0     0
SMALL
GAST_HUCK


@<TRIPOS>ATOM
      1 O6          2.0490   19.5020   28.4120 O.2       1 586        -0.3845
      2 C34         1.1990   18.9610   29.0920 C.2       1 586         0.2041
      3 N4         -0.0990   19.0290   28.8110 N.am      1 586        -0.2723
      4 C35        -0.6370   19.7240   27.6540 C.3       1 586         0.0723
      5 C36        -0.9310   18.7190   26.5800 C.ar      1 586        -0.0183
      6 C42        -1.7930   17.6330   26.7940 C.ar      1 586        -0.0582
      7 C41        -2.0500   16.7280   25.7720 C.ar      1 586        -0.0685
      8 C40        -1.4350   16.8840   24.5290 C.ar      1 586        -0.0687
      9 C39        -0.5700   17.9520   24.3030 C.ar      1 586        -0.0685
     10 C38        -0.3220   18.8600   25.3370 C.ar      1 586        -0.0582
     11 C37        -1.8950   20.5030   28.0270 C.3       1 586        -0.0320
     12 C30         1.6140   18.1860   30.2990 C.ar      1 586         0.0398
     13 C31         2.8360   17.5190   30.3370 C.ar      1 586        -0.0214
     14 C32         3.2110   16.7870   31.4680 C.ar      1 586         0.0754
     15 N5          4.4580   16.1250   31.5460 N.am      1 586        -0.1796
     16 S           5.2200   15.5520   30.3150 S.o2      1 586         0.0593
     17 O8          5.9850   14.4100   30.7130 O.2       1 586        -0.1500
     18 C44         6.2800   16.7130   29.7220 C.3       1 586         0.0790
     19 O7          4.3100   15.1950   29.2870 O.2       1 586        -0.1500
     20 C43         5.0720   16.0290   32.8740 C.3       1 586         0.0445
     21 C33         2.3420   16.7470   32.5640 C.ar      1 586        -0.0214
     22 C29         0.7520   18.1300   31.3750 C.ar      1 586        -0.0393
     23 C27         1.1060   17.4030   32.5090 C.ar      1 586         0.0397
     24 C28         0.1370   17.4050   33.6470 C.2       1 586         0.2024
     25 O5          0.5480   17.6370   34.7670 O.2       1 586        -0.3847
     26 N1         -1.1570   17.1810   33.3870 N.am      1 586        -0.2781
     27 C5         -2.1950   17.2060   34.3990 C.3       1 586         0.0951
     28 C6         -3.4060   18.0160   33.8850 C.3       1 586         0.0954
     29 O2         -3.1000   18.9530   32.8520 O.3       1 586        -0.3176
     30 C21        -2.3150   20.0760   33.0610 C.ar      1 586         0.0876
     31 C26        -1.8720   20.8150   31.9620 C.ar      1 586        -0.0041
     32 C25        -1.0660   21.9420   32.1600 C.ar      1 586         0.1223
     33 F54        -0.6380   22.6530   31.1120 F         1 586        -0.1874
     34 C24        -0.6820   22.3320   33.4380 C.ar      1 586        -0.0061
     35 C23        -1.1120   21.6000   34.5380 C.ar      1 586         0.1223
     36 F55        -0.7590   21.9900   35.7820 F         1 586        -0.1874
     37 C22        -1.9350   20.4780   34.3500 C.ar      1 586        -0.0041
     38 C1         -2.6530   15.8210   34.8590 C.3       1 586         0.0850
     39 O1         -3.2100   15.1370   33.7290 O.3       1 586        -0.3892
     40 C3         -1.5080   15.0400   35.4630 C.3       1 586         0.0192
     41 C2         -1.9770   14.0960   36.5700 C.3       1 586         0.1492
     42 O9         -1.0400   12.9970   36.6410 O.3       1 586        -0.3594
     43 C45        -1.5310   11.9060   37.4240 C.3       1 586         0.0398
     44 C4         -2.0040   14.8110   37.8990 C.2       1 586         0.2075
     45 O3         -1.0040   15.4090   38.2420 O.2       1 586        -0.3941
     46 N2         -3.1210   14.7480   38.6420 N.am      1 586        -0.2632
     47 C8         -3.2220   15.3530   39.9600 C.3       1 586         0.1333
     48 C10        -4.5960   15.2560   40.6250 C.3       1 586        -0.0063
     49 C12        -5.4030   16.4990   40.3080 C.3       1 586        -0.0584
     50 C11        -5.3790   13.9920   40.3310 C.3       1 586        -0.0584
     51 C9         -2.2420   14.7400   40.9250 C.2       1 586         0.2037
     52 O4         -1.9840   13.5420   40.8470 O.2       1 586        -0.3944
     53 N3         -1.6890   15.5460   41.8430 N.am      1 586        -0.2737
     54 C13        -0.7310   15.0590   42.8300 C.3       1 586         0.0645
     55 C14         0.5470   15.8620   42.7020 C.ar      1 586        -0.0210
     56 C19         0.9510   16.7070   43.7500 C.ar      1 586        -0.0584
     57 C18         2.1190   17.4640   43.6500 C.ar      1 586        -0.0685
     58 C17         2.8940   17.3550   42.5000 C.ar      1 586        -0.0687
     59 C16         2.5050   16.4970   41.4620 C.ar      1 586        -0.0685
     60 C15         1.3300   15.7520   41.5580 C.ar      1 586        -0.0584
     61 H1         -0.7405   18.5766   29.4305 H         1 586         0.1875
     62 H2          0.1163   20.4339   27.2818 H         1 586         0.0716
     63 H3         -2.2612   17.4993   27.7625 H         1 586         0.0557
     64 H4         -2.7289   15.8998   25.9401 H         1 586         0.0599
     65 H5         -1.6313   16.1712   23.7363 H         1 586         0.0559
     66 H6         -0.0947   18.0778   23.3369 H         1 586         0.0599
     67 H7          0.3565   19.6882   25.1672 H         1 586         0.0557
     68 H8         -2.2835   21.0198   27.1371 H         1 586         0.0274
     69 H9         -1.6513   21.2430   28.8036 H         1 586         0.0274
     70 H10        -2.6570   19.8078   28.4091 H         1 586         0.0274
     71 H11         3.5018   17.5677   29.4830 H         1 586         0.0566
     72 H12         6.8182   16.3080   28.8523 H         1 586         0.0487
     73 H13         7.0021   16.9849   30.5060 H         1 586         0.0487
     74 H14         5.7137   17.6061   29.4193 H         1 586         0.0487
     75 H15         4.4022   16.4799   33.6211 H         1 586         0.0517
     76 H16         6.0332   16.5639   32.8731 H         1 586         0.0517
     77 H17         5.2412   14.9713   33.1242 H         1 586         0.0517
     78 H18         2.6267   16.2061   33.4592 H         1 586         0.0566
     79 H19        -0.1982   18.6504   31.3378 H         1 586         0.0576
     80 H20        -1.4223   16.9857   32.4428 H         1 586         0.1850
     81 H21        -1.7837   17.7237   35.2781 H         1 586         0.0608
     82 H22        -3.8339   18.5692   34.7340 H         1 586         0.0638
     83 H23        -4.1520   17.3077   33.4955 H         1 586         0.0638
     84 H24        -2.1517   20.5165   30.9581 H         1 586         0.0493
     85 H25        -0.0506   23.2023   33.5756 H         1 586         0.0497
     86 H26        -2.2805   19.9163   35.2104 H         1 586         0.0493
     87 H27        -3.4335   15.9390   35.6251 H         1 586         0.0619
     88 H28        -3.9485   15.6315   33.3934 H         1 586         0.2099
     89 H29        -0.7796   15.7478   35.8854 H         1 586         0.0341
     90 H30        -1.0265   14.4470   34.6715 H         1 586         0.0341
     91 H31        -2.9833   13.7188   36.3356 H         1 586         0.0841
     92 H32        -0.7807   11.1018   37.4435 H         1 586         0.0526
     93 H33        -2.4634   11.5267   36.9805 H         1 586         0.0526
     94 H34        -1.7265   12.2500   38.4504 H         1 586         0.0526
     95 H35        -3.9155   14.2653   38.2736 H         1 586         0.1883
     96 H36        -2.9792   16.4192   39.8411 H         1 586         0.0802
     97 H37        -4.4154   15.2544   41.7101 H         1 586         0.0343
     98 H38        -6.3905   16.4271   40.7872 H         1 586         0.0234
     99 H39        -5.5295   16.5862   39.2188 H         1 586         0.0234
    100 H40        -4.8748   17.3859   40.6880 H         1 586         0.0234
    101 H41        -4.7621   13.1140   40.5729 H         1 586         0.0234
    102 H42        -5.6493   13.9677   39.2650 H         1 586         0.0234
    103 H43        -6.2938   13.9769   40.9417 H         1 586         0.0234
    104 H44        -1.9417   16.5135   41.8514 H         1 586         0.1878
    105 H45        -0.5197   13.9950   42.6475 H         1 586         0.0683
    106 H46        -1.1460   15.1822   43.8412 H         1 586         0.0683
    107 H47         0.3472   16.7715   44.6479 H         1 586         0.0557
    108 H48         2.4174   18.1259   44.4550 H         1 586         0.0599
    109 H49         3.8038   17.9368   42.4060 H         1 586         0.0559
    110 H50         3.1236   16.4117   40.5759 H         1 586         0.0599
    111 H51         1.0304   15.0945   40.7499 H         1 586         0.0557
@<TRIPOS>BOND
     1    1    2 2  
     2    2    3 am 
     3    2   12 1  
     4    3    4 1  
     5    4    5 1  
     6    4   11 1  
     7    5    6 ar 
     8    5   10 ar 
     9    6    7 ar 
    10    7    8 ar 
    11    8    9 ar 
    12    9   10 ar 
    13   12   13 ar 
    14   12   22 ar 
    15   13   14 ar 
    16   14   15 1  
    17   14   21 ar 
    18   15   16 am 
    19   15   20 1  
    20   16   17 2  
    21   16   18 1  
    22   16   19 2  
    23   21   23 ar 
    24   22   23 ar 
    25   23   24 1  
    26   24   25 2  
    27   24   26 am 
    28   26   27 1  
    29   27   28 1  
    30   27   38 1  
    31   28   29 1  
    32   29   30 1  
    33   30   31 ar 
    34   30   37 ar 
    35   31   32 ar 
    36   32   33 1  
    37   32   34 ar 
    38   34   35 ar 
    39   35   36 1  
    40   35   37 ar 
    41   38   39 1  
    42   38   40 1  
    43   40   41 1  
    44   41   42 1  
    45   41   44 1  
    46   42   43 1  
    47   44   45 2  
    48   44   46 am 
    49   46   47 1  
    50   47   48 1  
    51   47   51 1  
    52   48   49 1  
    53   48   50 1  
    54   51   52 2  
    55   51   53 am 
    56   53   54 1  
    57   54   55 1  
    58   55   56 ar 
    59   55   60 ar 
    60   56   57 ar 
    61   57   58 ar 
    62   58   59 ar 
    63   59   60 ar 
    64    3   61 1  
    65    4   62 1  
    66    6   63 1  
    67    7   64 1  
    68    8   65 1  
    69    9   66 1  
    70   10   67 1  
    71   11   68 1  
    72   11   69 1  
    73   11   70 1  
    74   13   71 1  
    75   18   72 1  
    76   18   73 1  
    77   18   74 1  
    78   20   75 1  
    79   20   76 1  
    80   20   77 1  
    81   21   78 1  
    82   22   79 1  
    83   26   80 1  
    84   27   81 1  
    85   28   82 1  
    86   28   83 1  
    87   31   84 1  
    88   34   85 1  
    89   37   86 1  
    90   38   87 1  
    91   39   88 1  
    92   40   89 1  
    93   40   90 1  
    94   41   91 1  
    95   43   92 1  
    96   43   93 1  
    97   43   94 1  
    98   46   95 1  
    99   47   96 1  
   100   48   97 1  
   101   49   98 1  
   102   49   99 1  
   103   49  100 1  
   104   50  101 1  
   105   50  102 1  
   106   50  103 1  
   107   53  104 1  
   108   54  105 1  
   109   54  106 1  
   110   56  107 1  
   111   57  108 1  
   112   58  109 1  
   113   59  110 1  
   114   60  111 1  
@<TRIPOS>SUBSTRUCTURE
     1 586         1

