3mtd_ligand
  -I-interpret- 

 43 44  0  0  0  0  0  0  0  0999 V2000
   33.5170   22.8360   27.8140 C   0  0  0  0  0
   33.8630   23.1060   26.3480 C   0  0  0  0  0
   34.0290   24.5190   26.1150 O   0  0  0  0  0
   32.7270   22.5220   25.4910 C   0  0  0  0  0
   33.0140   22.6670   24.0900 O   0  0  0  0  0
   32.4440   21.0480   25.8400 C   0  0  0  0  0
   31.2320   20.6480   25.2040 O   0  0  0  0  0
   32.3130   20.8190   27.3620 C   0  0  0  0  0
   33.4230   21.4160   28.0350 O   0  0  0  0  0
   32.2080   19.3500   27.7930 C   0  0  0  0  0
   33.2490   18.5370   27.2150 O   0  0  0  0  0
   34.5970   23.2930   28.6730 N   0  0  0  0  0
   34.3730   24.0010   29.7900 C   0  0  0  0  0
   35.4520   24.3210   30.5150 N   0  0  0  0  0
   32.7890   24.4750   30.2480 S   0  0  0  0  0
   36.5770   23.9310   30.1040 N   0  0  0  0  0
   37.6710   24.1590   30.6880 C   0  0  0  0  0
   37.8420   24.9290   31.9580 C   0  0  0  0  0
   36.7480   25.3140   32.7460 C   0  0  0  0  0
   36.9470   26.0330   33.9260 C   0  0  0  0  0
   38.2450   26.3650   34.3230 C   0  0  0  0  0
   39.3420   25.9860   33.5450 C   0  0  0  0  0
   39.1360   25.2650   32.3680 C   0  0  0  0  0
   38.4490   27.0620   35.4750 O   0  0  0  0  0
   32.5810   23.3488   28.0352 H   0  0  0  0  0
   34.8087   22.6340   26.0817 H   0  0  0  0  0
   34.7435   24.8509   26.6636 H   0  0  0  0  0
   31.8255   23.0907   25.7192 H   0  0  0  0  0
   33.1871   23.5907   23.8939 H   0  0  0  0  0
   33.2882   20.4548   25.4884 H   0  0  0  0  0
   31.3074   20.7881   24.2573 H   0  0  0  0  0
   31.3678   21.2852   27.6401 H   0  0  0  0  0
   31.2475   18.9642   27.4515 H   0  0  0  0  0
   32.3070   19.3069   28.8776 H   0  0  0  0  0
   33.1455   17.6293   27.5100 H   0  0  0  0  0
   35.5584   23.0675   28.4175 H   0  0  0  0  0
   38.1833   24.7961   29.9670 H   0  0  0  0  0
   37.9798   23.1576   30.9879 H   0  0  0  0  0
   35.7369   25.0505   32.4356 H   0  0  0  0  0
   36.0942   26.3339   34.5345 H   0  0  0  0  0
   40.3525   26.2518   33.8555 H   0  0  0  0  0
   39.9906   24.9613   31.7634 H   0  0  0  0  0
   39.3902   27.2055   35.5985 H   0  0  0  0  0
  1  2  1  0  0  0
  1  9  1  0  0  0
  1 12  1  0  0  0
  2  3  1  0  0  0
  2  4  1  0  0  0
  4  5  1  0  0  0
  4  6  1  0  0  0
  6  7  1  0  0  0
  6  8  1  0  0  0
  8  9  1  0  0  0
  8 10  1  0  0  0
 10 11  1  0  0  0
 12 13  1  0  0  0
 13 14  1  0  0  0
 13 15  2  0  0  0
 14 16  2  0  0  0
 16 17  1  0  0  0
 17 18  1  0  0  0
 18 19  4  0  0  0
 18 23  4  0  0  0
 19 20  4  0  0  0
 20 21  4  0  0  0
 21 22  4  0  0  0
 21 24  1  0  0  0
 22 23  4  0  0  0
  1 25  1  0  0  0
  2 26  1  0  0  0
  3 27  1  0  0  0
  4 28  1  0  0  0
  5 29  1  0  0  0
  6 30  1  0  0  0
  7 31  1  0  0  0
  8 32  1  0  0  0
 10 33  1  0  0  0
 10 34  1  0  0  0
 11 35  1  0  0  0
 12 36  1  0  0  0
 17 37  1  0  0  0
 17 38  1  0  0  0
 19 39  1  0  0  0
 20 40  1  0  0  0
 22 41  1  0  0  0
 23 42  1  0  0  0
 24 43  1  0  0  0
M  END
$$$$
