5dhh_ligand
  -I-interpret- 

 58 61  0  0  0  0  0  0  0  0999 V2000
  -12.1180   31.2110    2.5010 Cl  0  0  0  0  0
  -10.4350   31.4040    2.7020 C   0  0  0  0  0
   -9.9740   31.8080    3.9470 C   0  0  0  0  0
   -8.6170   31.9860    4.1580 C   0  0  0  0  0
   -7.7270   31.7520    3.1240 C   0  0  0  0  0
   -8.1680   31.3470    1.8720 C   0  0  0  0  0
   -6.8920   31.0990    0.6720 Cl  0  0  0  0  0
   -9.5500   31.1630    1.6490 C   0  0  0  0  0
  -10.0740   30.7600    0.4000 C   0  0  0  0  0
   -9.6520   31.6640   -0.7150 C   0  0  0  0  0
  -10.2230   31.2180   -2.0440 C   0  0  0  0  0
   -9.7090   29.3030    0.0550 C   0  0  0  0  0
  -10.3110   28.9590   -1.3130 C   0  0  0  0  0
   -9.7700   29.8590   -2.3610 N   0  3  0  0  0
  -10.3540   29.5430   -3.6760 C   0  0  0  0  0
  -10.0660   28.1990   -4.3600 C   0  0  0  0  0
   -8.5520   28.0630   -4.3850 C   0  0  0  0  0
   -7.9480   26.7930   -5.0240 C   0  0  0  0  0
   -6.5270   26.7260   -4.8100 O   0  0  0  0  0
   -8.2660   26.6020   -6.3760 C   0  0  0  0  0
   -7.1150   26.1790   -7.0300 C   0  0  0  0  0
   -7.1120   25.9200   -8.3930 C   0  0  0  0  0
   -8.2760   26.0920   -9.1310 C   0  0  0  0  0
   -9.4370   26.5240   -8.4960 C   0  0  0  0  0
  -10.6050   26.6920   -9.2550 C   0  0  0  0  0
   -9.4300   26.7840   -7.1170 C   0  0  0  0  0
  -10.6860   27.1980   -6.7060 C   0  0  0  0  0
  -10.7470   28.3530   -5.7210 C   0  0  0  0  0
  -10.6798   31.9852    4.7585 H   0  0  0  0  0
   -8.2517   32.3086    5.1330 H   0  0  0  0  0
   -6.6594   31.8884    3.2964 H   0  0  0  0  0
  -11.1569   30.8282    0.5038 H   0  0  0  0  0
   -8.5644   31.6405   -0.7833 H   0  0  0  0  0
  -10.0210   32.6673   -0.5020 H   0  0  0  0  0
   -9.8824   31.8983   -2.8245 H   0  0  0  0  0
  -11.3114   31.2262   -1.9850 H   0  0  0  0  0
  -10.1066   28.6307    0.8153 H   0  0  0  0  0
   -8.6254   29.1893    0.0230 H   0  0  0  0  0
  -11.3929   29.0826   -1.2646 H   0  0  0  0  0
  -10.0544   27.9297   -1.5637 H   0  0  0  0  0
   -8.7553   29.7593   -2.3893 H   0  0  0  0  0
   -9.9163   30.2825   -4.3466 H   0  0  0  0  0
  -11.4283   29.5239   -3.4928 H   0  0  0  0  0
  -10.4383   27.2899   -3.8877 H   0  0  0  0  0
   -8.2472   28.0331   -3.3389 H   0  0  0  0  0
   -8.1975   28.8916   -4.9981 H   0  0  0  0  0
   -8.4275   25.9643   -4.5030 H   0  0  0  0  0
   -6.1805   25.9286   -5.2170 H   0  0  0  0  0
   -6.1952   26.0480   -6.4600 H   0  0  0  0  0
   -6.1988   25.5825   -8.8832 H   0  0  0  0  0
   -8.2804   25.8897  -10.2021 H   0  0  0  0  0
  -10.4269   27.4329  -10.0344 H   0  0  0  0  0
  -10.8799   25.7412   -9.7117 H   0  0  0  0  0
  -11.4125   27.0319   -8.6065 H   0  0  0  0  0
  -11.1252   26.3445   -6.1895 H   0  0  0  0  0
  -11.1916   27.5487   -7.6057 H   0  0  0  0  0
  -10.2168   29.1698   -6.2109 H   0  0  0  0  0
  -11.8062   28.4747   -5.4943 H   0  0  0  0  0
  1  2  1  0  0  0
  2  3  4  0  0  0
  2  8  4  0  0  0
  3  4  4  0  0  0
  4  5  4  0  0  0
  5  6  4  0  0  0
  6  7  1  0  0  0
  6  8  4  0  0  0
  8  9  1  0  0  0
  9 10  1  0  0  0
  9 12  1  0  0  0
 10 11  1  0  0  0
 11 14  1  0  0  0
 12 13  1  0  0  0
 13 14  1  0  0  0
 14 15  1  0  0  0
 15 16  1  0  0  0
 16 17  1  0  0  0
 16 28  1  0  0  0
 17 18  1  0  0  0
 18 19  1  0  0  0
 18 20  1  0  0  0
 20 21  4  0  0  0
 20 26  4  0  0  0
 21 22  4  0  0  0
 22 23  4  0  0  0
 23 24  4  0  0  0
 24 25  1  0  0  0
 24 26  4  0  0  0
 26 27  1  0  0  0
 27 28  1  0  0  0
  3 29  1  0  0  0
  4 30  1  0  0  0
  5 31  1  0  0  0
  9 32  1  0  0  0
 10 33  1  0  0  0
 10 34  1  0  0  0
 11 35  1  0  0  0
 11 36  1  0  0  0
 12 37  1  0  0  0
 12 38  1  0  0  0
 13 39  1  0  0  0
 13 40  1  0  0  0
 14 41  1  0  0  0
 15 42  1  0  0  0
 15 43  1  0  0  0
 16 44  1  0  0  0
 17 45  1  0  0  0
 17 46  1  0  0  0
 18 47  1  0  0  0
 19 48  1  0  0  0
 21 49  1  0  0  0
 22 50  1  0  0  0
 23 51  1  0  0  0
 25 52  1  0  0  0
 25 53  1  0  0  0
 25 54  1  0  0  0
 27 55  1  0  0  0
 27 56  1  0  0  0
 28 57  1  0  0  0
 28 58  1  0  0  0
M  END
$$$$
