4ffs_ligand
  -I-interpret- 

 48 50  0  0  0  0  0  0  0  0999 V2000
  -37.0930  -48.8680    7.9830 C   0  0  0  0  0
  -35.8960  -50.3090   10.0380 C   0  0  0  0  0
  -35.3800  -49.0400    9.5550 C   0  0  0  0  0
  -34.0790  -49.8340   11.2590 C   0  0  0  0  0
  -34.1020  -43.4680   10.9790 O   0  0  0  0  0
  -35.1100  -44.4760   10.8480 C   0  0  0  0  0
  -35.2790  -45.2390   12.1550 C   0  0  0  0  0
  -36.5980  -46.0030   12.2470 C   0  0  0  0  0
  -37.9710  -44.9410   12.4930 S   0  0  0  0  0
  -37.9830  -44.7410   14.2550 C   0  0  0  0  0
  -39.0650  -43.7270   14.6220 C   0  0  0  0  0
  -39.3460  -43.6470   16.1130 C   0  0  0  0  0
  -38.1010  -43.3510   16.9000 C   0  0  0  0  0
  -34.1440  -46.2470   12.1290 C   0  0  0  0  0
  -33.6470  -46.2480   10.7260 N   0  3  0  0  0
  -34.6180  -45.5370    9.8810 C   0  0  0  0  0
  -33.2640  -47.5500   10.2280 C   0  0  0  0  0
  -35.0930  -50.7390   11.0340 N   0  0  0  0  0
  -37.0980  -50.8070    9.3660 C   0  0  0  0  0
  -37.6330  -51.9990    9.7830 N   0  0  0  0  0
  -35.9740  -48.3510    8.5570 N   0  0  0  0  0
  -34.1950  -48.7370   10.3740 C   0  0  0  0  0
  -37.6440  -50.0510    8.3820 N   0  0  0  0  0
  -37.5686  -48.3159    7.1724 H   0  0  0  0  0
  -33.2987  -49.9473   12.0116 H   0  0  0  0  0
  -34.0102  -42.9988   10.1465 H   0  0  0  0  0
  -36.0284  -43.9794   10.5351 H   0  0  0  0  0
  -35.2736  -44.5511   13.0005 H   0  0  0  0  0
  -36.5373  -46.6784   13.1004 H   0  0  0  0  0
  -36.7465  -46.5333   11.3063 H   0  0  0  0  0
  -37.0103  -44.3858   14.5952 H   0  0  0  0  0
  -38.1911  -45.6968   14.7360 H   0  0  0  0  0
  -39.9867  -44.0423   14.1329 H   0  0  0  0  0
  -38.7138  -42.7456   14.3033 H   0  0  0  0  0
  -39.7373  -44.6103   16.4402 H   0  0  0  0  0
  -40.0596  -42.8411   16.2845 H   0  0  0  0  0
  -37.3693  -44.1410   16.7308 H   0  0  0  0  0
  -37.6872  -42.3956   16.5773 H   0  0  0  0  0
  -38.3463  -43.3023   17.9609 H   0  0  0  0  0
  -34.4816  -47.2374   12.4344 H   0  0  0  0  0
  -33.3555  -45.9796   12.8324 H   0  0  0  0  0
  -32.7616  -45.7424   10.6975 H   0  0  0  0  0
  -34.1948  -45.1359    8.9601 H   0  0  0  0  0
  -35.4076  -46.1731    9.4810 H   0  0  0  0  0
  -32.3925  -47.8188   10.8249 H   0  0  0  0  0
  -33.1772  -47.4092    9.1506 H   0  0  0  0  0
  -37.1940  -52.5164   10.5445 H   0  0  0  0  0
  -38.4699  -52.3681    9.3316 H   0  0  0  0  0
 21  1  4  0  0  0
  1 23  4  0  0  0
  3  2  4  0  0  0
 18  2  4  0  0  0
  2 19  4  0  0  0
  3 21  4  0  0  0
 22  3  4  0  0  0
  4 18  4  0  0  0
 22  4  4  0  0  0
  6  5  1  0  0  0
  6  7  1  0  0  0
 16  6  1  0  0  0
  7  8  1  0  0  0
 14  7  1  0  0  0
  8  9  1  0  0  0
  9 10  1  0  0  0
 10 11  1  0  0  0
 11 12  1  0  0  0
 12 13  1  0  0  0
 15 14  1  0  0  0
 15 16  1  0  0  0
 17 15  1  0  0  0
 17 22  1  0  0  0
 19 20  1  0  0  0
 19 23  4  0  0  0
  1 24  1  0  0  0
  4 25  1  0  0  0
  5 26  1  0  0  0
  6 27  1  0  0  0
  7 28  1  0  0  0
  8 29  1  0  0  0
  8 30  1  0  0  0
 10 31  1  0  0  0
 10 32  1  0  0  0
 11 33  1  0  0  0
 11 34  1  0  0  0
 12 35  1  0  0  0
 12 36  1  0  0  0
 13 37  1  0  0  0
 13 38  1  0  0  0
 13 39  1  0  0  0
 14 40  1  0  0  0
 14 41  1  0  0  0
 15 42  1  0  0  0
 16 43  1  0  0  0
 16 44  1  0  0  0
 17 45  1  0  0  0
 17 46  1  0  0  0
 20 47  1  0  0  0
 20 48  1  0  0  0
M  END
$$$$
