3g2j_ligand
  -I-interpret- 

 31 31  0  0  0  0  0  0  0  0999 V2000
   33.7500   24.3170   25.9060 O   0  0  0  0  0
   33.5630   22.9150   26.1300 C   0  0  0  0  0
   32.3590   22.3710   25.3360 C   0  0  0  0  0
   32.6140   22.4670   23.9310 O   0  0  0  0  0
   32.1020   20.9050   25.7120 C   0  0  0  0  0
   30.9300   20.4570   25.0500 O   0  0  0  0  0
   31.9480   20.7380   27.2380 C   0  0  0  0  0
   31.7800   19.2650   27.6590 C   0  0  0  0  0
   32.8670   18.4820   27.1540 O   0  0  0  0  0
   33.1320   21.2190   27.9010 O   0  0  0  0  0
   33.4070   22.6320   27.6370 C   0  0  0  0  0
   34.6710   23.0320   28.3120 N   0  0  0  0  0
   34.6110   23.6210   29.5040 C   0  0  0  0  0
   33.5600   23.8510   30.0940 O   0  0  0  0  0
   35.9540   24.0120   30.1240 C   0  0  0  0  0
   37.0350   23.2770   29.5550 O   0  0  0  0  0
   33.8457   24.4795   24.9647 H   0  0  0  0  0
   34.4493   22.3933   25.7689 H   0  0  0  0  0
   31.4792   22.9654   25.5823 H   0  0  0  0  0
   32.7744   23.3844   23.6980 H   0  0  0  0  0
   32.9574   20.3063   25.3990 H   0  0  0  0  0
   31.0377   20.5658   24.1023 H   0  0  0  0  0
   31.0572   21.3004   27.5178 H   0  0  0  0  0
   30.8439   18.8814   27.2531 H   0  0  0  0  0
   31.7696   19.2029   28.7472 H   0  0  0  0  0
   32.7525   17.5672   27.4218 H   0  0  0  0  0
   32.5597   23.2017   28.0187 H   0  0  0  0  0
   35.5720   22.8571   27.8670 H   0  0  0  0  0
   35.9152   23.7926   31.1910 H   0  0  0  0  0
   36.1231   25.0719   29.9337 H   0  0  0  0  0
   37.8579   23.5490   29.9679 H   0  0  0  0  0
  1  2  1  0  0  0
  2  3  1  0  0  0
  2 11  1  0  0  0
  3  4  1  0  0  0
  3  5  1  0  0  0
  5  6  1  0  0  0
  5  7  1  0  0  0
  7  8  1  0  0  0
  7 10  1  0  0  0
  8  9  1  0  0  0
 10 11  1  0  0  0
 11 12  1  0  0  0
 12 13  1  0  0  0
 13 14  2  0  0  0
 13 15  1  0  0  0
 15 16  1  0  0  0
  1 17  1  0  0  0
  2 18  1  0  0  0
  3 19  1  0  0  0
  4 20  1  0  0  0
  5 21  1  0  0  0
  6 22  1  0  0  0
  7 23  1  0  0  0
  8 24  1  0  0  0
  8 25  1  0  0  0
  9 26  1  0  0  0
 11 27  1  0  0  0
 12 28  1  0  0  0
 15 29  1  0  0  0
 15 30  1  0  0  0
 16 31  1  0  0  0
M  END
$$$$
