5bqi_ligand
  -I-interpret- 

 56 58  0  0  0  0  0  0  0  0999 V2000
    8.8210   16.2070   30.5320 O   0  0  0  0  0
   17.7360   18.0650   25.0870 C   0  0  0  0  0
   16.5080   17.4940   25.3930 C   0  0  0  0  0
   17.0270   17.8860   30.3760 C   0  0  0  0  0
   16.3140   17.3290   31.4170 N   0  0  0  0  0
   16.1240   17.2990   26.7080 C   0  0  0  0  0
   16.9560   17.6860   27.7560 C   0  0  0  0  0
   16.5600   17.4480   29.1580 C   0  0  0  0  0
   18.1330   18.8420   30.6810 C   0  0  0  0  0
   15.3300   14.2070   35.4480 F   0  0  0  0  0
   14.7610   13.2310   34.6940 C   0  0  0  0  0
   15.6010   13.0580   33.6380 F   0  0  0  0  0
   13.3890   13.6670   34.1390 C   0  0  0  0  0
   12.3490   12.9020   34.4970 N   0  0  0  0  0
   11.1310   13.2230   34.0370 C   0  0  0  0  0
   10.8680   14.3030   33.2150 C   0  0  0  0  0
    9.4750   14.5870   32.7130 C   0  0  0  0  0
    9.2930   14.1630   31.3300 N   0  0  0  0  0
    9.0880   15.0260   30.3290 C   0  0  0  0  0
    9.1930   14.4560   28.9270 C   0  0  0  0  0
    7.8490   14.5630   28.2040 C   0  0  0  0  0
   10.3140   15.1460   28.1460 C   0  0  0  0  0
   11.9510   15.0850   32.8320 C   0  0  0  0  0
   13.2330   14.7870   33.2900 C   0  0  0  0  0
   14.3390   15.6960   32.8460 C   0  0  0  0  0
   15.0220   16.3180   33.6570 O   0  0  0  0  0
   14.5170   15.7980   31.4860 N   0  0  0  0  0
   15.4380   16.5520   30.8010 C   0  0  0  0  0
   15.5400   16.5750   29.4540 N   0  0  0  0  0
   18.1960   18.2420   27.4480 C   0  0  0  0  0
   18.5740   18.4370   26.1310 C   0  0  0  0  0
   18.1490   18.2710   23.6660 C   0  0  0  0  0
   17.6590   17.3420   22.8480 F   0  0  0  0  0
   17.7460   19.4400   23.1770 F   0  0  0  0  0
   19.4690   18.2330   23.5040 F   0  0  0  0  0
   15.8377   17.1955   24.5869 H   0  0  0  0  0
   15.1607   16.8379   26.9260 H   0  0  0  0  0
   17.7325   19.6972   31.2254 H   0  0  0  0  0
   18.8860   18.3421   31.2903 H   0  0  0  0  0
   18.5849   19.1820   29.7492 H   0  0  0  0  0
   14.6096   12.3320   35.2915 H   0  0  0  0  0
   10.2931   12.5907   34.3305 H   0  0  0  0  0
    9.3084   15.6630   32.7633 H   0  0  0  0  0
    8.7706   14.0333   33.3337 H   0  0  0  0  0
    9.3233   13.1660   31.1168 H   0  0  0  0  0
    9.4470   13.3983   28.9963 H   0  0  0  0  0
    7.0942   14.0052   28.7584 H   0  0  0  0  0
    7.5546   15.6105   28.1402 H   0  0  0  0  0
    7.9440   14.1492   27.2001 H   0  0  0  0  0
   10.1043   16.2135   28.0785 H   0  0  0  0  0
   11.2620   14.9926   28.6616 H   0  0  0  0  0
   10.3712   14.7216   27.1437 H   0  0  0  0  0
   11.7968   15.9366   32.1694 H   0  0  0  0  0
   13.8832   15.2419   30.9121 H   0  0  0  0  0
   18.8748   18.5261   28.2521 H   0  0  0  0  0
   19.5413   18.8881   25.9100 H   0  0  0  0  0
 19  1  2  0  0  0
  3  2  4  0  0  0
  2 31  4  0  0  0
  2 32  1  0  0  0
  6  3  4  0  0  0
  5  4  4  0  0  0
  4  8  4  0  0  0
  4  9  1  0  0  0
 28  5  4  0  0  0
  7  6  4  0  0  0
  8  7  1  0  0  0
  7 30  4  0  0  0
  8 29  4  0  0  0
 11 10  1  0  0  0
 11 12  1  0  0  0
 13 11  1  0  0  0
 13 14  4  0  0  0
 24 13  4  0  0  0
 14 15  4  0  0  0
 16 15  4  0  0  0
 16 17  1  0  0  0
 23 16  4  0  0  0
 17 18  1  0  0  0
 18 19  1  0  0  0
 19 20  1  0  0  0
 20 21  1  0  0  0
 20 22  1  0  0  0
 24 23  4  0  0  0
 25 24  1  0  0  0
 25 26  2  0  0  0
 27 25  1  0  0  0
 27 28  1  0  0  0
 28 29  4  0  0  0
 30 31  4  0  0  0
 32 33  1  0  0  0
 32 34  1  0  0  0
 32 35  1  0  0  0
  3 36  1  0  0  0
  6 37  1  0  0  0
  9 38  1  0  0  0
  9 39  1  0  0  0
  9 40  1  0  0  0
 11 41  1  0  0  0
 15 42  1  0  0  0
 17 43  1  0  0  0
 17 44  1  0  0  0
 18 45  1  0  0  0
 20 46  1  0  0  0
 21 47  1  0  0  0
 21 48  1  0  0  0
 21 49  1  0  0  0
 22 50  1  0  0  0
 22 51  1  0  0  0
 22 52  1  0  0  0
 23 53  1  0  0  0
 27 54  1  0  0  0
 30 55  1  0  0  0
 31 56  1  0  0  0
M  END
$$$$
