4nk3_ligand
  -I-interpret- 

 47 48  0  0  0  0  0  0  0  0999 V2000
    3.6100   13.7740   19.4520 C   0  0  0  0  0
    9.4460   17.8560   17.3980 C   0  0  0  0  0
   10.7600   15.9270   17.9200 C   0  0  0  0  0
    5.1220   11.9790   20.2100 C   0  0  0  0  0
    5.4990   10.6470   18.1850 C   0  0  0  0  0
    5.6120   13.0290   17.9860 C   0  0  0  0  0
    4.3030   13.8170   18.0930 C   0  0  0  0  0
    8.2670   16.9680   17.0360 C   0  0  0  0  0
    9.6450   14.9860   17.4940 C   0  0  0  0  0
    8.3300   15.6690   17.8110 C   0  0  0  0  0
    6.8260   13.8220   18.4310 C   0  0  0  0  0
    3.6830   12.4320   20.1650 C   0  0  0  0  0
   10.6990   17.1550   17.1340 N   0  3  0  0  0
    7.1800   14.8200   17.5510 N   0  0  0  0  0
    3.0160   11.3530   19.4430 N   0  3  0  0  0
    5.5930   11.8450   18.8360 N   0  0  0  0  0
    1.7490    9.4650   17.9160 O   0  0  0  0  0
    5.5160   10.5150   16.9610 O   0  0  0  0  0
    7.4500   13.5770   19.4560 O   0  0  0  0  0
   -0.4440   10.7030   18.2140 O   0  0  0  0  0
    1.4990   11.7010   16.9440 O   0  0  0  0  0
    1.5850   11.5660   19.4220 O   0  0  0  0  0
    0.9850   10.8950   18.0400 S   0  0  0  0  0
    2.5545   13.9807   19.2750 H   0  0  0  0  0
    4.1182   14.4981   20.0888 H   0  0  0  0  0
    9.3927   18.1085   18.4570 H   0  0  0  0  0
    9.4093   18.7638   16.7958 H   0  0  0  0  0
   11.7225   15.4422   17.7564 H   0  0  0  0  0
   10.6427   16.1694   18.9762 H   0  0  0  0  0
    5.2013   11.0249   20.7310 H   0  0  0  0  0
    5.7300   12.7061   20.7483 H   0  0  0  0  0
    5.4023    9.7463   18.7912 H   0  0  0  0  0
    5.6872   12.7775   16.9281 H   0  0  0  0  0
    4.5568   14.8611   17.9102 H   0  0  0  0  0
    3.6126   13.3644   17.3813 H   0  0  0  0  0
    8.3018   16.7478   15.9690 H   0  0  0  0  0
    7.3412   17.4865   17.2853 H   0  0  0  0  0
    9.7211   14.0378   18.0262 H   0  0  0  0  0
    9.7152   14.7681   16.4283 H   0  0  0  0  0
    8.2888   15.8792   18.8797 H   0  0  0  0  0
    3.2163   12.5957   21.1364 H   0  0  0  0  0
   11.4809   17.7572   17.3917 H   0  0  0  0  0
   10.7500   16.9213   16.1424 H   0  0  0  0  0
    6.6278   14.9652   16.7057 H   0  0  0  0  0
    3.2126   10.4691   19.9125 H   0  0  0  0  0
    3.3621   11.3327   18.4837 H   0  0  0  0  0
    2.6903    9.6152   17.8019 H   0  0  0  0  0
  1  7  1  0  0  0
 12  1  1  0  0  0
  8  2  1  0  0  0
  2 13  1  0  0  0
  9  3  1  0  0  0
  3 13  1  0  0  0
 12  4  1  0  0  0
  4 16  1  0  0  0
 16  5  1  0  0  0
  5 18  2  0  0  0
  7  6  1  0  0  0
  6 11  1  0  0  0
 16  6  1  0  0  0
 10  8  1  0  0  0
 10  9  1  0  0  0
 14 10  1  0  0  0
 11 14  1  0  0  0
 11 19  2  0  0  0
 15 12  1  0  0  0
 22 15  1  0  0  0
 23 17  1  0  0  0
 23 20  2  0  0  0
 23 21  2  0  0  0
 22 23  1  0  0  0
  1 24  1  0  0  0
  1 25  1  0  0  0
  2 26  1  0  0  0
  2 27  1  0  0  0
  3 28  1  0  0  0
  3 29  1  0  0  0
  4 30  1  0  0  0
  4 31  1  0  0  0
  5 32  1  0  0  0
  6 33  1  0  0  0
  7 34  1  0  0  0
  7 35  1  0  0  0
  8 36  1  0  0  0
  8 37  1  0  0  0
  9 38  1  0  0  0
  9 39  1  0  0  0
 10 40  1  0  0  0
 12 41  1  0  0  0
 13 42  1  0  0  0
 13 43  1  0  0  0
 14 44  1  0  0  0
 15 45  1  0  0  0
 15 46  1  0  0  0
 17 47  1  0  0  0
M  END
$$$$
