5ypw_ligand
  -I-interpret- 

 20 19  0  0  0  0  0  0  0  0999 V2000
  -20.7550   15.6210  -29.0360 N   0  3  0  0  0
  -22.1210   15.5130  -29.5230 C   0  0  0  0  0
  -22.4990   14.0390  -29.6440 C   0  0  0  0  0
  -23.6400   13.6860  -30.0030 O   0  0  0  0  0
  -22.2860   16.2490  -30.8610 C   0  0  0  0  0
  -22.0440   17.7420  -30.6650 C   0  0  0  0  0
  -21.3280   15.6730  -31.9000 C   0  0  0  0  0
  -21.6480   13.1820  -29.3580 O   0  0  0  0  0
  -20.6715   15.1253  -28.1485 H   0  0  0  0  0
  -20.1185   15.2088  -29.7182 H   0  0  0  0  0
  -20.5202   16.6044  -28.9010 H   0  0  0  0  0
  -22.7960   15.9892  -28.8119 H   0  0  0  0  0
  -24.1718   14.4641  -30.1857 H   0  0  0  0  0
  -23.3042   16.1097  -31.2242 H   0  0  0  0  0
  -21.0207   17.9013  -30.3250 H   0  0  0  0  0
  -22.1990   18.2611  -31.6108 H   0  0  0  0  0
  -22.7400   18.1268  -29.9196 H   0  0  0  0  0
  -21.4790   16.1808  -32.8526 H   0  0  0  0  0
  -20.3008   15.8210  -31.5667 H   0  0  0  0  0
  -21.5223   14.6072  -32.0201 H   0  0  0  0  0
  1  2  1  0  0  0
  2  3  1  0  0  0
  2  5  1  0  0  0
  3  4  1  0  0  0
  3  8  2  0  0  0
  5  6  1  0  0  0
  5  7  1  0  0  0
  1  9  1  0  0  0
  1 10  1  0  0  0
  1 11  1  0  0  0
  2 12  1  0  0  0
  4 13  1  0  0  0
  5 14  1  0  0  0
  6 15  1  0  0  0
  6 16  1  0  0  0
  6 17  1  0  0  0
  7 18  1  0  0  0
  7 19  1  0  0  0
  7 20  1  0  0  0
M  END
$$$$
