4o6w_ligand
  -I-interpret- 

127129  0  0  0  0  0  0  0  0999 V2000
    4.9080   17.4060   14.1240 C   0  0  0  0  0
    5.1970   17.9060   13.0510 O   0  0  0  0  0
    3.5220   17.5910   14.7010 C   0  0  0  0  0
    5.8280   16.6800   14.8020 N   0  0  0  0  0
    7.2140   16.4190   14.3560 C   0  0  0  0  0
    7.2650   15.6240   13.0640 C   0  0  0  0  0
    6.4350   14.7430   12.8560 O   0  0  0  0  0
    7.8810   15.5330   15.4390 C   0  0  0  0  0
    6.9550   15.5880   16.6790 C   0  0  0  0  0
    5.6020   16.0260   16.1030 C   0  0  0  0  0
    8.2390   15.9230   12.1690 N   0  0  0  0  0
    8.3740   15.2120   10.8820 C   0  0  0  0  0
    9.4000   14.0910   10.9600 C   0  0  0  0  0
    9.7090   13.4380    9.9590 O   0  0  0  0  0
    8.7030   16.1930    9.7500 C   0  0  0  0  0
    7.5300   17.1260    9.4860 C   0  0  0  0  0
    7.9450   17.9990    8.2880 C   0  0  0  0  0
    6.2910   16.3500    9.0600 C   0  0  0  0  0
   10.9320   12.4200   13.7700 C   0  0  0  0  0
   10.9570   12.7500   12.3100 C   0  0  0  0  0
   12.3840   13.0230   11.8350 C   0  0  0  0  0
   12.9060   14.3300   12.3650 C   0  0  0  0  0
   13.4260   14.5700   13.5880 C   0  0  0  0  0
   13.7570   15.8880   13.6170 N   0  3  0  0  0
   13.4540   16.4320   12.4710 C   0  0  0  0  0
   12.9210   15.5100   11.6530 N   0  0  0  0  0
   12.4470   15.7040   10.2820 C   0  0  0  0  0
   13.6180   15.3550    9.3790 C   0  0  0  0  0
   13.2040   15.4300    7.9250 C   0  0  0  0  0
   14.4320   15.0370    7.0990 C   0  0  0  0  0
   13.9440   14.7230    5.7000 C   0  0  0  0  0
   15.1570   14.4020    4.8110 C   0  0  0  0  0
   15.5450   12.9270    5.0260 C   0  0  0  0  0
   16.6150   12.5100    3.9880 C   0  0  0  0  0
   16.0760   12.5070    2.5670 C   0  0  0  0  0
   15.1490   11.5550    2.1950 C   0  0  0  0  0
   14.6380   11.5260    0.9150 C   0  0  0  0  0
   15.0580   12.4590   -0.0070 C   0  0  0  0  0
   15.9840   13.4170    0.3510 C   0  0  0  0  0
   16.4960   13.4480    1.6340 C   0  0  0  0  0
    9.9600   13.8310   12.1540 N   0  0  0  0  0
   10.4470   13.1850   14.6040 O   0  0  0  0  0
   14.3640   16.5950   14.7700 C   0  0  0  0  0
   11.4810   11.2290   14.0760 N   0  0  0  0  0
   11.5500   10.7310   15.4440 C   0  0  0  0  0
   12.5800   11.4840   16.2380 C   0  0  0  0  0
   13.3290   12.3260   15.7260 O   0  0  0  0  0
   11.6950    9.2080   15.3930 C   0  0  0  0  0
   12.9140    8.8660   14.7370 O   0  0  0  0  0
   12.6580   11.2090   17.5420 N   0  0  0  0  0
   13.6040   11.8820   18.4400 C   0  0  0  0  0
   13.3250   11.3920   19.8620 C   0  0  0  0  0
   14.0430   12.1910   20.9440 C   0  0  0  0  0
   11.9400   11.5270   20.1640 O   0  0  0  0  0
   11.0460   10.1980   20.3610 P   0  0  0  0  0
   11.0240    9.5170   19.0570 O   0  0  0  0  0
    9.6370   10.8140   20.7770 O   0  0  0  0  0
   11.6700    9.3500   21.5040 O   0  0  0  0  0
   15.0650   11.7840   18.1420 C   0  0  0  0  0
   15.5550   10.7230   17.8590 O   0  0  0  0  0
   15.7680   12.9540   18.2170 N   0  0  0  0  0
    3.3294   18.6539   14.8467 H   0  0  0  0  0
    2.7850   17.1779   14.0123 H   0  0  0  0  0
    3.4564   17.0740   15.6583 H   0  0  0  0  0
    7.7078   17.3782   14.2005 H   0  0  0  0  0
    8.8802   15.8955   15.6803 H   0  0  0  0  0
    8.0026   14.5088   15.0864 H   0  0  0  0  0
    7.3231   16.2728   17.4430 H   0  0  0  0  0
    6.8963   14.6308   17.1970 H   0  0  0  0  0
    4.9578   15.1565   15.9720 H   0  0  0  0  0
    5.1178   16.7229   16.7872 H   0  0  0  0  0
    8.9018   16.6653   12.3928 H   0  0  0  0  0
    7.4129   14.7486   10.6593 H   0  0  0  0  0
    8.9122   15.6259    8.8430 H   0  0  0  0  0
    9.5677   16.7891   10.0416 H   0  0  0  0  0
    7.2988   17.6925   10.3881 H   0  0  0  0  0
    8.8450   18.5587    8.5424 H   0  0  0  0  0
    8.1436   17.3611    7.4267 H   0  0  0  0  0
    7.1392   18.6932    8.0495 H   0  0  0  0  0
    6.5070   15.7963    8.1463 H   0  0  0  0  0
    6.0102   15.6539    9.8504 H   0  0  0  0  0
    5.4720   17.0463    8.8794 H   0  0  0  0  0
   10.6695   11.9335   11.6477 H   0  0  0  0  0
   12.3803   13.0708   10.7461 H   0  0  0  0  0
   13.0269   12.2225   12.2011 H   0  0  0  0  0
   13.5550   13.8479   14.3943 H   0  0  0  0  0
   13.6103   17.4799   12.2151 H   0  0  0  0  0
   12.1168   16.7302   10.1205 H   0  0  0  0  0
   11.5840   15.0727   10.0702 H   0  0  0  0  0
   13.9482   14.3405    9.6021 H   0  0  0  0  0
   14.4260   16.0651    9.5551 H   0  0  0  0  0
   12.8671   16.4342    7.6677 H   0  0  0  0  0
   12.3686   14.7596    7.7233 H   0  0  0  0  0
   14.9299   14.1717    7.5366 H   0  0  0  0  0
   15.1595   15.8485    7.0802 H   0  0  0  0  0
   13.4069   15.5809    5.2954 H   0  0  0  0  0
   13.2701   13.8667    5.7279 H   0  0  0  0  0
   15.9935   15.0488    5.0757 H   0  0  0  0  0
   14.9058   14.5715    3.7640 H   0  0  0  0  0
   14.6614   12.3004    4.9046 H   0  0  0  0  0
   15.9497   12.8034    6.0305 H   0  0  0  0  0
   16.9393   11.4972    4.2272 H   0  0  0  0  0
   17.4307   13.2313    4.0371 H   0  0  0  0  0
   14.8161   10.8156    2.9234 H   0  0  0  0  0
   13.9057   10.7690    0.6342 H   0  0  0  0  0
   14.6583   12.4405   -1.0209 H   0  0  0  0  0
   16.3134   14.1533   -0.3821 H   0  0  0  0  0
   17.2264   14.2073    1.9134 H   0  0  0  0  0
    9.6930   14.3883   12.9655 H   0  0  0  0  0
   13.6958   16.5277   15.6286 H   0  0  0  0  0
   15.3204   16.1332   15.0152 H   0  0  0  0  0
   14.5205   17.6422   14.5110 H   0  0  0  0  0
   11.8620   10.6551   13.3238 H   0  0  0  0  0
   10.6319   10.9217   15.9998 H   0  0  0  0  0
   10.8557    8.7822   14.8432 H   0  0  0  0  0
   11.7058    8.8107   16.4080 H   0  0  0  0  0
   13.0025    7.9106   14.7064 H   0  0  0  0  0
   12.0342   10.5017   17.9305 H   0  0  0  0  0
   13.4142   12.9450   18.2910 H   0  0  0  0  0
   13.6759   10.3601   19.8706 H   0  0  0  0  0
   15.1197   12.1280   20.7863 H   0  0  0  0  0
   13.7275   13.2332   20.8939 H   0  0  0  0  0
   13.7933   11.7811   21.9226 H   0  0  0  0  0
    9.7163   11.2425   21.6324 H   0  0  0  0  0
   11.6516    9.8535   22.3211 H   0  0  0  0  0
   16.7701   12.9599   18.0270 H   0  0  0  0  0
   15.2904   13.8211   18.4630 H   0  0  0  0  0
  1  2  2  0  0  0
  1  3  1  0  0  0
  4  1  1  0  0  0
  5  4  1  0  0  0
  4 10  1  0  0  0
  6  5  1  0  0  0
  5  8  1  0  0  0
  6  7  2  0  0  0
 11  6  1  0  0  0
  8  9  1  0  0  0
  9 10  1  0  0  0
 12 11  1  0  0  0
 13 12  1  0  0  0
 12 15  1  0  0  0
 13 14  2  0  0  0
 41 13  1  0  0  0
 15 16  1  0  0  0
 16 17  1  0  0  0
 16 18  1  0  0  0
 20 19  1  0  0  0
 19 42  2  0  0  0
 19 44  1  0  0  0
 20 21  1  0  0  0
 20 41  1  0  0  0
 21 22  1  0  0  0
 22 23  4  0  0  0
 22 26  4  0  0  0
 23 24  4  0  0  0
 24 25  4  0  0  0
 24 43  1  0  0  0
 25 26  4  0  0  0
 26 27  1  0  0  0
 27 28  1  0  0  0
 28 29  1  0  0  0
 29 30  1  0  0  0
 30 31  1  0  0  0
 31 32  1  0  0  0
 32 33  1  0  0  0
 33 34  1  0  0  0
 34 35  1  0  0  0
 35 36  4  0  0  0
 35 40  4  0  0  0
 36 37  4  0  0  0
 37 38  4  0  0  0
 38 39  4  0  0  0
 39 40  4  0  0  0
 44 45  1  0  0  0
 45 46  1  0  0  0
 45 48  1  0  0  0
 46 47  2  0  0  0
 46 50  1  0  0  0
 48 49  1  0  0  0
 50 51  1  0  0  0
 51 52  1  0  0  0
 51 59  1  0  0  0
 52 53  1  0  0  0
 52 54  1  0  0  0
 54 55  1  0  0  0
 55 56  2  0  0  0
 55 57  1  0  0  0
 55 58  1  0  0  0
 59 60  2  0  0  0
 59 61  1  0  0  0
  3 62  1  0  0  0
  3 63  1  0  0  0
  3 64  1  0  0  0
  5 65  1  0  0  0
  8 66  1  0  0  0
  8 67  1  0  0  0
  9 68  1  0  0  0
  9 69  1  0  0  0
 10 70  1  0  0  0
 10 71  1  0  0  0
 11 72  1  0  0  0
 12 73  1  0  0  0
 15 74  1  0  0  0
 15 75  1  0  0  0
 16 76  1  0  0  0
 17 77  1  0  0  0
 17 78  1  0  0  0
 17 79  1  0  0  0
 18 80  1  0  0  0
 18 81  1  0  0  0
 18 82  1  0  0  0
 20 83  1  0  0  0
 21 84  1  0  0  0
 21 85  1  0  0  0
 23 86  1  0  0  0
 25 87  1  0  0  0
 27 88  1  0  0  0
 27 89  1  0  0  0
 28 90  1  0  0  0
 28 91  1  0  0  0
 29 92  1  0  0  0
 29 93  1  0  0  0
 30 94  1  0  0  0
 30 95  1  0  0  0
 31 96  1  0  0  0
 31 97  1  0  0  0
 32 98  1  0  0  0
 32 99  1  0  0  0
 33100  1  0  0  0
 33101  1  0  0  0
 34102  1  0  0  0
 34103  1  0  0  0
 36104  1  0  0  0
 37105  1  0  0  0
 38106  1  0  0  0
 39107  1  0  0  0
 40108  1  0  0  0
 41109  1  0  0  0
 43110  1  0  0  0
 43111  1  0  0  0
 43112  1  0  0  0
 44113  1  0  0  0
 45114  1  0  0  0
 48115  1  0  0  0
 48116  1  0  0  0
 49117  1  0  0  0
 50118  1  0  0  0
 51119  1  0  0  0
 52120  1  0  0  0
 53121  1  0  0  0
 53122  1  0  0  0
 53123  1  0  0  0
 57124  1  0  0  0
 58125  1  0  0  0
 61126  1  0  0  0
 61127  1  0  0  0
M  END
$$$$
