5ega_ligand
  -I-interpret- 

 35 36  0  0  0  0  0  0  0  0999 V2000
  -26.9030   17.2970   -5.9880 C   0  0  0  0  0
  -28.1660   16.8710   -5.5540 C   0  0  0  0  0
  -28.3110   15.9330   -4.5190 C   0  0  0  0  0
  -27.1990   15.3950   -3.9140 C   0  0  0  0  0
  -27.3080   14.4540   -2.8560 O   0  0  0  0  0
  -25.9650   15.8240   -4.3700 C   0  0  0  0  0
  -24.8210   15.3770   -3.8120 O   0  0  0  0  0
  -25.7860   16.7440   -5.3700 C   0  0  0  0  0
  -24.4380   17.0530   -5.6550 O   0  0  0  0  0
  -29.4910   17.3910   -6.1070 C   0  0  0  0  0
  -29.7890   18.5660   -5.9570 O   0  0  0  0  0
  -30.3660   16.4250   -6.6860 N   0  0  0  0  0
  -31.6350   16.6870   -7.2120 N   0  0  0  0  0
  -32.6040   17.3470   -6.6020 C   0  0  0  0  0
  -36.4070   17.5760   -8.7130 C   0  0  0  0  0
  -37.6400   17.6430   -9.4060 O   0  0  0  0  0
  -36.2790   18.1350   -7.4340 C   0  0  0  0  0
  -37.3970   18.7670   -6.8470 O   0  0  0  0  0
  -35.0510   18.0720   -6.7440 C   0  0  0  0  0
  -33.9420   17.4580   -7.3430 C   0  0  0  0  0
  -34.0780   16.8870   -8.6190 C   0  0  0  0  0
  -35.3010   16.9570   -9.2910 C   0  0  0  0  0
  -35.3980   16.3950  -10.5670 O   0  0  0  0  0
  -26.7996   18.0361   -6.7824 H   0  0  0  0  0
  -29.3067   15.6307   -4.1944 H   0  0  0  0  0
  -26.4297   14.1966   -2.5665 H   0  0  0  0  0
  -24.0711   15.7807   -4.2551 H   0  0  0  0  0
  -23.8647   16.5323   -5.0877 H   0  0  0  0  0
  -30.0379   15.4598   -6.7193 H   0  0  0  0  0
  -32.4588   17.7919   -5.6176 H   0  0  0  0  0
  -37.5496   17.2139  -10.2600 H   0  0  0  0  0
  -37.1567   19.0977   -5.9784 H   0  0  0  0  0
  -34.9639   18.5004   -5.7455 H   0  0  0  0  0
  -33.2283   16.3886   -9.0856 H   0  0  0  0  0
  -34.5521   16.0130  -10.8123 H   0  0  0  0  0
  2  1  4  0  0  0
  1  8  4  0  0  0
  2  3  4  0  0  0
 10  2  1  0  0  0
  3  4  4  0  0  0
  4  5  1  0  0  0
  4  6  4  0  0  0
  6  7  1  0  0  0
  8  6  4  0  0  0
  8  9  1  0  0  0
 10 11  2  0  0  0
 12 10  1  0  0  0
 13 12  1  0  0  0
 14 13  2  0  0  0
 20 14  1  0  0  0
 15 16  1  0  0  0
 17 15  4  0  0  0
 15 22  4  0  0  0
 17 18  1  0  0  0
 19 17  4  0  0  0
 19 20  4  0  0  0
 20 21  4  0  0  0
 21 22  4  0  0  0
 22 23  1  0  0  0
  1 24  1  0  0  0
  3 25  1  0  0  0
  5 26  1  0  0  0
  7 27  1  0  0  0
  9 28  1  0  0  0
 12 29  1  0  0  0
 14 30  1  0  0  0
 16 31  1  0  0  0
 18 32  1  0  0  0
 19 33  1  0  0  0
 21 34  1  0  0  0
 23 35  1  0  0  0
M  END
$$$$
