5u0f_ligand
  -I-interpret- 

 31 32  0  0  0  0  0  0  0  0999 V2000
   18.6940    4.4910   13.4790 C   0  0  0  0  0
   19.0420    5.8010   13.7800 C   0  0  0  0  0
   16.9080    6.1240   14.7980 C   0  0  0  0  0
   17.4550    3.9920   13.8180 C   0  0  0  0  0
   18.1320    6.6060   14.4320 C   0  0  0  0  0
   16.6150    4.8340   14.4850 C   0  0  0  0  0
   16.5280    0.4000   14.6280 C   0  0  0  0  0
   15.6340    1.0340   16.5690 C   0  0  0  0  0
   17.2700    1.6970   14.7520 C   0  0  0  0  0
   19.7290    8.2770   14.5740 C   0  0  0  0  0
   15.0800    4.5200   13.4550 C   0  0  0  0  0
   16.9540    2.6010   13.5670 C   0  0  0  0  0
   15.6650    0.0930   15.6150 N   0  0  0  0  0
   16.7270   -0.3310   13.6780 O   0  0  0  0  0
   18.3560    7.9250   14.7760 O   0  0  0  0  0
   15.4220    4.3230   14.8020 O   0  0  0  0  0
   14.7310    0.9890   17.9520 S   0  0  0  0  0
   16.7530    2.3530   16.3380 S   0  0  0  0  0
   19.4107    3.8484   12.9675 H   0  0  0  0  0
   20.0228    6.1884   13.5042 H   0  0  0  0  0
   16.1895    6.7529   15.3238 H   0  0  0  0  0
   18.3548    1.5938   14.7254 H   0  0  0  0  0
   20.3609    7.6397   15.1926 H   0  0  0  0  0
   19.9877    8.1382   13.5243 H   0  0  0  0  0
   19.8800    9.3201   14.8519 H   0  0  0  0  0
   15.1620    5.5794   13.2118 H   0  0  0  0  0
   15.7575    3.9471   12.8219 H   0  0  0  0  0
   14.0558    4.1860   13.2889 H   0  0  0  0  0
   17.4441    2.2035   12.6782 H   0  0  0  0  0
   15.8737    2.6342   13.4256 H   0  0  0  0  0
   15.1007   -0.7565   15.6344 H   0  0  0  0  0
  1  2  4  0  0  0
  4  1  4  0  0  0
  2  5  4  0  0  0
  3  5  4  0  0  0
  6  3  4  0  0  0
  4  6  4  0  0  0
 12  4  1  0  0  0
  5 15  1  0  0  0
  6 16  1  0  0  0
  9  7  1  0  0  0
  7 13  1  0  0  0
  7 14  2  0  0  0
 13  8  1  0  0  0
  8 17  2  0  0  0
  8 18  1  0  0  0
  9 12  1  0  0  0
  9 18  1  0  0  0
 15 10  1  0  0  0
 16 11  1  0  0  0
  1 19  1  0  0  0
  2 20  1  0  0  0
  3 21  1  0  0  0
  9 22  1  0  0  0
 10 23  1  0  0  0
 10 24  1  0  0  0
 10 25  1  0  0  0
 11 26  1  0  0  0
 11 27  1  0  0  0
 11 28  1  0  0  0
 12 29  1  0  0  0
 12 30  1  0  0  0
 13 31  1  0  0  0
M  END
$$$$
