### 
### Created by X-TOOL on Mon Sep 10 21:13:09 2018
### 

@<TRIPOS>MOLECULE
4fmq_ligand
  238   237     1     0     0
SMALL
GAST_HUCK


@<TRIPOS>ATOM
      1 N         -30.0270  -15.9530   24.3030 N.4       1 LEU         0.2379
      2 CA        -29.1870  -17.1280   24.5050 C.3       1 LEU         0.0652
      3 C         -30.0320  -18.3540   24.8440 C.2       1 LEU         0.2268
      4 O         -30.1910  -18.7130   26.0110 O.2       1 LEU        -0.3907
      5 CB        -28.1580  -16.8610   25.6060 C.3       1 LEU         0.0102
      6 CG        -26.8880  -16.1160   25.1770 C.3       1 LEU        -0.0394
      7 CD1       -25.7510  -17.0970   24.9360 C.3       1 LEU        -0.0623
      8 CD2       -27.1260  -15.2480   23.9430 C.3       1 LEU        -0.0623
      9 N         -30.5660  -18.9870   23.8030 N.am      1 SER        -0.2589
     10 CA        -31.4110  -20.1700   23.9390 C.3       1 SER         0.1540
     11 C         -30.7520  -21.2480   24.7760 C.2       1 SER         0.2063
     12 O         -29.6160  -21.1000   25.2260 O.2       1 SER        -0.3943
     13 CB        -31.6810  -20.7670   22.5580 C.3       1 SER         0.0843
     14 OG        -30.5010  -21.3440   22.0200 O.3       1 SER        -0.3903
     15 N         -31.4700  -22.3450   24.9770 N.am      1 SER        -0.2615
     16 CA        -30.8090  -23.5750   25.3480 C.3       1 SER         0.1539
     17 C         -29.8690  -23.8230   24.1780 C.2       1 SER         0.2062
     18 O         -30.2510  -23.6510   23.0200 O.2       1 SER        -0.3943
     19 CB        -31.8050  -24.7260   25.5120 C.3       1 SER         0.0843
     20 OG        -32.3900  -25.1000   24.2750 O.3       1 SER        -0.3903
     21 N         -28.6330  -24.1990   24.4730 N.am      1 LEU        -0.2636
     22 CA        -27.6480  -24.4580   23.4250 C.3       1 LEU         0.1312
     23 C         -28.1820  -25.4470   22.3860 C.2       1 LEU         0.2039
     24 O         -27.5380  -25.6930   21.3680 O.2       1 LEU        -0.3944
     25 CB        -26.3500  -25.0030   24.0270 C.3       1 LEU        -0.0101
     26 CG        -26.2020  -24.9750   25.5510 C.3       1 LEU        -0.0425
     27 CD1       -25.0600  -25.8700   25.9910 C.3       1 LEU        -0.0625
     28 CD2       -25.9990  -23.5520   26.0590 C.3       1 LEU        -0.0625
     29 N         -29.3560  -26.0130   22.6570 N.am      1 ALA        -0.2640
     30 CA        -29.9940  -26.9870   21.7750 C.3       1 ALA         0.1282
     31 C         -30.0980  -26.5510   20.3100 C.2       1 ALA         0.2036
     32 O         -30.1220  -27.3950   19.4150 O.2       1 ALA        -0.3944
     33 CB        -31.3750  -27.3310   22.3120 C.3       1 ALA        -0.0244
     34 N         -30.1660  -25.2470   20.0580 N.am      1 ALA        -0.2640
     35 CA        -30.3360  -24.7530   18.6900 C.3       1 ALA         0.1282
     36 C         -28.9970  -24.5850   17.9680 C.2       1 ALA         0.2037
     37 O         -28.9520  -24.4640   16.7430 O.2       1 ALA        -0.3944
     38 CB        -31.1060  -23.4400   18.6950 C.3       1 ALA        -0.0244
     39 N         -27.9140  -24.5760   18.7370 N.am      1 SER        -0.2616
     40 CA        -26.5640  -24.4660   18.1890 C.3       1 SER         0.1539
     41 C         -26.2130  -25.7200   17.3880 C.2       1 SER         0.2062
     42 O         -26.4430  -26.8380   17.8460 O.2       1 SER        -0.3943
     43 CB        -25.5600  -24.2750   19.3260 C.3       1 SER         0.0843
     44 OG        -24.4210  -23.5600   18.8880 O.3       1 SER        -0.3903
     45 N         -25.6540  -25.5350   16.1960 N.am      1 SER        -0.2615
     46 CA        -25.4290  -26.6530   15.2820 C.3       1 SER         0.1539
     47 C         -24.3620  -27.6220   15.7950 C.2       1 SER         0.2062
     48 O         -24.4590  -28.8270   15.5740 O.2       1 SER        -0.3943
     49 CB        -25.0400  -26.1390   13.8930 C.3       1 SER         0.0843
     50 OG        -23.7080  -25.6490   13.8730 O.3       1 SER        -0.3903
     51 N         -23.3440  -27.0940   16.4690 N.am      1 LEU        -0.2636
     52 CA        -22.2540  -27.9190   16.9860 C.3       1 LEU         0.1312
     53 C         -22.7560  -28.8040   18.1190 C.2       1 LEU         0.2039
     54 O         -22.5000  -30.0070   18.1410 O.2       1 LEU        -0.3944
     55 CB        -21.1010  -27.0330   17.4730 C.3       1 LEU        -0.0101
     56 CG        -19.8290  -27.7070   17.9970 C.3       1 LEU        -0.0425
     57 CD1       -19.2270  -28.6520   16.9670 C.3       1 LEU        -0.0625
     58 CD2       -18.8160  -26.6430   18.4030 C.3       1 LEU        -0.0625
     59 N         -23.4690  -28.1970   19.0630 N.am      1 ALA        -0.2640
     60 CA        -24.0600  -28.9320   20.1730 C.3       1 ALA         0.1282
     61 C         -25.0400  -29.9780   19.6470 C.2       1 ALA         0.2036
     62 O         -25.2110  -31.0400   20.2440 O.2       1 ALA        -0.3944
     63 CB        -24.7640  -27.9750   21.1130 C.3       1 ALA        -0.0244
     64 N         -25.6790  -29.6680   18.5230 N.am      1 LYS        -0.2637
     65 CA        -26.6040  -30.5940   17.8840 C.3       1 LYS         0.1310
     66 C         -25.8580  -31.7780   17.2770 C.2       1 LYS         0.2039
     67 O         -26.3480  -32.9070   17.3010 O.2       1 LYS        -0.3944
     68 CB        -27.4160  -29.8720   16.8070 C.3       1 LYS        -0.0122
     69 CG        -28.7350  -29.3100   17.3070 C.3       1 LYS        -0.0440
     70 CD        -29.3030  -28.2650   16.3560 C.3       1 LYS        -0.0124
     71 CE        -29.0310  -28.6140   14.9010 C.3       1 LYS        -0.0354
     72 NZ        -29.7890  -27.7390   13.9640 N.4       1 LYS         0.2185
     73 N         -24.6740  -31.5180   16.7310 N.am      1 ARG        -0.2637
     74 CA        -23.8600  -32.5810   16.1510 C.3       1 ARG         0.1311
     75 C         -23.3560  -33.5200   17.2420 C.2       1 ARG         0.2039
     76 O         -23.1410  -34.7090   17.0050 O.2       1 ARG        -0.3944
     77 CB        -22.6770  -32.0000   15.3750 C.3       1 ARG        -0.0092
     78 CG        -23.0760  -31.2050   14.1470 C.3       1 ARG        -0.0156
     79 CD        -22.0360  -31.3280   13.0470 C.3       1 ARG         0.0627
     80 NE        -20.7290  -30.8180   13.4550 N.pl3     1 ARG        -0.2723
     81 CZ        -20.3450  -29.5500   13.3290 C.cat     1 ARG         0.2882
     82 NH1       -21.1680  -28.6460   12.8140 N.pl3     1 ARG        -0.2849
     83 NH2       -19.1340  -29.1810   13.7240 N.pl3     1 ARG        -0.2849
     84 N         -23.1790  -32.9790   18.4420 N.am      1 ARG        -0.2637
     85 CA        -22.6940  -33.7610   19.5710 C.3       1 ARG         0.1311
     86 C         -23.8440  -34.5140   20.2360 C.2       1 ARG         0.2039
     87 O         -23.6240  -35.4830   20.9650 O.2       1 ARG        -0.3944
     88 CB        -21.9960  -32.8500   20.5850 C.3       1 ARG        -0.0092
     89 CG        -20.7890  -32.1010   20.0210 C.3       1 ARG        -0.0156
     90 CD        -19.6550  -33.0470   19.6530 C.3       1 ARG         0.0627
     91 NE        -18.4830  -32.3300   19.1530 N.pl3     1 ARG        -0.2723
     92 CZ        -18.2140  -32.1290   17.8660 C.cat     1 ARG         0.2882
     93 NH1       -19.0290  -32.5950   16.9270 N.pl3     1 ARG        -0.2849
     94 NH2       -17.1220  -31.4630   17.5150 N.pl3     1 ARG        -0.2849
     95 N         -25.0690  -34.0690   19.9710 N.am      1 GLN        -0.2636
     96 CA        -26.2650  -34.7460   20.4640 C.3       1 GLN         0.1330
     97 C         -26.5470  -36.0200   19.6720 C.2       1 GLN         0.2035
     98 O         -27.6860  -36.4820   19.6140 O.2       1 GLN        -0.3944
     99 CB        -27.4780  -33.8140   20.3780 C.3       1 GLN         0.0045
    100 CG        -27.5730  -32.7940   21.5030 C.3       1 GLN         0.0412
    101 CD        -28.5940  -31.7080   21.2170 C.2       1 GLN         0.1737
    102 OE1       -29.1570  -31.6430   20.1240 O.2       1 GLN        -0.3973
    103 NE2       -28.8350  -30.8470   22.1990 N.am      1 GLN        -0.3009
    104 N         -25.5080  -36.5810   19.0600 N.am      1 GLN        -0.2693
    105 CA        -25.6460  -37.8070   18.2850 C.3       1 GLN         0.0964
    106 C         -24.6590  -38.8660   18.7700 C.2       1 GLN         0.0602
    107 O         -24.7736  -39.3754   19.9167 O.co2     1 GLN        -0.5666
    108 CB        -25.4160  -37.5220   16.8010 C.3       1 GLN        -0.0010
    109 CG        -26.3680  -36.4960   16.2070 C.3       1 GLN         0.0407
    110 CD        -26.1970  -36.3510   14.7090 C.2       1 GLN         0.1737
    111 OE1       -26.1570  -37.3420   13.9790 O.2       1 GLN        -0.3973
    112 NE2       -26.0880  -35.1120   14.2410 N.am      1 GLN        -0.3009
    113 H         -30.7071  -16.1451   23.5675 H         1 LEU         0.2015
    114 H         -30.5159  -15.7328   25.1707 H         1 LEU         0.2015
    115 H         -29.4434  -15.1622   24.0300 H         1 LEU         0.2015
    116 H         -28.6575  -17.3334   23.5747 H         1 LEU         0.1098
    117 H         -27.8326  -17.8382   25.9629 H         1 LEU         0.0348
    118 H         -28.6532  -16.2232   26.3382 H         1 LEU         0.0348
    119 H         -26.6075  -15.4485   25.9918 H         1 LEU         0.0299
    120 H         -26.0022  -17.7427   24.0945 H         1 LEU         0.0232
    121 H         -24.8380  -16.5452   24.7123 H         1 LEU         0.0232
    122 H         -25.6009  -17.7037   25.8290 H         1 LEU         0.0232
    123 H         -26.2197  -14.6872   23.7145 H         1 LEU         0.0232
    124 H         -27.3839  -15.8847   23.0967 H         1 LEU         0.0232
    125 H         -27.9437  -14.5548   24.1402 H         1 LEU         0.0232
    126 H         -30.3765  -18.6295   22.8667 H         1 SER         0.1885
    127 H         -32.3311  -19.8493   24.4275 H         1 SER         0.0823
    128 H         -32.0201  -19.9737   21.8919 H         1 SER         0.0606
    129 H         -32.4406  -21.5430   22.6525 H         1 SER         0.0606
    130 H         -30.1916  -22.0403   22.6040 H         1 SER         0.2097
    131 H         -32.4841  -22.3204   24.8701 H         1 SER         0.1884
    132 H         -30.2969  -23.5086   26.3079 H         1 SER         0.0823
    133 H         -32.6005  -24.3968   26.1805 H         1 SER         0.0606
    134 H         -31.2691  -25.5873   25.9108 H         1 SER         0.0606
    135 H         -31.7011  -25.3820   23.6688 H         1 SER         0.2097
    136 H         -28.3639  -24.3098   25.4506 H         1 LEU         0.1883
    137 H         -27.4465  -23.5088   22.9285 H         1 LEU         0.0800
    138 H         -25.5592  -24.3567   23.6463 H         1 LEU         0.0315
    139 H         -26.3221  -26.0573   23.7516 H         1 LEU         0.0315
    140 H         -27.1263  -25.3552   25.9861 H         1 LEU         0.0298
    141 H         -25.2589  -26.8934   25.6730 H         1 LEU         0.0232
    142 H         -24.1317  -25.5214   25.5383 H         1 LEU         0.0232
    143 H         -24.9713  -25.8363   27.0769 H         1 LEU         0.0232
    144 H         -25.0963  -23.1339   25.6136 H         1 LEU         0.0232
    145 H         -26.8588  -22.9423   25.7812 H         1 LEU         0.0232
    146 H         -25.8973  -23.5660   27.1442 H         1 LEU         0.0232
    147 H         -29.8324  -25.7544   23.5211 H         1 ALA         0.1883
    148 H         -29.3438  -27.8619   21.7743 H         1 ALA         0.0797
    149 H         -31.2796  -27.7539   23.3121 H         1 ALA         0.0277
    150 H         -31.9823  -26.4269   22.3549 H         1 ALA         0.0277
    151 H         -31.8492  -28.0578   21.6525 H         1 ALA         0.0277
    152 H         -30.0988  -24.5817   20.8283 H         1 ALA         0.1883
    153 H         -30.9077  -25.5014   18.1411 H         1 ALA         0.0797
    154 H         -32.0876  -23.5976   19.1419 H         1 ALA         0.0277
    155 H         -30.5557  -22.6997   19.2757 H         1 ALA         0.0277
    156 H         -31.2242  -23.0857   17.6710 H         1 ALA         0.0277
    157 H         -28.0291  -24.6486   19.7479 H         1 SER         0.1884
    158 H         -26.5219  -23.6038   17.5235 H         1 SER         0.0823
    159 H         -25.2410  -25.2564   19.6769 H         1 SER         0.0606
    160 H         -26.0410  -23.7084   20.1233 H         1 SER         0.0606
    161 H         -24.6904  -22.6958   18.5683 H         1 SER         0.2097
    162 H         -25.3768  -24.5948   15.9140 H         1 SER         0.1884
    163 H         -26.3679  -27.2031   15.2189 H         1 SER         0.0823
    164 H         -25.7118  -25.3230   13.6265 H         1 SER         0.0606
    165 H         -25.1142  -26.9654   13.1861 H         1 SER         0.0606
    166 H         -23.6248  -24.9261   14.4991 H         1 SER         0.2097
    167 H         -23.3236  -26.0869   16.6292 H         1 LEU         0.1883
    168 H         -21.8864  -28.5564   16.1818 H         1 LEU         0.0800
    169 H         -21.5039  -26.4853   18.3249 H         1 LEU         0.0315
    170 H         -20.7836  -26.4714   16.5944 H         1 LEU         0.0315
    171 H         -20.0951  -28.3057   18.8681 H         1 LEU         0.0298
    172 H         -19.9512  -29.4288   16.7214 H         1 LEU         0.0232
    173 H         -18.9733  -28.0923   16.0668 H         1 LEU         0.0232
    174 H         -18.3269  -29.1094   17.3777 H         1 LEU         0.0232
    175 H         -18.5702  -26.0280   17.5373 H         1 LEU         0.0232
    176 H         -19.2432  -26.0164   19.1859 H         1 LEU         0.0232
    177 H         -17.9127  -27.1264   18.7751 H         1 LEU         0.0232
    178 H         -23.6060  -27.1877   19.0083 H         1 ALA         0.1883
    179 H         -23.2683  -29.4417   20.7221 H         1 ALA         0.0797
    180 H         -24.0444  -27.2547   21.5022 H         1 ALA         0.0277
    181 H         -25.5503  -27.4488   20.5718 H         1 ALA         0.0277
    182 H         -25.2020  -28.5354   21.9390 H         1 ALA         0.0277
    183 H         -25.5168  -28.7559   18.0961 H         1 LYS         0.1883
    184 H         -27.2851  -30.9745   18.6452 H         1 LYS         0.0800
    185 H         -27.6471  -30.6015   16.0307 H         1 LYS         0.0312
    186 H         -26.8166  -29.0316   16.4570 H         1 LYS         0.0312
    187 H         -28.5604  -28.8350   18.2724 H         1 LYS         0.0269
    188 H         -29.4498  -30.1295   17.3812 H         1 LYS         0.0269
    189 H         -28.8250  -27.3098   16.5732 H         1 LYS         0.0317
    190 H         -30.3825  -28.2221   16.5009 H         1 LYS         0.0317
    191 H         -29.3455  -29.6442   14.7339 H         1 LYS         0.0813
    192 H         -27.9668  -28.4743   14.7110 H         1 LYS         0.0813
    193 H         -29.5770  -28.0076   13.0031 H         1 LYS         0.1994
    194 H         -30.7889  -27.8451   14.1352 H         1 LYS         0.1994
    195 H         -29.5184  -26.7671   14.1142 H         1 LYS         0.1994
    196 H         -24.3285  -30.5584   16.7173 H         1 ARG         0.1883
    197 H         -24.4848  -33.1448   15.4582 H         1 ARG         0.0800
    198 H         -22.0704  -32.8390   15.0341 H         1 ARG         0.0313
    199 H         -22.1537  -31.3184   16.0456 H         1 ARG         0.0313
    200 H         -23.1623  -30.1550   14.4267 H         1 ARG         0.0301
    201 H         -24.0229  -31.5952   13.7740 H         1 ARG         0.0301
    202 H         -22.3760  -30.7397   12.1947 H         1 ARG         0.0689
    203 H         -21.9246  -32.3851   12.8055 H         1 ARG         0.0689
    204 H         -20.0669  -31.4776   13.8635 H         1 ARG         0.2642
    205 H         -22.1025  -28.9208   12.5113 H         1 ARG         0.2615
    206 H         -20.8663  -27.6761   12.7207 H         1 ARG         0.2615
    207 H         -18.4965  -29.8691   14.1246 H         1 ARG         0.2615
    208 H         -18.8401  -28.2091   13.6272 H         1 ARG         0.2615
    209 H         -23.3882  -31.9898   18.5765 H         1 ARG         0.1883
    210 H         -21.9734  -34.4911   19.2024 H         1 ARG         0.0800
    211 H         -21.6335  -33.4847   21.3936 H         1 ARG         0.0313
    212 H         -22.7225  -32.1011   20.9003 H         1 ARG         0.0313
    213 H         -20.4261  -31.4134   20.7849 H         1 ARG         0.0301
    214 H         -21.1033  -31.5769   19.1184 H         1 ARG         0.0301
    215 H         -20.0087  -33.7125   18.8655 H         1 ARG         0.0689
    216 H         -19.3629  -33.5936   20.5497 H         1 ARG         0.0689
    217 H         -17.8260  -31.9581   19.8388 H         1 ARG         0.2642
    218 H         -19.8683  -33.1113   17.1905 H         1 ARG         0.2615
    219 H         -18.8158  -32.4367   15.9422 H         1 ARG         0.2615
    220 H         -16.4900  -31.1059   18.2316 H         1 ARG         0.2615
    221 H         -16.9142  -31.3080   16.5285 H         1 ARG         0.2615
    222 H         -25.1765  -33.2273   19.4049 H         1 GLN         0.1883
    223 H         -26.0856  -35.0166   21.5045 H         1 GLN         0.0801
    224 H         -28.3669  -34.4416   20.4413 H         1 GLN         0.0337
    225 H         -27.3840  -33.2540   19.4476 H         1 GLN         0.0337
    226 H         -26.5977  -32.3193   21.6102 H         1 GLN         0.0504
    227 H         -27.8831  -33.3179   22.4071 H         1 GLN         0.0504
    228 H         -29.5098  -30.0943   22.0632 H         1 GLN         0.1814
    229 H         -28.3453  -30.9384   23.0891 H         1 GLN         0.1814
    230 H         -24.5906  -36.1415   19.1352 H         1 GLN         0.1875
    231 H         -26.6585  -38.1866   18.4227 H         1 GLN         0.0727
    232 O         -23.7197  -39.2345   18.0154 O.co2     1 GLN        -0.5666
    233 H         -25.5775  -38.4576   16.2656 H         1 GLN         0.0330
    234 H         -24.4080  -37.1187   16.7040 H         1 GLN         0.0330
    235 H         -26.1540  -35.5310   16.6664 H         1 GLN         0.0504
    236 H         -27.3875  -36.8299   16.3998 H         1 GLN         0.0504
    237 H         -25.9658  -34.9535   13.2408 H         1 GLN         0.1814
    238 H         -26.1266  -34.3195   14.8820 H         1 GLN         0.1814
@<TRIPOS>BOND
     1    1    2 1  
     2    2    3 1  
     3    2    5 1  
     4    3    4 2  
     5    3    9 am 
     6    5    6 1  
     7    6    7 1  
     8    6    8 1  
     9    9   10 1  
    10   10   11 1  
    11   10   13 1  
    12   11   12 2  
    13   11   15 am 
    14   13   14 1  
    15   15   16 1  
    16   16   17 1  
    17   16   19 1  
    18   17   18 2  
    19   17   21 am 
    20   19   20 1  
    21   21   22 1  
    22   22   23 1  
    23   22   25 1  
    24   23   24 2  
    25   23   29 am 
    26   25   26 1  
    27   26   27 1  
    28   26   28 1  
    29   29   30 1  
    30   30   31 1  
    31   30   33 1  
    32   31   32 2  
    33   31   34 am 
    34   34   35 1  
    35   35   36 1  
    36   35   38 1  
    37   36   37 2  
    38   36   39 am 
    39   39   40 1  
    40   40   41 1  
    41   40   43 1  
    42   41   42 2  
    43   41   45 am 
    44   43   44 1  
    45   45   46 1  
    46   46   47 1  
    47   46   49 1  
    48   47   48 2  
    49   47   51 am 
    50   49   50 1  
    51   51   52 1  
    52   52   53 1  
    53   52   55 1  
    54   53   54 2  
    55   53   59 am 
    56   55   56 1  
    57   56   57 1  
    58   56   58 1  
    59   59   60 1  
    60   60   61 1  
    61   60   63 1  
    62   61   62 2  
    63   61   64 am 
    64   64   65 1  
    65   65   66 1  
    66   65   68 1  
    67   66   67 2  
    68   66   73 am 
    69   68   69 1  
    70   69   70 1  
    71   70   71 1  
    72   71   72 1  
    73   73   74 1  
    74   74   75 1  
    75   74   77 1  
    76   75   76 2  
    77   75   84 am 
    78   77   78 1  
    79   78   79 1  
    80   79   80 1  
    81   80   81 ar 
    82   81   82 ar 
    83   81   83 ar 
    84   84   85 1  
    85   85   86 1  
    86   85   88 1  
    87   86   87 2  
    88   86   95 am 
    89   88   89 1  
    90   89   90 1  
    91   90   91 1  
    92   91   92 ar 
    93   92   93 ar 
    94   92   94 ar 
    95   95   96 1  
    96   96   97 1  
    97   96   99 1  
    98   97   98 2  
    99   97  104 am 
   100   99  100 1  
   101  100  101 1  
   102  101  102 2  
   103  101  103 am 
   104  104  105 1  
   105  105  106 1  
   106  105  108 1  
   107  106  107 ar 
   108  108  109 1  
   109  109  110 1  
   110  110  111 2  
   111  110  112 am 
   112    1  113 1  
   113    1  114 1  
   114    1  115 1  
   115    2  116 1  
   116    5  117 1  
   117    5  118 1  
   118    6  119 1  
   119    7  120 1  
   120    7  121 1  
   121    7  122 1  
   122    8  123 1  
   123    8  124 1  
   124    8  125 1  
   125    9  126 1  
   126   10  127 1  
   127   13  128 1  
   128   13  129 1  
   129   14  130 1  
   130   15  131 1  
   131   16  132 1  
   132   19  133 1  
   133   19  134 1  
   134   20  135 1  
   135   21  136 1  
   136   22  137 1  
   137   25  138 1  
   138   25  139 1  
   139   26  140 1  
   140   27  141 1  
   141   27  142 1  
   142   27  143 1  
   143   28  144 1  
   144   28  145 1  
   145   28  146 1  
   146   29  147 1  
   147   30  148 1  
   148   33  149 1  
   149   33  150 1  
   150   33  151 1  
   151   34  152 1  
   152   35  153 1  
   153   38  154 1  
   154   38  155 1  
   155   38  156 1  
   156   39  157 1  
   157   40  158 1  
   158   43  159 1  
   159   43  160 1  
   160   44  161 1  
   161   45  162 1  
   162   46  163 1  
   163   49  164 1  
   164   49  165 1  
   165   50  166 1  
   166   51  167 1  
   167   52  168 1  
   168   55  169 1  
   169   55  170 1  
   170   56  171 1  
   171   57  172 1  
   172   57  173 1  
   173   57  174 1  
   174   58  175 1  
   175   58  176 1  
   176   58  177 1  
   177   59  178 1  
   178   60  179 1  
   179   63  180 1  
   180   63  181 1  
   181   63  182 1  
   182   64  183 1  
   183   65  184 1  
   184   68  185 1  
   185   68  186 1  
   186   69  187 1  
   187   69  188 1  
   188   70  189 1  
   189   70  190 1  
   190   71  191 1  
   191   71  192 1  
   192   72  193 1  
   193   72  194 1  
   194   72  195 1  
   195   73  196 1  
   196   74  197 1  
   197   77  198 1  
   198   77  199 1  
   199   78  200 1  
   200   78  201 1  
   201   79  202 1  
   202   79  203 1  
   203   80  204 1  
   204   82  205 1  
   205   82  206 1  
   206   83  207 1  
   207   83  208 1  
   208   84  209 1  
   209   85  210 1  
   210   88  211 1  
   211   88  212 1  
   212   89  213 1  
   213   89  214 1  
   214   90  215 1  
   215   90  216 1  
   216   91  217 1  
   217   93  218 1  
   218   93  219 1  
   219   94  220 1  
   220   94  221 1  
   221   95  222 1  
   222   96  223 1  
   223   99  224 1  
   224   99  225 1  
   225  100  226 1  
   226  100  227 1  
   227  103  228 1  
   228  103  229 1  
   229  104  230 1  
   230  105  231 1  
   231  106  232 ar 
   232  108  233 1  
   233  108  234 1  
   234  109  235 1  
   235  109  236 1  
   236  112  237 1  
   237  112  238 1  
@<TRIPOS>SUBSTRUCTURE
     1 LEU         1

