4fmq_ligand
  -I-interpret- 

237236  0  0  0  0  0  0  0  0999 V2000
  -30.0270  -15.9530   24.3030 N   0  3  0  0  0
  -29.1870  -17.1280   24.5050 C   0  0  0  0  0
  -30.0320  -18.3540   24.8440 C   0  0  0  0  0
  -30.1910  -18.7130   26.0110 O   0  0  0  0  0
  -28.1580  -16.8610   25.6060 C   0  0  0  0  0
  -26.8880  -16.1160   25.1770 C   0  0  0  0  0
  -25.7510  -17.0970   24.9360 C   0  0  0  0  0
  -27.1260  -15.2480   23.9430 C   0  0  0  0  0
  -30.5660  -18.9870   23.8030 N   0  0  0  0  0
  -31.4110  -20.1700   23.9390 C   0  0  0  0  0
  -30.7520  -21.2480   24.7760 C   0  0  0  0  0
  -29.6160  -21.1000   25.2260 O   0  0  0  0  0
  -31.6810  -20.7670   22.5580 C   0  0  0  0  0
  -30.5010  -21.3440   22.0200 O   0  0  0  0  0
  -31.4700  -22.3450   24.9770 N   0  0  0  0  0
  -30.8090  -23.5750   25.3480 C   0  0  0  0  0
  -29.8690  -23.8230   24.1780 C   0  0  0  0  0
  -30.2510  -23.6510   23.0200 O   0  0  0  0  0
  -31.8050  -24.7260   25.5120 C   0  0  0  0  0
  -32.3900  -25.1000   24.2750 O   0  0  0  0  0
  -28.6330  -24.1990   24.4730 N   0  0  0  0  0
  -27.6480  -24.4580   23.4250 C   0  0  0  0  0
  -28.1820  -25.4470   22.3860 C   0  0  0  0  0
  -27.5380  -25.6930   21.3680 O   0  0  0  0  0
  -26.3500  -25.0030   24.0270 C   0  0  0  0  0
  -26.2020  -24.9750   25.5510 C   0  0  0  0  0
  -25.0600  -25.8700   25.9910 C   0  0  0  0  0
  -25.9990  -23.5520   26.0590 C   0  0  0  0  0
  -29.3560  -26.0130   22.6570 N   0  0  0  0  0
  -29.9940  -26.9870   21.7750 C   0  0  0  0  0
  -30.0980  -26.5510   20.3100 C   0  0  0  0  0
  -30.1220  -27.3950   19.4150 O   0  0  0  0  0
  -31.3750  -27.3310   22.3120 C   0  0  0  0  0
  -30.1660  -25.2470   20.0580 N   0  0  0  0  0
  -30.3360  -24.7530   18.6900 C   0  0  0  0  0
  -28.9970  -24.5850   17.9680 C   0  0  0  0  0
  -28.9520  -24.4640   16.7430 O   0  0  0  0  0
  -31.1060  -23.4400   18.6950 C   0  0  0  0  0
  -27.9140  -24.5760   18.7370 N   0  0  0  0  0
  -26.5640  -24.4660   18.1890 C   0  0  0  0  0
  -26.2130  -25.7200   17.3880 C   0  0  0  0  0
  -26.4430  -26.8380   17.8460 O   0  0  0  0  0
  -25.5600  -24.2750   19.3260 C   0  0  0  0  0
  -24.4210  -23.5600   18.8880 O   0  0  0  0  0
  -25.6540  -25.5350   16.1960 N   0  0  0  0  0
  -25.4290  -26.6530   15.2820 C   0  0  0  0  0
  -24.3620  -27.6220   15.7950 C   0  0  0  0  0
  -24.4590  -28.8270   15.5740 O   0  0  0  0  0
  -25.0400  -26.1390   13.8930 C   0  0  0  0  0
  -23.7080  -25.6490   13.8730 O   0  0  0  0  0
  -23.3440  -27.0940   16.4690 N   0  0  0  0  0
  -22.2540  -27.9190   16.9860 C   0  0  0  0  0
  -22.7560  -28.8040   18.1190 C   0  0  0  0  0
  -22.5000  -30.0070   18.1410 O   0  0  0  0  0
  -21.1010  -27.0330   17.4730 C   0  0  0  0  0
  -19.8290  -27.7070   17.9970 C   0  0  0  0  0
  -19.2270  -28.6520   16.9670 C   0  0  0  0  0
  -18.8160  -26.6430   18.4030 C   0  0  0  0  0
  -23.4690  -28.1970   19.0630 N   0  0  0  0  0
  -24.0600  -28.9320   20.1730 C   0  0  0  0  0
  -25.0400  -29.9780   19.6470 C   0  0  0  0  0
  -25.2110  -31.0400   20.2440 O   0  0  0  0  0
  -24.7640  -27.9750   21.1130 C   0  0  0  0  0
  -25.6790  -29.6680   18.5230 N   0  0  0  0  0
  -26.6040  -30.5940   17.8840 C   0  0  0  0  0
  -25.8580  -31.7780   17.2770 C   0  0  0  0  0
  -26.3480  -32.9070   17.3010 O   0  0  0  0  0
  -27.4160  -29.8720   16.8070 C   0  0  0  0  0
  -28.7350  -29.3100   17.3070 C   0  0  0  0  0
  -29.3030  -28.2650   16.3560 C   0  0  0  0  0
  -29.0310  -28.6140   14.9010 C   0  0  0  0  0
  -29.7890  -27.7390   13.9640 N   0  3  0  0  0
  -24.6740  -31.5180   16.7310 N   0  0  0  0  0
  -23.8600  -32.5810   16.1510 C   0  0  0  0  0
  -23.3560  -33.5200   17.2420 C   0  0  0  0  0
  -23.1410  -34.7090   17.0050 O   0  0  0  0  0
  -22.6770  -32.0000   15.3750 C   0  0  0  0  0
  -23.0760  -31.2050   14.1470 C   0  0  0  0  0
  -22.0360  -31.3280   13.0470 C   0  0  0  0  0
  -20.7290  -30.8180   13.4550 N   0  0  0  0  0
  -20.3450  -29.5500   13.3290 C   0  0  0  0  0
  -21.1680  -28.6460   12.8140 N   0  0  0  0  0
  -19.1340  -29.1810   13.7240 N   0  0  0  0  0
  -23.1790  -32.9790   18.4420 N   0  0  0  0  0
  -22.6940  -33.7610   19.5710 C   0  0  0  0  0
  -23.8440  -34.5140   20.2360 C   0  0  0  0  0
  -23.6240  -35.4830   20.9650 O   0  0  0  0  0
  -21.9960  -32.8500   20.5850 C   0  0  0  0  0
  -20.7890  -32.1010   20.0210 C   0  0  0  0  0
  -19.6550  -33.0470   19.6530 C   0  0  0  0  0
  -18.4830  -32.3300   19.1530 N   0  0  0  0  0
  -18.2140  -32.1290   17.8660 C   0  0  0  0  0
  -19.0290  -32.5950   16.9270 N   0  0  0  0  0
  -17.1220  -31.4630   17.5150 N   0  0  0  0  0
  -25.0690  -34.0690   19.9710 N   0  0  0  0  0
  -26.2650  -34.7460   20.4640 C   0  0  0  0  0
  -26.5470  -36.0200   19.6720 C   0  0  0  0  0
  -27.6860  -36.4820   19.6140 O   0  0  0  0  0
  -27.4780  -33.8140   20.3780 C   0  0  0  0  0
  -27.5730  -32.7940   21.5030 C   0  0  0  0  0
  -28.5940  -31.7080   21.2170 C   0  0  0  0  0
  -29.1570  -31.6430   20.1240 O   0  0  0  0  0
  -28.8350  -30.8470   22.1990 N   0  0  0  0  0
  -25.5080  -36.5810   19.0600 N   0  0  0  0  0
  -25.6460  -37.8070   18.2850 C   0  0  0  0  0
  -24.6590  -38.8660   18.7700 C   0  0  0  0  0
  -24.7736  -39.3754   19.9167 O   0  0  0  0  0
  -25.4160  -37.5220   16.8010 C   0  0  0  0  0
  -26.3680  -36.4960   16.2070 C   0  0  0  0  0
  -26.1970  -36.3510   14.7090 C   0  0  0  0  0
  -26.1570  -37.3420   13.9790 O   0  0  0  0  0
  -26.0880  -35.1120   14.2410 N   0  0  0  0  0
  -23.7197  -39.2345   18.0154 O   0  0  0  0  0
  -30.7071  -16.1451   23.5675 H   0  0  0  0  0
  -30.5159  -15.7328   25.1707 H   0  0  0  0  0
  -29.4434  -15.1622   24.0300 H   0  0  0  0  0
  -28.6575  -17.3334   23.5747 H   0  0  0  0  0
  -27.8326  -17.8382   25.9629 H   0  0  0  0  0
  -28.6532  -16.2232   26.3382 H   0  0  0  0  0
  -26.6075  -15.4485   25.9918 H   0  0  0  0  0
  -26.0022  -17.7427   24.0945 H   0  0  0  0  0
  -24.8380  -16.5452   24.7123 H   0  0  0  0  0
  -25.6009  -17.7037   25.8290 H   0  0  0  0  0
  -26.2197  -14.6872   23.7145 H   0  0  0  0  0
  -27.3839  -15.8847   23.0967 H   0  0  0  0  0
  -27.9437  -14.5548   24.1402 H   0  0  0  0  0
  -30.3765  -18.6295   22.8667 H   0  0  0  0  0
  -32.3311  -19.8493   24.4275 H   0  0  0  0  0
  -32.0201  -19.9737   21.8919 H   0  0  0  0  0
  -32.4406  -21.5430   22.6525 H   0  0  0  0  0
  -30.6922  -21.7123   21.1543 H   0  0  0  0  0
  -32.4841  -22.3204   24.8701 H   0  0  0  0  0
  -30.2969  -23.5086   26.3079 H   0  0  0  0  0
  -32.6005  -24.3968   26.1805 H   0  0  0  0  0
  -31.2691  -25.5873   25.9108 H   0  0  0  0  0
  -33.0063  -25.8218   24.4190 H   0  0  0  0  0
  -28.3639  -24.3098   25.4506 H   0  0  0  0  0
  -27.4465  -23.5088   22.9285 H   0  0  0  0  0
  -25.5592  -24.3567   23.6463 H   0  0  0  0  0
  -26.3221  -26.0573   23.7516 H   0  0  0  0  0
  -27.1263  -25.3552   25.9861 H   0  0  0  0  0
  -25.2589  -26.8934   25.6730 H   0  0  0  0  0
  -24.1317  -25.5214   25.5383 H   0  0  0  0  0
  -24.9713  -25.8363   27.0769 H   0  0  0  0  0
  -25.0963  -23.1339   25.6136 H   0  0  0  0  0
  -26.8588  -22.9423   25.7812 H   0  0  0  0  0
  -25.8973  -23.5660   27.1442 H   0  0  0  0  0
  -29.8324  -25.7544   23.5211 H   0  0  0  0  0
  -29.3438  -27.8619   21.7743 H   0  0  0  0  0
  -31.2796  -27.7539   23.3121 H   0  0  0  0  0
  -31.9823  -26.4269   22.3549 H   0  0  0  0  0
  -31.8492  -28.0578   21.6525 H   0  0  0  0  0
  -30.0988  -24.5817   20.8283 H   0  0  0  0  0
  -30.9077  -25.5014   18.1411 H   0  0  0  0  0
  -32.0876  -23.5976   19.1419 H   0  0  0  0  0
  -30.5557  -22.6997   19.2757 H   0  0  0  0  0
  -31.2242  -23.0857   17.6710 H   0  0  0  0  0
  -28.0291  -24.6486   19.7479 H   0  0  0  0  0
  -26.5219  -23.6038   17.5235 H   0  0  0  0  0
  -25.2410  -25.2564   19.6769 H   0  0  0  0  0
  -26.0410  -23.7084   20.1233 H   0  0  0  0  0
  -23.8093  -23.4551   19.6204 H   0  0  0  0  0
  -25.3768  -24.5948   15.9140 H   0  0  0  0  0
  -26.3679  -27.2031   15.2189 H   0  0  0  0  0
  -25.7118  -25.3230   13.6265 H   0  0  0  0  0
  -25.1142  -26.9654   13.1861 H   0  0  0  0  0
  -23.4968  -25.3355   12.9906 H   0  0  0  0  0
  -23.3236  -26.0869   16.6292 H   0  0  0  0  0
  -21.8864  -28.5564   16.1818 H   0  0  0  0  0
  -21.5039  -26.4853   18.3249 H   0  0  0  0  0
  -20.7836  -26.4714   16.5944 H   0  0  0  0  0
  -20.0951  -28.3057   18.8681 H   0  0  0  0  0
  -19.9512  -29.4288   16.7214 H   0  0  0  0  0
  -18.9733  -28.0923   16.0668 H   0  0  0  0  0
  -18.3269  -29.1094   17.3777 H   0  0  0  0  0
  -18.5702  -26.0280   17.5373 H   0  0  0  0  0
  -19.2432  -26.0164   19.1859 H   0  0  0  0  0
  -17.9127  -27.1264   18.7751 H   0  0  0  0  0
  -23.6060  -27.1877   19.0083 H   0  0  0  0  0
  -23.2683  -29.4417   20.7221 H   0  0  0  0  0
  -24.0444  -27.2547   21.5022 H   0  0  0  0  0
  -25.5503  -27.4488   20.5718 H   0  0  0  0  0
  -25.2020  -28.5354   21.9390 H   0  0  0  0  0
  -25.5168  -28.7559   18.0961 H   0  0  0  0  0
  -27.2851  -30.9745   18.6452 H   0  0  0  0  0
  -27.6471  -30.6015   16.0307 H   0  0  0  0  0
  -26.8166  -29.0316   16.4570 H   0  0  0  0  0
  -28.5604  -28.8350   18.2724 H   0  0  0  0  0
  -29.4498  -30.1295   17.3812 H   0  0  0  0  0
  -28.8250  -27.3098   16.5732 H   0  0  0  0  0
  -30.3825  -28.2221   16.5009 H   0  0  0  0  0
  -29.3455  -29.6442   14.7339 H   0  0  0  0  0
  -27.9668  -28.4743   14.7110 H   0  0  0  0  0
  -29.5770  -28.0076   13.0031 H   0  0  0  0  0
  -30.7889  -27.8451   14.1352 H   0  0  0  0  0
  -29.5184  -26.7671   14.1142 H   0  0  0  0  0
  -24.3285  -30.5584   16.7173 H   0  0  0  0  0
  -24.4848  -33.1448   15.4582 H   0  0  0  0  0
  -22.0704  -32.8390   15.0341 H   0  0  0  0  0
  -22.1537  -31.3184   16.0456 H   0  0  0  0  0
  -23.1623  -30.1550   14.4267 H   0  0  0  0  0
  -24.0229  -31.5952   13.7740 H   0  0  0  0  0
  -22.3760  -30.7397   12.1947 H   0  0  0  0  0
  -21.9246  -32.3851   12.8055 H   0  0  0  0  0
  -20.0669  -31.4776   13.8635 H   0  0  0  0  0
  -20.8677  -27.6753   12.7242 H   0  0  0  0  0
  -22.1011  -28.9216   12.5078 H   0  0  0  0  0
  -18.4965  -29.8691   14.1246 H   0  0  0  0  0
  -23.3882  -31.9898   18.5765 H   0  0  0  0  0
  -21.9734  -34.4911   19.2024 H   0  0  0  0  0
  -21.6335  -33.4847   21.3936 H   0  0  0  0  0
  -22.7225  -32.1011   20.9003 H   0  0  0  0  0
  -20.4261  -31.4134   20.7849 H   0  0  0  0  0
  -21.1033  -31.5769   19.1184 H   0  0  0  0  0
  -20.0087  -33.7125   18.8655 H   0  0  0  0  0
  -19.3629  -33.5936   20.5497 H   0  0  0  0  0
  -17.8260  -31.9581   19.8388 H   0  0  0  0  0
  -18.8137  -32.4400   15.9421 H   0  0  0  0  0
  -19.8703  -33.1079   17.1906 H   0  0  0  0  0
  -16.4900  -31.1059   18.2316 H   0  0  0  0  0
  -25.1765  -33.2273   19.4049 H   0  0  0  0  0
  -26.0856  -35.0166   21.5045 H   0  0  0  0  0
  -28.3669  -34.4416   20.4413 H   0  0  0  0  0
  -27.3840  -33.2540   19.4476 H   0  0  0  0  0
  -26.5977  -32.3193   21.6102 H   0  0  0  0  0
  -27.8831  -33.3179   22.4071 H   0  0  0  0  0
  -29.5098  -30.0943   22.0632 H   0  0  0  0  0
  -28.3453  -30.9384   23.0891 H   0  0  0  0  0
  -24.5906  -36.1415   19.1352 H   0  0  0  0  0
  -26.6585  -38.1866   18.4227 H   0  0  0  0  0
  -25.5324  -38.9913   20.3619 H   0  0  0  0  0
  -25.5775  -38.4576   16.2656 H   0  0  0  0  0
  -24.4080  -37.1187   16.7040 H   0  0  0  0  0
  -26.1540  -35.5310   16.6664 H   0  0  0  0  0
  -27.3875  -36.8299   16.3998 H   0  0  0  0  0
  -25.9658  -34.9535   13.2408 H   0  0  0  0  0
  -26.1266  -34.3195   14.8820 H   0  0  0  0  0
  1  2  1  0  0  0
  2  3  1  0  0  0
  2  5  1  0  0  0
  3  4  2  0  0  0
  3  9  1  0  0  0
  5  6  1  0  0  0
  6  7  1  0  0  0
  6  8  1  0  0  0
  9 10  1  0  0  0
 10 11  1  0  0  0
 10 13  1  0  0  0
 11 12  2  0  0  0
 11 15  1  0  0  0
 13 14  1  0  0  0
 15 16  1  0  0  0
 16 17  1  0  0  0
 16 19  1  0  0  0
 17 18  2  0  0  0
 17 21  1  0  0  0
 19 20  1  0  0  0
 21 22  1  0  0  0
 22 23  1  0  0  0
 22 25  1  0  0  0
 23 24  2  0  0  0
 23 29  1  0  0  0
 25 26  1  0  0  0
 26 27  1  0  0  0
 26 28  1  0  0  0
 29 30  1  0  0  0
 30 31  1  0  0  0
 30 33  1  0  0  0
 31 32  2  0  0  0
 31 34  1  0  0  0
 34 35  1  0  0  0
 35 36  1  0  0  0
 35 38  1  0  0  0
 36 37  2  0  0  0
 36 39  1  0  0  0
 39 40  1  0  0  0
 40 41  1  0  0  0
 40 43  1  0  0  0
 41 42  2  0  0  0
 41 45  1  0  0  0
 43 44  1  0  0  0
 45 46  1  0  0  0
 46 47  1  0  0  0
 46 49  1  0  0  0
 47 48  2  0  0  0
 47 51  1  0  0  0
 49 50  1  0  0  0
 51 52  1  0  0  0
 52 53  1  0  0  0
 52 55  1  0  0  0
 53 54  2  0  0  0
 53 59  1  0  0  0
 55 56  1  0  0  0
 56 57  1  0  0  0
 56 58  1  0  0  0
 59 60  1  0  0  0
 60 61  1  0  0  0
 60 63  1  0  0  0
 61 62  2  0  0  0
 61 64  1  0  0  0
 64 65  1  0  0  0
 65 66  1  0  0  0
 65 68  1  0  0  0
 66 67  2  0  0  0
 66 73  1  0  0  0
 68 69  1  0  0  0
 69 70  1  0  0  0
 70 71  1  0  0  0
 71 72  1  0  0  0
 73 74  1  0  0  0
 74 75  1  0  0  0
 74 77  1  0  0  0
 75 76  2  0  0  0
 75 84  1  0  0  0
 77 78  1  0  0  0
 78 79  1  0  0  0
 79 80  1  0  0  0
 80 81  1  0  0  0
 81 82  1  0  0  0
 81 83  2  0  0  0
 84 85  1  0  0  0
 85 86  1  0  0  0
 85 88  1  0  0  0
 86 87  2  0  0  0
 86 95  1  0  0  0
 88 89  1  0  0  0
 89 90  1  0  0  0
 90 91  1  0  0  0
 91 92  1  0  0  0
 92 93  1  0  0  0
 92 94  2  0  0  0
 95 96  1  0  0  0
 96 97  1  0  0  0
 96 99  1  0  0  0
 97 98  2  0  0  0
 97104  1  0  0  0
 99100  1  0  0  0
100101  1  0  0  0
101102  2  0  0  0
101103  1  0  0  0
104105  1  0  0  0
105106  1  0  0  0
105108  1  0  0  0
106107  1  0  0  0
108109  1  0  0  0
109110  1  0  0  0
110111  2  0  0  0
110112  1  0  0  0
106113  2  0  0  0
  1114  1  0  0  0
  1115  1  0  0  0
  1116  1  0  0  0
  2117  1  0  0  0
  5118  1  0  0  0
  5119  1  0  0  0
  6120  1  0  0  0
  7121  1  0  0  0
  7122  1  0  0  0
  7123  1  0  0  0
  8124  1  0  0  0
  8125  1  0  0  0
  8126  1  0  0  0
  9127  1  0  0  0
 10128  1  0  0  0
 13129  1  0  0  0
 13130  1  0  0  0
 14131  1  0  0  0
 15132  1  0  0  0
 16133  1  0  0  0
 19134  1  0  0  0
 19135  1  0  0  0
 20136  1  0  0  0
 21137  1  0  0  0
 22138  1  0  0  0
 25139  1  0  0  0
 25140  1  0  0  0
 26141  1  0  0  0
 27142  1  0  0  0
 27143  1  0  0  0
 27144  1  0  0  0
 28145  1  0  0  0
 28146  1  0  0  0
 28147  1  0  0  0
 29148  1  0  0  0
 30149  1  0  0  0
 33150  1  0  0  0
 33151  1  0  0  0
 33152  1  0  0  0
 34153  1  0  0  0
 35154  1  0  0  0
 38155  1  0  0  0
 38156  1  0  0  0
 38157  1  0  0  0
 39158  1  0  0  0
 40159  1  0  0  0
 43160  1  0  0  0
 43161  1  0  0  0
 44162  1  0  0  0
 45163  1  0  0  0
 46164  1  0  0  0
 49165  1  0  0  0
 49166  1  0  0  0
 50167  1  0  0  0
 51168  1  0  0  0
 52169  1  0  0  0
 55170  1  0  0  0
 55171  1  0  0  0
 56172  1  0  0  0
 57173  1  0  0  0
 57174  1  0  0  0
 57175  1  0  0  0
 58176  1  0  0  0
 58177  1  0  0  0
 58178  1  0  0  0
 59179  1  0  0  0
 60180  1  0  0  0
 63181  1  0  0  0
 63182  1  0  0  0
 63183  1  0  0  0
 64184  1  0  0  0
 65185  1  0  0  0
 68186  1  0  0  0
 68187  1  0  0  0
 69188  1  0  0  0
 69189  1  0  0  0
 70190  1  0  0  0
 70191  1  0  0  0
 71192  1  0  0  0
 71193  1  0  0  0
 72194  1  0  0  0
 72195  1  0  0  0
 72196  1  0  0  0
 73197  1  0  0  0
 74198  1  0  0  0
 77199  1  0  0  0
 77200  1  0  0  0
 78201  1  0  0  0
 78202  1  0  0  0
 79203  1  0  0  0
 79204  1  0  0  0
 80205  1  0  0  0
 82206  1  0  0  0
 82207  1  0  0  0
 83208  1  0  0  0
 84209  1  0  0  0
 85210  1  0  0  0
 88211  1  0  0  0
 88212  1  0  0  0
 89213  1  0  0  0
 89214  1  0  0  0
 90215  1  0  0  0
 90216  1  0  0  0
 91217  1  0  0  0
 93218  1  0  0  0
 93219  1  0  0  0
 94220  1  0  0  0
 95221  1  0  0  0
 96222  1  0  0  0
 99223  1  0  0  0
 99224  1  0  0  0
100225  1  0  0  0
100226  1  0  0  0
103227  1  0  0  0
103228  1  0  0  0
104229  1  0  0  0
105230  1  0  0  0
107231  1  0  0  0
108232  1  0  0  0
108233  1  0  0  0
109234  1  0  0  0
109235  1  0  0  0
112236  1  0  0  0
112237  1  0  0  0
M  END
$$$$
