5edq_ligand
  -I-interpret- 

 41 45  0  0  0  0  0  0  0  0999 V2000
  -51.3930   -1.1170  -24.8240 C   0  0  0  0  0
  -55.5810    1.8310  -25.1950 C   0  0  0  0  0
  -52.1070   -0.5880  -25.9020 C   0  0  0  0  0
  -53.5250    0.4880  -24.4130 C   0  0  0  0  0
  -54.6630    1.4150  -24.2100 C   0  0  0  0  0
  -54.9710    2.0740  -23.0530 C   0  0  0  0  0
  -51.8090   -0.7950  -23.5340 C   0  0  0  0  0
  -50.0310   -0.4510  -21.8250 C   0  0  0  0  0
  -50.8860   -1.4930  -22.5630 C   0  0  0  0  0
  -53.1550    0.1980  -25.6510 N   0  0  0  0  0
  -52.8640   -0.0020  -23.3660 N   0  0  0  0  0
  -56.0480    2.8350  -23.2920 N   0  0  0  0  0
  -56.4080    2.6650  -24.6330 N   0  0  0  0  0
  -51.7040   -0.8790  -27.1960 N   0  0  0  0  0
  -52.3170   -0.3730  -28.3420 C   0  0  0  0  0
  -52.6250    1.0250  -28.6660 C   0  0  0  0  0
  -52.4990    2.2630  -28.0050 C   0  0  0  0  0
  -52.9100    3.4190  -28.6290 C   0  0  0  0  0
  -53.4120    3.3920  -29.9350 C   0  0  0  0  0
  -53.5810    2.1760  -30.5750 C   0  0  0  0  0
  -53.1740    0.9940  -29.9640 C   0  0  0  0  0
  -53.1860   -0.3050  -30.3760 N   0  0  0  0  0
  -52.6480   -1.1010  -29.3700 N   0  0  0  0  0
  -54.2180    2.0570  -32.1770 Cl  0  0  0  0  0
  -50.1940   -2.0250  -24.7290 C   0  0  0  0  0
  -50.0650   -2.3910  -23.3400 O   0  0  0  0  0
  -51.7030   -2.3080  -21.5560 C   0  0  0  0  0
  -55.5960    1.5126  -26.2374 H   0  0  0  0  0
  -54.4368    1.9949  -22.1062 H   0  0  0  0  0
  -49.3407   -0.9599  -21.1523 H   0  0  0  0  0
  -49.4673    0.1347  -22.5511 H   0  0  0  0  0
  -50.6807    0.2088  -21.2499 H   0  0  0  0  0
  -50.9072   -1.5040  -27.3180 H   0  0  0  0  0
  -52.0767    2.3052  -27.0010 H   0  0  0  0  0
  -52.8435    4.3688  -28.0984 H   0  0  0  0  0
  -53.6679    4.3210  -30.4444 H   0  0  0  0  0
  -49.2949   -1.5218  -25.0846 H   0  0  0  0  0
  -50.3234   -2.9083  -25.3544 H   0  0  0  0  0
  -52.3365   -3.0151  -22.0916 H   0  0  0  0  0
  -51.0265   -2.8516  -20.8964 H   0  0  0  0  0
  -52.3254   -1.6353  -20.9659 H   0  0  0  0  0
  3  1  4  0  0  0
  1  7  4  0  0  0
  1 25  1  0  0  0
  5  2  4  0  0  0
  2 13  4  0  0  0
 10  3  4  0  0  0
  3 14  1  0  0  0
  4  5  1  0  0  0
  4 10  4  0  0  0
  4 11  4  0  0  0
  5  6  4  0  0  0
  6 12  4  0  0  0
  7  9  1  0  0  0
  7 11  4  0  0  0
  9  8  1  0  0  0
  9 26  1  0  0  0
  9 27  1  0  0  0
 12 13  4  0  0  0
 14 15  1  0  0  0
 15 16  4  0  0  0
 15 23  4  0  0  0
 16 17  4  0  0  0
 16 21  4  0  0  0
 17 18  4  0  0  0
 18 19  4  0  0  0
 19 20  4  0  0  0
 20 21  4  0  0  0
 20 24  1  0  0  0
 21 22  4  0  0  0
 22 23  4  0  0  0
 25 26  1  0  0  0
  2 28  1  0  0  0
  6 29  1  0  0  0
  8 30  1  0  0  0
  8 31  1  0  0  0
  8 32  1  0  0  0
 14 33  1  0  0  0
 17 34  1  0  0  0
 18 35  1  0  0  0
 19 36  1  0  0  0
 25 37  1  0  0  0
 25 38  1  0  0  0
 27 39  1  0  0  0
 27 40  1  0  0  0
 27 41  1  0  0  0
M  END
$$$$
