4h42_ligand
  -I-interpret- 

 26 27  0  0  0  0  0  0  0  0999 V2000
  -23.5650  -15.9680    9.1480 O   0  0  0  0  0
  -24.3240  -15.1780    9.6200 C   0  0  0  0  0
  -25.0700  -14.6010    8.9600 O   0  0  0  0  0
  -24.4460  -14.9430   11.0440 C   0  0  0  0  0
  -25.6190  -15.7320   11.1910 N   0  0  0  0  0
  -26.4340  -15.7090   12.2300 C   0  0  0  0  0
  -26.2440  -15.0580   13.2400 O   0  0  0  0  0
  -27.5740  -16.6390   12.1050 C   0  0  0  0  0
  -27.9810  -17.3680   13.2430 C   0  0  0  0  0
  -28.1800  -16.8160   10.8600 C   0  0  0  0  0
  -29.2050  -17.7470   10.8010 C   0  0  0  0  0
  -30.0380  -18.0530    9.3970 S   0  0  0  0  0
  -29.6540  -18.4840   11.9250 C   0  0  0  0  0
  -29.0370  -18.2720   13.1610 C   0  0  0  0  0
  -30.6930  -19.3230   11.5740 N   0  0  0  0  0
  -31.0140  -19.1960   10.2630 C   0  0  0  0  0
  -32.0080  -19.9160    9.7120 N   0  0  0  0  0
  -23.0247  -16.3470    9.8452 H   0  0  0  0  0
  -24.4944  -13.9066   11.3782 H   0  0  0  0  0
  -23.5898  -15.1974   11.6687 H   0  0  0  0  0
  -25.8510  -16.3699   10.4297 H   0  0  0  0  0
  -27.4654  -17.2224   14.1922 H   0  0  0  0  0
  -27.8642  -16.2526    9.9819 H   0  0  0  0  0
  -29.3774  -18.8065   14.0479 H   0  0  0  0  0
  -32.2286  -19.8069    8.7221 H   0  0  0  0  0
  -32.5410  -20.5710   10.2841 H   0  0  0  0  0
  1  2  1  0  0  0
  2  3  2  0  0  0
  2  4  1  0  0  0
  4  5  1  0  0  0
  5  6  1  0  0  0
  6  7  2  0  0  0
  6  8  1  0  0  0
  8  9  4  0  0  0
  8 10  4  0  0  0
  9 14  4  0  0  0
 10 11  4  0  0  0
 11 12  4  0  0  0
 11 13  4  0  0  0
 12 16  4  0  0  0
 13 14  4  0  0  0
 13 15  4  0  0  0
 15 16  4  0  0  0
 16 17  1  0  0  0
  1 18  1  0  0  0
  4 19  1  0  0  0
  4 20  1  0  0  0
  5 21  1  0  0  0
  9 22  1  0  0  0
 10 23  1  0  0  0
 14 24  1  0  0  0
 17 25  1  0  0  0
 17 26  1  0  0  0
M  END
$$$$
