6dvo_ligand
  -I-interpret- 

 53 56  0  0  0  0  0  0  0  0999 V2000
  -48.5050  -24.5930  -10.3720 C   0  0  0  0  0
  -47.8270  -28.4870  -10.5490 C   0  0  0  0  0
  -48.0200  -22.2700  -11.0140 C   0  0  0  0  0
  -47.9660  -22.8500   -8.7120 C   0  0  0  0  0
  -46.9190  -21.8890   -8.1840 C   0  0  0  0  0
  -47.3030  -21.0010   -7.1550 C   0  0  0  0  0
  -46.3740  -20.0660   -6.6020 C   0  0  0  0  0
  -45.0310  -19.9980   -7.0550 C   0  0  0  0  0
  -44.0270  -18.9680   -6.4670 C   0  0  0  0  0
  -44.6830  -20.8890   -8.0680 C   0  0  0  0  0
  -47.7210  -25.9660  -10.1630 C   0  0  0  0  0
  -45.5980  -21.8030   -8.6120 C   0  0  0  0  0
  -48.5450  -27.1370  -10.7280 C   0  0  0  0  0
  -47.6300  -28.7700   -9.0440 C   0  0  0  0  0
  -46.8270  -27.6280   -8.4160 C   0  0  0  0  0
  -45.4550  -27.6050   -9.0850 C   0  0  0  0  0
  -45.6200  -27.3200  -10.5950 C   0  0  0  0  0
  -46.3290  -25.9670  -10.8340 C   0  0  0  0  0
  -46.4550  -28.4490  -11.2390 C   0  0  0  0  0
  -47.5300  -26.2690   -8.6430 C   0  0  0  0  0
  -48.5260  -21.0720   -6.7470 F   0  0  0  0  0
  -47.6830  -23.3630  -10.0710 N   0  3  0  0  0
  -44.4290  -17.6180   -6.0630 N   0  0  0  0  0
  -43.5850  -16.6950   -5.5620 O   0  0  0  0  0
  -42.8520  -19.2350   -6.3590 O   0  0  0  0  0
  -49.3485  -24.5945   -9.6816 H   0  0  0  0  0
  -48.7908  -24.5411  -11.4226 H   0  0  0  0  0
  -48.4340  -29.2736  -10.9972 H   0  0  0  0  0
  -49.0734  -22.0113  -10.9069 H   0  0  0  0  0
  -47.4058  -21.3975  -10.7913 H   0  0  0  0  0
  -47.8277  -22.6003  -12.0348 H   0  0  0  0  0
  -48.9085  -22.3049   -8.7624 H   0  0  0  0  0
  -47.9846  -23.7082   -8.0403 H   0  0  0  0  0
  -46.7049  -19.3895   -5.8140 H   0  0  0  0  0
  -43.6629  -20.8755   -8.4518 H   0  0  0  0  0
  -45.2600  -22.4732   -9.4024 H   0  0  0  0  0
  -49.4909  -27.1799  -10.1880 H   0  0  0  0  0
  -48.6910  -26.9675  -11.7948 H   0  0  0  0  0
  -47.0908  -29.7087   -8.9165 H   0  0  0  0  0
  -48.6019  -28.8443   -8.5562 H   0  0  0  0  0
  -46.7403  -27.7874   -7.3412 H   0  0  0  0  0
  -44.9695  -28.5714   -8.9495 H   0  0  0  0  0
  -44.8445  -26.8231   -8.6332 H   0  0  0  0  0
  -44.6285  -27.2754  -11.0457 H   0  0  0  0  0
  -45.7256  -25.1678  -10.4036 H   0  0  0  0  0
  -46.4504  -25.8130  -11.9062 H   0  0  0  0  0
  -46.5778  -28.2616  -12.3057 H   0  0  0  0  0
  -45.9479  -29.4060  -11.1162 H   0  0  0  0  0
  -48.5131  -26.3077   -8.1738 H   0  0  0  0  0
  -46.9090  -25.4841   -8.2112 H   0  0  0  0  0
  -46.7040  -23.6367  -10.1552 H   0  0  0  0  0
  -45.4104  -17.3606   -6.1678 H   0  0  0  0  0
  -44.0707  -15.8894   -5.3703 H   0  0  0  0  0
 11  1  1  0  0  0
  1 22  1  0  0  0
 13  2  1  0  0  0
  2 14  1  0  0  0
  2 19  1  0  0  0
 22  3  1  0  0  0
  4  5  1  0  0  0
 22  4  1  0  0  0
  5  6  4  0  0  0
  5 12  4  0  0  0
  6  7  4  0  0  0
  6 21  1  0  0  0
  7  8  4  0  0  0
  8  9  1  0  0  0
 10  8  4  0  0  0
  9 23  1  0  0  0
  9 25  2  0  0  0
 12 10  4  0  0  0
 11 13  1  0  0  0
 11 18  1  0  0  0
 11 20  1  0  0  0
 14 15  1  0  0  0
 15 16  1  0  0  0
 15 20  1  0  0  0
 16 17  1  0  0  0
 17 18  1  0  0  0
 17 19  1  0  0  0
 23 24  1  0  0  0
  1 26  1  0  0  0
  1 27  1  0  0  0
  2 28  1  0  0  0
  3 29  1  0  0  0
  3 30  1  0  0  0
  3 31  1  0  0  0
  4 32  1  0  0  0
  4 33  1  0  0  0
  7 34  1  0  0  0
 10 35  1  0  0  0
 12 36  1  0  0  0
 13 37  1  0  0  0
 13 38  1  0  0  0
 14 39  1  0  0  0
 14 40  1  0  0  0
 15 41  1  0  0  0
 16 42  1  0  0  0
 16 43  1  0  0  0
 17 44  1  0  0  0
 18 45  1  0  0  0
 18 46  1  0  0  0
 19 47  1  0  0  0
 19 48  1  0  0  0
 20 49  1  0  0  0
 20 50  1  0  0  0
 22 51  1  0  0  0
 23 52  1  0  0  0
 24 53  1  0  0  0
M  END
$$$$
