4ek9_ligand
  -I-interpret- 

 40 42  0  0  0  0  0  0  0  0999 V2000
   45.8240   53.2690    9.2590 C   0  0  0  0  0
   44.6520   52.6310    9.8840 N   0  3  0  0  0
   43.5190   52.8210    8.9750 C   0  0  0  0  0
   44.9520   51.2040   10.1340 C   0  0  0  0  0
   43.9850   50.5480   11.1450 C   0  0  0  0  0
   44.4600   49.1890   11.2980 O   0  0  0  0  0
   44.0440   48.7730   12.6180 C   0  0  0  0  0
   44.7650   47.5500   13.0770 N   0  0  0  0  0
   44.2130   46.3200   13.0790 C   0  0  0  0  0
   42.9870   45.8890   12.7050 N   0  0  0  0  0
   42.6700   44.5130   12.8120 C   0  0  0  0  0
   43.6350   43.6230   13.3160 N   0  0  0  0  0
   44.8420   44.1290   13.6740 C   0  0  0  0  0
   45.8060   43.3100   14.1320 N   0  0  0  0  0
   45.1430   45.4530   13.5550 C   0  0  0  0  0
   46.2660   46.1750   13.8310 N   0  0  0  0  0
   46.0300   47.4620   13.5340 C   0  0  0  0  0
   44.4390   49.9320   13.4580 C   0  0  0  0  0
   43.6080   49.8450   14.6440 O   0  0  0  0  0
   44.1030   51.1420   12.5600 C   0  0  0  0  0
   42.8040   51.6030   12.9290 O   0  0  0  0  0
   46.6809   53.1859    9.9275 H   0  0  0  0  0
   46.0476   52.7704    8.3159 H   0  0  0  0  0
   45.6073   54.3209    9.0729 H   0  0  0  0  0
   44.4203   53.0453   10.7868 H   0  0  0  0  0
   43.7420   52.3536    8.0159 H   0  0  0  0  0
   42.6286   52.3630    9.4056 H   0  0  0  0  0
   43.3464   53.8874    8.8295 H   0  0  0  0  0
   45.9570   51.1456   10.5519 H   0  0  0  0  0
   44.8502   50.6738    9.1871 H   0  0  0  0  0
   42.9663   50.6748   10.7786 H   0  0  0  0  0
   42.9848   48.5190   12.6589 H   0  0  0  0  0
   41.6892   44.1479   12.5072 H   0  0  0  0  0
   45.6296   42.3084   14.2102 H   0  0  0  0  0
   46.7133   43.6906   14.4011 H   0  0  0  0  0
   46.7339   48.2871   13.6426 H   0  0  0  0  0
   45.4781   49.9878   13.7825 H   0  0  0  0  0
   43.8166   50.5733   15.2336 H   0  0  0  0  0
   44.8343   51.9467   12.6352 H   0  0  0  0  0
   42.5672   52.3579   12.3853 H   0  0  0  0  0
  1  2  1  0  0  0
  2  3  1  0  0  0
  2  4  1  0  0  0
  4  5  1  0  0  0
  5  6  1  0  0  0
  5 20  1  0  0  0
  6  7  1  0  0  0
  7  8  1  0  0  0
  7 18  1  0  0  0
  8  9  4  0  0  0
  8 17  4  0  0  0
  9 10  4  0  0  0
  9 15  4  0  0  0
 10 11  4  0  0  0
 11 12  4  0  0  0
 12 13  4  0  0  0
 13 14  1  0  0  0
 13 15  4  0  0  0
 15 16  4  0  0  0
 16 17  4  0  0  0
 18 19  1  0  0  0
 18 20  1  0  0  0
 20 21  1  0  0  0
  1 22  1  0  0  0
  1 23  1  0  0  0
  1 24  1  0  0  0
  2 25  1  0  0  0
  3 26  1  0  0  0
  3 27  1  0  0  0
  3 28  1  0  0  0
  4 29  1  0  0  0
  4 30  1  0  0  0
  5 31  1  0  0  0
  7 32  1  0  0  0
 11 33  1  0  0  0
 14 34  1  0  0  0
 14 35  1  0  0  0
 17 36  1  0  0  0
 18 37  1  0  0  0
 19 38  1  0  0  0
 20 39  1  0  0  0
 21 40  1  0  0  0
M  END
$$$$
