1x7a_ligand
  -I-interpret- 

 54 58  0  0  0  0  0  0  0  0999 V2000
   68.2180   21.8850   55.0540 C   0  0  0  0  0
   69.5750   22.0490   55.2950 C   0  0  0  0  0
   70.4960   21.3420   54.4830 C   0  0  0  0  0
   70.1080   20.4600   53.4330 C   0  0  0  0  0
   68.7010   20.2670   53.2810 C   0  0  0  0  0
   67.7790   20.9860   54.0740 C   0  0  0  0  0
   66.3170   20.7180   53.9460 C   0  0  0  0  0
   65.9870   19.6300   53.2470 N   0  0  0  0  0
   65.3980   21.5270   54.5370 N   0  0  0  0  0
   71.0810   19.9440   52.5050 N   0  0  0  0  0
   71.2840   20.3780   51.2430 N   0  0  0  0  0
   72.6570   17.0990   53.9260 N   0  0  0  0  0
   72.5350   16.3800   55.1190 C   0  0  0  0  0
   72.0670   15.0700   55.0340 C   0  0  0  0  0
   72.0870   14.2370   56.1910 C   0  0  0  0  0
   72.5610   14.7690   57.4250 C   0  0  0  0  0
   72.2500   14.1690   58.5750 N   0  0  0  0  0
   73.0410   16.1010   57.5090 C   0  0  0  0  0
   73.0080   16.9030   56.3550 C   0  0  0  0  0
   72.8870   14.1850   59.7860 C   0  0  0  0  0
   71.0500   13.5970   58.7040 C   0  0  0  0  0
   71.9570   13.4970   60.7320 C   0  0  0  0  0
   70.8650   13.2190   59.9900 N   0  0  0  0  0
   71.9350   18.9050   52.6960 C   0  0  0  0  0
   72.6850   18.6660   51.5070 C   0  0  0  0  0
   72.1190   18.2610   53.8770 C   0  0  0  0  0
   72.2150   19.6670   50.5860 C   0  0  0  0  0
   71.7160   18.8010   54.9010 O   0  0  0  0  0
   72.5540   19.8830   49.1190 C   0  0  0  0  0
   71.8410   20.7270   48.4680 F   0  0  0  0  0
   72.5910   18.8010   48.4440 F   0  0  0  0  0
   73.6910   20.3970   49.1050 F   0  0  0  0  0
   72.3030   13.1760   62.0600 C   0  0  0  0  0
   73.5740   13.5360   62.4820 C   0  0  0  0  0
   74.4560   14.2390   61.5940 C   0  0  0  0  0
   74.1330   14.5870   60.2480 C   0  0  0  0  0
   71.6510   14.6950   53.8540 F   0  0  0  0  0
   67.4912   22.4581   55.6297 H   0  0  0  0  0
   69.9242   22.7068   56.0909 H   0  0  0  0  0
   71.5605   21.4804   54.6719 H   0  0  0  0  0
   68.3333   19.5546   52.5425 H   0  0  0  0  0
   65.0062   19.3726   53.1369 H   0  0  0  0  0
   64.4039   21.3134   54.4567 H   0  0  0  0  0
   65.7027   22.3475   55.0607 H   0  0  0  0  0
   73.1558   16.7129   53.1244 H   0  0  0  0  0
   71.7434   13.2043   56.1322 H   0  0  0  0  0
   73.4275   16.4947   58.4491 H   0  0  0  0  0
   73.3485   17.9371   56.4075 H   0  0  0  0  0
   70.3304   13.4563   57.8975 H   0  0  0  0  0
   73.4414   17.9002   51.3350 H   0  0  0  0  0
   71.6040   12.6683   62.7246 H   0  0  0  0  0
   73.9040   13.2847   63.4900 H   0  0  0  0  0
   75.4370   14.5259   61.9726 H   0  0  0  0  0
   74.8282   15.1395   59.6159 H   0  0  0  0  0
  2  1  4  0  0  0
  6  1  4  0  0  0
  3  2  4  0  0  0
  4  3  4  0  0  0
  4  5  4  0  0  0
 10  4  1  0  0  0
  5  6  4  0  0  0
  6  7  1  0  0  0
  7  8  2  0  0  0
  7  9  1  0  0  0
 10 11  4  0  0  0
 24 10  4  0  0  0
 11 27  4  0  0  0
 12 13  1  0  0  0
 26 12  1  0  0  0
 13 14  4  0  0  0
 13 19  4  0  0  0
 14 15  4  0  0  0
 14 37  1  0  0  0
 15 16  4  0  0  0
 16 17  1  0  0  0
 18 16  4  0  0  0
 17 20  4  0  0  0
 17 21  4  0  0  0
 19 18  4  0  0  0
 20 22  4  0  0  0
 20 36  4  0  0  0
 21 23  4  0  0  0
 23 22  4  0  0  0
 22 33  4  0  0  0
 24 25  4  0  0  0
 24 26  1  0  0  0
 25 27  4  0  0  0
 26 28  2  0  0  0
 27 29  1  0  0  0
 29 30  1  0  0  0
 29 31  1  0  0  0
 29 32  1  0  0  0
 33 34  4  0  0  0
 34 35  4  0  0  0
 35 36  4  0  0  0
  1 38  1  0  0  0
  2 39  1  0  0  0
  3 40  1  0  0  0
  5 41  1  0  0  0
  8 42  1  0  0  0
  9 43  1  0  0  0
  9 44  1  0  0  0
 12 45  1  0  0  0
 15 46  1  0  0  0
 18 47  1  0  0  0
 19 48  1  0  0  0
 21 49  1  0  0  0
 25 50  1  0  0  0
 33 51  1  0  0  0
 34 52  1  0  0  0
 35 53  1  0  0  0
 36 54  1  0  0  0
M  END
$$$$
