6jjn_ligand
  -I-interpret- 

129133  0  0  0  0  0  0  0  0999 V2000
  110.5690  153.8350  -38.6230 C   0  0  0  0  0
  111.4330  153.0440  -37.6370 C   0  0  0  0  0
  110.6600  151.8230  -37.1300 C   0  0  0  0  0
  109.3080  152.2480  -36.5670 C   0  0  0  0  0
  108.5350  153.0180  -37.6310 C   0  0  0  0  0
  107.1910  153.5310  -37.1580 C   0  0  0  0  0
  113.8990  152.9090  -37.7270 C   0  0  0  0  0
  115.0770  152.4100  -38.5100 C   0  0  0  0  0
  112.6930  152.6420  -38.2490 N   0  0  0  0  0
  111.4100  151.1760  -36.1110 O   0  0  0  0  0
  108.5590  151.1140  -36.1430 O   0  0  0  0  0
  109.3060  154.1650  -38.0100 O   0  0  0  0  0
  107.2980  154.2840  -35.9570 O   0  0  0  0  0
  114.0330  153.5200  -36.6700 O   0  0  0  0  0
  112.0120  149.9580  -36.5990 C   0  0  0  0  0
  112.9640  149.5010  -35.4820 C   0  0  0  0  0
  112.1460  149.0510  -34.2640 C   0  0  0  0  0
  111.1940  147.9130  -34.6520 C   0  0  0  0  0
  110.2920  148.3910  -35.7930 C   0  0  0  0  0
  109.4020  147.2890  -36.3590 C   0  0  0  0  0
  113.9010  150.5040  -35.1240 O   0  0  0  0  0
  112.9910  148.5660  -33.2420 O   0  0  0  0  0
  111.9410  146.7710  -35.0520 O   0  0  0  0  0
  111.0650  148.9260  -36.9040 O   0  0  0  0  0
  108.1900  151.2610  -34.7510 C   0  0  0  0  0
  106.9300  150.4020  -34.5020 C   0  0  0  0  0
  106.5050  150.4770  -33.0270 C   0  0  0  0  0
  107.7070  150.1330  -32.1100 C   0  0  0  0  0
  108.8670  151.0560  -32.4780 C   0  0  0  0  0
  110.1490  150.8300  -31.6790 C   0  0  0  0  0
  105.8420  150.8470  -35.2930 O   0  0  0  0  0
  105.4120  149.5820  -32.7170 O   0  0  0  0  0
  108.0900  148.7750  -32.2850 O   0  0  0  0  0
  109.2210  150.8530  -33.8560 O   0  0  0  0  0
  110.3210  151.8530  -30.7100 O   0  0  0  0  0
  104.6080  150.9030  -31.0830 C   0  0  0  0  0
  104.1790  149.8060  -32.1450 C   0  0  0  0  0
  103.3830  148.6570  -31.5180 C   0  0  0  0  0
  102.7900  147.6340  -32.4870 C   0  0  0  0  0
  102.6320  148.2140  -33.8920 C   0  0  0  0  0
  102.3520  149.7370  -33.8610 C   0  0  0  0  0
  102.2910  150.3030  -35.3010 C   0  0  0  0  0
  101.8060  151.7680  -35.2700 C   0  0  0  0  0
  101.8910  152.3930  -36.6570 C   0  0  0  0  0
  101.6910  146.7160  -35.6510 C   0  0  0  0  0
  100.3890  146.1550  -36.2160 C   0  0  0  0  0
  101.5370  147.5520  -34.5960 N   0  0  0  0  0
  104.2970  152.0650  -31.4640 O   0  0  0  0  0
  105.1860  150.5250  -30.0320 O   0  0  0  0  0
  103.6110  146.4570  -32.5950 O   0  0  0  0  0
  103.3850  150.4610  -33.2020 O   0  0  0  0  0
  103.5470  150.1420  -35.9540 O   0  0  0  0  0
  100.4880  151.8190  -34.7170 O   0  0  0  0  0
  100.9730  151.7310  -37.5250 O   0  0  0  0  0
  102.7810  146.4150  -36.1330 O   0  0  0  0  0
  111.0500  156.5620  -42.5030 C   0  0  0  0  0
  111.7120  156.0770  -41.2060 C   0  0  0  0  0
  110.6640  155.4580  -40.2830 C   0  0  0  0  0
  109.5250  156.4800  -40.0150 C   0  0  0  0  0
  108.9960  157.0270  -41.3500 C   0  0  0  0  0
  108.0050  158.1840  -41.2180 C   0  0  0  0  0
  111.9850  157.1390  -43.3720 O   0  0  0  0  0
  112.6970  155.0880  -41.4510 O   0  0  0  0  0
  111.2310  155.0440  -39.0340 O   0  0  0  0  0
  109.9780  157.5440  -39.1940 O   0  0  0  0  0
  110.0560  157.5240  -42.1930 O   0  0  0  0  0
  107.3260  158.4180  -42.4430 O   0  0  0  0  0
  110.4019  153.2140  -39.5030 H   0  0  0  0  0
  111.6694  153.6875  -36.7896 H   0  0  0  0  0
  110.4991  151.1385  -37.9629 H   0  0  0  0  0
  109.4731  152.8893  -35.7012 H   0  0  0  0  0
  108.3616  152.3212  -38.4511 H   0  0  0  0  0
  106.5484  152.6721  -36.9644 H   0  0  0  0  0
  106.7841  154.1818  -37.9320 H   0  0  0  0  0
  115.7071  153.2532  -38.7930 H   0  0  0  0  0
  115.6512  151.7154  -37.8970 H   0  0  0  0  0
  114.7257  151.9001  -39.4071 H   0  0  0  0  0
  112.6553  152.1260  -39.1281 H   0  0  0  0  0
  106.4268  154.5891  -35.6932 H   0  0  0  0  0
  112.5203  150.1504  -37.5438 H   0  0  0  0  0
  113.5456  148.6600  -35.8597 H   0  0  0  0  0
  111.5873  149.9177  -33.9108 H   0  0  0  0  0
  110.5782  147.6352  -33.7966 H   0  0  0  0  0
  109.6698  149.1640  -35.3420 H   0  0  0  0  0
  110.0255  146.4837  -36.7473 H   0  0  0  0  0
  108.7575  146.9027  -35.5693 H   0  0  0  0  0
  108.7892  147.6959  -37.1634 H   0  0  0  0  0
  114.4711  150.1733  -34.4260 H   0  0  0  0  0
  112.4587  148.2909  -32.4919 H   0  0  0  0  0
  111.3380  146.0639  -35.2930 H   0  0  0  0  0
  108.0074  152.3181  -34.5579 H   0  0  0  0  0
  107.1855  149.3769  -34.7701 H   0  0  0  0  0
  106.1653  151.4975  -32.8503 H   0  0  0  0  0
  107.4297  150.2740  -31.0653 H   0  0  0  0  0
  108.5008  152.0591  -32.2593 H   0  0  0  0  0
  110.9981  150.8445  -32.3623 H   0  0  0  0  0
  110.0827  149.8687  -31.1696 H   0  0  0  0  0
  105.0748  150.2969  -35.1184 H   0  0  0  0  0
  108.8341  148.5771  -31.7117 H   0  0  0  0  0
  111.1304  151.6941  -30.2188 H   0  0  0  0  0
  102.5367  149.1175  -31.0082 H   0  0  0  0  0
  104.0857  148.1084  -30.8908 H   0  0  0  0  0
  101.8154  147.3709  -32.0760 H   0  0  0  0  0
  103.5740  148.0426  -34.4129 H   0  0  0  0  0
  101.4072  149.8558  -33.3305 H   0  0  0  0  0
  101.5657  149.7404  -35.8888 H   0  0  0  0  0
  102.4569  152.3619  -34.6283 H   0  0  0  0  0
  102.9040  152.2869  -37.0453 H   0  0  0  0  0
  101.6404  153.4521  -36.5976 H   0  0  0  0  0
  100.2906  146.4505  -37.2605 H   0  0  0  0  0
  100.4022  145.0674  -36.1445 H   0  0  0  0  0
   99.5476  146.5478  -35.6451 H   0  0  0  0  0
  100.5875  147.7321  -34.2698 H   0  0  0  0  0
  103.8624  152.0148  -32.3185 H   0  0  0  0  0
  103.2062  145.8412  -33.2103 H   0  0  0  0  0
  103.4916  150.4976  -36.8440 H   0  0  0  0  0
  100.1855  152.7299  -34.6973 H   0  0  0  0  0
  101.0234  152.1219  -38.4004 H   0  0  0  0  0
  110.6064  155.6979  -42.9977 H   0  0  0  0  0
  112.1796  156.9485  -40.7479 H   0  0  0  0  0
  110.2666  154.5756  -40.7845 H   0  0  0  0  0
  108.7186  155.9695  -39.4885 H   0  0  0  0  0
  108.4949  156.1604  -41.7812 H   0  0  0  0  0
  108.5550  159.0850  -40.9465 H   0  0  0  0  0
  107.2698  157.9281  -40.4551 H   0  0  0  0  0
  111.5400  157.4310  -44.1710 H   0  0  0  0  0
  113.0858  154.8119  -40.6178 H   0  0  0  0  0
  109.2572  158.1600  -39.0438 H   0  0  0  0  0
  106.7116  159.1474  -42.3328 H   0  0  0  0  0
  1  2  1  0  0  0
  1 12  1  0  0  0
 64  1  1  0  0  0
  2  3  1  0  0  0
  2  9  1  0  0  0
  3  4  1  0  0  0
  3 10  1  0  0  0
  5  4  1  0  0  0
  4 11  1  0  0  0
  5  6  1  0  0  0
 12  5  1  0  0  0
  6 13  1  0  0  0
  7  8  1  0  0  0
  9  7  1  0  0  0
  7 14  2  0  0  0
 10 15  1  0  0  0
 11 25  1  0  0  0
 15 16  1  0  0  0
 15 24  1  0  0  0
 16 17  1  0  0  0
 16 21  1  0  0  0
 17 18  1  0  0  0
 17 22  1  0  0  0
 19 18  1  0  0  0
 18 23  1  0  0  0
 19 20  1  0  0  0
 24 19  1  0  0  0
 25 26  1  0  0  0
 25 34  1  0  0  0
 26 27  1  0  0  0
 26 31  1  0  0  0
 27 28  1  0  0  0
 27 32  1  0  0  0
 29 28  1  0  0  0
 28 33  1  0  0  0
 29 30  1  0  0  0
 34 29  1  0  0  0
 30 35  1  0  0  0
 32 37  1  0  0  0
 37 36  1  0  0  0
 36 48  1  0  0  0
 36 49  2  0  0  0
 37 38  1  0  0  0
 37 51  1  0  0  0
 38 39  1  0  0  0
 39 40  1  0  0  0
 39 50  1  0  0  0
 41 40  1  0  0  0
 40 47  1  0  0  0
 41 42  1  0  0  0
 51 41  1  0  0  0
 42 43  1  0  0  0
 42 52  1  0  0  0
 43 44  1  0  0  0
 43 53  1  0  0  0
 44 54  1  0  0  0
 45 46  1  0  0  0
 47 45  1  0  0  0
 45 55  2  0  0  0
 57 56  1  0  0  0
 56 62  1  0  0  0
 56 66  1  0  0  0
 58 57  1  0  0  0
 57 63  1  0  0  0
 58 59  1  0  0  0
 58 64  1  0  0  0
 59 60  1  0  0  0
 59 65  1  0  0  0
 60 61  1  0  0  0
 60 66  1  0  0  0
 61 67  1  0  0  0
  1 68  1  0  0  0
  2 69  1  0  0  0
  3 70  1  0  0  0
  4 71  1  0  0  0
  5 72  1  0  0  0
  6 73  1  0  0  0
  6 74  1  0  0  0
  8 75  1  0  0  0
  8 76  1  0  0  0
  8 77  1  0  0  0
  9 78  1  0  0  0
 13 79  1  0  0  0
 15 80  1  0  0  0
 16 81  1  0  0  0
 17 82  1  0  0  0
 18 83  1  0  0  0
 19 84  1  0  0  0
 20 85  1  0  0  0
 20 86  1  0  0  0
 20 87  1  0  0  0
 21 88  1  0  0  0
 22 89  1  0  0  0
 23 90  1  0  0  0
 25 91  1  0  0  0
 26 92  1  0  0  0
 27 93  1  0  0  0
 28 94  1  0  0  0
 29 95  1  0  0  0
 30 96  1  0  0  0
 30 97  1  0  0  0
 31 98  1  0  0  0
 33 99  1  0  0  0
 35100  1  0  0  0
 38101  1  0  0  0
 38102  1  0  0  0
 39103  1  0  0  0
 40104  1  0  0  0
 41105  1  0  0  0
 42106  1  0  0  0
 43107  1  0  0  0
 44108  1  0  0  0
 44109  1  0  0  0
 46110  1  0  0  0
 46111  1  0  0  0
 46112  1  0  0  0
 47113  1  0  0  0
 48114  1  0  0  0
 50115  1  0  0  0
 52116  1  0  0  0
 53117  1  0  0  0
 54118  1  0  0  0
 56119  1  0  0  0
 57120  1  0  0  0
 58121  1  0  0  0
 59122  1  0  0  0
 60123  1  0  0  0
 61124  1  0  0  0
 61125  1  0  0  0
 62126  1  0  0  0
 63127  1  0  0  0
 65128  1  0  0  0
 67129  1  0  0  0
M  END
$$$$
