### 
### Created by X-TOOL on Mon Aug  2 16:17:03 2021
### 

@<TRIPOS>MOLECULE
6d08_ligand
  146   146     1     0     0
SMALL
GAST_HUCK


@<TRIPOS>ATOM
      1 N          -5.8850  -36.5680    2.6960 N.4       1 THR         0.2377
      2 CA         -6.6130  -35.3060    2.7320 C.3       1 THR         0.0621
      3 C          -6.1690  -34.3920    1.5960 C.2       1 THR         0.2264
      4 O          -5.2140  -34.6950    0.8820 O.2       1 THR        -0.3907
      5 CB         -6.4180  -34.5770    4.0750 C.3       1 THR        -0.0040
      6 N          -6.8680  -33.2720    1.4370 N.am      1 THR        -0.2610
      7 CA         -6.5500  -32.3350    0.3680 C.3       1 THR         0.1311
      8 C          -5.2530  -31.5990    0.6840 C.2       1 THR         0.2039
      9 O          -5.1150  -30.9910    1.7500 O.2       1 THR        -0.3944
     10 CB         -7.6940  -31.3410    0.1810 C.3       1 THR        -0.0122
     11 CG         -7.8870  -30.8650   -1.2480 C.3       1 THR        -0.0440
     12 CD         -9.1450  -30.0210   -1.3720 C.3       1 THR        -0.0124
     13 CE         -9.6550  -30.0030   -2.8030 C.3       1 THR        -0.0354
     14 NZ        -10.9010  -29.1990   -2.9390 N.4       1 THR         0.2185
     15 N          -4.3000  -31.6610   -0.2420 N.am      1 THR        -0.2636
     16 CA         -3.0230  -30.9670   -0.0970 C.3       1 THR         0.1330
     17 C          -3.1710  -29.5910   -0.7330 C.2       1 THR         0.2041
     18 O          -3.1820  -29.4580   -1.9590 O.2       1 THR        -0.3944
     19 CB         -1.8970  -31.7690   -0.7390 C.3       1 THR         0.0045
     20 CG         -1.8550  -33.2320   -0.3160 C.3       1 THR         0.0412
     21 CD         -1.5810  -33.4130    1.1650 C.2       1 THR         0.1737
     22 OE1        -0.5200  -33.0390    1.6630 O.2       1 THR        -0.3973
     23 NE2        -2.5390  -33.9930    1.8770 N.am      1 THR        -0.3009
     24 N          -3.3000  -28.5630    0.1010 N.am      1 THR        -0.2613
     25 CA         -3.4890  -27.1970   -0.3610 C.3       1 THR         0.1565
     26 C          -2.4070  -26.3060    0.2320 C.2       1 THR         0.2065
     27 O          -1.6800  -26.6970    1.1490 O.2       1 THR        -0.3943
     28 CB         -4.8750  -26.6500    0.0190 C.3       1 THR         0.0924
     29 OG1        -4.9470  -26.4720    1.4390 O.3       1 THR        -0.3874
     30 CG2        -5.9760  -27.6040   -0.4210 C.3       1 THR        -0.0346
     31 N          -2.3070  -25.0920   -0.3020 N.am      1 THR        -0.2639
     32 CA         -1.3990  -24.1000    0.2500 C.3       1 THR         0.1282
     33 C          -1.8250  -22.7230   -0.2240 C.2       1 THR         0.2036
     34 O          -2.3790  -22.5700   -1.3150 O.2       1 THR        -0.3944
     35 CB          0.0570  -24.3580   -0.1480 C.3       1 THR        -0.0244
     36 N          -1.5530  -21.7270    0.6100 N.am      1 THR        -0.2637
     37 CA         -1.8110  -20.3400    0.2630 C.3       1 THR         0.1311
     38 C          -0.6960  -19.8350   -0.6450 C.2       1 THR         0.2039
     39 O           0.4700  -20.1860   -0.4610 O.2       1 THR        -0.3944
     40 CB         -1.9150  -19.4840    1.5270 C.3       1 THR        -0.0092
     41 CG         -2.3690  -18.0570    1.2920 C.3       1 THR        -0.0156
     42 CD         -2.6200  -17.3420    2.6120 C.3       1 THR         0.0627
     43 NE         -3.0440  -15.9600    2.4140 N.pl3     1 THR        -0.2723
     44 CZ         -2.2120  -14.9260    2.3550 C.cat     1 THR         0.2882
     45 NH1        -2.6840  -13.7010    2.1710 N.pl3     1 THR        -0.2849
     46 NH2        -0.9050  -15.1170    2.4810 N.pl3     1 THR        -0.2849
     47 N          -1.0540  -19.0190   -1.6300 N.am      1 THR        -0.2637
     48 CA         -0.0480  -18.4900   -2.5980 C.3       1 THR         0.1309
     49 C           0.1000  -17.0060   -2.4200 C.2       1 THR         0.2034
     50 O          -0.8590  -16.2540   -2.5900 O.2       1 THR        -0.3944
     51 CB         -0.4620  -18.8240   -4.0300 C.3       1 THR        -0.0122
     52 CG          0.5460  -18.3000   -5.0470 C.3       1 THR        -0.0440
     53 CD          0.0130  -18.4090   -6.4750 C.3       1 THR        -0.0124
     54 CE         -0.1330  -19.8590   -6.9200 C.3       1 THR        -0.0323
     55 NZ         -0.5600  -19.9830   -8.3040 N.4       1 THR         0.2391
     56 CH         -0.7640  -21.3900   -8.5920 C.3       1 THR         0.0001
     57 C1         -1.0360  -21.7060  -10.0470 C.ar      1 THR         0.0013
     58 C2         -1.7120  -22.8770  -10.3740 C.ar      1 THR        -0.0553
     59 C3         -1.9710  -23.1890  -11.7030 C.ar      1 THR        -0.0684
     60 C4         -1.5530  -22.3300  -12.7130 C.ar      1 THR        -0.0687
     61 C5         -0.8750  -21.1600  -12.3880 C.ar      1 THR        -0.0684
     62 C6         -0.6160  -20.8480  -11.0570 C.ar      1 THR        -0.0553
     63 N           1.3070  -16.5730   -2.0680 N.am      1 THR        -0.2672
     64 CA          1.5960  -15.1510   -1.9100 C.3       1 THR         0.1173
     65 C           2.1070  -14.5500   -3.2140 C.2       1 THR         0.0623
     66 O           2.6380  -15.2590   -4.0670 O.co2     1 THR        -0.5665
     67 CB          2.6180  -14.9260   -0.7940 C.3       1 THR         0.0789
     68 OG          2.0390  -15.1440    0.4810 O.3       1 THR        -0.3910
     69 OXT         1.9970  -13.3450   -3.4360 O.co2     1 THR        -0.5665
     70 H1         -6.1938  -37.1558    3.4544 H         1 THR         0.2015
     71 H2         -4.8975  -36.3891    2.7903 H         1 THR         0.2015
     72 H3         -6.0602  -37.0321    1.8185 H         1 THR         0.2015
     73 H4         -7.6837  -35.5251    2.6076 H         1 THR         0.1095
     74 H5         -6.9807  -33.6319    4.0642 H         1 THR         0.0310
     75 H6         -5.3491  -34.3655    4.2256 H         1 THR         0.0310
     76 H7         -6.7850  -35.2129    4.8941 H         1 THR         0.0310
     77 H8         -7.6232  -33.0700    2.0606 H         1 THR         0.1884
     78 H9         -6.4166  -32.8983   -0.5673 H         1 THR         0.0800
     79 H10        -7.4924  -30.4625    0.8115 H         1 THR         0.0312
     80 H11        -8.6258  -31.8234    0.5113 H         1 THR         0.0312
     81 H12        -7.9727  -31.7389   -1.9105 H         1 THR         0.0269
     82 H13        -7.0174  -30.2617   -1.5475 H         1 THR         0.0269
     83 H14        -8.9186  -28.9911   -1.0587 H         1 THR         0.0317
     84 H15        -9.9243  -30.4401   -0.7185 H         1 THR         0.0317
     85 H16        -9.8621  -31.0359   -3.1196 H         1 THR         0.0813
     86 H17        -8.8795  -29.5692   -3.4514 H         1 THR         0.0813
     87 H18       -11.2060  -29.2119   -3.8997 H         1 THR         0.1994
     88 H19       -10.7200  -28.2484   -2.6568 H         1 THR         0.1994
     89 H20       -11.6204  -29.5924   -2.3528 H         1 THR         0.1994
     90 H21        -4.4637  -32.2021   -1.0669 H         1 THR         0.1883
     91 H22        -2.7963  -30.8450    0.9724 H         1 THR         0.0801
     92 H23        -0.9399  -31.3023   -0.4633 H         1 THR         0.0337
     93 H24        -2.0235  -31.7288   -1.8310 H         1 THR         0.0337
     94 H25        -1.0607  -33.7385   -0.8839 H         1 THR         0.0504
     95 H26        -2.8254  -33.6931   -0.5518 H         1 THR         0.0504
     96 H27        -2.4141  -34.1386    2.8584 H         1 THR         0.1814
     97 H28        -3.3858  -34.2845    1.4321 H         1 THR         0.1814
     98 H29        -3.2657  -28.7363    1.0853 H         1 THR         0.1884
     99 H30        -3.3993  -27.1848   -1.4573 H         1 THR         0.0826
    100 H31        -5.0234  -25.6793   -0.4766 H         1 THR         0.0639
    101 H32        -5.8038  -26.1341    1.6716 H         1 THR         0.2101
    102 H33        -6.9549  -27.1898   -0.1377 H         1 THR         0.0257
    103 H34        -5.8345  -28.5784    0.0693 H         1 THR         0.0257
    104 H35        -5.9346  -27.7333   -1.5126 H         1 THR         0.0257
    105 H36        -2.8662  -24.8575   -1.0972 H         1 THR         0.1883
    106 H37        -1.4684  -24.1373    1.3472 H         1 THR         0.0797
    107 H38         0.7006  -23.5827    0.2933 H         1 THR         0.0277
    108 H39         0.1481  -24.3300   -1.2439 H         1 THR         0.0277
    109 H40         0.3683  -25.3465    0.2207 H         1 THR         0.0277
    110 H41        -1.1585  -21.9377    1.5044 H         1 THR         0.1883
    111 H42        -2.7656  -20.2800   -0.2803 H         1 THR         0.0800
    112 H43        -0.9236  -19.4538    2.0026 H         1 THR         0.0313
    113 H44        -2.6336  -19.9641    2.2074 H         1 THR         0.0313
    114 H45        -3.2995  -18.0672    0.7055 H         1 THR         0.0301
    115 H46        -1.5893  -17.5184    0.7334 H         1 THR         0.0301
    116 H47        -1.6909  -17.3473    3.2009 H         1 THR         0.0689
    117 H48        -3.4063  -17.8791    3.1627 H         1 THR         0.0689
    118 H49        -4.0522  -15.7743    2.3136 H         1 THR         0.2642
    119 H50        -2.0367  -12.9011    2.1256 H         1 THR         0.2615
    120 H51        -3.6981  -13.5491    2.0734 H         1 THR         0.2615
    121 H52        -0.5349  -16.0675    2.6241 H         1 THR         0.2615
    122 H53        -0.2606  -14.3148    2.4357 H         1 THR         0.2615
    123 H54        -2.0137  -18.7545   -1.7248 H         1 THR         0.1883
    124 H55         0.9221  -18.9668   -2.3944 H         1 THR         0.0800
    125 H56        -1.4423  -18.3682   -4.2329 H         1 THR         0.0312
    126 H57        -0.5371  -19.9165   -4.1334 H         1 THR         0.0312
    127 H58         1.4727  -18.8871   -4.9662 H         1 THR         0.0269
    128 H59         0.7603  -17.2440   -4.8257 H         1 THR         0.0269
    129 H60         0.7105  -17.8974   -7.1546 H         1 THR         0.0317
    130 H61        -0.9717  -17.9213   -6.5249 H         1 THR         0.0317
    131 H62        -0.8778  -20.3507   -6.2770 H         1 THR         0.0814
    132 H63         0.8389  -20.3613   -6.8057 H         1 THR         0.0814
    133 H64         0.1496  -19.6093   -8.9147 H         1 THR         0.2028
    134 H65        -1.4216  -19.4783   -8.4416 H         1 THR         0.2028
    135 H66        -1.6222  -21.7399   -7.9994 H         1 THR         0.0980
    136 H67         0.1402  -21.9367   -8.2862 H         1 THR         0.0980
    137 H68        -2.0382  -23.5491   -9.5885 H         1 THR         0.0558
    138 H69        -2.4990  -24.1023  -11.9523 H         1 THR         0.0599
    139 H70        -1.7548  -22.5713  -13.7503 H         1 THR         0.0559
    140 H71        -0.5474  -20.4892  -13.1739 H         1 THR         0.0599
    141 H72        -0.0865  -19.9356  -10.8075 H         1 THR         0.0558
    142 H73         2.0356  -17.2389   -1.9074 H         1 THR         0.1876
    143 H74         0.6624  -14.6387   -1.6345 H         1 THR         0.0749
    144 H75         2.9872  -13.8912   -0.8485 H         1 THR         0.0599
    145 H76         3.4581  -15.6228   -0.9306 H         1 THR         0.0599
    146 H77         2.6935  -14.9979    1.1539 H         1 THR         0.2096
@<TRIPOS>BOND
     1    1    2 1  
     2    2    3 1  
     3    2    5 1  
     4    3    4 2  
     5    3    6 am 
     6    6    7 1  
     7    7    8 1  
     8    7   10 1  
     9    8    9 2  
    10    8   15 am 
    11   10   11 1  
    12   11   12 1  
    13   12   13 1  
    14   13   14 1  
    15   15   16 1  
    16   16   17 1  
    17   16   19 1  
    18   17   18 2  
    19   17   24 am 
    20   19   20 1  
    21   20   21 1  
    22   21   22 2  
    23   21   23 am 
    24   24   25 1  
    25   25   26 1  
    26   25   28 1  
    27   26   27 2  
    28   26   31 am 
    29   28   29 1  
    30   28   30 1  
    31   31   32 1  
    32   32   33 1  
    33   32   35 1  
    34   33   34 2  
    35   33   36 am 
    36   36   37 1  
    37   37   38 1  
    38   37   40 1  
    39   38   39 2  
    40   38   47 am 
    41   40   41 1  
    42   41   42 1  
    43   42   43 1  
    44   43   44 ar 
    45   44   45 ar 
    46   44   46 ar 
    47   47   48 1  
    48   48   49 1  
    49   48   51 1  
    50   49   50 2  
    51   49   63 am 
    52   51   52 1  
    53   52   53 1  
    54   53   54 1  
    55   54   55 1  
    56   55   56 1  
    57   56   57 1  
    58   57   58 ar 
    59   57   62 ar 
    60   58   59 ar 
    61   59   60 ar 
    62   60   61 ar 
    63   61   62 ar 
    64   63   64 1  
    65   64   65 1  
    66   64   67 1  
    67   65   66 ar 
    68   65   69 ar 
    69   67   68 1  
    70    1   70 1  
    71    1   71 1  
    72    1   72 1  
    73    2   73 1  
    74    5   74 1  
    75    5   75 1  
    76    5   76 1  
    77    6   77 1  
    78    7   78 1  
    79   10   79 1  
    80   10   80 1  
    81   11   81 1  
    82   11   82 1  
    83   12   83 1  
    84   12   84 1  
    85   13   85 1  
    86   13   86 1  
    87   14   87 1  
    88   14   88 1  
    89   14   89 1  
    90   15   90 1  
    91   16   91 1  
    92   19   92 1  
    93   19   93 1  
    94   20   94 1  
    95   20   95 1  
    96   23   96 1  
    97   23   97 1  
    98   24   98 1  
    99   25   99 1  
   100   28  100 1  
   101   29  101 1  
   102   30  102 1  
   103   30  103 1  
   104   30  104 1  
   105   31  105 1  
   106   32  106 1  
   107   35  107 1  
   108   35  108 1  
   109   35  109 1  
   110   36  110 1  
   111   37  111 1  
   112   40  112 1  
   113   40  113 1  
   114   41  114 1  
   115   41  115 1  
   116   42  116 1  
   117   42  117 1  
   118   43  118 1  
   119   45  119 1  
   120   45  120 1  
   121   46  121 1  
   122   46  122 1  
   123   47  123 1  
   124   48  124 1  
   125   51  125 1  
   126   51  126 1  
   127   52  127 1  
   128   52  128 1  
   129   53  129 1  
   130   53  130 1  
   131   54  131 1  
   132   54  132 1  
   133   55  133 1  
   134   55  134 1  
   135   56  135 1  
   136   56  136 1  
   137   58  137 1  
   138   59  138 1  
   139   60  139 1  
   140   61  140 1  
   141   62  141 1  
   142   63  142 1  
   143   64  143 1  
   144   67  144 1  
   145   67  145 1  
   146   68  146 1  
@<TRIPOS>SUBSTRUCTURE
     1 THR         1

