6d08_ligand
  -I-interpret- 

146146  0  0  0  0  0  0  0  0999 V2000
   -5.8850  -36.5680    2.6960 N   0  3  0  0  0
   -6.6130  -35.3060    2.7320 C   0  0  0  0  0
   -6.1690  -34.3920    1.5960 C   0  0  0  0  0
   -5.2140  -34.6950    0.8820 O   0  0  0  0  0
   -6.4180  -34.5770    4.0750 C   0  0  0  0  0
   -6.8680  -33.2720    1.4370 N   0  0  0  0  0
   -6.5500  -32.3350    0.3680 C   0  0  0  0  0
   -5.2530  -31.5990    0.6840 C   0  0  0  0  0
   -5.1150  -30.9910    1.7500 O   0  0  0  0  0
   -7.6940  -31.3410    0.1810 C   0  0  0  0  0
   -7.8870  -30.8650   -1.2480 C   0  0  0  0  0
   -9.1450  -30.0210   -1.3720 C   0  0  0  0  0
   -9.6550  -30.0030   -2.8030 C   0  0  0  0  0
  -10.9010  -29.1990   -2.9390 N   0  3  0  0  0
   -4.3000  -31.6610   -0.2420 N   0  0  0  0  0
   -3.0230  -30.9670   -0.0970 C   0  0  0  0  0
   -3.1710  -29.5910   -0.7330 C   0  0  0  0  0
   -3.1820  -29.4580   -1.9590 O   0  0  0  0  0
   -1.8970  -31.7690   -0.7390 C   0  0  0  0  0
   -1.8550  -33.2320   -0.3160 C   0  0  0  0  0
   -1.5810  -33.4130    1.1650 C   0  0  0  0  0
   -0.5200  -33.0390    1.6630 O   0  0  0  0  0
   -2.5390  -33.9930    1.8770 N   0  0  0  0  0
   -3.3000  -28.5630    0.1010 N   0  0  0  0  0
   -3.4890  -27.1970   -0.3610 C   0  0  0  0  0
   -2.4070  -26.3060    0.2320 C   0  0  0  0  0
   -1.6800  -26.6970    1.1490 O   0  0  0  0  0
   -4.8750  -26.6500    0.0190 C   0  0  0  0  0
   -4.9470  -26.4720    1.4390 O   0  0  0  0  0
   -5.9760  -27.6040   -0.4210 C   0  0  0  0  0
   -2.3070  -25.0920   -0.3020 N   0  0  0  0  0
   -1.3990  -24.1000    0.2500 C   0  0  0  0  0
   -1.8250  -22.7230   -0.2240 C   0  0  0  0  0
   -2.3790  -22.5700   -1.3150 O   0  0  0  0  0
    0.0570  -24.3580   -0.1480 C   0  0  0  0  0
   -1.5530  -21.7270    0.6100 N   0  0  0  0  0
   -1.8110  -20.3400    0.2630 C   0  0  0  0  0
   -0.6960  -19.8350   -0.6450 C   0  0  0  0  0
    0.4700  -20.1860   -0.4610 O   0  0  0  0  0
   -1.9150  -19.4840    1.5270 C   0  0  0  0  0
   -2.3690  -18.0570    1.2920 C   0  0  0  0  0
   -2.6200  -17.3420    2.6120 C   0  0  0  0  0
   -3.0440  -15.9600    2.4140 N   0  0  0  0  0
   -2.2120  -14.9260    2.3550 C   0  0  0  0  0
   -2.6840  -13.7010    2.1710 N   0  0  0  0  0
   -0.9050  -15.1170    2.4810 N   0  0  0  0  0
   -1.0540  -19.0190   -1.6300 N   0  0  0  0  0
   -0.0480  -18.4900   -2.5980 C   0  0  0  0  0
    0.1000  -17.0060   -2.4200 C   0  0  0  0  0
   -0.8590  -16.2540   -2.5900 O   0  0  0  0  0
   -0.4620  -18.8240   -4.0300 C   0  0  0  0  0
    0.5460  -18.3000   -5.0470 C   0  0  0  0  0
    0.0130  -18.4090   -6.4750 C   0  0  0  0  0
   -0.1330  -19.8590   -6.9200 C   0  0  0  0  0
   -0.5600  -19.9830   -8.3040 N   0  3  0  0  0
   -0.7640  -21.3900   -8.5920 C   0  0  0  0  0
   -1.0360  -21.7060  -10.0470 C   0  0  0  0  0
   -1.7120  -22.8770  -10.3740 C   0  0  0  0  0
   -1.9710  -23.1890  -11.7030 C   0  0  0  0  0
   -1.5530  -22.3300  -12.7130 C   0  0  0  0  0
   -0.8750  -21.1600  -12.3880 C   0  0  0  0  0
   -0.6160  -20.8480  -11.0570 C   0  0  0  0  0
    1.3070  -16.5730   -2.0680 N   0  0  0  0  0
    1.5960  -15.1510   -1.9100 C   0  0  0  0  0
    2.1070  -14.5500   -3.2140 C   0  0  0  0  0
    2.6380  -15.2590   -4.0670 O   0  0  0  0  0
    2.6180  -14.9260   -0.7940 C   0  0  0  0  0
    2.0390  -15.1440    0.4810 O   0  0  0  0  0
    1.9970  -13.3450   -3.4360 O   0  0  0  0  0
   -6.0370  -37.0212    1.7950 H   0  0  0  0  0
   -4.8891  -36.3884    2.8239 H   0  0  0  0  0
   -6.2212  -37.1745    3.4440 H   0  0  0  0  0
   -7.6701  -35.5445    2.6147 H   0  0  0  0  0
   -5.3654  -34.3228    4.1995 H   0  0  0  0  0
   -7.0164  -33.6660    4.0827 H   0  0  0  0  0
   -6.7347  -35.2282    4.8897 H   0  0  0  0  0
   -7.6383  -33.0660    2.0731 H   0  0  0  0  0
   -6.4178  -32.8911   -0.5601 H   0  0  0  0  0
   -7.4547  -30.4626    0.7803 H   0  0  0  0  0
   -8.6114  -31.8516    0.4739 H   0  0  0  0  0
   -7.9825  -31.7349   -1.8978 H   0  0  0  0  0
   -7.0279  -30.2587   -1.5350 H   0  0  0  0  0
   -8.9097  -28.9994   -1.0734 H   0  0  0  0  0
   -9.9166  -30.4502   -0.7328 H   0  0  0  0  0
   -9.8760  -31.0283   -3.0998 H   0  0  0  0  0
   -8.8878  -29.5533   -3.4334 H   0  0  0  0  0
  -11.2087  -29.2128   -3.9114 H   0  0  0  0  0
  -11.6282  -29.5980   -2.3453 H   0  0  0  0  0
  -10.7166  -28.2374   -2.6531 H   0  0  0  0  0
   -4.4670  -32.2129   -1.0834 H   0  0  0  0  0
   -2.7619  -30.8572    0.9555 H   0  0  0  0  0
   -0.9576  -31.3152   -0.4234 H   0  0  0  0  0
   -2.0613  -31.7496   -1.8164 H   0  0  0  0  0
   -1.0455  -33.7133   -0.8648 H   0  0  0  0  0
   -2.8314  -33.6674   -0.5288 H   0  0  0  0  0
   -2.4105  -34.1438    2.8776 H   0  0  0  0  0
   -3.4038  -34.2880    1.4237 H   0  0  0  0  0
   -3.2650  -28.7398    1.1050 H   0  0  0  0  0
   -3.4201  -27.1992   -1.4488 H   0  0  0  0  0
   -5.0170  -25.6950   -0.4869 H   0  0  0  0  0
   -5.8129  -26.1305    1.6741 H   0  0  0  0  0
   -5.9339  -27.7313   -1.5027 H   0  0  0  0  0
   -5.8346  -28.5691    0.0655 H   0  0  0  0  0
   -6.9454  -27.1925   -0.1398 H   0  0  0  0  0
   -2.8774  -24.8528   -1.1131 H   0  0  0  0  0
   -1.4509  -24.1647    1.3368 H   0  0  0  0  0
    0.3642  -25.3377    0.2179 H   0  0  0  0  0
    0.1459  -24.3300   -1.2340 H   0  0  0  0  0
    0.6937  -23.5892    0.2899 H   0  0  0  0  0
   -1.1506  -21.9419    1.5223 H   0  0  0  0  0
   -2.7609  -20.2679   -0.2667 H   0  0  0  0  0
   -0.9148  -19.4314    1.9570 H   0  0  0  0  0
   -2.6628  -19.9530    2.1664 H   0  0  0  0  0
   -3.2972  -18.0742    0.7209 H   0  0  0  0  0
   -1.5875  -17.5257    0.7488 H   0  0  0  0  0
   -1.6884  -17.3346    3.1778 H   0  0  0  0  0
   -3.4146  -17.8697    3.1394 H   0  0  0  0  0
   -4.0424  -15.7762    2.3146 H   0  0  0  0  0
   -3.6882  -13.5506    2.0743 H   0  0  0  0  0
   -0.2668  -14.3226    2.4362 H   0  0  0  0  0
   -0.5385  -16.0583    2.6227 H   0  0  0  0  0
   -2.0329  -18.7492   -1.7267 H   0  0  0  0  0
    0.9150  -18.9623   -2.4040 H   0  0  0  0  0
   -1.4248  -18.3526   -4.2273 H   0  0  0  0  0
   -0.5152  -19.9083   -4.1274 H   0  0  0  0  0
    1.4539  -18.8984   -4.9717 H   0  0  0  0  0
    0.7389  -17.2492   -4.8307 H   0  0  0  0  0
    0.7212  -17.9172   -7.1419 H   0  0  0  0  0
   -0.9710  -17.9413   -6.5084 H   0  0  0  0  0
   -0.8927  -20.3258   -6.2931 H   0  0  0  0  0
    0.8425  -20.3365   -6.8275 H   0  0  0  0  0
    0.1508  -19.5976   -8.9258 H   0  0  0  0  0
   -1.4270  -19.4661   -8.4508 H   0  0  0  0  0
   -1.6433  -21.7042   -8.0298 H   0  0  0  0  0
    0.1579  -21.9054   -8.3228 H   0  0  0  0  0
   -2.0400  -23.5528   -9.5842 H   0  0  0  0  0
   -2.5020  -24.1073  -11.9537 H   0  0  0  0  0
   -1.7560  -22.5727  -13.7561 H   0  0  0  0  0
   -0.5456  -20.4855  -13.1783 H   0  0  0  0  0
   -0.0836  -19.9305  -10.8061 H   0  0  0  0  0
    2.0502  -17.2522   -1.9042 H   0  0  0  0  0
    0.6659  -14.6512   -1.6393 H   0  0  0  0  0
    2.9690  -13.8954   -0.8456 H   0  0  0  0  0
    3.4405  -15.6287   -0.9279 H   0  0  0  0  0
    2.7004  -14.9964    1.1610 H   0  0  0  0  0
    1.5674  -12.9211   -2.6894 H   0  0  0  0  0
  1  2  1  0  0  0
  2  3  1  0  0  0
  2  5  1  0  0  0
  3  4  2  0  0  0
  3  6  1  0  0  0
  6  7  1  0  0  0
  7  8  1  0  0  0
  7 10  1  0  0  0
  8  9  2  0  0  0
  8 15  1  0  0  0
 10 11  1  0  0  0
 11 12  1  0  0  0
 12 13  1  0  0  0
 13 14  1  0  0  0
 15 16  1  0  0  0
 16 17  1  0  0  0
 16 19  1  0  0  0
 17 18  2  0  0  0
 17 24  1  0  0  0
 19 20  1  0  0  0
 20 21  1  0  0  0
 21 22  2  0  0  0
 21 23  1  0  0  0
 24 25  1  0  0  0
 25 26  1  0  0  0
 25 28  1  0  0  0
 26 27  2  0  0  0
 26 31  1  0  0  0
 28 29  1  0  0  0
 28 30  1  0  0  0
 31 32  1  0  0  0
 32 33  1  0  0  0
 32 35  1  0  0  0
 33 34  2  0  0  0
 33 36  1  0  0  0
 36 37  1  0  0  0
 37 38  1  0  0  0
 37 40  1  0  0  0
 38 39  2  0  0  0
 38 47  1  0  0  0
 40 41  1  0  0  0
 41 42  1  0  0  0
 42 43  1  0  0  0
 43 44  1  0  0  0
 44 45  2  0  0  0
 44 46  1  0  0  0
 47 48  1  0  0  0
 48 49  1  0  0  0
 48 51  1  0  0  0
 49 50  2  0  0  0
 49 63  1  0  0  0
 51 52  1  0  0  0
 52 53  1  0  0  0
 53 54  1  0  0  0
 54 55  1  0  0  0
 55 56  1  0  0  0
 56 57  1  0  0  0
 57 58  4  0  0  0
 57 62  4  0  0  0
 58 59  4  0  0  0
 59 60  4  0  0  0
 60 61  4  0  0  0
 61 62  4  0  0  0
 63 64  1  0  0  0
 64 65  1  0  0  0
 64 67  1  0  0  0
 65 66  2  0  0  0
 65 69  1  0  0  0
 67 68  1  0  0  0
  1 70  1  0  0  0
  1 71  1  0  0  0
  1 72  1  0  0  0
  2 73  1  0  0  0
  5 74  1  0  0  0
  5 75  1  0  0  0
  5 76  1  0  0  0
  6 77  1  0  0  0
  7 78  1  0  0  0
 10 79  1  0  0  0
 10 80  1  0  0  0
 11 81  1  0  0  0
 11 82  1  0  0  0
 12 83  1  0  0  0
 12 84  1  0  0  0
 13 85  1  0  0  0
 13 86  1  0  0  0
 14 87  1  0  0  0
 14 88  1  0  0  0
 14 89  1  0  0  0
 15 90  1  0  0  0
 16 91  1  0  0  0
 19 92  1  0  0  0
 19 93  1  0  0  0
 20 94  1  0  0  0
 20 95  1  0  0  0
 23 96  1  0  0  0
 23 97  1  0  0  0
 24 98  1  0  0  0
 25 99  1  0  0  0
 28100  1  0  0  0
 29101  1  0  0  0
 30102  1  0  0  0
 30103  1  0  0  0
 30104  1  0  0  0
 31105  1  0  0  0
 32106  1  0  0  0
 35107  1  0  0  0
 35108  1  0  0  0
 35109  1  0  0  0
 36110  1  0  0  0
 37111  1  0  0  0
 40112  1  0  0  0
 40113  1  0  0  0
 41114  1  0  0  0
 41115  1  0  0  0
 42116  1  0  0  0
 42117  1  0  0  0
 43118  1  0  0  0
 45119  1  0  0  0
 46120  1  0  0  0
 46121  1  0  0  0
 47122  1  0  0  0
 48123  1  0  0  0
 51124  1  0  0  0
 51125  1  0  0  0
 52126  1  0  0  0
 52127  1  0  0  0
 53128  1  0  0  0
 53129  1  0  0  0
 54130  1  0  0  0
 54131  1  0  0  0
 55132  1  0  0  0
 55133  1  0  0  0
 56134  1  0  0  0
 56135  1  0  0  0
 58136  1  0  0  0
 59137  1  0  0  0
 60138  1  0  0  0
 61139  1  0  0  0
 62140  1  0  0  0
 63141  1  0  0  0
 64142  1  0  0  0
 67143  1  0  0  0
 67144  1  0  0  0
 68145  1  0  0  0
 69146  1  0  0  0
M  END
$$$$
