3lpl_ligand
  -I-interpret- 

 19 18  0  0  0  0  0  0  0  0999 V2000
   19.7830  -65.0930    0.8840 C   0  0  0  0  0
   18.5210  -64.2290    0.9260 C   0  0  0  0  0
   17.6100  -64.6670    1.9410 O   0  0  0  0  0
   16.1620  -63.9670    2.0550 P   0  0  0  0  0
   15.5010  -64.3530    0.6330 O   0  0  0  0  0
   15.4390  -64.6030    3.1800 O   0  0  0  0  0
   16.3490  -62.4990    2.0870 O   0  0  0  0  0
   14.7500  -65.7490    0.3420 P   0  0  0  0  0
   13.4130  -65.5220   -0.2550 O   0  0  0  0  0
   15.7010  -66.6100   -0.6300 O   0  0  0  0  0
   14.6810  -66.5450    1.7420 O   0  0  0  0  0
   20.2909  -65.0391    1.8469 H   0  0  0  0  0
   19.5074  -66.1266    0.6745 H   0  0  0  0  0
   20.4467  -64.7267    0.1008 H   0  0  0  0  0
   18.0209  -64.3058   -0.0395 H   0  0  0  0  0
   18.8152  -63.2034    1.1491 H   0  0  0  0  0
   15.3898  -65.5503    3.0326 H   0  0  0  0  0
   16.5553  -66.7360   -0.2106 H   0  0  0  0  0
   15.5697  -66.6653    2.0846 H   0  0  0  0  0
  1  2  1  0  0  0
  2  3  1  0  0  0
  3  4  1  0  0  0
  4  5  1  0  0  0
  4  6  1  0  0  0
  4  7  2  0  0  0
  5  8  1  0  0  0
  8  9  2  0  0  0
  8 10  1  0  0  0
  8 11  1  0  0  0
  1 12  1  0  0  0
  1 13  1  0  0  0
  1 14  1  0  0  0
  2 15  1  0  0  0
  2 16  1  0  0  0
  6 17  1  0  0  0
 10 18  1  0  0  0
 11 19  1  0  0  0
M  END
$$$$
