### 
### Created by X-TOOL on Mon Sep 10 21:13:14 2018
### 

@<TRIPOS>MOLECULE
4j84_ligand
   90    89     1     0     0
SMALL
GAST_HUCK


@<TRIPOS>ATOM
      1 N          -7.2540 -126.3900  116.9300 N.4       1 ALA         0.2377
      2 CA         -6.3040 -125.5320  117.6340 C.3       1 ALA         0.0621
      3 C          -4.9050 -126.1360  117.5990 C.2       1 ALA         0.2264
      4 O          -4.5770 -126.9960  118.4160 O.2       1 ALA        -0.3907
      5 CB         -6.7490 -125.3270  119.0660 C.3       1 ALA        -0.0040
      6 N          -4.0730 -125.6740  116.6720 N.am      1 ARG        -0.2610
      7 CA         -2.8010 -126.3470  116.4170 C.3       1 ARG         0.1312
      8 C          -1.6300 -125.9530  117.3140 C.2       1 ARG         0.2039
      9 O          -1.4520 -124.7810  117.6670 O.2       1 ARG        -0.3944
     10 CB         -2.4030 -126.2370  114.9430 C.3       1 ARG        -0.0092
     11 CG         -2.8530 -127.4300  114.1050 C.3       1 ARG        -0.0156
     12 CD         -2.0850 -127.5080  112.8030 C.3       1 ARG         0.0627
     13 NE         -0.8650 -128.3050  112.9210 N.pl3     1 ARG        -0.2723
     14 CZ         -0.0100 -128.4890  111.9220 C.cat     1 ARG         0.2882
     15 NH1        -0.2500 -127.9270  110.7500 N.pl3     1 ARG        -0.2849
     16 NH2         1.0770 -129.2310  112.0900 N.pl3     1 ARG        -0.2849
     17 N          -0.8420 -126.9650  117.6740 N.am      1 LYS        -0.2637
     18 CA          0.4050 -126.7880  118.4130 C.3       1 LYS         0.1310
     19 C           0.2120 -126.0880  119.7520 C.2       1 LYS         0.2039
     20 O           0.9990 -125.2130  120.1050 O.2       1 LYS        -0.3944
     21 CB          1.4120 -125.9960  117.5690 C.3       1 LYS        -0.0122
     22 CG          1.9460 -126.7230  116.3430 C.3       1 LYS        -0.0440
     23 CD          2.9230 -127.8070  116.7510 C.3       1 LYS        -0.0124
     24 CE          3.4020 -128.6150  115.5500 C.3       1 LYS        -0.0354
     25 NZ          4.2410 -129.7440  116.0060 N.4       1 LYS         0.2185
     26 N          -0.8150 -126.4700  120.5070 N.am      1 LEU        -0.2637
     27 CA         -1.0510 -125.8340  121.8030 C.3       1 LEU         0.1312
     28 C          -0.1190 -126.3740  122.8820 C.2       1 LEU         0.2034
     29 O           0.2760 -125.6300  123.7860 O.2       1 LEU        -0.3944
     30 CB         -2.5190 -125.9600  122.2360 C.3       1 LEU        -0.0101
     31 CG         -3.5700 -125.2210  121.3930 C.3       1 LEU        -0.0425
     32 CD1        -4.9610 -125.3620  122.0070 C.3       1 LEU        -0.0625
     33 CD2        -3.2160 -123.7540  121.2260 C.3       1 LEU        -0.0625
     34 N           0.2400 -127.6550  122.7810 N.am      1 ASP        -0.2679
     35 CA          1.1340 -128.2890  123.7580 C.3       1 ASP         0.1057
     36 C           2.5700 -127.7600  123.6830 C.2       1 ASP         0.0618
     37 O           3.3490 -127.9780  124.6130 O.co2     1 ASP        -0.5665
     38 CB          1.1640 -129.8080  123.5730 C.3       1 ASP         0.0351
     39 CG         -0.1100 -130.4780  124.0220 C.2       1 ASP         0.0387
     40 OD1        -1.0930 -129.7680  124.3210 O.co2     1 ASP        -0.5688
     41 OD2        -0.1260 -131.7250  124.0710 O.co2     1 ASP        -0.5688
     42 OXT         2.9860 -127.1340  122.7030 O.co2     1 ASP        -0.5665
     43 H1         -8.1716 -125.9742  116.9642 H         1 ALA         0.2015
     44 H2         -7.2791 -127.2961  117.3709 H         1 ALA         0.2015
     45 H3         -6.9669 -126.4917  115.9691 H         1 ALA         0.2015
     46 H4         -6.2757 -124.5542  117.1309 H         1 ALA         0.1095
     47 H5         -6.0267 -124.6801  119.5854 H         1 ALA         0.0310
     48 H6         -6.8027 -126.3000  119.5762 H         1 ALA         0.0310
     49 H7         -7.7410 -124.8518  119.0773 H         1 ALA         0.0310
     50 H8         -4.3187 -124.8603  116.1452 H         1 ARG         0.1884
     51 H9         -2.9852 -127.4127  116.6177 H         1 ARG         0.0800
     52 H10        -1.3073 -126.1612  114.8820 H         1 ARG         0.0313
     53 H11        -2.8574 -125.3263  114.5258 H         1 ARG         0.0313
     54 H12        -3.9255 -127.3278  113.8829 H         1 ARG         0.0301
     55 H13        -2.6834 -128.3541  114.6770 H         1 ARG         0.0301
     56 H14        -1.8120 -126.4887  112.4925 H         1 ARG         0.0689
     57 H15        -2.7316 -127.9634  112.0385 H         1 ARG         0.0689
     58 H16        -0.6577 -128.7475  113.8277 H         1 ARG         0.2642
     59 H17         0.4073 -128.0639  109.9689 H         1 ARG         0.2615
     60 H18        -1.0944 -127.3522  110.6178 H         1 ARG         0.2615
     61 H19         1.2652 -129.6695  113.0028 H         1 ARG         0.2615
     62 H20         1.7327 -129.3685  111.3076 H         1 ARG         0.2615
     63 H21        -1.1186 -127.8933  117.4255 H         1 LYS         0.1883
     64 H22         0.8229 -127.7863  118.6098 H         1 LYS         0.0800
     65 H23         2.2672 -125.7399  118.2117 H         1 LYS         0.0312
     66 H24         0.9193 -125.0731  117.2292 H         1 LYS         0.0312
     67 H25         2.4582 -126.0018  115.6893 H         1 LYS         0.0269
     68 H26         1.1061 -127.1793  115.7986 H         1 LYS         0.0269
     69 H27         2.4274 -128.4846  117.4618 H         1 LYS         0.0317
     70 H28         3.7926 -127.3392  117.2357 H         1 LYS         0.0317
     71 H29         3.9925 -127.9666  114.8861 H         1 LYS         0.0813
     72 H30         2.5316 -129.0053  115.0022 H         1 LYS         0.0813
     73 H31         4.5542 -130.2737  115.2077 H         1 LYS         0.1994
     74 H32         3.7010 -130.3399  116.6138 H         1 LYS         0.1994
     75 H33         5.0398 -129.3880  116.5073 H         1 LYS         0.1994
     76 H34        -1.4269 -127.1936  120.1877 H         1 LEU         0.1883
     77 H35        -0.8321 -124.7625  121.6853 H         1 LEU         0.0800
     78 H36        -2.5936 -125.5785  123.2650 H         1 LEU         0.0315
     79 H37        -2.7768 -127.0293  122.2217 H         1 LEU         0.0315
     80 H38        -3.5881 -125.6827  120.3948 H         1 LEU         0.0298
     81 H39        -5.6924 -124.8250  121.3852 H         1 LEU         0.0232
     82 H40        -4.9591 -124.9360  123.0212 H         1 LEU         0.0232
     83 H41        -5.2336 -126.4265  122.0569 H         1 LEU         0.0232
     84 H42        -2.2128 -123.6670  120.7833 H         1 LEU         0.0232
     85 H43        -3.2272 -123.2599  122.2087 H         1 LEU         0.0232
     86 H44        -3.9515 -123.2722  120.5650 H         1 LEU         0.0232
     87 H45        -0.1098 -128.1988  122.0182 H         1 ASP         0.1876
     88 H46         0.7405 -128.0682  124.7612 H         1 ASP         0.0745
     89 H47         2.0008 -130.2166  124.1584 H         1 ASP         0.0471
     90 H48         1.3200 -130.0289  122.5068 H         1 ASP         0.0471
@<TRIPOS>BOND
     1    1    2 1  
     2    2    3 1  
     3    2    5 1  
     4    3    4 2  
     5    3    6 am 
     6    6    7 1  
     7    7    8 1  
     8    7   10 1  
     9    8    9 2  
    10    8   17 am 
    11   10   11 1  
    12   11   12 1  
    13   12   13 1  
    14   13   14 ar 
    15   14   15 ar 
    16   14   16 ar 
    17   17   18 1  
    18   18   19 1  
    19   18   21 1  
    20   19   20 2  
    21   19   26 am 
    22   21   22 1  
    23   22   23 1  
    24   23   24 1  
    25   24   25 1  
    26   26   27 1  
    27   27   28 1  
    28   27   30 1  
    29   28   29 2  
    30   28   34 am 
    31   30   31 1  
    32   31   32 1  
    33   31   33 1  
    34   34   35 1  
    35   35   36 1  
    36   35   38 1  
    37   36   37 ar 
    38   36   42 ar 
    39   38   39 1  
    40   39   40 ar 
    41   39   41 ar 
    42    1   43 1  
    43    1   44 1  
    44    1   45 1  
    45    2   46 1  
    46    5   47 1  
    47    5   48 1  
    48    5   49 1  
    49    6   50 1  
    50    7   51 1  
    51   10   52 1  
    52   10   53 1  
    53   11   54 1  
    54   11   55 1  
    55   12   56 1  
    56   12   57 1  
    57   13   58 1  
    58   15   59 1  
    59   15   60 1  
    60   16   61 1  
    61   16   62 1  
    62   17   63 1  
    63   18   64 1  
    64   21   65 1  
    65   21   66 1  
    66   22   67 1  
    67   22   68 1  
    68   23   69 1  
    69   23   70 1  
    70   24   71 1  
    71   24   72 1  
    72   25   73 1  
    73   25   74 1  
    74   25   75 1  
    75   26   76 1  
    76   27   77 1  
    77   30   78 1  
    78   30   79 1  
    79   31   80 1  
    80   32   81 1  
    81   32   82 1  
    82   32   83 1  
    83   33   84 1  
    84   33   85 1  
    85   33   86 1  
    86   34   87 1  
    87   35   88 1  
    88   38   89 1  
    89   38   90 1  
@<TRIPOS>SUBSTRUCTURE
     1 ALA         1

