4j84_ligand
  -I-interpret- 

 91 90  0  0  0  0  0  0  0  0999 V2000
   -7.2540 -126.3900  116.9300 N   0  3  0  0  0
   -6.3040 -125.5320  117.6340 C   0  0  0  0  0
   -4.9050 -126.1360  117.5990 C   0  0  0  0  0
   -4.5770 -126.9960  118.4160 O   0  0  0  0  0
   -6.7490 -125.3270  119.0660 C   0  0  0  0  0
   -4.0730 -125.6740  116.6720 N   0  0  0  0  0
   -2.8010 -126.3470  116.4170 C   0  0  0  0  0
   -1.6300 -125.9530  117.3140 C   0  0  0  0  0
   -1.4520 -124.7810  117.6670 O   0  0  0  0  0
   -2.4030 -126.2370  114.9430 C   0  0  0  0  0
   -2.8530 -127.4300  114.1050 C   0  0  0  0  0
   -2.0850 -127.5080  112.8030 C   0  0  0  0  0
   -0.8650 -128.3050  112.9210 N   0  0  0  0  0
   -0.0100 -128.4890  111.9220 C   0  0  0  0  0
   -0.2500 -127.9270  110.7500 N   0  0  0  0  0
    1.0770 -129.2310  112.0900 N   0  0  0  0  0
   -0.8420 -126.9650  117.6740 N   0  0  0  0  0
    0.4050 -126.7880  118.4130 C   0  0  0  0  0
    0.2120 -126.0880  119.7520 C   0  0  0  0  0
    0.9990 -125.2130  120.1050 O   0  0  0  0  0
    1.4120 -125.9960  117.5690 C   0  0  0  0  0
    1.9460 -126.7230  116.3430 C   0  0  0  0  0
    2.9230 -127.8070  116.7510 C   0  0  0  0  0
    3.4020 -128.6150  115.5500 C   0  0  0  0  0
    4.2410 -129.7440  116.0060 N   0  3  0  0  0
   -0.8150 -126.4700  120.5070 N   0  0  0  0  0
   -1.0510 -125.8340  121.8030 C   0  0  0  0  0
   -0.1190 -126.3740  122.8820 C   0  0  0  0  0
    0.2760 -125.6300  123.7860 O   0  0  0  0  0
   -2.5190 -125.9600  122.2360 C   0  0  0  0  0
   -3.5700 -125.2210  121.3930 C   0  0  0  0  0
   -4.9610 -125.3620  122.0070 C   0  0  0  0  0
   -3.2160 -123.7540  121.2260 C   0  0  0  0  0
    0.2400 -127.6550  122.7810 N   0  0  0  0  0
    1.1340 -128.2890  123.7580 C   0  0  0  0  0
    2.5700 -127.7600  123.6830 C   0  0  0  0  0
    3.3490 -127.9780  124.6130 O   0  0  0  0  0
    1.1640 -129.8080  123.5730 C   0  0  0  0  0
   -0.1100 -130.4780  124.0220 C   0  0  0  0  0
   -1.0930 -129.7680  124.3210 O   0  0  0  0  0
   -0.1260 -131.7250  124.0710 O   0  0  0  0  0
    2.9860 -127.1340  122.7030 O   0  0  0  0  0
   -6.9436 -126.5206  115.9672 H   0  0  0  0  0
   -7.3045 -127.2949  117.3979 H   0  0  0  0  0
   -8.1749 -125.9514  116.9351 H   0  0  0  0  0
   -6.2739 -124.5654  117.1311 H   0  0  0  0  0
   -6.7611 -126.2869  119.5823 H   0  0  0  0  0
   -6.0556 -124.6519  119.5675 H   0  0  0  0  0
   -7.7497 -124.8951  119.0758 H   0  0  0  0  0
   -4.3237 -124.8440  116.1347 H   0  0  0  0  0
   -3.0066 -127.3844  116.6807 H   0  0  0  0  0
   -1.3147 -126.1950  114.8981 H   0  0  0  0  0
   -2.8864 -125.3484  114.5369 H   0  0  0  0  0
   -3.9125 -127.3139  113.8766 H   0  0  0  0  0
   -2.6681 -128.3422  114.6723 H   0  0  0  0  0
   -1.7994 -126.4951  112.5192 H   0  0  0  0  0
   -2.7271 -127.9829  112.0612 H   0  0  0  0  0
   -0.6597 -128.7432  113.8189 H   0  0  0  0  0
   -1.0862 -127.3577  110.6190 H   0  0  0  0  0
    1.7263 -129.3672  111.3152 H   0  0  0  0  0
    1.2634 -129.6653  112.9939 H   0  0  0  0  0
   -1.1241 -127.9119  117.4205 H   0  0  0  0  0
    0.7846 -127.7885  118.6204 H   0  0  0  0  0
    2.2694 -125.7961  118.2117 H   0  0  0  0  0
    0.8877 -125.1126  117.2046 H   0  0  0  0  0
    2.4601 -126.0062  115.7028 H   0  0  0  0  0
    1.1115 -127.1807  115.8118 H   0  0  0  0  0
    2.4177 -128.4832  117.4406 H   0  0  0  0  0
    3.7887 -127.3329  117.2135 H   0  0  0  0  0
    3.9896 -127.9718  114.8949 H   0  0  0  0  0
    2.5384 -129.0036  115.0103 H   0  0  0  0  0
    4.5573 -130.2793  115.1974 H   0  0  0  0  0
    5.0488 -129.3826  116.5131 H   0  0  0  0  0
    3.6936 -130.3462  116.6209 H   0  0  0  0  0
   -1.4392 -127.2081  120.1813 H   0  0  0  0  0
   -0.8281 -124.7745  121.6769 H   0  0  0  0  0
   -2.5722 -125.5148  123.2295 H   0  0  0  0  0
   -2.7622 -127.0189  122.1478 H   0  0  0  0  0
   -3.5772 -125.6825  120.4056 H   0  0  0  0  0
   -5.2299 -126.4172  122.0559 H   0  0  0  0  0
   -4.9577 -124.9396  123.0118 H   0  0  0  0  0
   -5.6848 -124.8295  121.3900 H   0  0  0  0  0
   -3.1632 -123.2804  122.2063 H   0  0  0  0  0
   -2.2504 -123.6690  120.7276 H   0  0  0  0  0
   -3.9812 -123.2631  120.6246 H   0  0  0  0  0
   -0.1168 -128.2097  122.0029 H   0  0  0  0  0
    0.7262 -128.0366  124.7368 H   0  0  0  0  0
    1.9794 -130.2016  124.1799 H   0  0  0  0  0
    1.2910 -130.0118  122.5098 H   0  0  0  0  0
   -0.8626 -128.8424  124.2126 H   0  0  0  0  0
    2.2781 -127.0384  122.0617 H   0  0  0  0  0
  1  2  1  0  0  0
  2  3  1  0  0  0
  2  5  1  0  0  0
  3  4  2  0  0  0
  3  6  1  0  0  0
  6  7  1  0  0  0
  7  8  1  0  0  0
  7 10  1  0  0  0
  8  9  2  0  0  0
  8 17  1  0  0  0
 10 11  1  0  0  0
 11 12  1  0  0  0
 12 13  1  0  0  0
 13 14  1  0  0  0
 14 15  2  0  0  0
 14 16  1  0  0  0
 17 18  1  0  0  0
 18 19  1  0  0  0
 18 21  1  0  0  0
 19 20  2  0  0  0
 19 26  1  0  0  0
 21 22  1  0  0  0
 22 23  1  0  0  0
 23 24  1  0  0  0
 24 25  1  0  0  0
 26 27  1  0  0  0
 27 28  1  0  0  0
 27 30  1  0  0  0
 28 29  2  0  0  0
 28 34  1  0  0  0
 30 31  1  0  0  0
 31 32  1  0  0  0
 31 33  1  0  0  0
 34 35  1  0  0  0
 35 36  1  0  0  0
 35 38  1  0  0  0
 36 37  2  0  0  0
 36 42  1  0  0  0
 38 39  1  0  0  0
 39 40  1  0  0  0
 39 41  2  0  0  0
  1 43  1  0  0  0
  1 44  1  0  0  0
  1 45  1  0  0  0
  2 46  1  0  0  0
  5 47  1  0  0  0
  5 48  1  0  0  0
  5 49  1  0  0  0
  6 50  1  0  0  0
  7 51  1  0  0  0
 10 52  1  0  0  0
 10 53  1  0  0  0
 11 54  1  0  0  0
 11 55  1  0  0  0
 12 56  1  0  0  0
 12 57  1  0  0  0
 13 58  1  0  0  0
 15 59  1  0  0  0
 16 60  1  0  0  0
 16 61  1  0  0  0
 17 62  1  0  0  0
 18 63  1  0  0  0
 21 64  1  0  0  0
 21 65  1  0  0  0
 22 66  1  0  0  0
 22 67  1  0  0  0
 23 68  1  0  0  0
 23 69  1  0  0  0
 24 70  1  0  0  0
 24 71  1  0  0  0
 25 72  1  0  0  0
 25 73  1  0  0  0
 25 74  1  0  0  0
 26 75  1  0  0  0
 27 76  1  0  0  0
 30 77  1  0  0  0
 30 78  1  0  0  0
 31 79  1  0  0  0
 32 80  1  0  0  0
 32 81  1  0  0  0
 32 82  1  0  0  0
 33 83  1  0  0  0
 33 84  1  0  0  0
 33 85  1  0  0  0
 34 86  1  0  0  0
 35 87  1  0  0  0
 38 88  1  0  0  0
 38 89  1  0  0  0
 40 90  1  0  0  0
 42 91  1  0  0  0
M  END
$$$$
