### 
### Created by X-TOOL on Fri Nov 18 12:35:12 2016
### 

@<TRIPOS>MOLECULE
1c7f_ligand
   50    52     1     0     0
SMALL
GAST_HUCK


@<TRIPOS>ATOM
      1 N1          7.4490   -0.1850    1.2860 N.2       1 FMN        -0.2549
      2 C2          7.7240    1.1690    1.0820 C.2       1 FMN         0.2439
      3 O2          8.3660    1.5120   -0.0350 O.2       1 FMN        -0.3902
      4 N3          7.2760    2.1550    1.9220 N.am      1 FMN        -0.1938
      5 C4          6.6100    1.8570    3.0750 C.2       1 FMN         0.2704
      6 O4          6.1690    2.7160    4.0270 O.2       1 FMN        -0.3655
      7 C4A         6.3450    0.4520    3.2920 C.2       1 FMN         0.2076
      8 N5          5.6840    0.2030    4.4650 N.2       1 FMN        -0.2387
      9 C5A         5.3040   -1.1480    4.5890 C.ar      1 FMN         0.0856
     10 C6          4.4620   -1.4240    5.6970 C.ar      1 FMN        -0.0403
     11 C7          4.0700   -2.7560    5.8320 C.ar      1 FMN        -0.0428
     12 C7M         3.1910   -3.0870    6.9160 C.3       1 FMN        -0.0352
     13 C8          4.4630   -3.7640    4.9510 C.ar      1 FMN        -0.0416
     14 C8M         4.0190   -5.1250    5.1000 C.3       1 FMN        -0.0312
     15 C9          5.3010   -3.4720    3.8670 C.ar      1 FMN        -0.0258
     16 C9A         5.7370   -2.1150    3.7190 C.ar      1 FMN         0.1048
     17 N10         6.5510   -1.9070    2.6360 N.pl3     1 FMN        -0.2138
     18 C10         6.8020   -0.5420    2.4350 C.2       1 FMN         0.1894
     19 C1          6.9740   -2.8560    1.7040 C.3       1 FMN         0.0886
     20 C2          8.2400   -3.6080    2.1630 C.3       1 FMN         0.1102
     21 O2          9.2970   -2.6670    2.3310 O.3       1 FMN        -0.3865
     22 C3          8.6730   -4.5670    0.9780 C.3       1 FMN         0.1118
     23 O3          7.7930   -5.6930    1.1830 O.3       1 FMN        -0.3865
     24 C4         10.0830   -4.9730    0.9210 C.3       1 FMN         0.1111
     25 O4         10.4260   -5.7390   -0.2580 O.3       1 FMN        -0.3865
     26 C5         10.5910   -5.6340    2.1310 C.3       1 FMN         0.1068
     27 O5         11.9920   -5.8610    1.8570 O.3       1 FMN        -0.2734
     28 P          12.8930   -6.8080    2.9100 P.3       1 FMN         0.2008
     29 O1P        12.6350   -6.5440    4.5040 O.co2     1 FMN        -0.5537
     30 O2P        14.4970   -6.6700    2.4650 O.co2     1 FMN        -0.5537
     31 O3P        12.5270   -8.4080    2.4990 O.co2     1 FMN        -0.5537
     32 H1          7.4406    3.1125    1.6850 H         1 FMN         0.2248
     33 H2          4.1453   -0.6534    6.3905 H         1 FMN         0.0564
     34 H3          2.9834   -2.1838    7.5085 H         1 FMN         0.0366
     35 H4          3.6673   -3.8441    7.5563 H         1 FMN         0.0366
     36 H5          2.2482   -3.4869    6.5146 H         1 FMN         0.0366
     37 H6          4.4510   -5.7415    4.2979 H         1 FMN         0.0395
     38 H7          2.9213   -5.1613    5.0394 H         1 FMN         0.0395
     39 H8          4.3454   -5.5124    6.0764 H         1 FMN         0.0395
     40 H9          5.6074   -4.2419    3.1681 H         1 FMN         0.0493
     41 H10         7.1913   -2.3457    0.7541 H         1 FMN         0.0631
     42 H11         6.1655   -3.5860    1.5515 H         1 FMN         0.0631
     43 H12         8.0538   -4.1692    3.0905 H         1 FMN         0.0647
     44 H13         9.0474   -2.0257    2.9860 H         1 FMN         0.2100
     45 H14         8.4418   -4.0775    0.0204 H         1 FMN         0.0647
     46 H15         7.9616   -6.3504    0.5182 H         1 FMN         0.2100
     47 H16        10.6458   -4.0313    0.8407 H         1 FMN         0.0646
     48 H17        10.2510   -5.2194   -1.0339 H         1 FMN         0.2100
     49 H18        10.0688   -6.5869    2.3021 H         1 FMN         0.0639
     50 H19        10.4668   -4.9847    3.0102 H         1 FMN         0.0639
@<TRIPOS>BOND
     1    1    2 1  
     2    1   18 2  
     3    2    3 2  
     4    2    4 am 
     5    4    5 am 
     6    5    6 2  
     7    5    7 1  
     8    7    8 2  
     9    7   18 1  
    10    8    9 1  
    11    9   10 ar 
    12    9   16 ar 
    13   10   11 ar 
    14   11   12 1  
    15   11   13 ar 
    16   13   14 1  
    17   13   15 ar 
    18   15   16 ar 
    19   16   17 1  
    20   17   18 1  
    21   17   19 1  
    22   19   20 1  
    23   20   21 1  
    24   20   22 1  
    25   22   23 1  
    26   22   24 1  
    27   24   25 1  
    28   24   26 1  
    29   26   27 1  
    30   27   28 1  
    31   28   29 ar 
    32   28   30 ar 
    33   28   31 ar 
    34    4   32 1  
    35   10   33 1  
    36   12   34 1  
    37   12   35 1  
    38   12   36 1  
    39   14   37 1  
    40   14   38 1  
    41   14   39 1  
    42   15   40 1  
    43   19   41 1  
    44   19   42 1  
    45   20   43 1  
    46   21   44 1  
    47   22   45 1  
    48   23   46 1  
    49   24   47 1  
    50   25   48 1  
    51   26   49 1  
    52   26   50 1  
@<TRIPOS>SUBSTRUCTURE
     1 FMN         1

