1c7f_ligand
  -I-interpret- 

 52 54  0  0  0  0  0  0  0  0999 V2000
    7.4490   -0.1850    1.2860 N   0  0  0  0  0
    7.7240    1.1690    1.0820 C   0  0  0  0  0
    8.3660    1.5120   -0.0350 O   0  0  0  0  0
    7.2760    2.1550    1.9220 N   0  0  0  0  0
    6.6100    1.8570    3.0750 C   0  0  0  0  0
    6.1690    2.7160    4.0270 O   0  0  0  0  0
    6.3450    0.4520    3.2920 C   0  0  0  0  0
    5.6840    0.2030    4.4650 N   0  0  0  0  0
    5.3040   -1.1480    4.5890 C   0  0  0  0  0
    4.4620   -1.4240    5.6970 C   0  0  0  0  0
    4.0700   -2.7560    5.8320 C   0  0  0  0  0
    3.1910   -3.0870    6.9160 C   0  0  0  0  0
    4.4630   -3.7640    4.9510 C   0  0  0  0  0
    4.0190   -5.1250    5.1000 C   0  0  0  0  0
    5.3010   -3.4720    3.8670 C   0  0  0  0  0
    5.7370   -2.1150    3.7190 C   0  0  0  0  0
    6.5510   -1.9070    2.6360 N   0  0  0  0  0
    6.8020   -0.5420    2.4350 C   0  0  0  0  0
    6.9740   -2.8560    1.7040 C   0  0  0  0  0
    8.2400   -3.6080    2.1630 C   0  0  0  0  0
    9.2970   -2.6670    2.3310 O   0  0  0  0  0
    8.6730   -4.5670    0.9780 C   0  0  0  0  0
    7.7930   -5.6930    1.1830 O   0  0  0  0  0
   10.0830   -4.9730    0.9210 C   0  0  0  0  0
   10.4260   -5.7390   -0.2580 O   0  0  0  0  0
   10.5910   -5.6340    2.1310 C   0  0  0  0  0
   11.9920   -5.8610    1.8570 O   0  0  0  0  0
   12.8930   -6.8080    2.9100 P   0  0  0  0  0
   12.6350   -6.5440    4.5040 O   0  0  0  0  0
   14.4970   -6.6700    2.4650 O   0  0  0  0  0
   12.5270   -8.4080    2.4990 O   0  0  0  0  0
    7.4439    3.1316    1.6803 H   0  0  0  0  0
    4.1435   -0.6491    6.3943 H   0  0  0  0  0
    3.6701   -2.8323    7.8613 H   0  0  0  0  0
    2.2630   -2.5243    6.8144 H   0  0  0  0  0
    2.9742   -4.1550    6.8932 H   0  0  0  0  0
    4.3430   -5.5076    6.0678 H   0  0  0  0  0
    2.9312   -5.1596    5.0399 H   0  0  0  0  0
    4.4477   -5.7348    4.3048 H   0  0  0  0  0
    5.6091   -4.2461    3.1642 H   0  0  0  0  0
    7.2092   -2.3353    0.7758 H   0  0  0  0  0
    6.1745   -3.5864    1.5800 H   0  0  0  0  0
    8.0462   -4.1497    3.0888 H   0  0  0  0  0
   10.0902   -3.1261    2.6169 H   0  0  0  0  0
    8.5856   -4.0580    0.0181 H   0  0  0  0  0
    7.9633   -6.3573    0.5112 H   0  0  0  0  0
   10.5980   -4.0145    0.8560 H   0  0  0  0  0
   11.3576   -5.9690   -0.2289 H   0  0  0  0  0
   10.0603   -6.5620    2.3435 H   0  0  0  0  0
   10.4421   -5.0251    3.0227 H   0  0  0  0  0
   14.5820   -6.8353    1.5232 H   0  0  0  0  0
   12.6852   -8.5406    1.5614 H   0  0  0  0  0
  1  2  1  0  0  0
  1 18  2  0  0  0
  2  3  2  0  0  0
  2  4  1  0  0  0
  4  5  1  0  0  0
  5  6  2  0  0  0
  5  7  1  0  0  0
  7  8  2  0  0  0
  7 18  1  0  0  0
  8  9  1  0  0  0
  9 10  4  0  0  0
  9 16  4  0  0  0
 10 11  4  0  0  0
 11 12  1  0  0  0
 11 13  4  0  0  0
 13 14  1  0  0  0
 13 15  4  0  0  0
 15 16  4  0  0  0
 16 17  1  0  0  0
 17 18  1  0  0  0
 17 19  1  0  0  0
 19 20  1  0  0  0
 20 21  1  0  0  0
 20 22  1  0  0  0
 22 23  1  0  0  0
 22 24  1  0  0  0
 24 25  1  0  0  0
 24 26  1  0  0  0
 26 27  1  0  0  0
 27 28  1  0  0  0
 28 29  2  0  0  0
 28 30  1  0  0  0
 28 31  1  0  0  0
  4 32  1  0  0  0
 10 33  1  0  0  0
 12 34  1  0  0  0
 12 35  1  0  0  0
 12 36  1  0  0  0
 14 37  1  0  0  0
 14 38  1  0  0  0
 14 39  1  0  0  0
 15 40  1  0  0  0
 19 41  1  0  0  0
 19 42  1  0  0  0
 20 43  1  0  0  0
 21 44  1  0  0  0
 22 45  1  0  0  0
 23 46  1  0  0  0
 24 47  1  0  0  0
 25 48  1  0  0  0
 26 49  1  0  0  0
 26 50  1  0  0  0
 30 51  1  0  0  0
 31 52  1  0  0  0
M  END
$$$$
