1jd6_ligand
  -I-interpret- 

133136  0  0  0  0  0  0  0  0999 V2000
   10.8340   42.4700   12.8530 N   0  3  0  0  0
    9.4690   42.6000   13.4220 C   0  0  0  0  0
    8.4130   42.6540   12.3100 C   0  0  0  0  0
    8.7140   43.0160   11.1680 O   0  0  0  0  0
    9.4000   43.8370   14.3300 C   0  0  0  0  0
    7.1870   42.2340   12.6350 N   0  0  0  0  0
    6.0620   42.2330   11.6980 C   0  0  0  0  0
    4.8910   42.9790   12.3710 C   0  0  0  0  0
    4.7570   42.9480   13.5870 O   0  0  0  0  0
    5.6880   40.7550   11.2820 C   0  0  0  0  0
    4.4030   40.7180   10.4570 C   0  0  0  0  0
    6.8140   40.1430   10.4580 C   0  0  0  0  0
    4.1530   43.7930   11.6240 N   0  0  0  0  0
    3.0380   44.4740   12.2930 C   0  0  0  0  0
    1.8320   43.5750   12.5610 C   0  0  0  0  0
    1.6020   42.5990   11.8360 O   0  0  0  0  0
    2.6830   45.5660   11.2850 C   0  0  0  0  0
    2.9780   44.9280    9.9820 C   0  0  0  0  0
    4.3590   44.3340   10.2770 C   0  0  0  0  0
    1.0930   43.8870   13.6180 N   0  0  0  0  0
   -0.1240   43.1460   13.9310 C   0  0  0  0  0
   -1.3000   44.0920   13.7350 C   0  0  0  0  0
   -2.4700   43.6810   13.7370 O   0  0  0  0  0
   -0.1130   42.5270   15.3480 C   0  0  0  0  0
    0.0500   43.5170   16.4830 C   0  0  0  0  0
   -1.0470   44.1530   17.0590 C   0  0  0  0  0
    1.3020   43.7620   17.0340 C   0  0  0  0  0
   -0.8790   44.9980   18.1620 C   0  0  0  0  0
    1.4560   44.6100   18.1410 C   0  0  0  0  0
    0.3750   45.2170   18.6940 C   0  0  0  0  0
   -0.9680   45.3620   13.4980 N   0  0  0  0  0
   -1.9370   46.4400   13.2690 C   0  0  0  0  0
   -1.2410   47.6070   12.5690 C   0  0  0  0  0
   -0.1610   48.0290   12.9760 O   0  0  0  0  0
   -2.5760   46.9350   14.5920 C   0  0  0  0  0
   -3.4450   48.1760   14.4250 C   0  0  0  0  0
   -4.6940   48.1110   13.8130 C   0  0  0  0  0
   -3.0040   49.4260   14.8320 C   0  0  0  0  0
   -5.4750   49.2640   13.6120 C   0  0  0  0  0
   -3.7790   50.5800   14.6320 C   0  0  0  0  0
   -5.0030   50.4880   14.0220 C   0  0  0  0  0
   -5.7280   51.6390   13.7970 O   0  0  0  0  0
   -1.8620   48.0860   11.4930 N   0  0  0  0  0
   -1.3790   49.2070   10.7010 C   0  0  0  0  0
   -2.5610   50.1750   10.5710 C   0  0  0  0  0
   -3.7020   49.7430   10.5010 O   0  0  0  0  0
   -0.9410   48.7130    9.3150 C   0  0  0  0  0
    0.3110   47.8300    9.2030 C   0  0  0  0  0
    0.4730   47.3150    7.7710 C   0  0  0  0  0
    1.5450   48.6470    9.5870 C   0  0  0  0  0
   -2.3050   51.4960   10.6040 N   0  0  0  0  0
   -3.3800   52.4970   10.4850 C   0  0  0  0  0
   -4.1100   52.3200    9.1570 C   0  0  0  0  0
   -3.5010   51.8710    8.1710 O   0  0  0  0  0
   -2.6110   53.8240   10.5090 C   0  0  0  0  0
   -1.4400   53.5270   11.3640 C   0  0  0  0  0
   -1.0150   52.1460   10.8590 C   0  0  0  0  0
   -5.3930   52.6880    9.1320 N   0  0  0  0  0
   -6.2300   52.5670    7.9360 C   0  0  0  0  0
   -5.7240   53.4550    6.7970 C   0  0  0  0  0
   -5.2950   54.6000    7.0680 O   0  0  0  0  0
   -7.6980   52.9090    8.2580 C   0  0  0  0  0
   -8.3910   51.9770    9.2630 C   0  0  0  0  0
   -8.1680   52.3860   10.7100 C   0  0  0  0  0
   -8.8880   53.2900   11.1910 O   0  0  0  0  0
   -7.2790   51.8070   11.3660 O   0  0  0  0  0
   10.8733   41.6473   12.2514 H   0  0  0  0  0
   11.0541   43.3029   12.3069 H   0  0  0  0  0
   11.5091   42.3709   13.6112 H   0  0  0  0  0
    9.2511   41.7195   14.0264 H   0  0  0  0  0
    9.5730   44.7334   13.7344 H   0  0  0  0  0
    8.4149   43.8915   14.7933 H   0  0  0  0  0
   10.1634   43.7608   15.1043 H   0  0  0  0  0
    7.0266   41.8969   13.5842 H   0  0  0  0  0
    6.3208   42.7467   10.7721 H   0  0  0  0  0
    5.5373   40.1842   12.1983 H   0  0  0  0  0
    3.5833   41.1310   11.0449 H   0  0  0  0  0
    4.5368   41.3100    9.5516 H   0  0  0  0  0
    4.1751   39.6866   10.1878 H   0  0  0  0  0
    6.9706   40.7397    9.5594 H   0  0  0  0  0
    7.7291   40.1283   11.0500 H   0  0  0  0  0
    6.5450   39.1247   10.1772 H   0  0  0  0  0
    3.3146   44.8304   13.2853 H   0  0  0  0  0
    3.2481   46.4847   11.4422 H   0  0  0  0  0
    1.6475   45.8960   11.3681 H   0  0  0  0  0
    2.9558   45.6112    9.1330 H   0  0  0  0  0
    2.2348   44.1977    9.6618 H   0  0  0  0  0
    4.6821   43.5899    9.5490 H   0  0  0  0  0
    5.1716   45.0577   10.2134 H   0  0  0  0  0
    1.3805   44.6574   14.2215 H   0  0  0  0  0
   -0.2045   42.2913   13.2594 H   0  0  0  0  0
    0.7463   41.8578   15.3905 H   0  0  0  0  0
   -1.0819   42.0475   15.4876 H   0  0  0  0  0
   -2.0435   43.9915   16.6479 H   0  0  0  0  0
    2.1806   43.2865   16.5981 H   0  0  0  0  0
   -1.7466   45.4874   18.6046 H   0  0  0  0  0
    2.4479   44.7822   18.5588 H   0  0  0  0  0
    0.4972   45.8746   19.5547 H   0  0  0  0  0
    0.0237   45.5992   13.4744 H   0  0  0  0  0
   -2.7364   46.0444   12.6424 H   0  0  0  0  0
   -1.7629   47.1949   15.2698 H   0  0  0  0  0
   -3.2169   46.1356   14.9638 H   0  0  0  0  0
   -5.0754   47.1450   13.4821 H   0  0  0  0  0
   -2.0328   49.5151   15.3187 H   0  0  0  0  0
   -6.4510   49.1868   13.1328 H   0  0  0  0  0
   -3.4068   51.5498   14.9622 H   0  0  0  0  0
   -5.2477   52.3922   14.1485 H   0  0  0  0  0
   -2.7322   47.6383   11.2054 H   0  0  0  0  0
   -0.5204   49.6910   11.1665 H   0  0  0  0  0
   -0.6984   49.6176    8.7573 H   0  0  0  0  0
   -1.7610   48.0842    8.9681 H   0  0  0  0  0
    0.2032   46.9796    9.8762 H   0  0  0  0  0
   -0.4029   46.7272    7.4964 H   0  0  0  0  0
    0.5721   48.1611    7.0910 H   0  0  0  0  0
    1.3647   46.6912    7.7093 H   0  0  0  0  0
    1.6387   49.4993    8.9141 H   0  0  0  0  0
    1.4397   49.0018   10.6123 H   0  0  0  0  0
    2.4333   48.0203    9.5075 H   0  0  0  0  0
   -4.1381   52.4266   11.2650 H   0  0  0  0  0
   -3.2113   54.6487   10.8932 H   0  0  0  0  0
   -2.3266   54.1610    9.5122 H   0  0  0  0  0
   -1.6696   53.5439   12.4294 H   0  0  0  0  0
   -0.6507   54.2749   11.2879 H   0  0  0  0  0
   -0.3751   52.1898    9.9777 H   0  0  0  0  0
   -0.3936   51.6018   11.5702 H   0  0  0  0  0
   -5.8081   53.0697    9.9819 H   0  0  0  0  0
   -6.1709   51.5297    7.6064 H   0  0  0  0  0
   -5.7367   53.0971    5.7675 H   0  0  0  0  0
   -8.2492   52.8198    7.3219 H   0  0  0  0  0
   -7.6931   53.9015    8.7086 H   0  0  0  0  0
   -7.9710   50.9796    9.1329 H   0  0  0  0  0
   -9.4627   52.0197    9.0688 H   0  0  0  0  0
   -9.5031   53.5979   10.5214 H   0  0  0  0  0
  1  2  1  0  0  0
  2  3  1  0  0  0
  2  5  1  0  0  0
  3  4  2  0  0  0
  3  6  1  0  0  0
  6  7  1  0  0  0
  7  8  1  0  0  0
  7 10  1  0  0  0
  8  9  2  0  0  0
  8 13  1  0  0  0
 10 11  1  0  0  0
 10 12  1  0  0  0
 13 14  1  0  0  0
 13 19  1  0  0  0
 14 15  1  0  0  0
 14 17  1  0  0  0
 15 16  2  0  0  0
 15 20  1  0  0  0
 17 18  1  0  0  0
 18 19  1  0  0  0
 20 21  1  0  0  0
 21 22  1  0  0  0
 21 24  1  0  0  0
 22 23  2  0  0  0
 22 31  1  0  0  0
 24 25  1  0  0  0
 25 26  4  0  0  0
 25 27  4  0  0  0
 26 28  4  0  0  0
 27 29  4  0  0  0
 28 30  4  0  0  0
 29 30  4  0  0  0
 31 32  1  0  0  0
 32 33  1  0  0  0
 32 35  1  0  0  0
 33 34  2  0  0  0
 33 43  1  0  0  0
 35 36  1  0  0  0
 36 37  4  0  0  0
 36 38  4  0  0  0
 37 39  4  0  0  0
 38 40  4  0  0  0
 39 41  4  0  0  0
 40 41  4  0  0  0
 41 42  1  0  0  0
 43 44  1  0  0  0
 44 45  1  0  0  0
 44 47  1  0  0  0
 45 46  2  0  0  0
 45 51  1  0  0  0
 47 48  1  0  0  0
 48 49  1  0  0  0
 48 50  1  0  0  0
 51 52  1  0  0  0
 51 57  1  0  0  0
 52 53  1  0  0  0
 52 55  1  0  0  0
 53 54  2  0  0  0
 53 58  1  0  0  0
 55 56  1  0  0  0
 56 57  1  0  0  0
 58 59  1  0  0  0
 59 60  1  0  0  0
 59 62  1  0  0  0
 60 61  2  0  0  0
 62 63  1  0  0  0
 63 64  1  0  0  0
 64 65  1  0  0  0
 64 66  2  0  0  0
  1 67  1  0  0  0
  1 68  1  0  0  0
  1 69  1  0  0  0
  2 70  1  0  0  0
  5 71  1  0  0  0
  5 72  1  0  0  0
  5 73  1  0  0  0
  6 74  1  0  0  0
  7 75  1  0  0  0
 10 76  1  0  0  0
 11 77  1  0  0  0
 11 78  1  0  0  0
 11 79  1  0  0  0
 12 80  1  0  0  0
 12 81  1  0  0  0
 12 82  1  0  0  0
 14 83  1  0  0  0
 17 84  1  0  0  0
 17 85  1  0  0  0
 18 86  1  0  0  0
 18 87  1  0  0  0
 19 88  1  0  0  0
 19 89  1  0  0  0
 20 90  1  0  0  0
 21 91  1  0  0  0
 24 92  1  0  0  0
 24 93  1  0  0  0
 26 94  1  0  0  0
 27 95  1  0  0  0
 28 96  1  0  0  0
 29 97  1  0  0  0
 30 98  1  0  0  0
 31 99  1  0  0  0
 32100  1  0  0  0
 35101  1  0  0  0
 35102  1  0  0  0
 37103  1  0  0  0
 38104  1  0  0  0
 39105  1  0  0  0
 40106  1  0  0  0
 42107  1  0  0  0
 43108  1  0  0  0
 44109  1  0  0  0
 47110  1  0  0  0
 47111  1  0  0  0
 48112  1  0  0  0
 49113  1  0  0  0
 49114  1  0  0  0
 49115  1  0  0  0
 50116  1  0  0  0
 50117  1  0  0  0
 50118  1  0  0  0
 52119  1  0  0  0
 55120  1  0  0  0
 55121  1  0  0  0
 56122  1  0  0  0
 56123  1  0  0  0
 57124  1  0  0  0
 57125  1  0  0  0
 58126  1  0  0  0
 59127  1  0  0  0
 60128  1  0  0  0
 62129  1  0  0  0
 62130  1  0  0  0
 63131  1  0  0  0
 63132  1  0  0  0
 65133  1  0  0  0
M  END
$$$$
