### 
### Created by X-TOOL on Mon Sep 10 21:12:48 2018
### 

@<TRIPOS>MOLECULE
1jd6_ligand
  132   135     1     0     0
SMALL
GAST_HUCK


@<TRIPOS>ATOM
      1 N          10.8340   42.4700   12.8530 N.4       1 ALA         0.2377
      2 CA          9.4690   42.6000   13.4220 C.3       1 ALA         0.0621
      3 C           8.4130   42.6540   12.3100 C.2       1 ALA         0.2264
      4 O           8.7140   43.0160   11.1680 O.2       1 ALA        -0.3907
      5 CB          9.4000   43.8370   14.3300 C.3       1 ALA        -0.0040
      6 N           7.1870   42.2340   12.6350 N.am      1 VAL        -0.2608
      7 CA          6.0620   42.2330   11.6980 C.3       1 VAL         0.1336
      8 C           4.8910   42.9790   12.3710 C.2       1 VAL         0.2067
      9 O           4.7570   42.9480   13.5870 O.2       1 VAL        -0.3942
     10 CB          5.6880   40.7550   11.2820 C.3       1 VAL        -0.0062
     11 CG1         4.4030   40.7180   10.4570 C.3       1 VAL        -0.0584
     12 CG2         6.8140   40.1430   10.4580 C.3       1 VAL        -0.0584
     13 N           4.1530   43.7930   11.6240 N.am      1 PRO        -0.2498
     14 CA          3.0380   44.4740   12.2930 C.3       1 PRO         0.1338
     15 C           1.8320   43.5750   12.5610 C.2       1 PRO         0.2042
     16 O           1.6020   42.5990   11.8360 O.2       1 PRO        -0.3944
     17 CB          2.6830   45.5660   11.2850 C.3       1 PRO        -0.0104
     18 CG          2.9780   44.9280    9.9820 C.3       1 PRO        -0.0281
     19 CD          4.3590   44.3340   10.2770 C.3       1 PRO         0.0369
     20 N           1.0930   43.8870   13.6180 N.am      1 PHE        -0.2619
     21 CA         -0.1240   43.1460   13.9310 C.3       1 PHE         0.1404
     22 C          -1.3000   44.0920   13.7350 C.2       1 PHE         0.2061
     23 O          -2.4700   43.6810   13.7370 O.2       1 PHE        -0.3942
     24 CB         -0.1130   42.5270   15.3480 C.3       1 PHE         0.0214
     25 CG          0.0500   43.5170   16.4830 C.ar      1 PHE        -0.0386
     26 CD1        -1.0470   44.1530   17.0590 C.ar      1 PHE        -0.0601
     27 CD2         1.3020   43.7620   17.0340 C.ar      1 PHE        -0.0601
     28 CE1        -0.8790   44.9980   18.1620 C.ar      1 PHE        -0.0686
     29 CE2         1.4560   44.6100   18.1410 C.ar      1 PHE        -0.0686
     30 CZ          0.3750   45.2170   18.6940 C.ar      1 PHE        -0.0687
     31 N          -0.9680   45.3620   13.4980 N.am      1 TYR        -0.2620
     32 CA         -1.9370   46.4400   13.2690 C.3       1 TYR         0.1390
     33 C          -1.2410   47.6070   12.5690 C.2       1 TYR         0.2057
     34 O          -0.1610   48.0290   12.9760 O.2       1 TYR        -0.3942
     35 CB         -2.5760   46.9350   14.5920 C.3       1 TYR         0.0163
     36 CG         -3.4450   48.1760   14.4250 C.ar      1 TYR        -0.0493
     37 CD1        -4.6940   48.1110   13.8130 C.ar      1 TYR        -0.0685
     38 CD2        -3.0040   49.4260   14.8320 C.ar      1 TYR        -0.0685
     39 CE1        -5.4750   49.2640   13.6120 C.ar      1 TYR        -0.0398
     40 CE2        -3.7790   50.5800   14.6320 C.ar      1 TYR        -0.0398
     41 CZ         -5.0030   50.4880   14.0220 C.ar      1 TYR         0.0805
     42 OH         -5.7280   51.6390   13.7970 O.3       1 TYR        -0.3376
     43 N          -1.8620   48.0860   11.4930 N.am      1 LEU        -0.2636
     44 CA         -1.3790   49.2070   10.7010 C.3       1 LEU         0.1314
     45 C          -2.5610   50.1750   10.5710 C.2       1 LEU         0.2064
     46 O          -3.7020   49.7430   10.5010 O.2       1 LEU        -0.3942
     47 CB         -0.9410   48.7130    9.3150 C.3       1 LEU        -0.0101
     48 CG          0.3110   47.8300    9.2030 C.3       1 LEU        -0.0425
     49 CD1         0.4730   47.3150    7.7710 C.3       1 LEU        -0.0625
     50 CD2         1.5450   48.6470    9.5870 C.3       1 LEU        -0.0625
     51 N          -2.3050   51.4960   10.6040 N.am      1 PRO        -0.2498
     52 CA         -3.3800   52.4970   10.4850 C.3       1 PRO         0.1338
     53 C          -4.1100   52.3200    9.1570 C.2       1 PRO         0.2042
     54 O          -3.5010   51.8710    8.1710 O.2       1 PRO        -0.3944
     55 CB         -2.6110   53.8240   10.5090 C.3       1 PRO        -0.0104
     56 CG         -1.4400   53.5270   11.3640 C.3       1 PRO        -0.0281
     57 CD         -1.0150   52.1460   10.8590 C.3       1 PRO         0.0369
     58 N          -5.3930   52.6880    9.1320 N.am      1 GLU        -0.2649
     59 CA         -6.2300   52.5670    7.9360 C.3       1 GLU         0.1143
     60 C          -5.7240   53.4550    6.7970 C.2       1 GLU         0.1246
     61 O          -5.2950   54.6000    7.0680 O.2       1 GLU        -0.3725
     62 CB         -7.6980   52.9090    8.2580 C.3       1 GLU        -0.0021
     63 CG         -8.3910   51.9770    9.2630 C.3       1 GLU         0.0045
     64 CD         -8.1680   52.3860   10.7100 C.2       1 GLU         0.0350
     65 OE1        -8.8880   53.2900   11.1910 O.co2     1 GLU        -0.5690
     66 OE2        -7.2790   51.8070   11.3660 O.co2     1 GLU        -0.5690
     67 H1         11.5083   42.4367   13.6016 H         1 ALA         0.2015
     68 H2         11.0281   43.2624   12.2610 H         1 ALA         0.2015
     69 H3         10.8925   41.6227   12.3102 H         1 ALA         0.2015
     70 H4          9.2661   41.7115   14.0380 H         1 ALA         0.1095
     71 H5          8.3869   43.9284   14.7487 H         1 ALA         0.0310
     72 H6          9.6366   44.7366   13.7428 H         1 ALA         0.0310
     73 H7         10.1270   43.7319   15.1488 H         1 ALA         0.0310
     74 H8          7.0298   41.9035   13.5656 H         1 VAL         0.1885
     75 H9          6.3510   42.7804   10.7887 H         1 VAL         0.0803
     76 H10         5.5431   40.1587   12.1949 H         1 VAL         0.0343
     77 H11         4.1719   39.6776   10.1847 H         1 VAL         0.0234
     78 H12         4.5368   41.3151    9.5429 H         1 VAL         0.0234
     79 H13         3.5749   41.1345   11.0492 H         1 VAL         0.0234
     80 H14         7.7470   40.1629   11.0403 H         1 VAL         0.0234
     81 H15         6.9472   40.7218    9.5321 H         1 VAL         0.0234
     82 H16         6.5608   39.1025   10.2067 H         1 VAL         0.0234
     83 H17         3.3719   44.9093   13.2464 H         1 PRO         0.0802
     84 H18         3.3048   46.4607   11.4365 H         1 PRO         0.0313
     85 H19         1.6205   45.8411   11.3585 H         1 PRO         0.0313
     86 H20         3.0176   45.6656    9.1669 H         1 PRO         0.0287
     87 H21         2.2433   44.1476    9.7349 H         1 PRO         0.0287
     88 H22         4.6189   43.5417    9.5595 H         1 PRO         0.0524
     89 H23         5.1410   45.1076   10.2683 H         1 PRO         0.0524
     90 H24         1.3749   44.6423   14.2096 H         1 PHE         0.1885
     91 H25        -0.2178   42.3189   13.2119 H         1 PHE         0.0823
     92 H26         0.7196   41.8100   15.3997 H         1 PHE         0.0474
     93 H27        -1.0647   41.9951   15.4944 H         1 PHE         0.0474
     94 H28        -2.0380   43.9924   16.6501 H         1 PHE         0.0557
     95 H29         2.1758   43.2892   16.6005 H         1 PHE         0.0557
     96 H30        -1.7418   45.4847   18.6022 H         1 PHE         0.0599
     97 H31         2.4424   44.7812   18.5565 H         1 PHE         0.0599
     98 H32         0.4965   45.8710   19.5499 H         1 PHE         0.0559
     99 H33         0.0043   45.5946   13.4749 H         1 TYR         0.1885
    100 H34        -2.7368   46.0578   12.6176 H         1 TYR         0.0821
    101 H35        -1.7687   47.1691   15.3015 H         1 TYR         0.0453
    102 H36        -3.2000   46.1264   15.0003 H         1 TYR         0.0453
    103 H37        -5.0733   47.1503   13.4839 H         1 TYR         0.0530
    104 H38        -2.0381   49.5146   15.3160 H         1 TYR         0.0530
    105 H39        -6.4456   49.1872   13.1354 H         1 TYR         0.0525
    106 H40        -3.4088   51.5445   14.9604 H         1 TYR         0.0525
    107 H41        -6.5475   51.4175   13.3705 H         1 TYR         0.2458
    108 H42        -2.7152   47.6471   11.2111 H         1 LEU         0.1883
    109 H43        -0.5332   49.6988   11.2037 H         1 LEU         0.0800
    110 H44        -0.7636   49.6046    8.6957 H         1 LEU         0.0315
    111 H45        -1.7802   48.1375    8.8973 H         1 LEU         0.0315
    112 H46         0.2120   46.9740    9.8867 H         1 LEU         0.0298
    113 H47         1.3727   46.6853    7.7074 H         1 LEU         0.0232
    114 H48         0.5732   48.1680    7.0837 H         1 LEU         0.0232
    115 H49        -0.4103   46.7215    7.4926 H         1 LEU         0.0232
    116 H50         1.4326   49.0192   10.6160 H         1 LEU         0.0232
    117 H51         1.6499   49.4985    8.8985 H         1 LEU         0.0232
    118 H52         2.4403   48.0111    9.5229 H         1 LEU         0.0232
    119 H53        -4.0928   52.4289   11.3200 H         1 PRO         0.0802
    120 H54        -3.2239   54.6262   10.9459 H         1 PRO         0.0313
    121 H55        -2.2951   54.1142    9.4961 H         1 PRO         0.0313
    122 H56        -1.7201   53.4943   12.4272 H         1 PRO         0.0287
    123 H57        -0.6408   54.2686   11.2180 H         1 PRO         0.0287
    124 H58        -0.4195   52.2247    9.9375 H         1 PRO         0.0524
    125 H59        -0.4391   51.6026   11.6225 H         1 PRO         0.0524
    126 H60        -5.8000   53.0622    9.9653 H         1 GLU         0.1884
    127 H61        -6.1865   51.5212    7.5978 H         1 GLU         0.0791
    128 H62        -5.7367   53.0974    5.7685 H         1 GLU         0.1373
    129 H63        -8.2674   52.8760    7.3175 H         1 GLU         0.0331
    130 H64        -7.7258   53.9294    8.6679 H         1 GLU         0.0331
    131 H65        -7.9995   50.9586    9.1231 H         1 GLU         0.0433
    132 H66        -9.4720   51.9854    9.0599 H         1 GLU         0.0433
@<TRIPOS>BOND
     1    1    2 1  
     2    2    3 1  
     3    2    5 1  
     4    3    4 2  
     5    3    6 am 
     6    6    7 1  
     7    7    8 1  
     8    7   10 1  
     9    8    9 2  
    10    8   13 am 
    11   10   11 1  
    12   10   12 1  
    13   13   14 1  
    14   13   19 1  
    15   14   15 1  
    16   14   17 1  
    17   15   16 2  
    18   15   20 am 
    19   17   18 1  
    20   18   19 1  
    21   20   21 1  
    22   21   22 1  
    23   21   24 1  
    24   22   23 2  
    25   22   31 am 
    26   24   25 1  
    27   25   26 ar 
    28   25   27 ar 
    29   26   28 ar 
    30   27   29 ar 
    31   28   30 ar 
    32   29   30 ar 
    33   31   32 1  
    34   32   33 1  
    35   32   35 1  
    36   33   34 2  
    37   33   43 am 
    38   35   36 1  
    39   36   37 ar 
    40   36   38 ar 
    41   37   39 ar 
    42   38   40 ar 
    43   39   41 ar 
    44   40   41 ar 
    45   41   42 1  
    46   43   44 1  
    47   44   45 1  
    48   44   47 1  
    49   45   46 2  
    50   45   51 am 
    51   47   48 1  
    52   48   49 1  
    53   48   50 1  
    54   51   52 1  
    55   51   57 1  
    56   52   53 1  
    57   52   55 1  
    58   53   54 2  
    59   53   58 am 
    60   55   56 1  
    61   56   57 1  
    62   58   59 1  
    63   59   60 1  
    64   59   62 1  
    65   60   61 2  
    66   62   63 1  
    67   63   64 1  
    68   64   65 ar 
    69   64   66 ar 
    70    1   67 1  
    71    1   68 1  
    72    1   69 1  
    73    2   70 1  
    74    5   71 1  
    75    5   72 1  
    76    5   73 1  
    77    6   74 1  
    78    7   75 1  
    79   10   76 1  
    80   11   77 1  
    81   11   78 1  
    82   11   79 1  
    83   12   80 1  
    84   12   81 1  
    85   12   82 1  
    86   14   83 1  
    87   17   84 1  
    88   17   85 1  
    89   18   86 1  
    90   18   87 1  
    91   19   88 1  
    92   19   89 1  
    93   20   90 1  
    94   21   91 1  
    95   24   92 1  
    96   24   93 1  
    97   26   94 1  
    98   27   95 1  
    99   28   96 1  
   100   29   97 1  
   101   30   98 1  
   102   31   99 1  
   103   32  100 1  
   104   35  101 1  
   105   35  102 1  
   106   37  103 1  
   107   38  104 1  
   108   39  105 1  
   109   40  106 1  
   110   42  107 1  
   111   43  108 1  
   112   44  109 1  
   113   47  110 1  
   114   47  111 1  
   115   48  112 1  
   116   49  113 1  
   117   49  114 1  
   118   49  115 1  
   119   50  116 1  
   120   50  117 1  
   121   50  118 1  
   122   52  119 1  
   123   55  120 1  
   124   55  121 1  
   125   56  122 1  
   126   56  123 1  
   127   57  124 1  
   128   57  125 1  
   129   58  126 1  
   130   59  127 1  
   131   60  128 1  
   132   62  129 1  
   133   62  130 1  
   134   63  131 1  
   135   63  132 1  
@<TRIPOS>SUBSTRUCTURE
     1 ALA         1

