1d4y_ligand
  -I-interpret- 

 75 78  0  0  0  0  0  0  0  0999 V2000
   13.5490   21.4220    6.0780 O   0  0  0  0  0
   12.4870   22.2020    6.1190 C   0  0  0  0  0
   12.5470   23.5480    5.4880 C   0  0  0  0  0
   13.8030   23.9390    4.9840 C   0  0  0  0  0
   15.0300   23.2520    5.6000 C   0  0  0  0  0
   14.8980   22.0240    5.8860 C   0  0  0  0  0
   11.4380   21.7180    6.4840 O   0  0  0  0  0
   13.9930   25.1280    4.4030 O   0  0  0  0  0
   15.6730   21.2240    4.7930 C   0  0  0  0  0
   14.9300   20.7870    3.8080 C   0  0  0  0  0
   15.3040   19.6110    2.9400 C   0  0  0  0  0
   15.0230   21.5580    7.3030 C   0  0  0  0  0
   16.3690   21.8390    7.8000 C   0  0  0  0  0
   17.1530   21.0430    8.7130 C   0  0  0  0  0
   16.6590   20.0120    9.5070 C   0  0  0  0  0
   17.5300   19.2810   10.3400 C   0  0  0  0  0
   18.9090   19.5970   10.3740 C   0  0  0  0  0
   19.4220   20.6060    9.5180 C   0  0  0  0  0
   18.5020   21.4760    8.9050 C   0  0  0  0  0
   11.2280   24.2070    5.1080 C   0  0  0  0  0
   10.5910   24.7000    3.7600 C   0  0  0  0  0
   10.5880   23.7940    2.5510 C   0  0  0  0  0
   10.8290   25.1040    6.3000 C   0  0  0  0  0
   11.7510   25.5550    7.2160 C   0  0  0  0  0
   11.3690   26.4890    8.2190 C   0  0  0  0  0
    9.9960   26.7460    8.4140 C   0  0  0  0  0
    9.0780   26.3430    7.4490 C   0  0  0  0  0
    7.3690   26.7380    7.8330 N   0  0  0  0  0
    9.5070   25.5850    6.3530 C   0  0  0  0  0
    6.9640   28.0460    6.9890 S   0  0  0  0  0
    8.0020   29.0910    7.3030 O   0  0  0  0  0
    5.6120   28.3680    7.3120 O   0  0  0  0  0
    7.1250   27.6670    5.2960 C   0  0  0  0  0
    8.2710   28.0670    4.6760 N   0  0  0  0  0
    8.3810   27.8220    3.3630 C   0  0  0  0  0
    7.4360   27.0880    2.6350 C   0  0  0  0  0
    6.2390   26.7490    3.2440 C   0  0  0  0  0
    6.0790   27.0450    4.6200 C   0  0  0  0  0
    7.7270   26.7580    1.1740 C   0  0  0  0  0
    8.3860   27.9150    0.6730 F   0  0  0  0  0
    6.5010   26.5110    0.5690 F   0  0  0  0  0
    8.5950   25.6360    1.2270 F   0  0  0  0  0
   15.2258   23.7649    6.5416 H   0  0  0  0  0
   15.8188   23.3071    4.8498 H   0  0  0  0  0
   14.9095   25.2057    4.1280 H   0  0  0  0  0
   16.0997   20.3484    5.2823 H   0  0  0  0  0
   16.4063   21.9047    4.3606 H   0  0  0  0  0
   14.9400   21.6210    3.1063 H   0  0  0  0  0
   14.0310   20.4387    4.3165 H   0  0  0  0  0
   16.2497   19.8172    2.4387 H   0  0  0  0  0
   15.4069   18.7210    3.5608 H   0  0  0  0  0
   14.5247   19.4481    2.1955 H   0  0  0  0  0
   14.8395   20.4844    7.3468 H   0  0  0  0  0
   14.2940   22.0827    7.9205 H   0  0  0  0  0
   16.1934   22.7350    8.3954 H   0  0  0  0  0
   16.9558   21.7539    6.8854 H   0  0  0  0  0
   15.5966   19.7694    9.4846 H   0  0  0  0  0
   17.1412   18.4719   10.9583 H   0  0  0  0  0
   19.5748   19.0673   11.0553 H   0  0  0  0  0
   20.4932   20.7036    9.3414 H   0  0  0  0  0
   18.8140   22.4686    8.5802 H   0  0  0  0  0
   10.8121   23.2569    4.7727 H   0  0  0  0  0
   11.2055   25.5497    3.4626 H   0  0  0  0  0
    9.5365   24.8461    3.9940 H   0  0  0  0  0
   11.6147   23.5447    2.2828 H   0  0  0  0  0
   10.0401   22.8810    2.7841 H   0  0  0  0  0
   10.1071   24.3049    1.7169 H   0  0  0  0  0
   12.7790   25.1951    7.1732 H   0  0  0  0  0
   12.1214   26.9951    8.8238 H   0  0  0  0  0
    9.6562   27.2570    9.3148 H   0  0  0  0  0
    6.7628   26.2243    8.4726 H   0  0  0  0  0
    8.8159   25.3667    5.5389 H   0  0  0  0  0
    9.2502   28.2139    2.8347 H   0  0  0  0  0
    5.4410   26.2670    2.6792 H   0  0  0  0  0
    5.1550   26.7907    5.1393 H   0  0  0  0  0
  1  6  1  0  0  0
  1  2  1  0  0  0
  2  7  2  0  0  0
  2  3  1  0  0  0
  3 20  1  0  0  0
  3  4  2  0  0  0
  4  8  1  0  0  0
  4  5  1  0  0  0
  5  6  1  0  0  0
  6 12  1  0  0  0
  6  9  1  0  0  0
  9 10  1  0  0  0
 10 11  1  0  0  0
 12 13  1  0  0  0
 13 14  1  0  0  0
 14 19  4  0  0  0
 14 15  4  0  0  0
 15 16  4  0  0  0
 16 17  4  0  0  0
 17 18  4  0  0  0
 18 19  4  0  0  0
 20 23  1  0  0  0
 20 21  1  0  0  0
 21 22  1  0  0  0
 23 29  4  0  0  0
 23 24  4  0  0  0
 24 25  4  0  0  0
 25 26  4  0  0  0
 26 27  4  0  0  0
 27 29  4  0  0  0
 27 28  1  0  0  0
 28 30  1  0  0  0
 30 33  1  0  0  0
 30 32  2  0  0  0
 30 31  2  0  0  0
 33 38  4  0  0  0
 33 34  4  0  0  0
 34 35  4  0  0  0
 35 36  4  0  0  0
 36 39  1  0  0  0
 36 37  4  0  0  0
 37 38  4  0  0  0
 39 42  1  0  0  0
 39 40  1  0  0  0
 39 41  1  0  0  0
  5 43  1  0  0  0
  5 44  1  0  0  0
  8 45  1  0  0  0
  9 46  1  0  0  0
  9 47  1  0  0  0
 10 48  1  0  0  0
 10 49  1  0  0  0
 11 50  1  0  0  0
 11 51  1  0  0  0
 11 52  1  0  0  0
 12 53  1  0  0  0
 12 54  1  0  0  0
 13 55  1  0  0  0
 13 56  1  0  0  0
 15 57  1  0  0  0
 16 58  1  0  0  0
 17 59  1  0  0  0
 18 60  1  0  0  0
 19 61  1  0  0  0
 20 62  1  0  0  0
 21 63  1  0  0  0
 21 64  1  0  0  0
 22 65  1  0  0  0
 22 66  1  0  0  0
 22 67  1  0  0  0
 24 68  1  0  0  0
 25 69  1  0  0  0
 26 70  1  0  0  0
 28 71  1  0  0  0
 29 72  1  0  0  0
 35 73  1  0  0  0
 37 74  1  0  0  0
 38 75  1  0  0  0
M  END
$$$$
