3frz_ligand
  -I-interpret- 

 74 78  0  0  0  0  0  0  0  0999 V2000
   44.3910   15.1730   53.4050 O   0  0  0  0  0
   43.3270   14.6420   53.3930 C   0  0  0  0  0
   43.0870   13.5250   52.4850 C   0  0  0  0  0
   41.8380   12.9230   52.5130 C   0  0  0  0  0
   41.5840   11.8920   51.6950 O   0  0  0  0  0
   44.2620   13.0230   51.5630 C   0  0  0  0  0
   44.5410   13.8790   50.3340 C   0  0  0  0  0
   45.7290   14.0770   49.8250 N   0  0  0  0  0
   43.5340   14.5690   49.6350 N   0  0  0  0  0
   44.1590   15.1600   48.6940 C   0  0  0  0  0
   45.4790   14.8470   48.8200 N   0  0  0  0  0
   46.3370   15.3880   47.9440 C   0  0  0  0  0
   45.8850   16.2230   46.9550 C   0  0  0  0  0
   47.7950   15.0410   48.0970 C   0  0  0  0  0
   43.6220   15.9730   47.7660 N   0  0  0  0  0
   44.5030   16.4880   46.8930 C   0  0  0  0  0
   43.9820   17.4050   45.8200 C   0  0  0  0  0
   42.3030   15.0680   54.1570 O   0  0  0  0  0
   41.0500   14.4180   54.3730 C   0  0  0  0  0
   40.6630   13.3270   53.3690 C   0  0  0  0  0
   39.9540   15.4580   54.7220 C   0  0  0  0  0
   38.6510   14.9170   55.3320 C   0  0  0  0  0
   39.5430   16.3050   53.5470 C   0  0  0  0  0
   38.1800   16.9360   53.9030 C   0  0  0  0  0
   37.6030   15.9930   54.9470 C   0  0  0  0  0
   41.3930   13.5900   55.6550 C   0  0  0  0  0
   41.9230   14.4070   56.8880 C   0  0  0  0  0
   42.2090   13.4780   58.0000 C   0  0  0  0  0
   43.4390   12.7680   58.1400 C   0  0  0  0  0
   41.2750   13.2220   58.9650 C   0  0  0  0  0
   41.4860   12.3590   59.9760 C   0  0  0  0  0
   40.3700   12.1700   60.9790 C   0  0  0  0  0
   40.6310   12.9700   62.2710 C   0  0  0  0  0
   42.6520   11.6790   60.1470 N   0  0  0  0  0
   43.5830   11.9150   59.2220 C   0  0  0  0  0
   44.8850   11.1630   59.3880 C   0  0  0  0  0
   44.9860   10.0280   58.3810 C   0  0  0  0  0
   40.6837   11.5890   51.8339 H   0  0  0  0  0
   43.9708   12.0386   51.1966 H   0  0  0  0  0
   45.1664   13.0477   52.1709 H   0  0  0  0  0
   46.5746   16.6685   46.2380 H   0  0  0  0  0
   48.1425   15.3621   49.0790 H   0  0  0  0  0
   47.9227   13.9629   47.9996 H   0  0  0  0  0
   48.3710   15.5478   47.3227 H   0  0  0  0  0
   44.4441   18.3864   45.9267 H   0  0  0  0  0
   44.2254   16.9919   44.8411 H   0  0  0  0  0
   42.9004   17.4987   45.9176 H   0  0  0  0  0
   40.3221   12.4525   53.9231 H   0  0  0  0  0
   39.8798   13.7173   52.7191 H   0  0  0  0  0
   40.4738   16.0358   55.4863 H   0  0  0  0  0
   38.7225   14.7675   56.4093 H   0  0  0  0  0
   38.3922   13.9265   54.9579 H   0  0  0  0  0
   39.4647   15.7004   52.6434 H   0  0  0  0  0
   40.2862   17.0772   53.3485 H   0  0  0  0  0
   37.5310   17.0382   53.0333 H   0  0  0  0  0
   38.2801   17.9554   54.2758 H   0  0  0  0  0
   37.3348   16.5646   55.8355 H   0  0  0  0  0
   36.7209   15.5018   54.5362 H   0  0  0  0  0
   42.1969   12.9104   55.3721 H   0  0  0  0  0
   40.4604   13.1258   55.9758 H   0  0  0  0  0
   41.1684   15.1292   57.1998 H   0  0  0  0  0
   42.8342   14.9372   56.6110 H   0  0  0  0  0
   44.2434   12.8935   57.4152 H   0  0  0  0  0
   40.3172   13.7397   58.9133 H   0  0  0  0  0
   40.3100   11.1119   61.2339 H   0  0  0  0  0
   39.4411   12.5263   60.5336 H   0  0  0  0  0
   41.5635   12.6328   62.7235 H   0  0  0  0  0
   40.7047   14.0308   62.0314 H   0  0  0  0  0
   39.8086   12.8100   62.9683 H   0  0  0  0  0
   44.9232   10.7446   60.3938 H   0  0  0  0  0
   45.7126   11.8531   59.2236 H   0  0  0  0  0
   44.1580    9.3353   58.5319 H   0  0  0  0  0
   44.9413   10.4351   57.3709 H   0  0  0  0  0
   45.9308    9.5028   58.5209 H   0  0  0  0  0
  1  2  2  0  0  0
  2  3  1  0  0  0
  2 18  1  0  0  0
  3  4  2  0  0  0
  3  6  1  0  0  0
  4  5  1  0  0  0
  4 20  1  0  0  0
  6  7  1  0  0  0
  7  8  4  0  0  0
  7  9  4  0  0  0
  8 11  4  0  0  0
  9 10  4  0  0  0
 10 11  4  0  0  0
 10 15  4  0  0  0
 11 12  4  0  0  0
 12 13  4  0  0  0
 12 14  1  0  0  0
 13 16  4  0  0  0
 15 16  4  0  0  0
 16 17  1  0  0  0
 18 19  1  0  0  0
 19 20  1  0  0  0
 19 21  1  0  0  0
 19 26  1  0  0  0
 21 22  1  0  0  0
 21 23  1  0  0  0
 22 25  1  0  0  0
 23 24  1  0  0  0
 24 25  1  0  0  0
 26 27  1  0  0  0
 27 28  1  0  0  0
 28 29  4  0  0  0
 28 30  4  0  0  0
 29 35  4  0  0  0
 30 31  4  0  0  0
 31 32  1  0  0  0
 31 34  4  0  0  0
 32 33  1  0  0  0
 34 35  4  0  0  0
 35 36  1  0  0  0
 36 37  1  0  0  0
  5 38  1  0  0  0
  6 39  1  0  0  0
  6 40  1  0  0  0
 13 41  1  0  0  0
 14 42  1  0  0  0
 14 43  1  0  0  0
 14 44  1  0  0  0
 17 45  1  0  0  0
 17 46  1  0  0  0
 17 47  1  0  0  0
 20 48  1  0  0  0
 20 49  1  0  0  0
 21 50  1  0  0  0
 22 51  1  0  0  0
 22 52  1  0  0  0
 23 53  1  0  0  0
 23 54  1  0  0  0
 24 55  1  0  0  0
 24 56  1  0  0  0
 25 57  1  0  0  0
 25 58  1  0  0  0
 26 59  1  0  0  0
 26 60  1  0  0  0
 27 61  1  0  0  0
 27 62  1  0  0  0
 29 63  1  0  0  0
 30 64  1  0  0  0
 32 65  1  0  0  0
 32 66  1  0  0  0
 33 67  1  0  0  0
 33 68  1  0  0  0
 33 69  1  0  0  0
 36 70  1  0  0  0
 36 71  1  0  0  0
 37 72  1  0  0  0
 37 73  1  0  0  0
 37 74  1  0  0  0
M  END
$$$$
