1sdu_ligand
  -I-interpret- 

 94 98  0  0  0  0  0  0  0  0999 V2000
   22.4900   34.6490   16.2760 N   0  3  0  0  0
   21.0860   34.5220   15.6530 C   0  0  0  0  0
   20.2080   33.3980   16.2070 C   0  0  0  0  0
   18.8930   33.4290   15.5050 C   0  0  0  0  0
   18.9020   33.0570   14.3260 O   0  0  0  0  0
   17.9050   33.8850   16.2600 N   0  0  0  0  0
   16.5340   33.9160   15.8010 C   0  0  0  0  0
   15.6670   34.5990   16.9150 C   0  0  0  0  0
   16.0650   32.6010   15.6750 C   0  0  0  0  0
   16.3710   34.7240   14.6040 C   0  0  0  0  0
   21.0370   32.1620   15.8920 N   0  3  0  0  0
   22.3960   32.2170   16.4380 C   0  0  0  0  0
   23.1200   33.4410   15.9830 C   0  0  0  0  0
   20.3530   30.9880   16.4880 C   0  0  0  0  0
   20.5500   29.8030   15.5310 C   0  0  0  0  0
   20.4910   28.7330   16.4360 O   0  0  0  0  0
   19.3540   29.6770   14.5540 C   0  0  0  0  0
   19.4510   28.4760   13.5860 C   0  0  0  0  0
   18.1360   28.4130   12.7500 C   0  0  0  0  0
   18.1380   27.3760   11.6940 C   0  0  0  0  0
   18.2960   26.0280   12.0500 C   0  0  0  0  0
   18.3000   25.0690   11.0230 C   0  0  0  0  0
   18.1340   25.4980    9.7160 C   0  0  0  0  0
   17.9710   26.8340    9.3770 C   0  0  0  0  0
   17.9860   27.7900   10.3810 C   0  0  0  0  0
   20.5790   28.6310   12.5990 C   0  0  0  0  0
   20.8840   29.6850   11.9850 O   0  0  0  0  0
   21.2060   27.5160   12.3440 N   0  0  0  0  0
   22.2100   27.3920   11.3130 C   0  0  0  0  0
   22.1360   26.0410   10.6250 C   0  0  0  0  0
   22.0140   24.9160   11.5440 O   0  0  0  0  0
   23.4720   25.9700    9.8950 C   0  0  0  0  0
   24.5050   26.6700   10.7540 C   0  0  0  0  0
   25.8520   26.6850   10.9310 C   0  0  0  0  0
   26.4610   27.5260   11.8580 C   0  0  0  0  0
   25.7300   28.4010   12.6500 C   0  0  0  0  0
   24.3670   28.4300   12.4870 C   0  0  0  0  0
   23.6800   27.6230   11.6250 C   0  0  0  0  0
   23.1300   35.8060   15.6500 C   0  0  0  0  0
   22.5830   37.1560   16.0470 C   0  0  0  0  0
   22.5090   37.5080   17.3970 C   0  0  0  0  0
   21.9640   38.7480   17.7810 N   0  0  0  0  0
   21.5260   39.5520   16.7370 C   0  0  0  0  0
   21.5670   39.2460   15.3740 C   0  0  0  0  0
   22.1180   38.0100   15.0610 C   0  0  0  0  0
   22.5107   34.8022   17.2842 H   0  0  0  0  0
   21.2379   34.3004   14.5966 H   0  0  0  0  0
   20.5666   35.4545   15.8741 H   0  0  0  0  0
   19.9664   33.4563   17.2683 H   0  0  0  0  0
   18.1184   34.2260   17.1973 H   0  0  0  0  0
   14.6189   34.5875   16.6160 H   0  0  0  0  0
   15.7851   34.0533   17.8511 H   0  0  0  0  0
   15.9965   35.6292   17.0495 H   0  0  0  0  0
   16.1786   32.0833   16.6274 H   0  0  0  0  0
   15.0124   32.6175   15.3923 H   0  0  0  0  0
   16.6406   32.0833   14.9077 H   0  0  0  0  0
   15.3182   34.7459   14.3225 H   0  0  0  0  0
   16.7166   35.7386   14.8022 H   0  0  0  0  0
   16.9564   34.2914   13.7927 H   0  0  0  0  0
   21.1184   32.1012   14.8771 H   0  0  0  0  0
   22.9440   31.3420   16.0884 H   0  0  0  0  0
   22.3302   32.2394   17.5258 H   0  0  0  0  0
   24.0752   33.4518   16.5079 H   0  0  0  0  0
   23.1861   33.3789   14.8968 H   0  0  0  0  0
   19.2916   31.1946   16.6250 H   0  0  0  0  0
   20.7721   30.7599   17.4680 H   0  0  0  0  0
   21.4508   29.8724   14.9212 H   0  0  0  0  0
   20.6027   27.9066   15.9604 H   0  0  0  0  0
   19.3395   30.5808   13.9449 H   0  0  0  0  0
   18.4587   29.5315   15.1585 H   0  0  0  0  0
   19.6185   27.5824   14.1872 H   0  0  0  0  0
   18.0236   29.3771   12.2540 H   0  0  0  0  0
   17.3279   28.1686   13.4394 H   0  0  0  0  0
   18.4123   25.7333   13.0929 H   0  0  0  0  0
   18.4308   24.0109   11.2495 H   0  0  0  0  0
   18.1313   24.7540    8.9195 H   0  0  0  0  0
   17.8332   27.1274    8.3363 H   0  0  0  0  0
   17.8801   28.8481   10.1414 H   0  0  0  0  0
   20.9762   26.6919   12.8994 H   0  0  0  0  0
   21.9178   28.2466   10.7028 H   0  0  0  0  0
   21.2529   25.9657    9.9905 H   0  0  0  0  0
   21.9726   24.0981   11.0431 H   0  0  0  0  0
   23.3980   26.4541    8.9212 H   0  0  0  0  0
   23.7583   24.9315    9.7287 H   0  0  0  0  0
   26.4729   26.0201   10.3305 H   0  0  0  0  0
   27.5453   27.4967   11.9654 H   0  0  0  0  0
   26.2227   29.0449   13.3785 H   0  0  0  0  0
   23.7968   29.1423   13.0833 H   0  0  0  0  0
   22.9597   35.7086   14.5778 H   0  0  0  0  0
   24.1721   35.7908   15.9691 H   0  0  0  0  0
   22.8754   36.8185   18.1575 H   0  0  0  0  0
   21.1073   40.5211   17.0084 H   0  0  0  0  0
   21.1932   39.9287   14.6109 H   0  0  0  0  0
   22.1859   37.7056   14.0166 H   0  0  0  0  0
  1  2  1  0  0  0
  1 13  1  0  0  0
  1 39  1  0  0  0
  2  3  1  0  0  0
  3  4  1  0  0  0
  3 11  1  0  0  0
  4  5  2  0  0  0
  4  6  1  0  0  0
  6  7  1  0  0  0
  7  8  1  0  0  0
  7  9  1  0  0  0
  7 10  1  0  0  0
 11 12  1  0  0  0
 11 14  1  0  0  0
 12 13  1  0  0  0
 14 15  1  0  0  0
 15 16  1  0  0  0
 15 17  1  0  0  0
 17 18  1  0  0  0
 18 19  1  0  0  0
 18 26  1  0  0  0
 19 20  1  0  0  0
 20 21  4  0  0  0
 20 25  4  0  0  0
 21 22  4  0  0  0
 22 23  4  0  0  0
 23 24  4  0  0  0
 24 25  4  0  0  0
 26 27  2  0  0  0
 26 28  1  0  0  0
 28 29  1  0  0  0
 29 30  1  0  0  0
 29 38  1  0  0  0
 30 31  1  0  0  0
 30 32  1  0  0  0
 32 33  1  0  0  0
 33 34  4  0  0  0
 33 38  4  0  0  0
 34 35  4  0  0  0
 35 36  4  0  0  0
 36 37  4  0  0  0
 37 38  4  0  0  0
 39 40  1  0  0  0
 40 41  4  0  0  0
 40 45  4  0  0  0
 41 42  4  0  0  0
 42 43  4  0  0  0
 43 44  4  0  0  0
 44 45  4  0  0  0
  1 46  1  0  0  0
  2 47  1  0  0  0
  2 48  1  0  0  0
  3 49  1  0  0  0
  6 50  1  0  0  0
  8 51  1  0  0  0
  8 52  1  0  0  0
  8 53  1  0  0  0
  9 54  1  0  0  0
  9 55  1  0  0  0
  9 56  1  0  0  0
 10 57  1  0  0  0
 10 58  1  0  0  0
 10 59  1  0  0  0
 11 60  1  0  0  0
 12 61  1  0  0  0
 12 62  1  0  0  0
 13 63  1  0  0  0
 13 64  1  0  0  0
 14 65  1  0  0  0
 14 66  1  0  0  0
 15 67  1  0  0  0
 16 68  1  0  0  0
 17 69  1  0  0  0
 17 70  1  0  0  0
 18 71  1  0  0  0
 19 72  1  0  0  0
 19 73  1  0  0  0
 21 74  1  0  0  0
 22 75  1  0  0  0
 23 76  1  0  0  0
 24 77  1  0  0  0
 25 78  1  0  0  0
 28 79  1  0  0  0
 29 80  1  0  0  0
 30 81  1  0  0  0
 31 82  1  0  0  0
 32 83  1  0  0  0
 32 84  1  0  0  0
 34 85  1  0  0  0
 35 86  1  0  0  0
 36 87  1  0  0  0
 37 88  1  0  0  0
 39 89  1  0  0  0
 39 90  1  0  0  0
 41 91  1  0  0  0
 43 92  1  0  0  0
 44 93  1  0  0  0
 45 94  1  0  0  0
M  END
$$$$
