3s1h_ligand
  -I-interpret- 

 45 47  0  0  0  0  0  0  0  0999 V2000
   96.2020   77.2120  -47.0020 C   0  0  0  0  0
   92.2610   81.9090  -51.3390 N   0  0  0  0  0
   86.2250   80.8410  -45.4210 O   0  0  0  0  0
   92.9860   80.7360  -49.1500 S   0  0  0  0  0
   97.2400   77.9420  -47.7770 C   0  0  0  0  0
   93.7920   81.0630  -52.9230 N   0  0  0  0  0
   86.9220   83.1470  -44.3330 O   0  0  0  0  0
   87.4330   81.7170  -44.8730 S   0  0  0  0  0
   96.8790   78.6870  -48.9880 C   0  0  0  0  0
   90.9060   82.5510  -49.5490 N   0  0  0  0  0
   95.6300   79.2820  -51.8560 O   0  0  0  0  0
   94.4470   77.9660  -48.6570 C   0  0  0  0  0
   88.1570   80.9180  -43.7310 N   0  0  0  0  0
   94.7880   77.2320  -47.4650 C   0  0  0  0  0
   96.5340   76.5090  -45.8450 O   0  0  0  0  0
   95.6740   75.8150  -45.0650 C   0  0  0  0  0
   95.4640   78.7110  -49.4420 C   0  0  0  0  0
   95.0130   79.4550  -50.6680 C   0  0  0  0  0
   93.8380   80.4130  -50.5990 C   0  0  0  0  0
   93.3150   81.1280  -51.6600 C   0  0  0  0  0
   91.9600   81.8150  -50.0460 C   0  0  0  0  0
   90.1390   82.3120  -48.4360 C   0  0  0  0  0
   90.3240   81.1300  -47.5020 C   0  0  0  0  0
   89.4840   80.9440  -46.3810 C   0  0  0  0  0
   88.4150   81.9190  -46.1240 C   0  0  0  0  0
   88.2260   83.0740  -47.0150 C   0  0  0  0  0
   89.0670   83.2720  -48.1470 C   0  0  0  0  0
   98.2773   77.9234  -47.4427 H   0  0  0  0  0
   93.3542   81.6126  -53.6624 H   0  0  0  0  0
   94.5897   80.4644  -53.1367 H   0  0  0  0  0
   97.6444   79.2201  -49.5519 H   0  0  0  0  0
   90.6629   83.3869  -50.0805 H   0  0  0  0  0
   95.2082   79.8349  -52.5179 H   0  0  0  0  0
   93.4102   77.9748  -48.9931 H   0  0  0  0  0
   87.8212   79.9925  -43.4642 H   0  0  0  0  0
   88.9630   81.3246  -43.2561 H   0  0  0  0  0
   94.0185   76.6971  -46.9084 H   0  0  0  0  0
   94.9080   76.4892  -44.6818 H   0  0  0  0  0
   95.2048   75.0277  -45.6550 H   0  0  0  0  0
   96.2186   75.3708  -44.2318 H   0  0  0  0  0
   95.7057   79.1241  -49.8942 H   0  0  0  0  0
   91.1194   80.4114  -47.6996 H   0  0  0  0  0
   89.6267   80.0910  -45.7176 H   0  0  0  0  0
   87.4304   83.7890  -46.8057 H   0  0  0  0  0
   88.9151   84.1338  -48.7968 H   0  0  0  0  0
  5  1  4  0  0  0
 14  1  4  0  0  0
  1 15  1  0  0  0
  2 20  4  0  0  0
 21  2  4  0  0  0
  8  3  2  0  0  0
  4 19  4  0  0  0
 21  4  4  0  0  0
  9  5  4  0  0  0
 20  6  1  0  0  0
  8  7  2  0  0  0
  8 13  1  0  0  0
 25  8  1  0  0  0
 17  9  4  0  0  0
 10 21  1  0  0  0
 22 10  1  0  0  0
 18 11  1  0  0  0
 12 14  4  0  0  0
 17 12  4  0  0  0
 15 16  1  0  0  0
 18 17  1  0  0  0
 19 18  1  0  0  0
 19 20  4  0  0  0
 23 22  4  0  0  0
 22 27  4  0  0  0
 24 23  4  0  0  0
 24 25  4  0  0  0
 25 26  4  0  0  0
 26 27  4  0  0  0
  5 28  1  0  0  0
  6 29  1  0  0  0
  6 30  1  0  0  0
  9 31  1  0  0  0
 10 32  1  0  0  0
 11 33  1  0  0  0
 12 34  1  0  0  0
 13 35  1  0  0  0
 13 36  1  0  0  0
 14 37  1  0  0  0
 16 38  1  0  0  0
 16 39  1  0  0  0
 16 40  1  0  0  0
 18 41  1  0  0  0
 23 42  1  0  0  0
 24 43  1  0  0  0
 26 44  1  0  0  0
 27 45  1  0  0  0
M  END
$$$$
