4op1_ligand
  -I-interpret- 

 42 44  0  0  0  0  0  0  0  0999 V2000
  -40.1950   28.2580   15.7480 C   0  0  0  0  0
  -39.5490   29.4640   15.8450 C   0  0  0  0  0
  -38.5070   29.7290   14.9960 C   0  0  0  0  0
  -37.9220   30.9100   15.1100 N   0  0  0  0  0
  -38.1100   28.8200   14.0680 N   0  0  0  0  0
  -38.7110   27.6300   13.9890 C   0  0  0  0  0
  -39.7900   27.3310   14.8090 C   0  0  0  0  0
  -40.5680   25.7790   14.7530 S   0  0  0  0  0
  -41.9980   25.9340   14.9350 O   0  0  0  0  0
  -40.1080   25.2950   13.4510 O   0  0  0  0  0
  -40.0130   24.8640   16.0300 C   0  0  0  0  0
  -38.4360   24.2240   16.1490 S   0  0  0  0  0
  -40.7520   24.5810   17.1170 C   0  0  0  0  0
  -40.0570   23.8560   18.0170 C   0  0  0  0  0
  -38.7820   23.5370   17.6670 C   0  0  0  0  0
  -37.8500   22.8090   18.4150 C   0  0  0  0  0
  -36.5770   22.4500   17.9180 C   0  0  0  0  0
  -35.7010   21.7460   18.7450 C   0  0  0  0  0
  -36.0400   22.8460   16.2770 Cl  0  0  0  0  0
  -38.1910   22.4760   19.6830 N   0  0  0  0  0
  -37.3520   21.8050   20.4770 C   0  0  0  0  0
  -36.0920   21.4040   20.0300 C   0  0  0  0  0
  -35.1250   20.6630   20.9350 C   0  0  0  0  0
  -35.7300   19.5280   21.6780 C   0  0  0  0  0
  -36.5080   20.1070   22.5730 F   0  0  0  0  0
  -36.4210   18.7170   20.9140 F   0  0  0  0  0
  -34.6990   18.8860   22.2030 F   0  0  0  0  0
  -34.6000   21.6100   22.0260 C   0  0  0  0  0
  -34.1170   20.0970   20.1490 O   0  0  0  0  0
  -41.0286   28.0315   16.4128 H   0  0  0  0  0
  -39.8599   30.2003   16.5862 H   0  0  0  0  0
  -38.2513   31.5770   15.8079 H   0  0  0  0  0
  -37.1416   31.1536   14.5000 H   0  0  0  0  0
  -38.3516   26.8884   13.2755 H   0  0  0  0  0
  -41.7857   24.8985   17.2539 H   0  0  0  0  0
  -40.4907   23.5446   18.9673 H   0  0  0  0  0
  -34.7123   21.4659   18.3816 H   0  0  0  0  0
  -37.6579   21.5656   21.4954 H   0  0  0  0  0
  -34.0852   22.4498   21.5594 H   0  0  0  0  0
  -35.4371   21.9791   22.6185 H   0  0  0  0  0
  -33.9067   21.0702   22.6710 H   0  0  0  0  0
  -33.4996   19.6256   20.7131 H   0  0  0  0  0
  1  2  4  0  0  0
  1  7  4  0  0  0
  2  3  4  0  0  0
  3  4  1  0  0  0
  3  5  4  0  0  0
  5  6  4  0  0  0
  6  7  4  0  0  0
  7  8  1  0  0  0
  8  9  2  0  0  0
  8 10  2  0  0  0
  8 11  1  0  0  0
 11 12  4  0  0  0
 11 13  4  0  0  0
 12 15  4  0  0  0
 13 14  4  0  0  0
 14 15  4  0  0  0
 15 16  1  0  0  0
 16 17  4  0  0  0
 16 20  4  0  0  0
 17 18  4  0  0  0
 17 19  1  0  0  0
 18 22  4  0  0  0
 20 21  4  0  0  0
 21 22  4  0  0  0
 22 23  1  0  0  0
 23 24  1  0  0  0
 23 28  1  0  0  0
 23 29  1  0  0  0
 24 25  1  0  0  0
 24 26  1  0  0  0
 24 27  1  0  0  0
  1 30  1  0  0  0
  2 31  1  0  0  0
  4 32  1  0  0  0
  4 33  1  0  0  0
  6 34  1  0  0  0
 13 35  1  0  0  0
 14 36  1  0  0  0
 18 37  1  0  0  0
 21 38  1  0  0  0
 28 39  1  0  0  0
 28 40  1  0  0  0
 28 41  1  0  0  0
 29 42  1  0  0  0
M  END
$$$$
