1jbd_ligand
  -I-interpret- 

243250  0  0  0  0  0  0  0  0999 V2000
  -15.1460   -4.8690    4.4280 N   0  3  0  0  0
  -14.5550   -3.5400    4.4620 C   0  0  0  0  0
  -13.0350   -3.6580    4.5430 C   0  0  0  0  0
  -12.4760   -3.8460    5.6220 O   0  0  0  0  0
  -15.1470   -2.7170    5.6080 C   0  0  0  0  0
  -14.2780   -1.5620    6.0480 C   0  0  0  0  0
  -13.9630   -1.3210    7.3730 N   0  0  0  0  0
  -13.6610   -0.5860    5.3230 C   0  0  0  0  0
  -13.1890   -0.2500    7.4330 C   0  0  0  0  0
  -13.0060    0.2060    6.1630 N   0  0  0  0  0
  -12.4020   -3.5390    3.3820 N   0  0  0  0  0
  -10.9530   -3.6290    3.3060 C   0  0  0  0  0
  -10.4730   -3.2810    1.8970 C   0  0  0  0  0
  -11.2770   -3.1920    0.9680 O   0  0  0  0  0
  -10.4700   -5.0340    3.6710 C   0  0  0  0  0
   -9.9060   -5.0700    5.0920 C   0  0  0  0  0
   -8.3880   -5.2590    5.0760 C   0  0  0  0  0
   -7.7990   -4.7470    6.3360 N   0  0  0  0  0
   -7.8890   -3.4630    6.7390 C   0  0  0  0  0
   -8.5450   -2.5490    5.9940 N   0  0  0  0  0
   -7.3270   -3.1140    7.8820 N   0  0  0  0  0
   -9.1670   -3.0910    1.7800 N   0  0  0  0  0
   -8.5700   -2.7540    0.5000 C   0  0  0  0  0
   -7.6080   -3.8480    0.0360 C   0  0  0  0  0
   -6.4730   -3.5640   -0.3410 O   0  0  0  0  0
   -7.7850   -1.4620    0.7300 C   0  0  0  0  0
   -8.0280   -0.8200    2.0950 C   0  0  0  0  0
   -7.3280   -1.2620    3.2000 C   0  0  0  0  0
   -8.9450    0.2040    2.2230 C   0  0  0  0  0
   -7.5550   -0.6580    4.4870 C   0  0  0  0  0
   -9.1720    0.8070    3.5120 C   0  0  0  0  0
   -8.4700    0.3480    4.5770 C   0  0  0  0  0
   -8.6810    0.9200    5.7920 O   0  0  0  0  0
   -8.0970   -5.0810    0.0810 N   0  0  0  0  0
   -7.2920   -6.2170   -0.3260 C   0  0  0  0  0
   -6.8360   -6.0740   -1.7810 C   0  0  0  0  0
   -6.9210   -4.9900   -2.3550 O   0  0  0  0  0
   -8.2040   -7.4410   -0.2110 C   0  0  0  0  0
   -7.9740   -8.2710    1.0510 C   0  0  0  0  0
   -8.6350   -7.9490    2.2210 C   0  0  0  0  0
   -7.1090   -9.3470    1.0200 C   0  0  0  0  0
   -8.4150   -8.7320    3.4100 C   0  0  0  0  0
   -6.8920  -10.1280    2.2120 C   0  0  0  0  0
   -7.5570   -9.7830    3.3480 C   0  0  0  0  0
   -7.3520  -10.5230    4.4700 O   0  0  0  0  0
   -6.3620   -7.1820   -2.3330 N   0  0  0  0  0
   -5.8910   -7.1900   -3.7060 C   0  0  0  0  0
   -6.8940   -7.9190   -4.6060 C   0  0  0  0  0
   -6.5040   -8.6630   -5.4990 O   0  0  0  0  0
   -4.5020   -7.8290   -3.8060 C   0  0  0  0  0
   -4.6020   -9.3570   -3.8030 C   0  0  0  0  0
   -3.9100   -9.9510   -5.0310 C   0  0  0  0  0
   -2.6978  -10.0880   -5.0458 O   0  0  0  0  0
   -4.7278  -10.2851   -6.0252 O   0  0  0  0  0
   -8.1680   -7.6710   -4.3350 N   0  0  0  0  0
   -9.2300   -8.2930   -5.1090 C   0  0  0  0  0
  -10.4390   -7.3600   -5.1780 C   0  0  0  0  0
  -11.4200   -7.6590   -5.8590 O   0  0  0  0  0
   -9.6330   -9.6410   -4.5070 C   0  0  0  0  0
  -10.8570  -10.1230   -5.0530 O   0  0  0  0  0
  -10.3310   -6.2470   -4.4680 N   0  0  0  0  0
  -11.4060   -5.2680   -4.4420 C   0  0  0  0  0
  -10.9530   -4.0150   -3.6890 C   0  0  0  0  0
   -9.9240   -4.0290   -3.0130 O   0  0  0  0  0
  -12.6640   -5.8490   -3.7940 C   0  0  0  0  0
  -13.6360   -4.8450   -3.5180 O   0  0  0  0  0
  -11.7400   -2.9600   -3.8350 N   0  0  0  0  0
  -11.4340   -1.7010   -3.1790 C   0  0  0  0  0
  -12.6420   -1.2530   -2.3520 C   0  0  0  0  0
  -12.5000   -0.4860   -1.4020 O   0  0  0  0  0
  -10.9690   -0.6630   -4.2020 C   0  0  0  0  0
  -10.1570    0.5110   -3.6470 C   0  0  0  0  0
  -11.0740    1.5470   -2.9950 C   0  0  0  0  0
   -9.0720    0.0210   -2.6880 C   0  0  0  0  0
  -13.8030   -1.7550   -2.7450 N   0  0  0  0  0
  -15.0370   -1.4150   -2.0510 C   0  0  0  0  0
  -15.2170   -2.3080   -0.8220 C   0  0  0  0  0
  -14.8600   -3.4830   -0.8450 O   0  0  0  0  0
  -16.2410   -1.5260   -2.9900 C   0  0  0  0  0
  -15.9400   -0.8790   -4.3440 C   0  0  0  0  0
  -15.5920    0.6010   -4.1780 C   0  0  0  0  0
  -14.4250    0.9566   -4.1839 O   0  0  0  0  0
  -16.6346    1.4142   -4.0344 O   0  0  0  0  0
  -15.7820   -1.6950    0.2530 N   0  0  0  0  0
  -16.0150   -2.4200    1.4920 C   0  0  0  0  0
  -17.2080   -3.3670    1.3560 C   0  0  0  0  0
  -17.8450   -3.7180    2.3490 O   0  0  0  0  0
  -16.2250   -1.3440    2.5420 C   0  0  0  0  0
  -16.5680   -0.0760    1.7810 C   0  0  0  0  0
  -16.2170   -0.3040    0.3160 C   0  0  0  0  0
  -17.4770   -3.7600    0.1180 N   0  0  0  0  0
  -18.5830   -4.6590   -0.1580 C   0  0  0  0  0
  -18.0310   -5.8670   -0.9150 C   0  0  0  0  0
  -18.5090   -6.9850   -0.7370 O   0  0  0  0  0
  -19.7000   -3.9370   -0.9200 C   0  0  0  0  0
  -21.1100   -4.3590   -0.4990 C   0  0  0  0  0
  -21.7940   -5.4440   -0.8820 C   0  0  0  0  0
  -21.9840   -3.6520    0.4050 C   0  0  0  0  0
  -23.0430   -5.4880   -0.2920 N   0  0  0  0  0
  -23.1610   -4.3640    0.5140 C   0  0  0  0  0
  -21.7900   -2.4470    1.1080 C   0  0  0  0  0
  -24.2340   -3.9580    1.3170 C   0  0  0  0  0
  -22.8680   -2.0550    1.9070 C   0  0  0  0  0
  -24.0630   -2.7600    2.0250 C   0  0  0  0  0
  -17.0310   -5.6020   -1.7410 N   0  0  0  0  0
  -16.4080   -6.6550   -2.5250 C   0  0  0  0  0
  -15.1410   -7.1710   -1.8420 C   0  0  0  0  0
  -14.8360   -8.3610   -1.9080 O   0  0  0  0  0
  -16.0270   -6.0150   -3.8650 C   0  0  0  0  0
  -17.2020   -5.8620   -4.8350 C   0  0  0  0  0
  -18.4890   -6.0920   -4.4020 C   0  0  0  0  0
  -16.9660   -5.4930   -6.1460 C   0  0  0  0  0
  -19.5930   -5.9490   -5.3170 C   0  0  0  0  0
  -18.0720   -5.3460   -7.0570 C   0  0  0  0  0
  -19.3270   -5.5820   -6.5990 C   0  0  0  0  0
  -20.3720   -5.4460   -7.4620 O   0  0  0  0  0
  -14.4180   -6.2260   -1.1870 N   0  0  0  0  0
  -13.1890   -6.5710   -0.4910 C   0  0  0  0  0
  -13.4870   -7.3020    0.8200 C   0  0  0  0  0
  -12.7700   -8.2280    1.1970 O   0  0  0  0  0
  -12.4670   -5.2510   -0.2830 C   0  0  0  0  0
  -13.5200   -4.1690   -0.4520 C   0  0  0  0  0
  -14.7460   -4.8050   -1.0880 C   0  0  0  0  0
  -14.5490   -6.8600    1.4780 N   0  0  0  0  0
  -14.9510   -7.4600    2.7390 C   0  0  0  0  0
  -16.2690   -6.8350    3.1970 C   0  0  0  0  0
  -17.3010   -7.0040    2.5460 O   0  0  0  0  0
  -13.9060   -7.2100    3.8240 C   0  0  0  0  0
  -14.4280   -7.3160    5.2600 C   0  0  0  0  0
  -15.2690   -8.1700    5.5730 O   0  0  0  0  0
  -13.9250   -6.4580    6.0860 O   0  0  0  0  0
  -16.3015   -6.1031    4.3070 O   0  0  0  0  0
  -16.1613   -4.7870    4.3739 H   0  0  0  0  0
  -14.8004   -5.3727    3.6112 H   0  0  0  0  0
  -14.8893   -5.3757    5.2752 H   0  0  0  0  0
  -14.7940   -3.0053    3.5427 H   0  0  0  0  0
  -15.2551   -3.3843    6.4630 H   0  0  0  0  0
  -16.0875   -2.2966    5.2519 H   0  0  0  0  0
  -13.6991   -0.4751    4.2393 H   0  0  0  0  0
  -12.7715    0.1897    8.3388 H   0  0  0  0  0
  -12.9407   -3.3820    2.5302 H   0  0  0  0  0
  -10.5378   -2.9175    4.0198 H   0  0  0  0  0
   -9.6824   -5.3239    2.9755 H   0  0  0  0  0
  -11.3155   -5.7195    3.6137 H   0  0  0  0  0
  -10.3566   -5.9069    5.6255 H   0  0  0  0  0
  -10.1350   -4.1241    5.5827 H   0  0  0  0  0
   -7.9674   -4.7086    4.2344 H   0  0  0  0  0
   -8.1602   -6.3206    4.9795 H   0  0  0  0  0
   -7.2964   -5.4038    6.9330 H   0  0  0  0  0
   -8.6090   -1.5822    6.3127 H   0  0  0  0  0
   -8.9769   -2.8249    5.1121 H   0  0  0  0  0
   -6.8360   -3.8105    8.4425 H   0  0  0  0  0
   -8.5711   -3.1830    2.6027 H   0  0  0  0  0
   -9.3385   -2.6461   -0.2654 H   0  0  0  0  0
   -8.1112   -0.7473   -0.0255 H   0  0  0  0  0
   -6.7259   -1.7138    0.6757 H   0  0  0  0  0
   -6.6027   -2.0692    3.0978 H   0  0  0  0  0
   -9.4962    0.5557    1.3509 H   0  0  0  0  0
   -7.0088   -0.9968    5.3673 H   0  0  0  0  0
   -9.8935    1.6157    3.6283 H   0  0  0  0  0
   -8.1195    0.4967    6.4455 H   0  0  0  0  0
   -9.0519   -5.2319    0.4062 H   0  0  0  0  0
   -6.4001   -6.2974    0.2955 H   0  0  0  0  0
   -7.9907   -8.0845   -1.0645 H   0  0  0  0  0
   -9.2308   -7.0770   -0.1759 H   0  0  0  0  0
   -9.3223   -7.1033    2.2442 H   0  0  0  0  0
   -6.5914   -9.6052    0.0961 H   0  0  0  0  0
   -8.9267   -8.4860    4.3405 H   0  0  0  0  0
   -6.2092  -10.9776    2.2036 H   0  0  0  0  0
   -7.8816  -10.1677    5.1875 H   0  0  0  0  0
   -6.3277   -8.0416   -1.7849 H   0  0  0  0  0
   -5.8066   -6.1581   -4.0469 H   0  0  0  0  0
   -3.9090   -7.5148   -2.9471 H   0  0  0  0  0
   -4.0357   -7.5101   -4.7382 H   0  0  0  0  0
   -5.6545   -9.6397   -3.8225 H   0  0  0  0  0
   -4.1138   -9.7387   -2.9063 H   0  0  0  0  0
   -5.6323  -10.0817   -5.7761 H   0  0  0  0  0
   -8.4061   -7.0355   -3.5735 H   0  0  0  0  0
   -8.8591   -8.4732   -6.1180 H   0  0  0  0  0
   -9.7666   -9.5091   -3.4333 H   0  0  0  0  0
   -8.8497  -10.3642   -4.7341 H   0  0  0  0  0
  -11.0747  -10.9674   -4.6514 H   0  0  0  0  0
   -9.4810   -6.0740   -3.9314 H   0  0  0  0  0
  -11.6497   -4.9997   -5.4700 H   0  0  0  0  0
  -12.3773   -6.3136   -2.8506 H   0  0  0  0  0
  -13.1033   -6.5667   -4.4869 H   0  0  0  0  0
  -14.4067   -5.2499   -3.1134 H   0  0  0  0  0
  -12.5742   -3.0328   -4.4174 H   0  0  0  0  0
  -10.6024   -1.8256   -2.4855 H   0  0  0  0  0
  -11.8728   -0.2328   -4.6335 H   0  0  0  0  0
  -10.3118   -1.1891   -4.8944 H   0  0  0  0  0
   -9.6521    1.0036   -4.4780 H   0  0  0  0  0
  -11.7775    1.9255   -3.7366 H   0  0  0  0  0
  -11.6226    1.0809   -2.1765 H   0  0  0  0  0
  -10.4731    2.3704   -2.6089 H   0  0  0  0  0
   -9.5363   -0.5083   -1.8559 H   0  0  0  0  0
   -8.3978   -0.6521   -3.2176 H   0  0  0  0  0
   -8.5110    0.8753   -2.3091 H   0  0  0  0  0
  -13.8330   -2.3880   -3.5442 H   0  0  0  0  0
  -14.9711   -0.3794   -1.7174 H   0  0  0  0  0
  -17.0878   -1.0110   -2.5362 H   0  0  0  0  0
  -16.4659   -2.5808   -3.1481 H   0  0  0  0  0
  -16.8243   -0.9619   -4.9758 H   0  0  0  0  0
  -15.0893   -1.3901   -4.7948 H   0  0  0  0  0
  -17.4455    0.9011   -4.0628 H   0  0  0  0  0
  -15.1813   -3.0666    1.7660 H   0  0  0  0  0
  -15.3317   -1.2085    3.1518 H   0  0  0  0  0
  -17.0228   -1.6174    3.2326 H   0  0  0  0  0
  -17.6285    0.1532    1.8852 H   0  0  0  0  0
  -16.0049    0.7684    2.1785 H   0  0  0  0  0
  -17.0658   -0.1127   -0.3406 H   0  0  0  0  0
  -15.4422    0.3809   -0.0284 H   0  0  0  0  0
  -16.8978   -3.4254   -0.6520 H   0  0  0  0  0
  -19.0387   -5.0059    0.7694 H   0  0  0  0  0
  -19.5877   -4.1876   -1.9748 H   0  0  0  0  0
  -19.6027   -2.8725   -0.7068 H   0  0  0  0  0
  -21.4140   -6.1975   -1.5719 H   0  0  0  0  0
  -20.8710   -1.8655    1.0347 H   0  0  0  0  0
  -25.1520   -4.5415    1.3877 H   0  0  0  0  0
  -22.7659   -1.1322    2.4780 H   0  0  0  0  0
  -24.8611   -2.3826    2.6643 H   0  0  0  0  0
  -16.6925   -4.6438   -1.8285 H   0  0  0  0  0
  -17.0879   -7.4988   -2.6426 H   0  0  0  0  0
  -15.2965   -6.6691   -4.3409 H   0  0  0  0  0
  -15.6503   -5.0147   -3.6514 H   0  0  0  0  0
  -18.6725   -6.3821   -3.3675 H   0  0  0  0  0
  -15.9470   -5.3140   -6.4891 H   0  0  0  0  0
  -20.6166   -6.1306   -4.9894 H   0  0  0  0  0
  -17.9041   -5.0513   -8.0929 H   0  0  0  0  0
  -21.1920   -5.6428   -7.0033 H   0  0  0  0  0
  -12.5670   -7.2635   -1.0582 H   0  0  0  0  0
  -11.6545   -5.1275   -0.9990 H   0  0  0  0  0
  -12.0059   -5.2035    0.7035 H   0  0  0  0  0
  -13.7773   -3.7383    0.5157 H   0  0  0  0  0
  -13.1393   -3.3675   -1.0850 H   0  0  0  0  0
  -15.6453   -4.6356   -0.4958 H   0  0  0  0  0
  -14.9701   -4.3707   -2.0623 H   0  0  0  0  0
  -15.0924   -6.0871    1.0936 H   0  0  0  0  0
  -15.0588   -8.5335    2.5839 H   0  0  0  0  0
  -13.5527   -6.1874    3.6917 H   0  0  0  0  0
  -13.1419   -7.9787    3.7088 H   0  0  0  0  0
  -13.2971   -5.8992    5.6223 H   0  0  0  0  0
  -15.4229   -6.0693    4.6925 H   0  0  0  0  0
  2  1  1  0  0  0
  2  5  1  0  0  0
  3  2  1  0  0  0
  3  4  2  0  0  0
  5  6  1  0  0  0
  6  7  4  0  0  0
  6  8  4  0  0  0
  8 10  4  0  0  0
 10  9  4  0  0  0
  7  9  4  0  0  0
 12 11  1  0  0  0
 12 15  1  0  0  0
 13 12  1  0  0  0
 13 14  2  0  0  0
 15 16  1  0  0  0
 16 17  1  0  0  0
 17 18  1  0  0  0
 18 19  1  0  0  0
 19 21  2  0  0  0
 19 20  1  0  0  0
 11  3  1  0  0  0
 23 22  1  0  0  0
 23 26  1  0  0  0
 24 23  1  0  0  0
 24 25  2  0  0  0
 26 27  1  0  0  0
 27 28  4  0  0  0
 27 29  4  0  0  0
 29 31  4  0  0  0
 31 32  4  0  0  0
 32 33  1  0  0  0
 30 32  4  0  0  0
 28 30  4  0  0  0
 22 13  1  0  0  0
 35 34  1  0  0  0
 35 38  1  0  0  0
 36 35  1  0  0  0
 36 37  2  0  0  0
 38 39  1  0  0  0
 39 40  4  0  0  0
 39 41  4  0  0  0
 41 43  4  0  0  0
 43 44  4  0  0  0
 44 45  1  0  0  0
 42 44  4  0  0  0
 40 42  4  0  0  0
 34 24  1  0  0  0
 47 46  1  0  0  0
 47 50  1  0  0  0
 48 47  1  0  0  0
 48 49  2  0  0  0
 50 51  1  0  0  0
 51 52  1  0  0  0
 52 54  1  0  0  0
 52 53  2  0  0  0
 46 36  1  0  0  0
 56 55  1  0  0  0
 56 59  1  0  0  0
 57 56  1  0  0  0
 57 58  2  0  0  0
 59 60  1  0  0  0
 55 48  1  0  0  0
 62 61  1  0  0  0
 62 65  1  0  0  0
 63 62  1  0  0  0
 63 64  2  0  0  0
 65 66  1  0  0  0
 61 57  1  0  0  0
 68 67  1  0  0  0
 68 71  1  0  0  0
 69 68  1  0  0  0
 69 70  2  0  0  0
 71 72  1  0  0  0
 72 73  1  0  0  0
 72 74  1  0  0  0
 67 63  1  0  0  0
 76 75  1  0  0  0
 76 79  1  0  0  0
 77 76  1  0  0  0
 77 78  2  0  0  0
 79 80  1  0  0  0
 80 81  1  0  0  0
 81 83  1  0  0  0
 81 82  2  0  0  0
 75 69  1  0  0  0
 86 85  1  0  0  0
 85 88  1  0  0  0
 85 84  1  0  0  0
 84 90  1  0  0  0
 90 89  1  0  0  0
 88 89  1  0  0  0
 86 87  2  0  0  0
 84 77  1  0  0  0
 92 91  1  0  0  0
 92 95  1  0  0  0
 93 92  1  0  0  0
 93 94  2  0  0  0
 95 96  1  0  0  0
 96 97  4  0  0  0
 96 98  4  0  0  0
 98101  4  0  0  0
 98100  4  0  0  0
100102  4  0  0  0
100 99  4  0  0  0
 97 99  4  0  0  0
102104  4  0  0  0
103104  4  0  0  0
101103  4  0  0  0
 91 86  1  0  0  0
106105  1  0  0  0
106109  1  0  0  0
107106  1  0  0  0
107108  2  0  0  0
109110  1  0  0  0
110111  4  0  0  0
110112  4  0  0  0
112114  4  0  0  0
114115  4  0  0  0
115116  1  0  0  0
113115  4  0  0  0
111113  4  0  0  0
105 93  1  0  0  0
119118  1  0  0  0
118121  1  0  0  0
118117  1  0  0  0
117123  1  0  0  0
123122  1  0  0  0
121122  1  0  0  0
119120  2  0  0  0
117107  1  0  0  0
124125  1  0  0  0
125128  1  0  0  0
125126  1  0  0  0
126127  2  0  0  0
128129  1  0  0  0
129130  2  0  0  0
129131  1  0  0  0
119124  1  0  0  0
126132  1  0  0  0
  1133  1  0  0  0
  1134  1  0  0  0
  1135  1  0  0  0
  2136  1  0  0  0
  5137  1  0  0  0
  5138  1  0  0  0
  8139  1  0  0  0
  9140  1  0  0  0
 11141  1  0  0  0
 12142  1  0  0  0
 15143  1  0  0  0
 15144  1  0  0  0
 16145  1  0  0  0
 16146  1  0  0  0
 17147  1  0  0  0
 17148  1  0  0  0
 18149  1  0  0  0
 20150  1  0  0  0
 20151  1  0  0  0
 21152  1  0  0  0
 22153  1  0  0  0
 23154  1  0  0  0
 26155  1  0  0  0
 26156  1  0  0  0
 28157  1  0  0  0
 29158  1  0  0  0
 30159  1  0  0  0
 31160  1  0  0  0
 33161  1  0  0  0
 34162  1  0  0  0
 35163  1  0  0  0
 38164  1  0  0  0
 38165  1  0  0  0
 40166  1  0  0  0
 41167  1  0  0  0
 42168  1  0  0  0
 43169  1  0  0  0
 45170  1  0  0  0
 46171  1  0  0  0
 47172  1  0  0  0
 50173  1  0  0  0
 50174  1  0  0  0
 51175  1  0  0  0
 51176  1  0  0  0
 54177  1  0  0  0
 55178  1  0  0  0
 56179  1  0  0  0
 59180  1  0  0  0
 59181  1  0  0  0
 60182  1  0  0  0
 61183  1  0  0  0
 62184  1  0  0  0
 65185  1  0  0  0
 65186  1  0  0  0
 66187  1  0  0  0
 67188  1  0  0  0
 68189  1  0  0  0
 71190  1  0  0  0
 71191  1  0  0  0
 72192  1  0  0  0
 73193  1  0  0  0
 73194  1  0  0  0
 73195  1  0  0  0
 74196  1  0  0  0
 74197  1  0  0  0
 74198  1  0  0  0
 75199  1  0  0  0
 76200  1  0  0  0
 79201  1  0  0  0
 79202  1  0  0  0
 80203  1  0  0  0
 80204  1  0  0  0
 83205  1  0  0  0
 85206  1  0  0  0
 88207  1  0  0  0
 88208  1  0  0  0
 89209  1  0  0  0
 89210  1  0  0  0
 90211  1  0  0  0
 90212  1  0  0  0
 91213  1  0  0  0
 92214  1  0  0  0
 95215  1  0  0  0
 95216  1  0  0  0
 97217  1  0  0  0
101218  1  0  0  0
102219  1  0  0  0
103220  1  0  0  0
104221  1  0  0  0
105222  1  0  0  0
106223  1  0  0  0
109224  1  0  0  0
109225  1  0  0  0
111226  1  0  0  0
112227  1  0  0  0
113228  1  0  0  0
114229  1  0  0  0
116230  1  0  0  0
118231  1  0  0  0
121232  1  0  0  0
121233  1  0  0  0
122234  1  0  0  0
122235  1  0  0  0
123236  1  0  0  0
123237  1  0  0  0
124238  1  0  0  0
125239  1  0  0  0
128240  1  0  0  0
128241  1  0  0  0
131242  1  0  0  0
132243  1  0  0  0
M  END
$$$$
