### 
### Created by X-TOOL on Mon Sep 10 21:12:48 2018
### 

@<TRIPOS>MOLECULE
1jbd_ligand
  245   252     1     0     0
SMALL
GAST_HUCK


@<TRIPOS>ATOM
      1 N         -15.1460   -4.8690    4.4280 N.4       1 HIS         0.2390
      2 CA        -14.5550   -3.5400    4.4620 C.3       1 HIS         0.0708
      3 C         -13.0350   -3.6580    4.5430 C.2       1 HIS         0.2282
      4 O         -12.4760   -3.8460    5.6220 O.2       1 HIS        -0.3906
      5 CB        -15.1470   -2.7170    5.6080 C.3       1 HIS         0.0347
      6 CG        -14.2780   -1.5620    6.0480 C.2       1 HIS         0.0005
      7 ND1       -13.9630   -1.3210    7.3730 N.2       1 HIS        -0.3251
      8 CD2       -13.6610   -0.5860    5.3230 C.2       1 HIS         0.0293
      9 CE1       -13.1890   -0.2500    7.4330 C.2       1 HIS         0.0907
     10 NE2       -13.0060    0.2060    6.1630 N.pl3     1 HIS        -0.2752
     11 H1        -16.1494   -4.7892    4.3745 H         1 HIS         0.2016
     12 H2        -14.8930   -5.3708    5.2648 H         1 HIS         0.2016
     13 H3        -14.8052   -5.3678    3.6211 H         1 HIS         0.2016
     14 H4        -14.8035   -3.0278    3.5208 H         1 HIS         0.1116
     15 H5        -15.2990   -3.3834    6.4699 H         1 HIS         0.0453
     16 H6        -16.1168   -2.3147    5.2800 H         1 HIS         0.0453
     17 H7        -13.6990   -0.4752    4.2403 H         1 HIS         0.0729
     18 H8        -12.7719    0.1893    8.3380 H         1 HIS         0.1199
     19 H9        -12.4498    1.0312    5.8974 H         1 HIS         0.2361
     20 H10       -12.9301   -3.3851    2.5469 H         1 ARG         0.1885
     21 N         -12.4020   -3.5390    3.3820 N.am      1 ARG        -0.2609
     22 CA        -10.9530   -3.6290    3.3060 C.3       1 ARG         0.1312
     23 C         -10.4730   -3.2810    1.8970 C.2       1 ARG         0.2040
     24 O         -11.2770   -3.1920    0.9680 O.2       1 ARG        -0.3944
     25 CB        -10.4700   -5.0340    3.6710 C.3       1 ARG        -0.0092
     26 CG         -9.9060   -5.0700    5.0920 C.3       1 ARG        -0.0156
     27 CD         -8.3880   -5.2590    5.0760 C.3       1 ARG         0.0627
     28 NE         -7.7990   -4.7470    6.3360 N.pl3     1 ARG        -0.2723
     29 CZ         -7.8890   -3.4630    6.7390 C.cat     1 ARG         0.2882
     30 NH1        -8.5450   -2.5490    5.9940 N.pl3     1 ARG        -0.2849
     31 NH2        -7.3270   -3.1140    7.8820 N.pl3     1 ARG        -0.2849
     32 H11       -10.5201   -2.9104    4.0174 H         1 ARG         0.0800
     33 H12        -9.6837   -5.3385    2.9646 H         1 ARG         0.0313
     34 H13       -11.3158   -5.7339    3.6023 H         1 ARG         0.0313
     35 H14       -10.3664   -5.9050    5.6405 H         1 ARG         0.0301
     36 H15       -10.1450   -4.1229    5.5978 H         1 ARG         0.0301
     37 H16        -7.9615   -4.7083    4.2247 H         1 ARG         0.0689
     38 H17        -8.1554   -6.3293    4.9740 H         1 ARG         0.0689
     39 H18        -7.2915   -5.4102    6.9389 H         1 ARG         0.2642
     40 H19        -8.6060   -1.5718    6.3138 H         1 ARG         0.2615
     41 H20        -8.9848   -2.8285    5.1055 H         1 ARG         0.2615
     42 H21        -6.8277   -3.8165    8.4460 H         1 ARG         0.2615
     43 H22        -7.3880   -2.1393    8.2094 H         1 ARG         0.2615
     44 H23        -8.5828   -3.1812    2.5866 H         1 TYR         0.1885
     45 N          -9.1670   -3.0910    1.7800 N.am      1 TYR        -0.2621
     46 CA         -8.5700   -2.7540    0.5000 C.3       1 TYR         0.1390
     47 C          -7.6080   -3.8480    0.0360 C.2       1 TYR         0.2058
     48 O          -6.4730   -3.5640   -0.3410 O.2       1 TYR        -0.3942
     49 CB         -7.7850   -1.4620    0.7300 C.3       1 TYR         0.0163
     50 CG         -8.0280   -0.8200    2.0950 C.ar      1 TYR        -0.0493
     51 CD1        -7.3280   -1.2620    3.2000 C.ar      1 TYR        -0.0685
     52 CD2        -8.9450    0.2040    2.2230 C.ar      1 TYR        -0.0685
     53 CE1        -7.5550   -0.6580    4.4870 C.ar      1 TYR        -0.0398
     54 CE2        -9.1720    0.8070    3.5120 C.ar      1 TYR        -0.0398
     55 CZ         -8.4700    0.3480    4.5770 C.ar      1 TYR         0.0805
     56 OH         -8.6810    0.9200    5.7920 O.3       1 TYR        -0.3376
     57 H24        -9.3527   -2.6036   -0.2581 H         1 TYR         0.0821
     58 H25        -8.0730   -0.7395   -0.0479 H         1 TYR         0.0453
     59 H26        -6.7123   -1.6888    0.6408 H         1 TYR         0.0453
     60 H27        -6.6067   -2.0647    3.0984 H         1 TYR         0.0530
     61 H28        -9.4932    0.5537    1.3557 H         1 TYR         0.0530
     62 H29        -7.0118   -0.9949    5.3625 H         1 TYR         0.0525
     63 H30        -9.8895    1.6113    3.6277 H         1 TYR         0.0525
     64 H31        -8.4725    1.8456    5.7455 H         1 TYR         0.2458
     65 H32        -9.0332   -5.2289    0.3998 H         1 TYR         0.1885
     66 N          -8.0970   -5.0810    0.0810 N.am      1 TYR        -0.2620
     67 CA         -7.2920   -6.2170   -0.3260 C.3       1 TYR         0.1390
     68 C          -6.8360   -6.0740   -1.7810 C.2       1 TYR         0.2057
     69 O          -6.9210   -4.9900   -2.3550 O.2       1 TYR        -0.3942
     70 CB         -8.2040   -7.4410   -0.2110 C.3       1 TYR         0.0163
     71 CG         -7.9740   -8.2710    1.0510 C.ar      1 TYR        -0.0493
     72 CD1        -8.6350   -7.9490    2.2210 C.ar      1 TYR        -0.0685
     73 CD2        -7.1090   -9.3470    1.0200 C.ar      1 TYR        -0.0685
     74 CE1        -8.4150   -8.7320    3.4100 C.ar      1 TYR        -0.0398
     75 CE2        -6.8920  -10.1280    2.2120 C.ar      1 TYR        -0.0398
     76 CZ         -7.5570   -9.7830    3.3480 C.ar      1 TYR         0.0805
     77 OH         -7.3520  -10.5230    4.4700 O.3       1 TYR        -0.3376
     78 H33        -6.4154   -6.3198    0.3305 H         1 TYR         0.0821
     79 H34        -8.0299   -8.0854   -1.0853 H         1 TYR         0.0453
     80 H35        -9.2483   -7.0956   -0.2122 H         1 TYR         0.0453
     81 H36        -9.3185   -7.1079    2.2441 H         1 TYR         0.0530
     82 H37        -6.5943   -9.6038    0.1012 H         1 TYR         0.0530
     83 H38        -8.9239   -8.4873    4.3353 H         1 TYR         0.0525
     84 H39        -6.2129  -10.9729    2.2036 H         1 TYR         0.0525
     85 H40        -6.4326  -10.4892    4.7067 H         1 TYR         0.2458
     86 H41        -6.3284   -8.0247   -1.7957 H         1 GLU         0.1883
     87 N          -6.3620   -7.1820   -2.3330 N.am      1 GLU        -0.2634
     88 CA         -5.8910   -7.1900   -3.7060 C.3       1 GLU         0.1331
     89 C          -6.8940   -7.9190   -4.6060 C.2       1 GLU         0.2041
     90 O          -6.5040   -8.6630   -5.4990 O.2       1 GLU        -0.3944
     91 CB         -4.5020   -7.8290   -3.8060 C.3       1 GLU         0.0058
     92 CG         -4.6020   -9.3570   -3.8030 C.3       1 GLU         0.0527
     93 CD         -3.9100   -9.9510   -5.0310 C.2       1 GLU         0.2314
     94 O1         -2.6978  -10.0880   -5.0458 O.2       1 GLU        -0.3706
     95 O2         -4.7278  -10.2851   -6.0252 O.3       1 GLU        -0.2927
     96 H42        -5.8136   -6.1479   -4.0496 H         1 GLU         0.0801
     97 H43        -3.8944   -7.5062   -2.9477 H         1 GLU         0.0338
     98 H44        -4.0212   -7.5014   -4.7395 H         1 GLU         0.0338
     99 H45        -5.6626   -9.6487   -3.8109 H         1 GLU         0.0520
    100 H46        -4.1210   -9.7478   -2.8942 H         1 GLU         0.0520
    101 H47        -5.6229  -10.0839   -5.7787 H         1 GLU         0.2539
    102 H48        -8.4015   -7.0480   -3.5885 H         1 SER         0.1884
    103 N          -8.1680   -7.6710   -4.3350 N.am      1 SER        -0.2616
    104 CA         -9.2300   -8.2930   -5.1090 C.3       1 SER         0.1539
    105 C         -10.4390   -7.3600   -5.1780 C.2       1 SER         0.2062
    106 O         -11.4200   -7.6590   -5.8590 O.2       1 SER        -0.3943
    107 CB         -9.6330   -9.6410   -4.5070 C.3       1 SER         0.0843
    108 OG        -10.8570  -10.1230   -5.0530 O.3       1 SER        -0.3903
    109 H49        -8.8611   -8.4658   -6.1308 H         1 SER         0.0823
    110 H50        -9.7507   -9.5237   -3.4196 H         1 SER         0.0606
    111 H51        -8.8390  -10.3739   -4.7130 H         1 SER         0.0606
    112 H52       -11.5499   -9.4981   -4.8744 H         1 SER         0.2097
    113 H53        -9.4976   -6.0774   -3.9419 H         1 SER         0.1884
    114 N         -10.3310   -6.2470   -4.4680 N.am      1 SER        -0.2615
    115 CA        -11.4060   -5.2680   -4.4420 C.3       1 SER         0.1539
    116 C         -10.9530   -4.0150   -3.6890 C.2       1 SER         0.2062
    117 O          -9.9240   -4.0290   -3.0130 O.2       1 SER        -0.3943
    118 CB        -12.6640   -5.8490   -3.7940 C.3       1 SER         0.0843
    119 OG        -13.6360   -4.8450   -3.5180 O.3       1 SER        -0.3903
    120 H54       -11.6469   -4.9875   -5.4780 H         1 SER         0.0823
    121 H55       -12.3829   -6.3397   -2.8505 H         1 SER         0.0606
    122 H56       -13.1043   -6.5911   -4.4763 H         1 SER         0.0606
    123 H57       -14.3987   -5.2457   -3.1176 H         1 SER         0.2097
    124 H58       -12.5579   -3.0314   -4.4060 H         1 LEU         0.1883
    125 N         -11.7400   -2.9600   -3.8350 N.am      1 LEU        -0.2636
    126 CA        -11.4340   -1.7010   -3.1790 C.3       1 LEU         0.1312
    127 C         -12.6420   -1.2530   -2.3520 C.2       1 LEU         0.2039
    128 O         -12.5000   -0.4860   -1.4020 O.2       1 LEU        -0.3944
    129 CB        -10.9690   -0.6630   -4.2020 C.3       1 LEU        -0.0101
    130 CG        -10.1570    0.5110   -3.6470 C.3       1 LEU        -0.0425
    131 CD1       -11.0740    1.5470   -2.9950 C.3       1 LEU        -0.0625
    132 CD2        -9.0720    0.0210   -2.6880 C.3       1 LEU        -0.0625
    133 H59       -10.5999   -1.8707   -2.4823 H         1 LEU         0.0800
    134 H60       -11.8628   -0.2512   -4.6935 H         1 LEU         0.0315
    135 H61       -10.3464   -1.1802   -4.9469 H         1 LEU         0.0315
    136 H62        -9.6536    1.0004   -4.4938 H         1 LEU         0.0298
    137 H63       -10.4687    2.3785   -2.6049 H         1 LEU         0.0232
    138 H64       -11.6282    1.0778   -2.1688 H         1 LEU         0.0232
    139 H65       -11.7845    1.9298   -3.7424 H         1 LEU         0.0232
    140 H66        -8.4389   -0.7198   -3.1983 H         1 LEU         0.0232
    141 H67        -9.5423   -0.4425   -1.8082 H         1 LEU         0.0232
    142 H68        -8.4540    0.8727   -2.3675 H         1 LEU         0.0232
    143 H69       -13.8324   -2.3756   -3.5286 H         1 GLU         0.1883
    144 N         -13.8030   -1.7550   -2.7450 N.am      1 GLU        -0.2636
    145 CA        -15.0370   -1.4150   -2.0510 C.3       1 GLU         0.1333
    146 C         -15.2170   -2.3080   -0.8220 C.2       1 GLU         0.2065
    147 O         -14.8600   -3.4830   -0.8450 O.2       1 GLU        -0.3942
    148 CB        -16.2410   -1.5260   -2.9900 C.3       1 GLU         0.0058
    149 CG        -15.9400   -0.8790   -4.3440 C.3       1 GLU         0.0527
    150 CD        -15.5920    0.6010   -4.1780 C.2       1 GLU         0.2314
    151 O1        -14.4250    0.9566   -4.1839 O.2       1 GLU        -0.3706
    152 O2        -16.6346    1.4142   -4.0344 O.3       1 GLU        -0.2927
    153 H70       -14.9643   -0.3716   -1.7105 H         1 GLU         0.0801
    154 H71       -17.1027   -1.0183   -2.5321 H         1 GLU         0.0338
    155 H72       -16.4807   -2.5884   -3.1441 H         1 GLU         0.0338
    156 H73       -16.8248   -0.9702   -4.9911 H         1 GLU         0.0520
    157 H74       -15.0898   -1.3985   -4.8100 H         1 GLU         0.0520
    158 H75       -16.5718    1.8634   -3.1996 H         1 GLU         0.2539
    159 H76       -15.1276   -3.0165    1.7500 H         1 PRO         0.0802
    160 N         -15.7820   -1.6950    0.2530 N.am      1 PRO        -0.2498
    161 CA        -16.0150   -2.4200    1.4920 C.3       1 PRO         0.1338
    162 C         -17.2080   -3.3670    1.3560 C.2       1 PRO         0.2042
    163 O         -17.8450   -3.7180    2.3490 O.2       1 PRO        -0.3944
    164 CB        -16.2250   -1.3440    2.5420 C.3       1 PRO        -0.0104
    165 CG        -16.5680   -0.0760    1.7810 C.3       1 PRO        -0.0281
    166 CD        -16.2170   -0.3040    0.3160 C.3       1 PRO         0.0369
    167 H77       -15.3067   -1.1998    3.1302 H         1 PRO         0.0313
    168 H78       -17.0508   -1.6216    3.2135 H         1 PRO         0.0313
    169 H79       -17.6419    0.1407    1.8794 H         1 PRO         0.0287
    170 H80       -15.9856    0.7683    2.1785 H         1 PRO         0.0287
    171 H81       -17.0974   -0.1433   -0.3236 H         1 PRO         0.0524
    172 H82       -15.4071    0.3706    0.0014 H         1 PRO         0.0524
    173 H83       -16.9091   -3.4319   -0.6369 H         1 TRP         0.1884
    174 N         -17.4770   -3.7600    0.1180 N.am      1 TRP        -0.2627
    175 CA        -18.5830   -4.6590   -0.1580 C.3       1 TRP         0.1352
    176 C         -18.0310   -5.8670   -0.9150 C.2       1 TRP         0.2053
    177 O         -18.5090   -6.9850   -0.7370 O.2       1 TRP        -0.3942
    178 CB        -19.7000   -3.9370   -0.9200 C.3       1 TRP         0.0042
    179 CG        -21.1100   -4.3590   -0.4990 C.2       1 TRP        -0.0418
    180 CD1       -21.7940   -5.4440   -0.8820 C.2       1 TRP         0.0167
    181 CD2       -21.9840   -3.6520    0.4050 C.ar      1 TRP        -0.0214
    182 NE1       -23.0430   -5.4880   -0.2920 N.pl3     1 TRP        -0.2890
    183 CE2       -23.1610   -4.3640    0.5140 C.ar      1 TRP         0.0603
    184 CE3       -21.7900   -2.4470    1.1080 C.ar      1 TRP        -0.0747
    185 CZ2       -24.2340   -3.9580    1.3170 C.ar      1 TRP        -0.0443
    186 CZ3       -22.8680   -2.0550    1.9070 C.ar      1 TRP        -0.0792
    187 CH2       -24.0630   -2.7600    2.0250 C.ar      1 TRP        -0.0768
    188 H84       -19.0005   -5.0098    0.7973 H         1 TRP         0.0815
    189 H85       -19.5807   -4.1490   -1.9928 H         1 TRP         0.0397
    190 H86       -19.5955   -2.8559   -0.7460 H         1 TRP         0.0397
    191 H87       -21.4143   -6.1968   -1.5713 H         1 TRP         0.0795
    192 H88       -23.7552   -6.2200   -0.4257 H         1 TRP         0.2216
    193 H89       -20.8760   -1.8687    1.0351 H         1 TRP         0.0540
    194 H90       -25.1469   -4.5383    1.3874 H         1 TRP         0.0541
    195 H91       -22.7665   -1.1373    2.4749 H         1 TRP         0.0510
    196 H92       -24.8567   -2.3846    2.6608 H         1 TRP         0.0530
    197 H93       -16.6992   -4.6626   -1.8268 H         1 TYR         0.1885
    198 N         -17.0310   -5.6020   -1.7410 N.am      1 TYR        -0.2620
    199 CA        -16.4080   -6.6550   -2.5250 C.3       1 TYR         0.1392
    200 C         -15.1410   -7.1710   -1.8420 C.2       1 TYR         0.2082
    201 O         -14.8360   -8.3610   -1.9080 O.2       1 TYR        -0.3940
    202 CB        -16.0270   -6.0150   -3.8650 C.3       1 TYR         0.0164
    203 CG        -17.2020   -5.8620   -4.8350 C.ar      1 TYR        -0.0493
    204 CD1       -18.4890   -6.0920   -4.4020 C.ar      1 TYR        -0.0685
    205 CD2       -16.9660   -5.4930   -6.1460 C.ar      1 TYR        -0.0685
    206 CE1       -19.5930   -5.9490   -5.3170 C.ar      1 TYR        -0.0398
    207 CE2       -18.0720   -5.3460   -7.0570 C.ar      1 TYR        -0.0398
    208 CZ        -19.3270   -5.5820   -6.5990 C.ar      1 TYR         0.0805
    209 OH        -20.3720   -5.4460   -7.4620 O.3       1 TYR        -0.3376
    210 H94       -17.1126   -7.4860   -2.6767 H         1 TYR         0.0821
    211 H95       -15.2619   -6.6435   -4.3441 H         1 TYR         0.0453
    212 H96       -15.6097   -5.0168   -3.6661 H         1 TYR         0.0453
    213 H97       -18.6714   -6.3805   -3.3732 H         1 TYR         0.0530
    214 H98       -15.9526   -5.3150   -6.4872 H         1 TYR         0.0530
    215 H99       -20.6110   -6.1296   -4.9912 H         1 TYR         0.0525
    216 H100      -17.9050   -5.0529   -8.0872 H         1 TYR         0.0525
    217 H101      -21.1835   -5.6408   -7.0081 H         1 TYR         0.2458
    218 H102      -12.5743   -7.2296   -1.1221 H         1 PRO         0.0802
    219 N         -14.4180   -6.2260   -1.1870 N.am      1 PRO        -0.2497
    220 CA        -13.1890   -6.5710   -0.4910 C.3       1 PRO         0.1338
    221 C         -13.4870   -7.3020    0.8200 C.2       1 PRO         0.2043
    222 O         -12.7700   -8.2280    1.1970 O.2       1 PRO        -0.3944
    223 CB        -12.4670   -5.2510   -0.2830 C.3       1 PRO        -0.0104
    224 CG        -13.5200   -4.1690   -0.4520 C.3       1 PRO        -0.0281
    225 CD        -14.7460   -4.8050   -1.0880 C.3       1 PRO         0.0369
    226 H103      -11.6697   -5.1290   -1.0309 H         1 PRO         0.0313
    227 H104      -12.0325   -5.2075    0.7266 H         1 PRO         0.0313
    228 H105      -13.7840   -3.7480    0.5293 H         1 PRO         0.0287
    229 H106      -13.1338   -3.3700   -1.1020 H         1 PRO         0.0287
    230 H107      -15.6331   -4.6549   -0.4552 H         1 PRO         0.0524
    231 H108      -14.9306   -4.3791   -2.0853 H         1 PRO         0.0524
    232 H109      -15.0817   -6.1022    1.1011 H         1 ASP         0.1886
    233 N         -14.5490   -6.8600    1.4780 N.am      1 ASP        -0.2609
    234 CA        -14.9510   -7.4600    2.7390 C.3       1 ASP         0.1534
    235 C         -16.2690   -6.8350    3.1970 C.2       1 ASP         0.2588
    236 O         -17.3010   -7.0040    2.5460 O.2       1 ASP        -0.3679
    237 CB        -13.9060   -7.2100    3.8240 C.3       1 ASP         0.0420
    238 CG        -14.4280   -7.3160    5.2600 C.2       1 ASP         0.0394
    239 OD1       -15.2690   -8.1700    5.5730 O.co2     1 ASP        -0.5688
    240 OD2       -13.9250   -6.4580    6.0860 O.co2     1 ASP        -0.5688
    241 H110      -15.0812   -8.5432    2.5989 H         1 ASP         0.0835
    242 H111      -13.5014   -6.1971    3.6816 H         1 ASP         0.0480
    243 H112      -13.0999   -7.9479    3.6983 H         1 ASP         0.0480
    244 H113      -15.4321   -6.0696    4.6885 H         1 ASP         0.2540
    245 O3        -16.3015   -6.1031    4.3070 O.3       1 ASP        -0.2909
@<TRIPOS>BOND
     1    2    1 1  
     2    2    5 1  
     3    3    2 1  
     4    3    4 2  
     5    5    6 1  
     6    6    7 1  
     7    6    8 2  
     8    8   10 1  
     9   10    9 1  
    10    7    9 2  
    11    1   11 1  
    12    1   12 1  
    13    1   13 1  
    14    2   14 1  
    15    5   15 1  
    16    5   16 1  
    17    8   17 1  
    18    9   18 1  
    19   10   19 1  
    20   21   20 1  
    21   22   21 1  
    22   22   25 1  
    23   23   22 1  
    24   23   24 2  
    25   25   26 1  
    26   26   27 1  
    27   27   28 1  
    28   28   29 ar 
    29   29   31 ar 
    30   29   30 ar 
    31   22   32 1  
    32   25   33 1  
    33   25   34 1  
    34   26   35 1  
    35   26   36 1  
    36   27   37 1  
    37   27   38 1  
    38   28   39 1  
    39   30   40 1  
    40   30   41 1  
    41   31   42 1  
    42   31   43 1  
    43   45   44 1  
    44   21    3 am 
    45   46   45 1  
    46   46   49 1  
    47   47   46 1  
    48   47   48 2  
    49   49   50 1  
    50   50   51 ar 
    51   50   52 ar 
    52   52   54 ar 
    53   54   55 ar 
    54   55   56 1  
    55   53   55 ar 
    56   51   53 ar 
    57   46   57 1  
    58   49   58 1  
    59   49   59 1  
    60   51   60 1  
    61   52   61 1  
    62   53   62 1  
    63   54   63 1  
    64   56   64 1  
    65   66   65 1  
    66   45   23 am 
    67   67   66 1  
    68   67   70 1  
    69   68   67 1  
    70   68   69 2  
    71   70   71 1  
    72   71   72 ar 
    73   71   73 ar 
    74   73   75 ar 
    75   75   76 ar 
    76   76   77 1  
    77   74   76 ar 
    78   72   74 ar 
    79   67   78 1  
    80   70   79 1  
    81   70   80 1  
    82   72   81 1  
    83   73   82 1  
    84   74   83 1  
    85   75   84 1  
    86   77   85 1  
    87   87   86 1  
    88   66   47 am 
    89   88   87 1  
    90   88   91 1  
    91   89   88 1  
    92   89   90 2  
    93   91   92 1  
    94   92   93 1  
    95   93   95 1  
    96   93   94 2  
    97   88   96 1  
    98   91   97 1  
    99   91   98 1  
   100   92   99 1  
   101   92  100 1  
   102   95  101 1  
   103  103  102 1  
   104   87   68 am 
   105  104  103 1  
   106  104  107 1  
   107  105  104 1  
   108  105  106 2  
   109  107  108 1  
   110  104  109 1  
   111  107  110 1  
   112  107  111 1  
   113  108  112 1  
   114  114  113 1  
   115  103   89 am 
   116  115  114 1  
   117  115  118 1  
   118  116  115 1  
   119  116  117 2  
   120  118  119 1  
   121  115  120 1  
   122  118  121 1  
   123  118  122 1  
   124  119  123 1  
   125  125  124 1  
   126  114  105 am 
   127  126  125 1  
   128  126  129 1  
   129  127  126 1  
   130  127  128 2  
   131  129  130 1  
   132  130  131 1  
   133  130  132 1  
   134  126  133 1  
   135  129  134 1  
   136  129  135 1  
   137  130  136 1  
   138  131  137 1  
   139  131  138 1  
   140  131  139 1  
   141  132  140 1  
   142  132  141 1  
   143  132  142 1  
   144  144  143 1  
   145  125  116 am 
   146  145  144 1  
   147  145  148 1  
   148  146  145 1  
   149  146  147 2  
   150  148  149 1  
   151  149  150 1  
   152  150  152 1  
   153  150  151 2  
   154  145  153 1  
   155  148  154 1  
   156  148  155 1  
   157  149  156 1  
   158  149  157 1  
   159  152  158 1  
   160  161  159 1  
   161  144  127 am 
   162  162  161 1  
   163  161  164 1  
   164  161  160 1  
   165  160  166 1  
   166  166  165 1  
   167  164  165 1  
   168  162  163 2  
   169  164  167 1  
   170  164  168 1  
   171  165  169 1  
   172  165  170 1  
   173  166  171 1  
   174  166  172 1  
   175  174  173 1  
   176  160  146 am 
   177  175  174 1  
   178  175  178 1  
   179  176  175 1  
   180  176  177 2  
   181  178  179 1  
   182  179  180 2  
   183  179  181 1  
   184  181  184 ar 
   185  181  183 ar 
   186  183  185 ar 
   187  183  182 1  
   188  180  182 1  
   189  185  187 ar 
   190  186  187 ar 
   191  184  186 ar 
   192  175  188 1  
   193  178  189 1  
   194  178  190 1  
   195  180  191 1  
   196  182  192 1  
   197  184  193 1  
   198  185  194 1  
   199  186  195 1  
   200  187  196 1  
   201  198  197 1  
   202  174  162 am 
   203  199  198 1  
   204  199  202 1  
   205  200  199 1  
   206  200  201 2  
   207  202  203 1  
   208  203  204 ar 
   209  203  205 ar 
   210  205  207 ar 
   211  207  208 ar 
   212  208  209 1  
   213  206  208 ar 
   214  204  206 ar 
   215  199  210 1  
   216  202  211 1  
   217  202  212 1  
   218  204  213 1  
   219  205  214 1  
   220  206  215 1  
   221  207  216 1  
   222  209  217 1  
   223  220  218 1  
   224  198  176 am 
   225  221  220 1  
   226  220  223 1  
   227  220  219 1  
   228  219  225 1  
   229  225  224 1  
   230  223  224 1  
   231  221  222 2  
   232  223  226 1  
   233  223  227 1  
   234  224  228 1  
   235  224  229 1  
   236  225  230 1  
   237  225  231 1  
   238  233  232 1  
   239  219  200 am 
   240  233  234 1  
   241  234  237 1  
   242  234  235 1  
   243  235  236 2  
   244  237  238 1  
   245  238  239 ar 
   246  238  240 ar 
   247  234  241 1  
   248  237  242 1  
   249  237  243 1  
   250  245  244 1  
   251  221  233 am 
   252  235  245 1  
@<TRIPOS>SUBSTRUCTURE
     1 HIS         1

