### 
### Created by X-TOOL on Mon Sep 10 21:13:00 2018
### 

@<TRIPOS>MOLECULE
2wtj_ligand
   48    50     1     0     0
SMALL
GAST_HUCK


@<TRIPOS>ATOM
      1 C01         7.0260  -45.6850    2.4090 C.3       1 WTJ        -0.0433
      2 N02         8.3880  -46.1290    2.6880 N.4       1 WTJ         0.2323
      3 C03         8.7750  -47.2730    1.8720 C.3       1 WTJ        -0.0433
      4 C04         8.5430  -46.4040    4.1230 C.3       1 WTJ        -0.0118
      5 C05         9.7140  -47.2970    4.5810 C.3       1 WTJ         0.0701
      6 N06         9.6430  -47.8140    5.9700 N.am      1 WTJ        -0.2823
      7 C07        10.8430  -48.3270    6.6400 C.2       1 WTJ         0.2020
      8 O08        11.9160  -48.2500    6.1310 O.2       1 WTJ        -0.3889
      9 C09        10.6690  -48.9110    8.0610 C.ar      1 WTJ         0.0810
     10 C10         9.3610  -49.1210    8.5570 C.ar      1 WTJ        -0.0415
     11 C11         9.1850  -49.6230    9.8690 C.ar      1 WTJ        -0.0066
     12 C12         7.9100  -49.8160   10.4170 C.2       1 WTJ         0.0409
     13 S13         6.4910  -49.3460    9.7890 S.3       1 WTJ        -0.0934
     14 C14         5.3600  -49.7880   10.8000 C.3       1 WTJ         0.0408
     15 C15         6.0370  -50.4930   12.0110 C.3       1 WTJ         0.1081
     16 O16         5.5250  -51.0590   13.2150 O.3       1 WTJ        -0.3679
     17 C17         6.4500  -51.9490   13.8600 C.3       1 WTJ         0.0721
     18 C18         7.8780  -51.3670   14.0020 C.3       1 WTJ         0.0750
     19 O19         8.5110  -51.0750   12.7230 O.3       1 WTJ        -0.3564
     20 C20         7.6320  -50.4950   11.7590 C.3       1 WTJ         0.1285
     21 C21        10.3560  -49.9310   10.6910 C.ar      1 WTJ        -0.0076
     22 N22        11.6600  -49.7320   10.1920 N.ar      1 WTJ        -0.2943
     23 C23        11.8410  -49.2320    8.8860 C.ar      1 WTJ         0.1166
     24 N24        13.1890  -49.0670    8.3770 N.pl3     1 WTJ        -0.3254
     25 H1          6.9198  -45.4818    1.3332 H         1 WTJ         0.0777
     26 H2          6.8156  -44.7674    2.9780 H         1 WTJ         0.0777
     27 H3          6.3161  -46.4712    2.7054 H         1 WTJ         0.0777
     28 H4          9.0094  -45.3710    2.4529 H         1 WTJ         0.2028
     29 H5          9.8055  -47.5679    2.1192 H         1 WTJ         0.0777
     30 H6          8.7168  -47.0008    0.8078 H         1 WTJ         0.0777
     31 H7          8.0948  -48.1138    2.0732 H         1 WTJ         0.0777
     32 H8          7.6149  -46.8868    4.4628 H         1 WTJ         0.0834
     33 H9          8.6580  -45.4339    4.6286 H         1 WTJ         0.0834
     34 H10        10.6393  -46.7093    4.4892 H         1 WTJ         0.0572
     35 H11         9.7604  -48.1623    3.9035 H         1 WTJ         0.0572
     36 H12         8.7681  -47.8127    6.4544 H         1 WTJ         0.1844
     37 H13         8.4998  -48.8992    7.9371 H         1 WTJ         0.0658
     38 H14         4.6681  -50.4841   10.3033 H         1 WTJ         0.0439
     39 H15         4.8047  -48.9041   11.1468 H         1 WTJ         0.0439
     40 H16         5.8950  -51.4719   11.5297 H         1 WTJ         0.0663
     41 H17         6.5097  -52.8753   13.2697 H         1 WTJ         0.0583
     42 H18         6.0672  -52.1788   14.8653 H         1 WTJ         0.0583
     43 H19         8.5003  -52.0965   14.5410 H         1 WTJ         0.0586
     44 H20         7.8190  -50.4349   14.5832 H         1 WTJ         0.0586
     45 H21         7.7647  -49.5334   12.2765 H         1 WTJ         0.0829
     46 H22        10.2195  -50.3165   11.6949 H         1 WTJ         0.0707
     47 H23        13.9965  -49.2983    8.9731 H         1 WTJ         0.1765
     48 H24        13.3388  -48.7185    7.4194 H         1 WTJ         0.1765
@<TRIPOS>BOND
     1    1    2 1  
     2    2    3 1  
     3    2    4 1  
     4    4    5 1  
     5    5    6 1  
     6    6    7 am 
     7    7    8 2  
     8    7    9 1  
     9    9   10 ar 
    10    9   23 ar 
    11   10   11 ar 
    12   11   12 1  
    13   11   21 ar 
    14   12   13 1  
    15   12   20 1  
    16   13   14 1  
    17   14   15 1  
    18   15   16 1  
    19   15   20 1  
    20   16   17 1  
    21   17   18 1  
    22   18   19 1  
    23   19   20 1  
    24   21   22 ar 
    25   22   23 ar 
    26   23   24 1  
    27    1   25 1  
    28    1   26 1  
    29    1   27 1  
    30    2   28 1  
    31    3   29 1  
    32    3   30 1  
    33    3   31 1  
    34    4   32 1  
    35    4   33 1  
    36    5   34 1  
    37    5   35 1  
    38    6   36 1  
    39   10   37 1  
    40   14   38 1  
    41   14   39 1  
    42   15   40 1  
    43   17   41 1  
    44   17   42 1  
    45   18   43 1  
    46   18   44 1  
    47   20   45 1  
    48   21   46 1  
    49   24   47 1  
    50   24   48 1  
@<TRIPOS>SUBSTRUCTURE
     1 WTJ         1

