2wtj_ligand
  -I-interpret- 

 49 51  0  0  0  0  0  0  0  0999 V2000
    7.0260  -45.6850    2.4090 C   0  0  0  0  0
    8.3880  -46.1290    2.6880 N   0  3  0  0  0
    8.7750  -47.2730    1.8720 C   0  0  0  0  0
    8.5430  -46.4040    4.1230 C   0  0  0  0  0
    9.7140  -47.2970    4.5810 C   0  0  0  0  0
    9.6430  -47.8140    5.9700 N   0  0  0  0  0
   10.8430  -48.3270    6.6400 C   0  0  0  0  0
   11.9160  -48.2500    6.1310 O   0  0  0  0  0
   10.6690  -48.9110    8.0610 C   0  0  0  0  0
    9.3610  -49.1210    8.5570 C   0  0  0  0  0
    9.1850  -49.6230    9.8690 C   0  0  0  0  0
    7.9100  -49.8160   10.4170 C   0  0  0  0  0
    6.4910  -49.3460    9.7890 S   0  0  0  0  0
    5.3600  -49.7880   10.8000 C   0  0  0  0  0
    6.0370  -50.4930   12.0110 C   0  0  0  0  0
    5.5250  -51.0590   13.2150 O   0  0  0  0  0
    6.4500  -51.9490   13.8600 C   0  0  0  0  0
    7.8780  -51.3670   14.0020 C   0  0  0  0  0
    8.5110  -51.0750   12.7230 O   0  0  0  0  0
    7.6320  -50.4950   11.7590 C   0  0  0  0  0
   10.3560  -49.9310   10.6910 C   0  0  0  0  0
   11.6600  -49.7320   10.1920 N   0  0  0  0  0
   11.8410  -49.2320    8.8860 C   0  0  0  0  0
   13.1890  -49.0670    8.3770 N   0  0  0  0  0
    6.3236  -46.4648    2.7032 H   0  0  0  0  0
    6.8188  -44.7758    2.9734 H   0  0  0  0  0
    6.9220  -45.4839    1.3428 H   0  0  0  0  0
    9.0240  -45.3735    2.4328 H   0  0  0  0  0
    9.8200  -47.5171    2.0631 H   0  0  0  0  0
    8.1485  -48.1278    2.1266 H   0  0  0  0  0
    8.6449  -47.0266    0.8182 H   0  0  0  0  0
    7.6424  -46.9485    4.4069 H   0  0  0  0  0
    8.7309  -45.4324    4.5799 H   0  0  0  0  0
   10.6070  -46.6737    4.5346 H   0  0  0  0  0
    9.7008  -48.1717    3.9307 H   0  0  0  0  0
    8.7506  -47.8127    6.4641 H   0  0  0  0  0
    8.4951  -48.8980    7.9337 H   0  0  0  0  0
    8.8103  -49.7160    9.8107 H   0  0  0  0  0
    4.6657  -50.4705   10.3099 H   0  0  0  0  0
    4.7999  -48.9166   11.1394 H   0  0  0  0  0
    5.0789  -50.7639   12.4546 H   0  0  0  0  0
    6.5232  -52.8453   13.2441 H   0  0  0  0  0
    6.0735  -52.1376   14.8654 H   0  0  0  0  0
    8.4891  -52.1136   14.5092 H   0  0  0  0  0
    7.7984  -50.4292   14.5519 H   0  0  0  0  0
    8.6710  -50.7076   12.0110 H   0  0  0  0  0
   10.2188  -50.3186   11.7005 H   0  0  0  0  0
   13.3374  -48.7219    7.4287 H   0  0  0  0  0
   13.9887  -49.2961    8.9673 H   0  0  0  0  0
  1  2  1  0  0  0
  2  3  1  0  0  0
  2  4  1  0  0  0
  4  5  1  0  0  0
  5  6  1  0  0  0
  6  7  1  0  0  0
  7  8  2  0  0  0
  7  9  1  0  0  0
  9 10  4  0  0  0
  9 23  4  0  0  0
 10 11  4  0  0  0
 11 12  1  0  0  0
 11 21  4  0  0  0
 12 13  1  0  0  0
 12 20  1  0  0  0
 13 14  1  0  0  0
 14 15  1  0  0  0
 15 16  1  0  0  0
 15 20  1  0  0  0
 16 17  1  0  0  0
 17 18  1  0  0  0
 18 19  1  0  0  0
 19 20  1  0  0  0
 21 22  4  0  0  0
 22 23  4  0  0  0
 23 24  1  0  0  0
  1 25  1  0  0  0
  1 26  1  0  0  0
  1 27  1  0  0  0
  2 28  1  0  0  0
  3 29  1  0  0  0
  3 30  1  0  0  0
  3 31  1  0  0  0
  4 32  1  0  0  0
  4 33  1  0  0  0
  5 34  1  0  0  0
  5 35  1  0  0  0
  6 36  1  0  0  0
 10 37  1  0  0  0
 12 38  1  0  0  0
 14 39  1  0  0  0
 14 40  1  0  0  0
 15 41  1  0  0  0
 17 42  1  0  0  0
 17 43  1  0  0  0
 18 44  1  0  0  0
 18 45  1  0  0  0
 20 46  1  0  0  0
 21 47  1  0  0  0
 24 48  1  0  0  0
 24 49  1  0  0  0
M  END
$$$$
