3ujd_ligand
  -I-interpret- 

 26 25  0  0  0  0  0  0  0  0999 V2000
   15.4940   10.8080   20.0140 P   0  0  0  0  0
   14.2540   11.6260   20.3230 O   0  0  0  0  0
   16.1560   10.2510   21.2510 O   0  0  0  0  0
   15.2200    9.7120   19.0000 O   0  0  0  0  0
   16.5600   11.7930   19.3730 O   0  0  0  0  0
   16.2640   12.5890   18.2440 C   0  0  0  0  0
   17.4080   13.5300   17.8420 C   0  0  0  0  0
   17.6950   14.7020   18.7120 N   0  3  0  0  0
   18.8280   15.4360   18.0210 C   0  0  0  0  0
   17.9530   14.2850   20.0820 C   0  0  0  0  0
   16.5880   15.5670   18.7470 C   0  0  0  0  0
   13.8759   11.9538   19.5037 H   0  0  0  0  0
   14.7999   10.0923   18.2251 H   0  0  0  0  0
   15.4033   13.2085   18.4962 H   0  0  0  0  0
   16.0839   11.9154   17.4062 H   0  0  0  0  0
   17.1089   13.9515   16.8823 H   0  0  0  0  0
   18.3092   12.9180   17.8787 H   0  0  0  0  0
   19.6906   14.7748   17.9385 H   0  0  0  0  0
   18.5069   15.7424   17.0255 H   0  0  0  0  0
   19.0979   16.3164   18.6042 H   0  0  0  0  0
   17.0785   13.7650   20.4730 H   0  0  0  0  0
   18.8135   13.6163   20.1009 H   0  0  0  0  0
   18.1596   15.1625   20.6947 H   0  0  0  0  0
   16.3701   15.9172   17.7380 H   0  0  0  0  0
   15.7237   15.0332   19.1422 H   0  0  0  0  0
   16.8145   16.4192   19.3878 H   0  0  0  0  0
  1  2  1  0  0  0
  1  3  2  0  0  0
  1  4  1  0  0  0
  1  5  1  0  0  0
  5  6  1  0  0  0
  6  7  1  0  0  0
  7  8  1  0  0  0
  8  9  1  0  0  0
  8 10  1  0  0  0
  8 11  1  0  0  0
  2 12  1  0  0  0
  4 13  1  0  0  0
  6 14  1  0  0  0
  6 15  1  0  0  0
  7 16  1  0  0  0
  7 17  1  0  0  0
  9 18  1  0  0  0
  9 19  1  0  0  0
  9 20  1  0  0  0
 10 21  1  0  0  0
 10 22  1  0  0  0
 10 23  1  0  0  0
 11 24  1  0  0  0
 11 25  1  0  0  0
 11 26  1  0  0  0
M  END
$$$$
