2o7v_ligand
  -I-interpret- 

 18 17  0  0  0  0  0  0  0  0999 V2000
   55.9820   34.2500   23.6260 C   0  0  0  0  0
   55.9860   33.8070   22.1680 C   0  0  0  0  0
   55.5860   35.2920   27.2180 C   0  0  0  0  0
   55.8880   35.8430   28.6030 C   0  0  0  0  0
   56.3280   35.6300   23.6780 O   0  0  0  0  0
   56.4450   35.8590   26.2040 O   0  0  0  0  0
   54.3870   37.0800   24.8560 O   0  0  0  0  0
   55.9230   36.5990   24.8730 P   0  0  0  0  0
   56.7026   33.6633   24.1958 H   0  0  0  0  0
   54.9936   34.0970   24.0593 H   0  0  0  0  0
   55.2586   34.3955   21.6088 H   0  0  0  0  0
   56.9795   33.9588   21.7462 H   0  0  0  0  0
   55.7227   32.7509   22.1098 H   0  0  0  0  0
   54.5556   35.5465   26.9697 H   0  0  0  0  0
   55.7519   34.2149   27.2386 H   0  0  0  0  0
   56.9204   35.6134   28.8668 H   0  0  0  0  0
   55.7435   36.9234   28.6023 H   0  0  0  0  0
   55.2158   35.3857   29.3291 H   0  0  0  0  0
  1  2  1  0  0  0
  5  1  1  0  0  0
  3  4  1  0  0  0
  6  3  1  0  0  0
  8  5  1  0  0  0
  6  8  1  0  0  0
  8  7  2  0  0  0
  1  9  1  0  0  0
  1 10  1  0  0  0
  2 11  1  0  0  0
  2 12  1  0  0  0
  2 13  1  0  0  0
  3 14  1  0  0  0
  3 15  1  0  0  0
  4 16  1  0  0  0
  4 17  1  0  0  0
  4 18  1  0  0  0
M  END
$$$$
