4zuo_ligand
  -I-interpret- 

 37 36  0  0  0  0  0  0  0  0999 V2000
   -9.5530    0.8950  -27.5740 C   0  0  0  0  0
   -9.2880    2.2940  -28.1200 C   0  0  0  0  0
   -9.7470    3.3450  -27.1180 C   0  0  0  0  0
  -11.9210    4.1580  -26.0970 C   0  0  0  0  0
  -11.2610    5.5170  -26.1970 C   0  0  0  0  0
  -12.2640    6.6670  -26.1660 C   0  0  0  0  0
  -12.2560    7.3820  -27.5120 C   0  0  0  0  0
  -13.0240    8.6850  -27.3790 C   0  0  0  0  0
  -12.8550    9.5770  -28.5880 C   0  0  0  0  0
   -9.4260   -0.1000  -28.6240 N   0  3  0  0  0
  -11.1290    3.1200  -26.7390 N   0  3  0  0  0
  -13.9780   10.1830  -28.9250 N   0  0  0  0  0
  -11.7710    9.7200  -29.1780 O   0  0  0  0  0
  -14.0390   11.0930  -29.9660 O   0  0  0  0  0
  -10.5671    0.8590  -27.1760 H   0  0  0  0  0
   -8.8236    0.6780  -26.7936 H   0  0  0  0  0
   -9.8393    2.4240  -29.0513 H   0  0  0  0  0
   -8.2188    2.4117  -28.2961 H   0  0  0  0  0
   -9.6624    4.3304  -27.5761 H   0  0  0  0  0
   -9.1217    3.2809  -26.2275 H   0  0  0  0  0
  -12.8869    4.2100  -26.5994 H   0  0  0  0  0
  -12.0235    3.9053  -25.0417 H   0  0  0  0  0
  -10.7323    5.5615  -27.1492 H   0  0  0  0  0
  -10.5983    5.6296  -25.3390 H   0  0  0  0  0
  -11.9885    7.3692  -25.3792 H   0  0  0  0  0
  -13.2615    6.2748  -25.9681 H   0  0  0  0  0
  -12.7257    6.7521  -28.2675 H   0  0  0  0  0
  -11.2293    7.5878  -27.8146 H   0  0  0  0  0
  -12.6384    9.2174  -26.5095 H   0  0  0  0  0
  -14.0827    8.4449  -27.2814 H   0  0  0  0  0
   -9.6071   -1.0261  -28.2368 H   0  0  0  0  0
  -10.1007    0.0989  -29.3626 H   0  0  0  0  0
   -8.4813   -0.0692  -29.0075 H   0  0  0  0  0
  -11.0711    2.3865  -26.0326 H   0  0  0  0  0
  -11.6035    2.9676  -27.6290 H   0  0  0  0  0
  -14.8281    9.9740  -28.4015 H   0  0  0  0  0
  -14.9376   11.4199  -30.0515 H   0  0  0  0  0
  2  1  1  0  0  0
  1 10  1  0  0  0
  3  2  1  0  0  0
 11  3  1  0  0  0
  4  5  1  0  0  0
  4 11  1  0  0  0
  5  6  1  0  0  0
  6  7  1  0  0  0
  7  8  1  0  0  0
  8  9  1  0  0  0
  9 12  1  0  0  0
  9 13  2  0  0  0
 12 14  1  0  0  0
  1 15  1  0  0  0
  1 16  1  0  0  0
  2 17  1  0  0  0
  2 18  1  0  0  0
  3 19  1  0  0  0
  3 20  1  0  0  0
  4 21  1  0  0  0
  4 22  1  0  0  0
  5 23  1  0  0  0
  5 24  1  0  0  0
  6 25  1  0  0  0
  6 26  1  0  0  0
  7 27  1  0  0  0
  7 28  1  0  0  0
  8 29  1  0  0  0
  8 30  1  0  0  0
 10 31  1  0  0  0
 10 32  1  0  0  0
 10 33  1  0  0  0
 11 34  1  0  0  0
 11 35  1  0  0  0
 12 36  1  0  0  0
 14 37  1  0  0  0
M  END
$$$$
