3bxf_ligand
  -I-interpret- 

 34 34  0  0  0  0  0  0  0  0999 V2000
   11.4180    1.0530    0.8330 P   0  0  0  0  0
   11.1050    2.3340    1.5890 O   0  0  0  0  0
   10.1900    0.5190    0.1150 O   0  0  0  0  0
   12.4970    1.3050   -0.2120 O   0  0  0  0  0
   11.9820   -0.0070    1.9090 O   0  0  0  0  0
   11.1930   -0.2390    3.0500 C   0  0  0  0  0
   11.9920   -0.7500    4.2460 C   0  0  0  0  0
   11.0670   -1.0680    5.3130 O   0  0  0  0  0
   13.0410    0.1990    4.7890 C   0  0  0  0  0
   12.5050    1.2580    5.5360 O   0  0  0  0  0
   13.8780   -0.7220    5.6480 C   0  0  0  0  0
   15.1980   -0.2420    5.6830 O   0  0  0  0  0
   13.8560   -1.9600    4.7690 C   0  0  0  0  0
   12.6880   -1.9320    3.9530 O   0  0  0  0  0
   13.9990   -3.2710    5.4920 C   0  0  0  0  0
   13.9910   -4.2620    4.4890 O   0  0  0  0  0
   14.2760   -5.7830    4.8420 P   0  0  0  0  0
   15.6710   -5.9070    5.4140 O   0  0  0  0  0
   14.0920   -6.5640    3.5590 O   0  0  0  0  0
   13.2400   -6.1520    5.8600 O   0  0  0  0  0
   11.8984    2.6455    2.0307 H   0  0  0  0  0
   13.2852    1.6438    0.2188 H   0  0  0  0  0
   10.4607   -1.0043    2.7930 H   0  0  0  0  0
   10.7433    0.7114    3.3372 H   0  0  0  0  0
   10.3951   -1.6696    4.9839 H   0  0  0  0  0
   13.5944    0.7091    4.0005 H   0  0  0  0  0
   13.2176    1.8196    5.8498 H   0  0  0  0  0
   13.5376   -0.8461    6.6760 H   0  0  0  0  0
   15.7343   -0.8232    6.2273 H   0  0  0  0  0
   14.7541   -1.9135    4.1530 H   0  0  0  0  0
   13.1897   -3.4216    6.2064 H   0  0  0  0  0
   14.9182   -3.3045    6.0769 H   0  0  0  0  0
   16.3135   -5.6654    4.7428 H   0  0  0  0  0
   14.7687   -6.3060    2.9288 H   0  0  0  0  0
  1  2  1  0  0  0
  1  3  2  0  0  0
  1  4  1  0  0  0
  1  5  1  0  0  0
  5  6  1  0  0  0
  6  7  1  0  0  0
  7  8  1  0  0  0
  7  9  1  0  0  0
  7 14  1  0  0  0
  9 10  1  0  0  0
  9 11  1  0  0  0
 11 12  1  0  0  0
 11 13  1  0  0  0
 13 14  1  0  0  0
 13 15  1  0  0  0
 15 16  1  0  0  0
 16 17  1  0  0  0
 17 18  1  0  0  0
 17 19  1  0  0  0
 17 20  2  0  0  0
  2 21  1  0  0  0
  4 22  1  0  0  0
  6 23  1  0  0  0
  6 24  1  0  0  0
  8 25  1  0  0  0
  9 26  1  0  0  0
 10 27  1  0  0  0
 11 28  1  0  0  0
 12 29  1  0  0  0
 13 30  1  0  0  0
 15 31  1  0  0  0
 15 32  1  0  0  0
 18 33  1  0  0  0
 19 34  1  0  0  0
M  END
$$$$
