2lwi_ligand
  -I-interpret- 

 34 35  0  0  0  0  0  0  0  0999 V2000
    6.9880  -13.7700    6.3420 C   0  0  0  0  0
    6.7130  -12.4180    6.5160 C   0  0  0  0  0
    5.6770  -12.0240    7.3560 C   0  0  0  0  0
    5.4150  -10.7140    7.5350 F   0  0  0  0  0
    4.9160  -12.9800    8.0180 C   0  0  0  0  0
    5.1910  -14.3310    7.8420 C   0  0  0  0  0
    6.2290  -14.7280    7.0050 C   0  0  0  0  0
    6.5120  -16.0160    6.8230 N   0  0  0  0  0
    5.8220  -16.9780    7.4310 C   0  0  0  0  0
    4.5090  -16.5970    8.5240 S   0  0  0  0  0
    6.1360  -18.2530    7.2210 N   0  0  0  0  0
    7.0600  -18.5580    6.4680 N   0  0  0  0  0
    6.8120  -18.8480    5.1930 C   0  0  0  0  0
    5.5070  -18.7960    4.7160 C   0  0  0  0  0
    5.2490  -19.1090    3.3860 C   0  0  0  0  0
    6.2880  -19.4690    2.5370 C   0  0  0  0  0
    6.0330  -19.7780    1.2680 N   0  0  0  0  0
    7.0950  -20.1450    0.3990 O   0  0  0  0  0
    4.6980  -19.7410    0.7840 O   0  0  0  0  0
    7.5920  -19.5160    3.0150 C   0  0  0  0  0
    7.8540  -19.2050    4.3450 C   0  0  0  0  0
    9.1030  -19.2560    4.8010 N   0  0  0  0  0
    9.3800  -18.9460    6.1600 O   0  0  0  0  0
   10.1620  -19.6230    3.9280 O   0  0  0  0  0
    7.8004  -14.0794    5.6844 H   0  0  0  0  0
    7.3084  -11.6683    5.9949 H   0  0  0  0  0
    4.1035  -12.6703    8.6753 H   0  0  0  0  0
    4.5927  -15.0803    8.3603 H   0  0  0  0  0
    7.2784  -16.2725    6.2007 H   0  0  0  0  0
    4.3601  -15.2771    8.5925 H   0  0  0  0  0
    8.0165  -18.5886    6.8211 H   0  0  0  0  0
    4.6912  -18.5116    5.3806 H   0  0  0  0  0
    4.2273  -19.0717    3.0080 H   0  0  0  0  0
    8.4080  -19.7961    2.3488 H   0  0  0  0  0
  1  2  4  0  0  0
  1  7  4  0  0  0
  2  3  4  0  0  0
  3  4  1  0  0  0
  3  5  4  0  0  0
  5  6  4  0  0  0
  6  7  4  0  0  0
  7  8  1  0  0  0
  8  9  1  0  0  0
  9 10  1  0  0  0
  9 11  2  0  0  0
 11 12  1  0  0  0
 12 13  1  0  0  0
 13 14  4  0  0  0
 13 21  4  0  0  0
 14 15  4  0  0  0
 15 16  4  0  0  0
 16 17  1  0  0  0
 16 20  4  0  0  0
 17 18  2  0  0  0
 17 19  2  0  0  0
 20 21  4  0  0  0
 21 22  1  0  0  0
 22 23  2  0  0  0
 22 24  2  0  0  0
  1 25  1  0  0  0
  2 26  1  0  0  0
  5 27  1  0  0  0
  6 28  1  0  0  0
  8 29  1  0  0  0
 10 30  1  0  0  0
 12 31  1  0  0  0
 14 32  1  0  0  0
 15 33  1  0  0  0
 20 34  1  0  0  0
M  END
$$$$
