6iby_ligand
  -I-interpret- 

 64 69  0  0  0  0  0  0  0  0999 V2000
  134.8090  -42.6500  265.4880 C   0  0  0  0  0
  134.2660  -43.9930  265.9600 C   0  0  0  0  0
  135.4790  -44.7300  266.3090 N   0  3  0  0  0
  135.2440  -45.9610  267.1050 C   0  0  0  0  0
  136.3440  -43.7300  266.9690 C   0  0  0  0  0
  136.2160  -42.5300  266.0890 C   0  0  0  0  0
  137.2030  -42.6180  265.0330 N   0  0  0  0  0
  138.3240  -41.8820  265.0100 C   0  0  0  0  0
  138.5800  -41.1550  265.9560 O   0  0  0  0  0
  139.2330  -42.0600  263.9220 C   0  0  0  0  0
  138.7880  -42.5370  262.6940 C   0  0  0  0  0
  139.6260  -42.7310  261.5940 C   0  0  0  0  0
  140.9710  -42.4510  261.6970 N   0  0  0  0  0
  141.4340  -41.9740  262.8970 C   0  0  0  0  0
  140.6010  -41.7840  264.0070 C   0  0  0  0  0
  141.0350  -41.2860  265.1850 N   0  0  0  0  0
  142.3210  -40.9950  265.4870 C   0  0  0  0  0
  142.5940  -39.7790  266.1430 C   0  0  0  0  0
  143.3740  -41.8940  265.3100 C   0  0  0  0  0
  144.6570  -41.5300  265.7150 C   0  0  0  0  0
  145.6660  -42.3940  265.5050 N   0  0  0  0  0
  146.9870  -42.1260  265.8580 C   0  0  0  0  0
  147.2520  -40.9350  266.5010 C   0  0  0  0  0
  146.1960  -40.0460  266.7290 N   0  0  0  0  0
  144.9270  -40.3190  266.3410 C   0  0  0  0  0
  143.8860  -39.4040  266.5850 C   0  0  0  0  0
  144.1090  -38.1210  267.2030 C   0  0  0  0  0
  143.4470  -37.6870  268.3560 C   0  0  0  0  0
  143.6880  -36.4770  268.8590 C   0  0  0  0  0
  143.1840  -35.8440  269.9070 N   0  0  0  0  0
  142.1660  -36.3270  270.8020 C   0  0  0  0  0
  143.7280  -34.6420  270.0160 C   0  0  0  0  0
  144.6140  -34.5090  269.0260 C   0  0  0  0  0
  144.5780  -35.6360  268.2930 C   0  0  0  0  0
  145.2690  -35.9920  267.2110 C   0  0  0  0  0
  145.0300  -37.2300  266.6480 C   0  0  0  0  0
  134.1693  -41.8289  265.8117 H   0  0  0  0  0
  134.8378  -42.5955  264.3997 H   0  0  0  0  0
  133.6669  -44.4977  265.2021 H   0  0  0  0  0
  133.5720  -43.8994  266.7953 H   0  0  0  0  0
  135.9275  -45.1216  265.4808 H   0  0  0  0  0
  136.1974  -46.4492  267.3068 H   0  0  0  0  0
  134.7631  -45.6968  268.0468 H   0  0  0  0  0
  134.5996  -46.6376  266.5437 H   0  0  0  0  0
  137.3753  -44.0684  267.0694 H   0  0  0  0  0
  136.0442  -43.5297  267.9976 H   0  0  0  0  0
  136.3652  -41.5896  266.6195 H   0  0  0  0  0
  137.0374  -43.2725  264.2684 H   0  0  0  0  0
  137.7293  -42.7718  262.5843 H   0  0  0  0  0
  139.2165  -43.1035  260.6550 H   0  0  0  0  0
  142.4929  -41.7331  262.9905 H   0  0  0  0  0
  140.3349  -41.1151  265.9069 H   0  0  0  0  0
  141.7676  -39.0906  266.3197 H   0  0  0  0  0
  143.1948  -42.8704  264.8598 H   0  0  0  0  0
  147.7846  -42.8342  265.6334 H   0  0  0  0  0
  148.2638  -40.6912  266.8250 H   0  0  0  0  0
  142.7285  -38.3436  268.8468 H   0  0  0  0  0
  141.2539  -36.5258  270.2393 H   0  0  0  0  0
  142.5085  -37.2460  271.2777 H   0  0  0  0  0
  141.9673  -35.5739  271.5645 H   0  0  0  0  0
  143.4949  -33.8962  270.7760 H   0  0  0  0  0
  145.2513  -33.6435  268.8447 H   0  0  0  0  0
  146.0090  -35.3187  266.7783 H   0  0  0  0  0
  145.5735  -37.5188  265.7484 H   0  0  0  0  0
  1  2  1  0  0  0
  1  6  1  0  0  0
  2  3  1  0  0  0
  3  4  1  0  0  0
  3  5  1  0  0  0
  5  6  1  0  0  0
  6  7  1  0  0  0
  7  8  1  0  0  0
  8  9  2  0  0  0
  8 10  1  0  0  0
 10 11  4  0  0  0
 10 15  4  0  0  0
 11 12  4  0  0  0
 12 13  4  0  0  0
 13 14  4  0  0  0
 14 15  4  0  0  0
 15 16  1  0  0  0
 16 17  1  0  0  0
 17 18  4  0  0  0
 17 19  4  0  0  0
 18 26  4  0  0  0
 19 20  4  0  0  0
 20 21  4  0  0  0
 20 25  4  0  0  0
 21 22  4  0  0  0
 22 23  4  0  0  0
 23 24  4  0  0  0
 24 25  4  0  0  0
 25 26  4  0  0  0
 26 27  1  0  0  0
 27 28  4  0  0  0
 27 36  4  0  0  0
 28 29  4  0  0  0
 29 30  4  0  0  0
 29 34  4  0  0  0
 30 31  1  0  0  0
 30 32  4  0  0  0
 32 33  4  0  0  0
 33 34  4  0  0  0
 34 35  4  0  0  0
 35 36  4  0  0  0
  1 37  1  0  0  0
  1 38  1  0  0  0
  2 39  1  0  0  0
  2 40  1  0  0  0
  3 41  1  0  0  0
  4 42  1  0  0  0
  4 43  1  0  0  0
  4 44  1  0  0  0
  5 45  1  0  0  0
  5 46  1  0  0  0
  6 47  1  0  0  0
  7 48  1  0  0  0
 11 49  1  0  0  0
 12 50  1  0  0  0
 14 51  1  0  0  0
 16 52  1  0  0  0
 18 53  1  0  0  0
 19 54  1  0  0  0
 22 55  1  0  0  0
 23 56  1  0  0  0
 28 57  1  0  0  0
 31 58  1  0  0  0
 31 59  1  0  0  0
 31 60  1  0  0  0
 32 61  1  0  0  0
 33 62  1  0  0  0
 35 63  1  0  0  0
 36 64  1  0  0  0
M  END
$$$$
