3anq_ligand
  -I-interpret- 

 30 31  0  0  0  0  0  0  0  0999 V2000
    5.7470   27.3360   12.0130 N   0  3  0  0  0
    6.5620   24.1970   14.7460 O   0  0  0  0  0
    7.5380   25.9660   12.9180 S   0  0  0  0  0
    8.2280   29.0220   10.0220 C   0  0  0  0  0
    6.9930   28.7220   10.5240 C   0  0  0  0  0
    6.8310   27.7120   11.4640 C   0  0  0  0  0
    7.9220   26.9940   11.9120 C   0  0  0  0  0
    9.1670   27.2980   11.4060 C   0  0  0  0  0
    9.3210   28.3070   10.4630 C   0  0  0  0  0
    6.0070   26.3110   12.8820 C   0  0  0  0  0
    5.0920   25.6410   13.6630 C   0  0  0  0  0
    5.3890   24.6200   14.5550 C   0  0  0  0  0
    4.2330   24.0200   15.3310 C   0  0  0  0  0
    4.4640   28.0720   11.6100 C   0  0  0  0  0
    3.1830   27.7330   12.2810 C   0  0  0  0  0
    8.3630   30.0350    9.0840 O   0  0  0  0  0
    6.1231   29.2828   10.1822 H   0  0  0  0  0
   10.0395   26.7417   11.7487 H   0  0  0  0  0
   10.3118   28.5344   10.0697 H   0  0  0  0  0
    4.4889   25.1243   12.9164 H   0  0  0  0  0
    4.7376   26.4292   14.3273 H   0  0  0  0  0
    4.1681   22.9532   15.1168 H   0  0  0  0  0
    4.3976   24.1683   16.3982 H   0  0  0  0  0
    3.3051   24.5086   15.0339 H   0  0  0  0  0
    4.3080   27.8031   10.5653 H   0  0  0  0  0
    4.6478   29.1130   11.8758 H   0  0  0  0  0
    2.9532   26.6809   12.1123 H   0  0  0  0  0
    3.2745   27.9192   13.3511 H   0  0  0  0  0
    2.3845   28.3510   11.8703 H   0  0  0  0  0
    9.2865   30.1185    8.8355 H   0  0  0  0  0
  1  6  4  0  0  0
 10  1  4  0  0  0
  1 14  1  0  0  0
 12  2  2  0  0  0
  3  7  4  0  0  0
 10  3  4  0  0  0
  5  4  4  0  0  0
  9  4  4  0  0  0
  4 16  1  0  0  0
  6  5  4  0  0  0
  7  6  4  0  0  0
  7  8  4  0  0  0
  8  9  4  0  0  0
 11 10  1  0  0  0
 11 12  1  0  0  0
 12 13  1  0  0  0
 14 15  1  0  0  0
  5 17  1  0  0  0
  8 18  1  0  0  0
  9 19  1  0  0  0
 11 20  1  0  0  0
 11 21  1  0  0  0
 13 22  1  0  0  0
 13 23  1  0  0  0
 13 24  1  0  0  0
 14 25  1  0  0  0
 14 26  1  0  0  0
 15 27  1  0  0  0
 15 28  1  0  0  0
 15 29  1  0  0  0
 16 30  1  0  0  0
M  END
$$$$
