1vyz_ligand
  -I-interpret- 

 29 31  0  0  0  0  0  0  0  0999 V2000
   13.3460   45.8330   22.1760 C   0  0  0  0  0
   14.6380   45.0460   21.8820 C   0  0  0  0  0
   12.6940   45.9870   23.3940 C   0  0  0  0  0
   12.6150   46.5250   21.2280 N   0  0  0  0  0
   15.7760   45.2660   22.8960 C   0  0  0  0  0
   15.2540   43.8530   22.5490 C   0  0  0  0  0
   11.5690   46.7760   23.1460 C   0  0  0  0  0
   11.5360   47.1000   21.8090 N   0  0  0  0  0
   10.5930   47.1820   24.1540 N   0  0  0  0  0
   10.2410   46.6320   25.3470 C   0  0  0  0  0
    9.0630   47.2380   26.1210 C   0  0  0  0  0
   10.8790   45.6680   25.8050 O   0  0  0  0  0
    8.3470   46.3920   27.0380 C   0  0  0  0  0
    8.6470   48.6130   26.0220 C   0  0  0  0  0
    7.2720   46.8960   27.8190 C   0  0  0  0  0
    7.5730   49.1110   26.8040 C   0  0  0  0  0
    6.8900   48.2510   27.6990 C   0  0  0  0  0
   14.3844   45.1618   20.8283 H   0  0  0  0  0
   13.0008   45.5730   24.3545 H   0  0  0  0  0
   16.0075   45.8772   23.7683 H   0  0  0  0  0
   16.7181   45.8068   22.9861 H   0  0  0  0  0
   15.6636   42.8845   22.2621 H   0  0  0  0  0
   14.9242   42.9578   23.0761 H   0  0  0  0  0
   10.0822   48.0334   23.9206 H   0  0  0  0  0
    8.6343   45.3451   27.1356 H   0  0  0  0  0
    9.1655   49.2820   25.3352 H   0  0  0  0  0
    6.7433   46.2386   28.5092 H   0  0  0  0  0
    7.2734   50.1553   26.7162 H   0  0  0  0  0
    6.0653   48.6368   28.2983 H   0  0  0  0  0
  1  2  1  0  0  0
  1  3  4  0  0  0
  1  4  4  0  0  0
  2  5  1  0  0  0
  2  6  1  0  0  0
  3  7  4  0  0  0
  4  8  4  0  0  0
  5  6  1  0  0  0
  7  8  4  0  0  0
  7  9  1  0  0  0
  9 10  1  0  0  0
 10 11  1  0  0  0
 10 12  2  0  0  0
 11 13  4  0  0  0
 11 14  4  0  0  0
 13 15  4  0  0  0
 14 16  4  0  0  0
 15 17  4  0  0  0
 16 17  4  0  0  0
  2 18  1  0  0  0
  3 19  1  0  0  0
  5 20  1  0  0  0
  5 21  1  0  0  0
  6 22  1  0  0  0
  6 23  1  0  0  0
  9 24  1  0  0  0
 13 25  1  0  0  0
 14 26  1  0  0  0
 15 27  1  0  0  0
 16 28  1  0  0  0
 17 29  1  0  0  0
M  END
$$$$
