1h3c_ligand
  -I-interpret- 

 56 58  0  0  0  0  0  0  0  0999 V2000
   63.1060   69.2390   59.0870 C   0  0  0  0  0
   62.0440   69.9890   58.7510 C   0  0  0  0  0
   61.3890   71.0240   59.6580 C   0  0  0  0  0
   62.2950   71.5670   60.7140 N   0  3  0  0  0
   61.9190   71.1130   62.0840 C   0  0  0  0  0
   62.8840   70.0620   62.7100 C   0  0  0  0  0
   63.7150   70.6710   63.8690 C   0  0  0  0  0
   63.1200   70.2760   65.2450 C   0  0  0  0  0
   63.9080   69.1070   65.8830 C   0  0  0  0  0
   65.0700   69.6280   66.7630 C   0  0  0  0  0
   64.5380   70.1560   67.9960 O   0  0  0  0  0
   65.4980   70.6120   68.8960 C   0  0  0  0  0
   66.2660   69.6930   69.7000 C   0  0  0  0  0
   67.2230   70.2420   70.5810 C   0  0  0  0  0
   68.3130   69.3950   71.6850 S   0  0  0  0  0
   68.8950   70.8010   72.1360 N   0  0  0  0  0
   68.4070   71.9460   71.5910 C   0  0  0  0  0
   67.4130   71.6710   70.6650 C   0  0  0  0  0
   66.6430   72.5380   69.8700 C   0  0  0  0  0
   65.6960   71.9940   68.9960 C   0  0  0  0  0
   68.9810   73.2910   72.0370 C   0  0  0  0  0
   70.3450   73.5470   71.7720 C   0  0  0  0  0
   70.9500   74.7870   72.1750 C   0  0  0  0  0
   70.1960   75.7880   72.8500 C   0  0  0  0  0
   68.8170   75.5480   73.1260 C   0  0  0  0  0
   68.1990   74.2990   72.7230 C   0  0  0  0  0
   71.0330   77.3680   73.3660 Br  0  0  0  0  0
   62.3040   73.0610   60.6840 C   0  0  0  0  0
   63.5614   69.3490   60.0712 H   0  0  0  0  0
   63.5126   68.5202   58.3756 H   0  0  0  0  0
   61.6194   69.8472   57.7571 H   0  0  0  0  0
   60.5602   70.5306   60.1656 H   0  0  0  0  0
   61.0882   71.8614   59.0284 H   0  0  0  0  0
   63.2254   71.2049   60.5051 H   0  0  0  0  0
   60.9415   70.6375   62.0033 H   0  0  0  0  0
   61.9466   71.9920   62.7280 H   0  0  0  0  0
   63.5709   69.7202   61.9357 H   0  0  0  0  0
   62.2881   69.2404   63.1076 H   0  0  0  0  0
   63.6979   71.7571   63.7790 H   0  0  0  0  0
   64.7346   70.2906   63.8062 H   0  0  0  0  0
   62.0872   69.9596   65.0987 H   0  0  0  0  0
   63.1794   71.1381   65.9093 H   0  0  0  0  0
   64.3249   68.4925   65.0850 H   0  0  0  0  0
   63.2279   68.5312   66.5107 H   0  0  0  0  0
   65.6050   70.4147   66.2310 H   0  0  0  0  0
   65.7551   68.8093   66.9832 H   0  0  0  0  0
   66.1134   68.6160   69.6301 H   0  0  0  0  0
   66.7818   73.6172   69.9337 H   0  0  0  0  0
   65.0975   72.6628   68.3775 H   0  0  0  0  0
   70.9446   72.7966   71.2567 H   0  0  0  0  0
   72.0039   74.9638   71.9601 H   0  0  0  0  0
   68.2261   76.3053   73.6412 H   0  0  0  0  0
   67.1454   74.1189   72.9366 H   0  0  0  0  0
   61.3116   73.4342   60.9369 H   0  0  0  0  0
   63.0289   73.4333   61.4079 H   0  0  0  0  0
   62.5781   73.4014   59.6855 H   0  0  0  0  0
  1  2  2  0  0  0
  2  3  1  0  0  0
  3  4  1  0  0  0
  4  5  1  0  0  0
  4 28  1  0  0  0
  5  6  1  0  0  0
  6  7  1  0  0  0
  7  8  1  0  0  0
  8  9  1  0  0  0
  9 10  1  0  0  0
 10 11  1  0  0  0
 11 12  1  0  0  0
 12 13  4  0  0  0
 12 20  4  0  0  0
 13 14  4  0  0  0
 14 15  4  0  0  0
 14 18  4  0  0  0
 15 16  4  0  0  0
 16 17  4  0  0  0
 17 18  4  0  0  0
 17 21  1  0  0  0
 18 19  4  0  0  0
 19 20  4  0  0  0
 21 22  4  0  0  0
 21 26  4  0  0  0
 22 23  4  0  0  0
 23 24  4  0  0  0
 24 25  4  0  0  0
 24 27  1  0  0  0
 25 26  4  0  0  0
  1 29  1  0  0  0
  1 30  1  0  0  0
  2 31  1  0  0  0
  3 32  1  0  0  0
  3 33  1  0  0  0
  4 34  1  0  0  0
  5 35  1  0  0  0
  5 36  1  0  0  0
  6 37  1  0  0  0
  6 38  1  0  0  0
  7 39  1  0  0  0
  7 40  1  0  0  0
  8 41  1  0  0  0
  8 42  1  0  0  0
  9 43  1  0  0  0
  9 44  1  0  0  0
 10 45  1  0  0  0
 10 46  1  0  0  0
 13 47  1  0  0  0
 19 48  1  0  0  0
 20 49  1  0  0  0
 22 50  1  0  0  0
 23 51  1  0  0  0
 25 52  1  0  0  0
 26 53  1  0  0  0
 28 54  1  0  0  0
 28 55  1  0  0  0
 28 56  1  0  0  0
M  END
$$$$
