### 
### Created by X-TOOL on Mon Aug  2 16:10:01 2021
### 

@<TRIPOS>MOLECULE
6rjp_ligand
  264   266     1     0     0
SMALL
GAST_HUCK


@<TRIPOS>ATOM
      1 N          56.2470  -30.5000   20.2440 N.am      1 LV8        -0.2637
      2 CA         57.0110  -31.0380   19.0690 C.3       1 LV8         0.1508
      3 CB         57.8460  -32.2690   19.4190 C.3       1 LV8         0.0710
      4 NG         59.0850  -32.2850   18.6210 N.am      1 LV8        -0.2827
      5 CD         59.0690  -33.2890   17.7880 C.2       1 LV8         0.1731
      6 OD2        58.1360  -34.0490   18.0400 O.2       1 LV8        -0.3974
      7 CE         59.9520  -33.3430   16.5200 C.3       1 LV8         0.0257
      8 C          55.9620  -31.1080   17.9470 C.2       1 LV8         0.2059
      9 O          55.4700  -30.0330   17.5060 O.2       1 LV8        -0.3943
     10 N          55.6050  -32.2810   17.4150 N.am      1 LV8        -0.2634
     11 CA         54.7000  -32.2040   16.2270 C.3       1 LV8         0.1332
     12 C          53.2810  -31.9070   16.7430 C.2       1 LV8         0.2012
     13 O          52.6400  -30.9240   16.3060 O.2       1 LV8        -0.3947
     14 CB         54.7600  -33.4790   15.3730 C.3       1 LV8        -0.0037
     15 CG1        56.1940  -33.7990   14.9490 C.3       1 LV8        -0.0491
     16 CG2        53.7940  -33.3920   14.1990 C.3       1 LV8        -0.0582
     17 CD1        56.2560  -34.9080   13.9280 C.3       1 LV8        -0.0648
     18 N          52.8050  -32.7340   17.6790 N.am      1 LV8        -0.2745
     19 CA         51.4760  -32.5160   18.2810 C.3       1 LV8         0.1274
     20 C          51.3110  -31.0710   18.8070 C.2       1 LV8         0.2261
     21 O          50.2220  -30.4420   18.6430 O.2       1 LV8        -0.3419
     22 CB1        50.3340  -32.8400   17.3220 C.3       1 LV8        -0.0323
     23 CB2        51.2970  -33.5690   19.3620 C.3       1 LV8        -0.0323
     24 N          52.3440  -30.5510   19.4890 N.am      1 LV8        -0.2627
     25 CA         52.3770  -29.1800   20.0910 C.3       1 LV8         0.1332
     26 C          52.1960  -28.1160   19.0200 C.2       1 LV8         0.2042
     27 O          51.3240  -27.1890   19.1400 O.2       1 LV8        -0.3944
     28 CB         53.7320  -28.9040   20.6990 C.3       1 LV8         0.0047
     29 CG         54.2100  -30.1220   21.4630 C.3       1 LV8         0.0416
     30 CD         55.1530  -31.0470   20.6910 C.2       1 LV8         0.1785
     31 OE1        54.6860  -31.8960   19.9300 O.2       1 LV8        -0.3969
     32 N          53.0220  -28.2240   17.9690 N.am      1 LV8        -0.2640
     33 CA         53.0380  -27.2560   16.9100 C.3       1 LV8         0.1282
     34 C          51.6630  -27.2180   16.2340 C.2       1 LV8         0.2036
     35 O          51.0630  -26.1640   16.1460 O.2       1 LV8        -0.3944
     36 CB         54.1480  -27.6260   15.9800 C.3       1 LV8        -0.0244
     37 N          51.1250  -28.3620   15.8510 N.am      1 LV8        -0.2637
     38 CA         49.8570  -28.3340   15.1460 C.3       1 LV8         0.1312
     39 C          48.7900  -27.7370   16.0530 C.2       1 LV8         0.2039
     40 O          47.8680  -27.1300   15.5700 O.2       1 LV8        -0.3944
     41 CB         49.4050  -29.7340   14.7450 C.3       1 LV8        -0.0101
     42 CG         50.0160  -30.3090   13.4740 C.3       1 LV8        -0.0425
     43 CD1        51.4980  -30.0080   13.3360 C.3       1 LV8        -0.0625
     44 CD2        49.8070  -31.8110   13.4130 C.3       1 LV8        -0.0625
     45 N          48.8740  -28.0000   17.3480 N.am      1 LV8        -0.2637
     46 CA         47.8400  -27.5520   18.2770 C.3       1 LV8         0.1311
     47 C          47.9110  -26.0260   18.4070 C.2       1 LV8         0.2039
     48 O          46.8970  -25.3430   18.2440 O.2       1 LV8        -0.3944
     49 CB         48.0550  -28.1910   19.6470 C.3       1 LV8        -0.0092
     50 CG         47.0580  -29.2680   20.0670 C.3       1 LV8        -0.0156
     51 CD         47.3690  -29.7350   21.4920 C.3       1 LV8         0.0627
     52 NE         46.6590  -30.9010   22.0130 N.pl3     1 LV8        -0.2723
     53 CZ         47.1430  -31.6950   22.9790 C.cat     1 LV8         0.2882
     54 NH1        48.4300  -31.6290   23.3040 N.pl3     1 LV8        -0.2849
     55 NH2        46.3440  -32.5350   23.6320 N.pl3     1 LV8        -0.2849
     56 N          49.1040  -25.5220   18.7620 N.am      1 LV8        -0.2637
     57 CA         49.4280  -24.0980   18.9830 C.3       1 LV8         0.1311
     58 C          49.0500  -23.2760   17.7320 C.2       1 LV8         0.2039
     59 O          48.2510  -22.3140   17.7310 O.2       1 LV8        -0.3944
     60 CB         50.9260  -24.0640   19.3200 C.3       1 LV8        -0.0092
     61 CG         51.5540  -22.6900   19.4750 C.3       1 LV8        -0.0156
     62 CD         52.9730  -22.7900   20.0330 C.3       1 LV8         0.0627
     63 NE         53.9650  -23.3380   19.1040 N.pl3     1 LV8        -0.2723
     64 CZ         54.4810  -22.6890   18.0350 C.cat     1 LV8         0.2882
     65 NH1        54.1630  -21.4200   17.8000 N.pl3     1 LV8        -0.2849
     66 NH2        55.3260  -23.3120   17.2180 N.pl3     1 LV8        -0.2849
     67 N          49.6300  -23.7090   16.6310 N.am      1 LV8        -0.2635
     68 CA         49.5410  -22.9790   15.3690 C.3       1 LV8         0.1335
     69 C          48.1190  -23.0720   14.8430 C.2       1 LV8         0.2040
     70 O          47.5630  -22.1010   14.3650 O.2       1 LV8        -0.3944
     71 CB         50.5480  -23.5240   14.3430 C.3       1 LV8        -0.0037
     72 CG1        51.9920  -23.3150   14.7870 C.3       1 LV8        -0.0491
     73 CG2        50.3080  -22.8840   13.0050 C.3       1 LV8        -0.0582
     74 CD1        52.9860  -24.0830   13.9900 C.3       1 LV8        -0.0648
     75 N          47.5610  -24.2630   14.9500 N.am      1 LV8        -0.2664
     76 CA         46.2340  -24.4860   14.4780 C.3       1 LV8         0.1201
     77 C          45.2720  -23.6300   15.2620 C.2       1 LV8         0.2008
     78 O          44.2900  -23.1740   14.7370 O.2       1 LV8        -0.3947
     79 N          45.5490  -23.4540   16.5470 N.am      1 LV8        -0.2624
     80 CA         44.6460  -22.7010   17.4360 C.3       1 LV8         0.1423
     81 C          44.7800  -21.1890   17.2250 C.2       1 LV8         0.2056
     82 O          43.7670  -20.4580   17.1690 O.2       1 LV8        -0.3943
     83 CB         44.8930  -23.1140   18.8920 C.3       1 LV8         0.0406
     84 CG         44.0960  -24.4150   19.3180 C.2       1 LV8         0.0393
     85 OD1        43.2720  -24.9720   18.5090 O.co2     1 LV8        -0.5688
     86 OD2        44.2430  -24.8140   20.5340 O.co2     1 LV8        -0.5688
     87 N          46.0420  -20.7780   17.0470 N.am      1 LV8        -0.2639
     88 CA         46.4640  -19.3980   16.7010 C.3       1 LV8         0.1282
     89 C          45.8060  -18.9430   15.3930 C.2       1 LV8         0.2037
     90 O          45.2770  -17.8310   15.3480 O.2       1 LV8        -0.3944
     91 CB         47.9790  -19.3160   16.5900 C.3       1 LV8        -0.0244
     92 N          45.8880  -19.7750   14.3430 N.am      1 LV8        -0.2619
     93 CA         45.3400  -19.3690   13.0880 C.3       1 LV8         0.1404
     94 C          43.8110  -19.3000   13.1950 C.2       1 LV8         0.2061
     95 O          43.1800  -18.6210   12.3680 O.2       1 LV8        -0.3942
     96 CB         45.7860  -20.2920   11.9420 C.3       1 LV8         0.0214
     97 CG         47.0240  -19.8660   11.1810 C.ar      1 LV8        -0.0386
     98 CD1        46.9260  -19.3220    9.9150 C.ar      1 LV8        -0.0601
     99 CD2        48.2930  -20.0060   11.7280 C.ar      1 LV8        -0.0601
    100 CE1        48.0560  -18.8880    9.2420 C.ar      1 LV8        -0.0686
    101 CE2        49.4290  -19.6100   11.0290 C.ar      1 LV8        -0.0686
    102 CZ         49.3050  -19.0310    9.8010 C.ar      1 LV8        -0.0687
    103 N          43.2140  -20.0180   14.1640 N.am      1 LV8        -0.2615
    104 CA         41.7530  -19.9980   14.3420 C.3       1 LV8         0.1476
    105 C          41.3960  -18.6440   14.9430 C.2       1 LV8         0.2062
    106 O          40.3700  -18.0650   14.6000 O.2       1 LV8        -0.3942
    107 CB         41.2640  -21.1590   15.2170 C.3       1 LV8         0.0773
    108 CG         39.7580  -21.2720   15.3710 C.2       1 LV8         0.1780
    109 OD1        39.0830  -21.9920   14.6360 O.2       1 LV8        -0.3970
    110 ND2        39.2220  -20.6390   16.3950 N.am      1 LV8        -0.3007
    111 N          42.2630  -18.1850   15.8470 N.am      1 LV8        -0.2639
    112 CA         42.0950  -16.9120   16.5220 C.3       1 LV8         0.1282
    113 C          42.2000  -15.7850   15.5040 C.2       1 LV8         0.2036
    114 O          41.2790  -14.9970   15.3520 O.2       1 LV8        -0.3944
    115 CB         43.1440  -16.7360   17.5930 C.3       1 LV8        -0.0244
    116 N          43.3520  -15.7430   14.8520 N.am      1 LV8        -0.2640
    117 CA         43.6600  -14.7490   13.8280 C.3       1 LV8         0.1282
    118 C          42.5200  -14.6310   12.8080 C.2       1 LV8         0.2032
    119 O          42.0100  -13.5480   12.6040 O.2       1 LV8        -0.3944
    120 CB         44.9520  -15.1100   13.1500 C.3       1 LV8        -0.0244
    121 N          42.1120  -15.7160   12.1570 N.am      1 LV8        -0.2679
    122 CA         41.0370  -15.5600   11.1450 C.3       1 LV8         0.1025
    123 C          39.6830  -15.5950   11.8540 C.2       1 LV8         0.0619
    124 O          39.6020  -15.6090   13.0780 O.co2     1 LV8        -0.5665
    125 CB         41.1720  -16.5650    9.9960 C.3       1 LV8         0.0108
    126 CG         42.4070  -16.3240    9.1680 C.ar      1 LV8        -0.0499
    127 CD1        42.3300  -15.8410    7.8810 C.ar      1 LV8        -0.0686
    128 CD2        43.6660  -16.4870    9.7180 C.ar      1 LV8        -0.0686
    129 CE1        43.4740  -15.5800    7.1410 C.ar      1 LV8        -0.0398
    130 CE2        44.8160  -16.2370    8.9930 C.ar      1 LV8        -0.0398
    131 CZ         44.7290  -15.7870    7.6920 C.ar      1 LV8         0.0805
    132 OH         45.8800  -15.5470    6.9840 O.3       1 LV8        -0.3376
    133 OXT        38.6760  -15.5730   11.1610 O.co2     1 LV8        -0.5665
    134 H1         56.5944  -29.6834   20.7050 H         1 LV8         0.1883
    135 H2         57.7448  -30.2777   18.7632 H         1 LV8         0.0821
    136 H3         57.2633  -33.1769   19.2041 H         1 LV8         0.0568
    137 H4         58.1025  -32.2425   20.4883 H         1 LV8         0.0568
    138 H5         59.8295  -31.6228   18.7057 H         1 LV8         0.1853
    139 H6         59.7627  -34.2831   15.9812 H         1 LV8         0.0467
    140 H7         61.0122  -33.2931   16.8090 H         1 LV8         0.0467
    141 H8         59.7093  -32.4913   15.8676 H         1 LV8         0.0467
    142 H9         55.9224  -33.1532   17.7871 H         1 LV8         0.1883
    143 H10        55.0235  -31.3645   15.5941 H         1 LV8         0.0802
    144 H11        54.4211  -34.3126   16.0057 H         1 LV8         0.0345
    145 H12        56.7658  -34.1043   15.8377 H         1 LV8         0.0267
    146 H13        56.6450  -32.8940   14.5158 H         1 LV8         0.0267
    147 H14        52.7850  -33.1604   14.5708 H         1 LV8         0.0235
    148 H15        53.7765  -34.3543   13.6664 H         1 LV8         0.0235
    149 H16        54.1226  -32.5985   13.5118 H         1 LV8         0.0235
    150 H17        57.3049  -35.0989   13.6573 H         1 LV8         0.0230
    151 H18        55.6938  -34.6117   13.0302 H         1 LV8         0.0230
    152 H19        55.8146  -35.8219   14.3521 H         1 LV8         0.0230
    153 H20        53.3582  -33.5124   17.9757 H         1 LV8         0.1839
    154 H21        49.3717  -32.6594   17.8235 H         1 LV8         0.0242
    155 H22        50.3974  -33.8957   17.0196 H         1 LV8         0.0242
    156 H23        50.4096  -32.1984   16.4317 H         1 LV8         0.0242
    157 H24        50.3139  -33.4417   19.8387 H         1 LV8         0.0242
    158 H25        52.0882  -33.4567   20.1179 H         1 LV8         0.0242
    159 H26        51.3592  -34.5708   18.9120 H         1 LV8         0.0242
    160 H27        53.1553  -31.1242   19.6041 H         1 LV8         0.1889
    161 H28        51.5882  -29.0962   20.8531 H         1 LV8         0.0803
    162 H29        53.6564  -28.0485   21.3863 H         1 LV8         0.0337
    163 H30        54.4501  -28.6697   19.8994 H         1 LV8         0.0337
    164 H31        53.3264  -30.7067   21.7584 H         1 LV8         0.0505
    165 H32        54.7370  -29.7736   22.3635 H         1 LV8         0.0505
    166 H33        53.6464  -29.0037   17.9219 H         1 LV8         0.1883
    167 H34        53.2455  -26.2594   17.3269 H         1 LV8         0.0797
    168 H35        54.1897  -26.9023   15.1527 H         1 LV8         0.0277
    169 H36        53.9682  -28.6336   15.5770 H         1 LV8         0.0277
    170 H37        55.1029  -27.6143   16.5258 H         1 LV8         0.0277
    171 H38        51.5825  -29.2302   16.0431 H         1 LV8         0.1883
    172 H39        49.9639  -27.7156   14.2426 H         1 LV8         0.0800
    173 H40        48.3139  -29.7062   14.6079 H         1 LV8         0.0315
    174 H41        49.6534  -30.4149   15.5725 H         1 LV8         0.0315
    175 H42        49.4970  -29.8513   12.6189 H         1 LV8         0.0298
    176 H43        51.8762  -30.4488   12.4018 H         1 LV8         0.0232
    177 H44        52.0407  -30.4384   14.1905 H         1 LV8         0.0232
    178 H45        51.6506  -28.9188   13.3156 H         1 LV8         0.0232
    179 H46        48.7349  -32.0363   13.5124 H         1 LV8         0.0232
    180 H47        50.3603  -32.2918   14.2332 H         1 LV8         0.0232
    181 H48        50.1742  -32.1935   12.4492 H         1 LV8         0.0232
    182 H49        49.6583  -28.5138   17.6956 H         1 LV8         0.1883
    183 H50        46.8516  -27.8423   17.8913 H         1 LV8         0.0800
    184 H51        48.0149  -27.3888   20.3986 H         1 LV8         0.0313
    185 H52        49.0567  -28.6456   19.6489 H         1 LV8         0.0313
    186 H53        47.1318  -30.1226   19.3784 H         1 LV8         0.0301
    187 H54        46.0388  -28.8558   20.0320 H         1 LV8         0.0301
    188 H55        47.1492  -28.8932   22.1651 H         1 LV8         0.0689
    189 H56        48.4440  -29.9649   21.5313 H         1 LV8         0.0689
    190 H57        45.7354  -31.1255   21.6161 H         1 LV8         0.2642
    191 H58        48.8058  -32.2372   24.0455 H         1 LV8         0.2615
    192 H59        49.0517  -30.9697   22.8144 H         1 LV8         0.2615
    193 H60        45.3454  -32.5921   23.3861 H         1 LV8         0.2615
    194 H61        46.7241  -33.1282   24.3834 H         1 LV8         0.2615
    195 H62        49.8486  -26.1772   18.8897 H         1 LV8         0.1883
    196 H63        48.8561  -23.7098   19.8387 H         1 LV8         0.0800
    197 H64        51.4619  -24.5875   18.5145 H         1 LV8         0.0313
    198 H65        51.0680  -24.6052   20.2671 H         1 LV8         0.0313
    199 H66        50.9396  -22.0903   20.1627 H         1 LV8         0.0301
    200 H67        51.5892  -22.1987   18.4915 H         1 LV8         0.0301
    201 H68        52.9453  -23.4358   20.9230 H         1 LV8         0.0689
    202 H69        53.2980  -21.7799   20.3228 H         1 LV8         0.0689
    203 H70        54.2970  -24.2971   19.2795 H         1 LV8         0.2642
    204 H71        54.5597  -20.9323   16.9841 H         1 LV8         0.2615
    205 H72        53.5199  -20.9244   18.4338 H         1 LV8         0.2615
    206 H73        55.5791  -24.2953   17.3910 H         1 LV8         0.2615
    207 H74        55.7272  -22.8111   16.4124 H         1 LV8         0.2615
    208 H75        50.1474  -24.5643   16.6603 H         1 LV8         0.1883
    209 H76        49.7785  -21.9214   15.5564 H         1 LV8         0.0803
    210 H77        50.3795  -24.6064   14.2433 H         1 LV8         0.0345
    211 H78        52.0788  -23.6241   15.8391 H         1 LV8         0.0267
    212 H79        52.2299  -22.2447   14.6984 H         1 LV8         0.0267
    213 H80        49.2626  -23.0459   12.7034 H         1 LV8         0.0235
    214 H81        50.9789  -23.3333   12.2580 H         1 LV8         0.0235
    215 H82        50.5067  -21.8043   13.0740 H         1 LV8         0.0235
    216 H83        53.9976  -23.8790   14.3707 H         1 LV8         0.0230
    217 H84        52.9233  -23.7793   12.9346 H         1 LV8         0.0230
    218 H85        52.7722  -25.1586   14.0754 H         1 LV8         0.0230
    219 H86        48.0727  -25.0151   15.3653 H         1 LV8         0.1881
    220 H87        45.9716  -25.5462   14.6084 H         1 LV8         0.0763
    221 H88        46.1747  -24.2220   13.4118 H         1 LV8         0.0763
    222 H89        46.3911  -23.8416   16.9220 H         1 LV8         0.1884
    223 H90        43.6124  -22.9773   17.1806 H         1 LV8         0.0819
    224 H91        44.5849  -22.2857   19.5470 H         1 LV8         0.0478
    225 H92        45.9683  -23.3047   19.0232 H         1 LV8         0.0478
    226 H93        46.7638  -21.4614   17.1569 H         1 LV8         0.1883
    227 H94        46.1377  -18.7235   17.5064 H         1 LV8         0.0797
    228 H95        48.2727  -18.2875   16.3334 H         1 LV8         0.0277
    229 H96        48.3269  -20.0033   15.8048 H         1 LV8         0.0277
    230 H97        48.4329  -19.5978   17.5515 H         1 LV8         0.0277
    231 H98        46.3274  -20.6682   14.4382 H         1 LV8         0.1885
    232 H99        45.7125  -18.3583   12.8651 H         1 LV8         0.0823
    233 H100       44.9565  -20.3580   11.2226 H         1 LV8         0.0474
    234 H101       45.9809  -21.2867   12.3692 H         1 LV8         0.0474
    235 H102       45.9541  -19.2338    9.4432 H         1 LV8         0.0557
    236 H103       48.4005  -20.4321   12.7189 H         1 LV8         0.0557
    237 H104       47.9553  -18.4307    8.2643 H         1 LV8         0.0599
    238 H105       50.4118  -19.7617   11.4605 H         1 LV8         0.0599
    239 H106       50.1841  -18.6858    9.2689 H         1 LV8         0.0559
    240 H107       43.7744  -20.5765   14.7756 H         1 LV8         0.1885
    241 H108       41.2722  -20.0897   13.3569 H         1 LV8         0.0826
    242 H109       41.6987  -21.0342   16.2197 H         1 LV8         0.0551
    243 H110       41.6304  -22.0961   14.7725 H         1 LV8         0.0551
    244 H111       38.2342  -20.6785   16.5458 H         1 LV8         0.1814
    245 H112       39.8030  -20.1191   17.0212 H         1 LV8         0.1814
    246 H113       43.0631  -18.7424   16.0689 H         1 LV8         0.1883
    247 H114       41.1001  -16.8835   16.9903 H         1 LV8         0.0797
    248 H115       42.9994  -15.7664   18.0920 H         1 LV8         0.0277
    249 H116       44.1439  -16.7675   17.1356 H         1 LV8         0.0277
    250 H117       43.0531  -17.5458   18.3319 H         1 LV8         0.0277
    251 H118       44.0468  -16.4275   15.0725 H         1 LV8         0.1883
    252 H119       43.7842  -13.7719   14.3178 H         1 LV8         0.0797
    253 H120       45.1832  -14.3606   12.3787 H         1 LV8         0.0277
    254 H121       44.8560  -16.1006   12.6815 H         1 LV8         0.0277
    255 H122       45.7624  -15.1329   13.8935 H         1 LV8         0.0277
    256 H123       42.5173  -16.6110   12.3435 H         1 LV8         0.1877
    257 H124       41.1438  -14.5601   10.6992 H         1 LV8         0.0747
    258 H125       40.2885  -16.4803    9.3463 H         1 LV8         0.0446
    259 H126       41.2213  -17.5798   10.4176 H         1 LV8         0.0446
    260 H127       41.3573  -15.6613    7.4377 H         1 LV8         0.0530
    261 H128       43.7530  -16.8200   10.7459 H         1 LV8         0.0530
    262 H129       43.3859  -15.2118    6.1253 H         1 LV8         0.0525
    263 H130       45.7874  -16.3948    9.4474 H         1 LV8         0.0525
    264 H131       45.6566  -15.2446    6.1116 H         1 LV8         0.2458
@<TRIPOS>BOND
     1    1    2 1  
     2    1   30 am 
     3    2    3 1  
     4    2    8 1  
     5    3    4 1  
     6    4    5 am 
     7    5    6 2  
     8    5    7 1  
     9    8    9 2  
    10    8   10 am 
    11   10   11 1  
    12   11   12 1  
    13   11   14 1  
    14   12   13 2  
    15   12   18 am 
    16   14   15 1  
    17   14   16 1  
    18   15   17 1  
    19   18   19 1  
    20   19   20 1  
    21   19   22 1  
    22   19   23 1  
    23   20   21 2  
    24   20   24 am 
    25   24   25 1  
    26   25   26 1  
    27   25   28 1  
    28   26   27 2  
    29   26   32 am 
    30   28   29 1  
    31   29   30 1  
    32   30   31 2  
    33   32   33 1  
    34   33   34 1  
    35   33   36 1  
    36   34   35 2  
    37   34   37 am 
    38   37   38 1  
    39   38   39 1  
    40   38   41 1  
    41   39   40 2  
    42   39   45 am 
    43   41   42 1  
    44   42   43 1  
    45   42   44 1  
    46   45   46 1  
    47   46   47 1  
    48   46   49 1  
    49   47   48 2  
    50   47   56 am 
    51   49   50 1  
    52   50   51 1  
    53   51   52 1  
    54   52   53 ar 
    55   53   54 ar 
    56   53   55 ar 
    57   56   57 1  
    58   57   58 1  
    59   57   60 1  
    60   58   59 2  
    61   58   67 am 
    62   60   61 1  
    63   61   62 1  
    64   62   63 1  
    65   63   64 ar 
    66   64   65 ar 
    67   64   66 ar 
    68   67   68 1  
    69   68   69 1  
    70   68   71 1  
    71   69   70 2  
    72   69   75 am 
    73   71   72 1  
    74   71   73 1  
    75   72   74 1  
    76   75   76 1  
    77   76   77 1  
    78   77   78 2  
    79   77   79 am 
    80   79   80 1  
    81   80   81 1  
    82   80   83 1  
    83   81   82 2  
    84   81   87 am 
    85   83   84 1  
    86   84   85 ar 
    87   84   86 ar 
    88   87   88 1  
    89   88   89 1  
    90   88   91 1  
    91   89   90 2  
    92   89   92 am 
    93   92   93 1  
    94   93   94 1  
    95   93   96 1  
    96   94   95 2  
    97   94  103 am 
    98   96   97 1  
    99   97   98 ar 
   100   97   99 ar 
   101   98  100 ar 
   102   99  101 ar 
   103  100  102 ar 
   104  101  102 ar 
   105  103  104 1  
   106  104  105 1  
   107  104  107 1  
   108  105  106 2  
   109  105  111 am 
   110  107  108 1  
   111  108  109 2  
   112  108  110 am 
   113  111  112 1  
   114  112  113 1  
   115  112  115 1  
   116  113  114 2  
   117  113  116 am 
   118  116  117 1  
   119  117  118 1  
   120  117  120 1  
   121  118  119 2  
   122  118  121 am 
   123  121  122 1  
   124  122  123 1  
   125  122  125 1  
   126  123  124 ar 
   127  123  133 ar 
   128  125  126 1  
   129  126  127 ar 
   130  126  128 ar 
   131  127  129 ar 
   132  128  130 ar 
   133  129  131 ar 
   134  130  131 ar 
   135  131  132 1  
   136    1  134 1  
   137    2  135 1  
   138    3  136 1  
   139    3  137 1  
   140    4  138 1  
   141    7  139 1  
   142    7  140 1  
   143    7  141 1  
   144   10  142 1  
   145   11  143 1  
   146   14  144 1  
   147   15  145 1  
   148   15  146 1  
   149   16  147 1  
   150   16  148 1  
   151   16  149 1  
   152   17  150 1  
   153   17  151 1  
   154   17  152 1  
   155   18  153 1  
   156   22  154 1  
   157   22  155 1  
   158   22  156 1  
   159   23  157 1  
   160   23  158 1  
   161   23  159 1  
   162   24  160 1  
   163   25  161 1  
   164   28  162 1  
   165   28  163 1  
   166   29  164 1  
   167   29  165 1  
   168   32  166 1  
   169   33  167 1  
   170   36  168 1  
   171   36  169 1  
   172   36  170 1  
   173   37  171 1  
   174   38  172 1  
   175   41  173 1  
   176   41  174 1  
   177   42  175 1  
   178   43  176 1  
   179   43  177 1  
   180   43  178 1  
   181   44  179 1  
   182   44  180 1  
   183   44  181 1  
   184   45  182 1  
   185   46  183 1  
   186   49  184 1  
   187   49  185 1  
   188   50  186 1  
   189   50  187 1  
   190   51  188 1  
   191   51  189 1  
   192   52  190 1  
   193   54  191 1  
   194   54  192 1  
   195   55  193 1  
   196   55  194 1  
   197   56  195 1  
   198   57  196 1  
   199   60  197 1  
   200   60  198 1  
   201   61  199 1  
   202   61  200 1  
   203   62  201 1  
   204   62  202 1  
   205   63  203 1  
   206   65  204 1  
   207   65  205 1  
   208   66  206 1  
   209   66  207 1  
   210   67  208 1  
   211   68  209 1  
   212   71  210 1  
   213   72  211 1  
   214   72  212 1  
   215   73  213 1  
   216   73  214 1  
   217   73  215 1  
   218   74  216 1  
   219   74  217 1  
   220   74  218 1  
   221   75  219 1  
   222   76  220 1  
   223   76  221 1  
   224   79  222 1  
   225   80  223 1  
   226   83  224 1  
   227   83  225 1  
   228   87  226 1  
   229   88  227 1  
   230   91  228 1  
   231   91  229 1  
   232   91  230 1  
   233   92  231 1  
   234   93  232 1  
   235   96  233 1  
   236   96  234 1  
   237   98  235 1  
   238   99  236 1  
   239  100  237 1  
   240  101  238 1  
   241  102  239 1  
   242  103  240 1  
   243  104  241 1  
   244  107  242 1  
   245  107  243 1  
   246  110  244 1  
   247  110  245 1  
   248  111  246 1  
   249  112  247 1  
   250  115  248 1  
   251  115  249 1  
   252  115  250 1  
   253  116  251 1  
   254  117  252 1  
   255  120  253 1  
   256  120  254 1  
   257  120  255 1  
   258  121  256 1  
   259  122  257 1  
   260  125  258 1  
   261  125  259 1  
   262  127  260 1  
   263  128  261 1  
   264  129  262 1  
   265  130  263 1  
   266  132  264 1  
@<TRIPOS>SUBSTRUCTURE
     1 LV8         1

