6rjp_ligand
  -I-interpret- 

264266  0  0  0  0  0  0  0  0999 V2000
   56.2470  -30.5000   20.2440 N   0  0  0  0  0
   57.0110  -31.0380   19.0690 C   0  0  0  0  0
   57.8460  -32.2690   19.4190 C   0  0  0  0  0
   59.0850  -32.2850   18.6210 N   0  0  0  0  0
   59.0690  -33.2890   17.7880 C   0  0  0  0  0
   58.1360  -34.0490   18.0400 O   0  0  0  0  0
   59.9520  -33.3430   16.5200 C   0  0  0  0  0
   55.9620  -31.1080   17.9470 C   0  0  0  0  0
   55.4700  -30.0330   17.5060 O   0  0  0  0  0
   55.6050  -32.2810   17.4150 N   0  0  0  0  0
   54.7000  -32.2040   16.2270 C   0  0  0  0  0
   53.2810  -31.9070   16.7430 C   0  0  0  0  0
   52.6400  -30.9240   16.3060 O   0  0  0  0  0
   54.7600  -33.4790   15.3730 C   0  0  0  0  0
   56.1940  -33.7990   14.9490 C   0  0  0  0  0
   53.7940  -33.3920   14.1990 C   0  0  0  0  0
   56.2560  -34.9080   13.9280 C   0  0  0  0  0
   52.8050  -32.7340   17.6790 N   0  0  0  0  0
   51.4760  -32.5160   18.2810 C   0  0  0  0  0
   51.3110  -31.0710   18.8070 C   0  0  0  0  0
   50.2220  -30.4420   18.6430 O   0  0  0  0  0
   50.3340  -32.8400   17.3220 C   0  0  0  0  0
   51.2970  -33.5690   19.3620 C   0  0  0  0  0
   52.3440  -30.5510   19.4890 N   0  0  0  0  0
   52.3770  -29.1800   20.0910 C   0  0  0  0  0
   52.1960  -28.1160   19.0200 C   0  0  0  0  0
   51.3240  -27.1890   19.1400 O   0  0  0  0  0
   53.7320  -28.9040   20.6990 C   0  0  0  0  0
   54.2100  -30.1220   21.4630 C   0  0  0  0  0
   55.1530  -31.0470   20.6910 C   0  0  0  0  0
   54.6860  -31.8960   19.9300 O   0  0  0  0  0
   53.0220  -28.2240   17.9690 N   0  0  0  0  0
   53.0380  -27.2560   16.9100 C   0  0  0  0  0
   51.6630  -27.2180   16.2340 C   0  0  0  0  0
   51.0630  -26.1640   16.1460 O   0  0  0  0  0
   54.1480  -27.6260   15.9800 C   0  0  0  0  0
   51.1250  -28.3620   15.8510 N   0  0  0  0  0
   49.8570  -28.3340   15.1460 C   0  0  0  0  0
   48.7900  -27.7370   16.0530 C   0  0  0  0  0
   47.8680  -27.1300   15.5700 O   0  0  0  0  0
   49.4050  -29.7340   14.7450 C   0  0  0  0  0
   50.0160  -30.3090   13.4740 C   0  0  0  0  0
   51.4980  -30.0080   13.3360 C   0  0  0  0  0
   49.8070  -31.8110   13.4130 C   0  0  0  0  0
   48.8740  -28.0000   17.3480 N   0  0  0  0  0
   47.8400  -27.5520   18.2770 C   0  0  0  0  0
   47.9110  -26.0260   18.4070 C   0  0  0  0  0
   46.8970  -25.3430   18.2440 O   0  0  0  0  0
   48.0550  -28.1910   19.6470 C   0  0  0  0  0
   47.0580  -29.2680   20.0670 C   0  0  0  0  0
   47.3690  -29.7350   21.4920 C   0  0  0  0  0
   46.6590  -30.9010   22.0130 N   0  0  0  0  0
   47.1430  -31.6950   22.9790 C   0  0  0  0  0
   48.4300  -31.6290   23.3040 N   0  0  0  0  0
   46.3440  -32.5350   23.6320 N   0  0  0  0  0
   49.1040  -25.5220   18.7620 N   0  0  0  0  0
   49.4280  -24.0980   18.9830 C   0  0  0  0  0
   49.0500  -23.2760   17.7320 C   0  0  0  0  0
   48.2510  -22.3140   17.7310 O   0  0  0  0  0
   50.9260  -24.0640   19.3200 C   0  0  0  0  0
   51.5540  -22.6900   19.4750 C   0  0  0  0  0
   52.9730  -22.7900   20.0330 C   0  0  0  0  0
   53.9650  -23.3380   19.1040 N   0  0  0  0  0
   54.4810  -22.6890   18.0350 C   0  0  0  0  0
   54.1630  -21.4200   17.8000 N   0  0  0  0  0
   55.3260  -23.3120   17.2180 N   0  0  0  0  0
   49.6300  -23.7090   16.6310 N   0  0  0  0  0
   49.5410  -22.9790   15.3690 C   0  0  0  0  0
   48.1190  -23.0720   14.8430 C   0  0  0  0  0
   47.5630  -22.1010   14.3650 O   0  0  0  0  0
   50.5480  -23.5240   14.3430 C   0  0  0  0  0
   51.9920  -23.3150   14.7870 C   0  0  0  0  0
   50.3080  -22.8840   13.0050 C   0  0  0  0  0
   52.9860  -24.0830   13.9900 C   0  0  0  0  0
   47.5610  -24.2630   14.9500 N   0  0  0  0  0
   46.2340  -24.4860   14.4780 C   0  0  0  0  0
   45.2720  -23.6300   15.2620 C   0  0  0  0  0
   44.2900  -23.1740   14.7370 O   0  0  0  0  0
   45.5490  -23.4540   16.5470 N   0  0  0  0  0
   44.6460  -22.7010   17.4360 C   0  0  0  0  0
   44.7800  -21.1890   17.2250 C   0  0  0  0  0
   43.7670  -20.4580   17.1690 O   0  0  0  0  0
   44.8930  -23.1140   18.8920 C   0  0  0  0  0
   44.0960  -24.4150   19.3180 C   0  0  0  0  0
   43.2720  -24.9720   18.5090 O   0  0  0  0  0
   44.2430  -24.8140   20.5340 O   0  0  0  0  0
   46.0420  -20.7780   17.0470 N   0  0  0  0  0
   46.4640  -19.3980   16.7010 C   0  0  0  0  0
   45.8060  -18.9430   15.3930 C   0  0  0  0  0
   45.2770  -17.8310   15.3480 O   0  0  0  0  0
   47.9790  -19.3160   16.5900 C   0  0  0  0  0
   45.8880  -19.7750   14.3430 N   0  0  0  0  0
   45.3400  -19.3690   13.0880 C   0  0  0  0  0
   43.8110  -19.3000   13.1950 C   0  0  0  0  0
   43.1800  -18.6210   12.3680 O   0  0  0  0  0
   45.7860  -20.2920   11.9420 C   0  0  0  0  0
   47.0240  -19.8660   11.1810 C   0  0  0  0  0
   46.9260  -19.3220    9.9150 C   0  0  0  0  0
   48.2930  -20.0060   11.7280 C   0  0  0  0  0
   48.0560  -18.8880    9.2420 C   0  0  0  0  0
   49.4290  -19.6100   11.0290 C   0  0  0  0  0
   49.3050  -19.0310    9.8010 C   0  0  0  0  0
   43.2140  -20.0180   14.1640 N   0  0  0  0  0
   41.7530  -19.9980   14.3420 C   0  0  0  0  0
   41.3960  -18.6440   14.9430 C   0  0  0  0  0
   40.3700  -18.0650   14.6000 O   0  0  0  0  0
   41.2640  -21.1590   15.2170 C   0  0  0  0  0
   39.7580  -21.2720   15.3710 C   0  0  0  0  0
   39.0830  -21.9920   14.6360 O   0  0  0  0  0
   39.2220  -20.6390   16.3950 N   0  0  0  0  0
   42.2630  -18.1850   15.8470 N   0  0  0  0  0
   42.0950  -16.9120   16.5220 C   0  0  0  0  0
   42.2000  -15.7850   15.5040 C   0  0  0  0  0
   41.2790  -14.9970   15.3520 O   0  0  0  0  0
   43.1440  -16.7360   17.5930 C   0  0  0  0  0
   43.3520  -15.7430   14.8520 N   0  0  0  0  0
   43.6600  -14.7490   13.8280 C   0  0  0  0  0
   42.5200  -14.6310   12.8080 C   0  0  0  0  0
   42.0100  -13.5480   12.6040 O   0  0  0  0  0
   44.9520  -15.1100   13.1500 C   0  0  0  0  0
   42.1120  -15.7160   12.1570 N   0  0  0  0  0
   41.0370  -15.5600   11.1450 C   0  0  0  0  0
   39.6830  -15.5950   11.8540 C   0  0  0  0  0
   39.6020  -15.6090   13.0780 O   0  0  0  0  0
   41.1720  -16.5650    9.9960 C   0  0  0  0  0
   42.4070  -16.3240    9.1680 C   0  0  0  0  0
   42.3300  -15.8410    7.8810 C   0  0  0  0  0
   43.6660  -16.4870    9.7180 C   0  0  0  0  0
   43.4740  -15.5800    7.1410 C   0  0  0  0  0
   44.8160  -16.2370    8.9930 C   0  0  0  0  0
   44.7290  -15.7870    7.6920 C   0  0  0  0  0
   45.8800  -15.5470    6.9840 O   0  0  0  0  0
   38.6760  -15.5730   11.1610 O   0  0  0  0  0
   56.6014  -29.6671   20.7142 H   0  0  0  0  0
   57.8290  -30.4128   18.7112 H   0  0  0  0  0
   57.2682  -33.1669   19.2001 H   0  0  0  0  0
   58.1031  -32.2373   20.4778 H   0  0  0  0  0
   59.8444  -31.6095   18.7074 H   0  0  0  0  0
   60.4508  -34.3107   16.4671 H   0  0  0  0  0
   59.3270  -33.2062   15.6375 H   0  0  0  0  0
   60.6985  -32.5500   16.5646 H   0  0  0  0  0
   55.9287  -33.1707   17.7946 H   0  0  0  0  0
   55.0228  -31.4040   15.5607 H   0  0  0  0  0
   54.4321  -34.3203   15.9836 H   0  0  0  0  0
   56.7435  -34.1225   15.8330 H   0  0  0  0  0
   56.6218  -32.9024   14.5004 H   0  0  0  0  0
   52.7782  -33.2682   14.5744 H   0  0  0  0  0
   54.0586  -32.5385   13.5749 H   0  0  0  0  0
   53.8562  -34.3073   13.6104 H   0  0  0  0  0
   55.8183  -35.8130   14.3494 H   0  0  0  0  0
   55.6986  -34.6132   13.0389 H   0  0  0  0  0
   57.2958  -35.0963   13.6606 H   0  0  0  0  0
   53.3693  -33.5280   17.9816 H   0  0  0  0  0
   50.4100  -32.2036   16.4403 H   0  0  0  0  0
   50.3980  -33.8863   17.0231 H   0  0  0  0  0
   49.3811  -32.6607   17.8200 H   0  0  0  0  0
   51.3589  -34.5611   18.9148 H   0  0  0  0  0
   52.0816  -33.4567   20.1103 H   0  0  0  0  0
   50.3225  -33.4418   19.8335 H   0  0  0  0  0
   53.1715  -31.1357   19.6064 H   0  0  0  0  0
   51.5797  -29.1453   20.8334 H   0  0  0  0  0
   53.6548  -28.0579   21.3818 H   0  0  0  0  0
   54.4430  -28.6747   19.9053 H   0  0  0  0  0
   53.3232  -30.7087   21.7028 H   0  0  0  0  0
   54.7688  -29.7525   22.3228 H   0  0  0  0  0
   53.6589  -29.0193   17.9210 H   0  0  0  0  0
   53.2243  -26.2463   17.2759 H   0  0  0  0  0
   55.0936  -27.6141   16.5220 H   0  0  0  0  0
   53.9687  -28.6245   15.5814 H   0  0  0  0  0
   54.1883  -26.9082   15.1607 H   0  0  0  0  0
   51.5917  -29.2476   16.0469 H   0  0  0  0  0
   49.9928  -27.7345   14.2459 H   0  0  0  0  0
   48.3334  -29.6628   14.5586 H   0  0  0  0  0
   49.7162  -30.3944   15.5544 H   0  0  0  0  0
   49.5015  -29.8217   12.6458 H   0  0  0  0  0
   51.6479  -28.9285   13.3159 H   0  0  0  0  0
   52.0346  -30.4349   14.1833 H   0  0  0  0  0
   51.8716  -30.4453   12.4101 H   0  0  0  0  0
   50.2814  -32.2779   14.2762 H   0  0  0  0  0
   48.7390  -32.0286   13.4219 H   0  0  0  0  0
   50.2510  -32.2014   12.4973 H   0  0  0  0  0
   49.6740  -28.5241   17.7026 H   0  0  0  0  0
   46.8613  -27.8473   17.8988 H   0  0  0  0  0
   47.9494  -27.3852   20.3734 H   0  0  0  0  0
   49.0260  -28.6839   19.5987 H   0  0  0  0  0
   47.1340  -30.1152   19.3853 H   0  0  0  0  0
   46.0488  -28.8575   20.0343 H   0  0  0  0  0
   47.0694  -28.9076   22.1352 H   0  0  0  0  0
   48.4196  -30.0250   21.4744 H   0  0  0  0  0
   45.7444  -31.1233   21.6200 H   0  0  0  0  0
   49.0456  -30.9761   22.8191 H   0  0  0  0  0
   46.7204  -33.1224   24.3761 H   0  0  0  0  0
   45.3551  -32.5915   23.3885 H   0  0  0  0  0
   49.8634  -26.1903   18.8922 H   0  0  0  0  0
   48.8644  -23.6465   19.7994 H   0  0  0  0  0
   51.4354  -24.5359   18.4798 H   0  0  0  0  0
   51.0290  -24.5541   20.2881 H   0  0  0  0  0
   50.9480  -22.1070   20.1685 H   0  0  0  0  0
   51.5985  -22.2155   18.4947 H   0  0  0  0  0
   52.9297  -23.4690   20.8846 H   0  0  0  0  0
   53.2906  -21.7747   20.2705 H   0  0  0  0  0
   54.2938  -24.2878   19.2778 H   0  0  0  0  0
   53.5261  -20.9292   18.4276 H   0  0  0  0  0
   55.7233  -22.8159   16.4202 H   0  0  0  0  0
   55.5766  -24.2858   17.3894 H   0  0  0  0  0
   50.1577  -24.5814   16.6609 H   0  0  0  0  0
   49.7928  -21.9324   15.5400 H   0  0  0  0  0
   50.3931  -24.6000   14.2633 H   0  0  0  0  0
   52.0670  -23.6607   15.8180 H   0  0  0  0  0
   52.2207  -22.2572   14.6573 H   0  0  0  0  0
   49.2951  -23.1101   12.6720 H   0  0  0  0  0
   50.4305  -21.8045   13.0928 H   0  0  0  0  0
   51.0250  -23.2747   12.2829 H   0  0  0  0  0
   52.7730  -25.1486   14.0754 H   0  0  0  0  0
   52.9228  -23.7812   12.9445 H   0  0  0  0  0
   53.9879  -23.8800   14.3682 H   0  0  0  0  0
   48.0830  -25.0301   15.3736 H   0  0  0  0  0
   45.9740  -25.5367   14.6070 H   0  0  0  0  0
   46.1752  -24.2247   13.4214 H   0  0  0  0  0
   46.4079  -23.8494   16.9295 H   0  0  0  0  0
   43.6143  -22.9483   17.1860 H   0  0  0  0  0
   44.5538  -22.2967   19.5284 H   0  0  0  0  0
   45.9562  -23.3297   18.9974 H   0  0  0  0  0
   44.9026  -24.2700   20.9706 H   0  0  0  0  0
   46.7782  -21.4750   17.1591 H   0  0  0  0  0
   46.1388  -18.7307   17.4992 H   0  0  0  0  0
   48.4275  -19.5955   17.5433 H   0  0  0  0  0
   48.3224  -19.9975   15.8117 H   0  0  0  0  0
   48.2687  -18.2964   16.3357 H   0  0  0  0  0
   46.3362  -20.6861   14.4401 H   0  0  0  0  0
   45.7216  -18.3766   12.8480 H   0  0  0  0  0
   44.9706  -20.2938   11.2187 H   0  0  0  0  0
   46.0265  -21.2511   12.4007 H   0  0  0  0  0
   45.9487  -19.2334    9.4405 H   0  0  0  0  0
   48.4010  -20.4345   12.7244 H   0  0  0  0  0
   47.9547  -18.4282    8.2589 H   0  0  0  0  0
   50.4172  -19.7626   11.4628 H   0  0  0  0  0
   50.1889  -18.6839    9.2659 H   0  0  0  0  0
   43.7856  -20.5877   14.7878 H   0  0  0  0  0
   41.2534  -20.1322   13.3826 H   0  0  0  0  0
   41.6660  -20.9860   16.2153 H   0  0  0  0  0
   41.5959  -22.0759   14.7299 H   0  0  0  0  0
   38.2265  -20.7403   16.5929 H   0  0  0  0  0
   39.8026  -20.0478   16.9898 H   0  0  0  0  0
   43.0791  -18.7535   16.0733 H   0  0  0  0  0
   41.1135  -16.8890   16.9956 H   0  0  0  0  0
   43.0529  -17.5390   18.3245 H   0  0  0  0  0
   44.1342  -16.7674   17.1385 H   0  0  0  0  0
   42.9997  -15.7750   18.0867 H   0  0  0  0  0
   44.0607  -16.4412   15.0769 H   0  0  0  0  0
   43.7689  -13.7755   14.3060 H   0  0  0  0  0
   45.7541  -15.1324   13.8877 H   0  0  0  0  0
   44.8556  -16.0917   12.6863 H   0  0  0  0  0
   45.1800  -14.3667   12.3860 H   0  0  0  0  0
   42.5254  -16.6288   12.3472 H   0  0  0  0  0
   41.1279  -14.5903   10.6555 H   0  0  0  0  0
   40.4844  -15.6255   13.4558 H   0  0  0  0  0
   40.3031  -16.4555    9.3471 H   0  0  0  0  0
   41.2433  -17.5637   10.4268 H   0  0  0  0  0
   41.3519  -15.6603    7.4352 H   0  0  0  0  0
   43.7535  -16.8218   10.7516 H   0  0  0  0  0
   43.3854  -15.2097    6.1196 H   0  0  0  0  0
   45.7928  -16.3957    9.4499 H   0  0  0  0  0
   46.6406  -15.7489    7.5339 H   0  0  0  0  0
  1  2  1  0  0  0
  1 30  1  0  0  0
  2  3  1  0  0  0
  2  8  1  0  0  0
  3  4  1  0  0  0
  4  5  1  0  0  0
  5  6  2  0  0  0
  5  7  1  0  0  0
  8  9  2  0  0  0
  8 10  1  0  0  0
 10 11  1  0  0  0
 11 12  1  0  0  0
 11 14  1  0  0  0
 12 13  2  0  0  0
 12 18  1  0  0  0
 14 15  1  0  0  0
 14 16  1  0  0  0
 15 17  1  0  0  0
 18 19  1  0  0  0
 19 20  1  0  0  0
 19 22  1  0  0  0
 19 23  1  0  0  0
 20 21  2  0  0  0
 20 24  1  0  0  0
 24 25  1  0  0  0
 25 26  1  0  0  0
 25 28  1  0  0  0
 26 27  2  0  0  0
 26 32  1  0  0  0
 28 29  1  0  0  0
 29 30  1  0  0  0
 30 31  2  0  0  0
 32 33  1  0  0  0
 33 34  1  0  0  0
 33 36  1  0  0  0
 34 35  2  0  0  0
 34 37  1  0  0  0
 37 38  1  0  0  0
 38 39  1  0  0  0
 38 41  1  0  0  0
 39 40  2  0  0  0
 39 45  1  0  0  0
 41 42  1  0  0  0
 42 43  1  0  0  0
 42 44  1  0  0  0
 45 46  1  0  0  0
 46 47  1  0  0  0
 46 49  1  0  0  0
 47 48  2  0  0  0
 47 56  1  0  0  0
 49 50  1  0  0  0
 50 51  1  0  0  0
 51 52  1  0  0  0
 52 53  1  0  0  0
 53 54  2  0  0  0
 53 55  1  0  0  0
 56 57  1  0  0  0
 57 58  1  0  0  0
 57 60  1  0  0  0
 58 59  2  0  0  0
 58 67  1  0  0  0
 60 61  1  0  0  0
 61 62  1  0  0  0
 62 63  1  0  0  0
 63 64  1  0  0  0
 64 65  2  0  0  0
 64 66  1  0  0  0
 67 68  1  0  0  0
 68 69  1  0  0  0
 68 71  1  0  0  0
 69 70  2  0  0  0
 69 75  1  0  0  0
 71 72  1  0  0  0
 71 73  1  0  0  0
 72 74  1  0  0  0
 75 76  1  0  0  0
 76 77  1  0  0  0
 77 78  2  0  0  0
 77 79  1  0  0  0
 79 80  1  0  0  0
 80 81  1  0  0  0
 80 83  1  0  0  0
 81 82  2  0  0  0
 81 87  1  0  0  0
 83 84  1  0  0  0
 84 85  2  0  0  0
 84 86  1  0  0  0
 87 88  1  0  0  0
 88 89  1  0  0  0
 88 91  1  0  0  0
 89 90  2  0  0  0
 89 92  1  0  0  0
 92 93  1  0  0  0
 93 94  1  0  0  0
 93 96  1  0  0  0
 94 95  2  0  0  0
 94103  1  0  0  0
 96 97  1  0  0  0
 97 98  4  0  0  0
 97 99  4  0  0  0
 98100  4  0  0  0
 99101  4  0  0  0
100102  4  0  0  0
101102  4  0  0  0
103104  1  0  0  0
104105  1  0  0  0
104107  1  0  0  0
105106  2  0  0  0
105111  1  0  0  0
107108  1  0  0  0
108109  2  0  0  0
108110  1  0  0  0
111112  1  0  0  0
112113  1  0  0  0
112115  1  0  0  0
113114  2  0  0  0
113116  1  0  0  0
116117  1  0  0  0
117118  1  0  0  0
117120  1  0  0  0
118119  2  0  0  0
118121  1  0  0  0
121122  1  0  0  0
122123  1  0  0  0
122125  1  0  0  0
123124  1  0  0  0
123133  2  0  0  0
125126  1  0  0  0
126127  4  0  0  0
126128  4  0  0  0
127129  4  0  0  0
128130  4  0  0  0
129131  4  0  0  0
130131  4  0  0  0
131132  1  0  0  0
  1134  1  0  0  0
  2135  1  0  0  0
  3136  1  0  0  0
  3137  1  0  0  0
  4138  1  0  0  0
  7139  1  0  0  0
  7140  1  0  0  0
  7141  1  0  0  0
 10142  1  0  0  0
 11143  1  0  0  0
 14144  1  0  0  0
 15145  1  0  0  0
 15146  1  0  0  0
 16147  1  0  0  0
 16148  1  0  0  0
 16149  1  0  0  0
 17150  1  0  0  0
 17151  1  0  0  0
 17152  1  0  0  0
 18153  1  0  0  0
 22154  1  0  0  0
 22155  1  0  0  0
 22156  1  0  0  0
 23157  1  0  0  0
 23158  1  0  0  0
 23159  1  0  0  0
 24160  1  0  0  0
 25161  1  0  0  0
 28162  1  0  0  0
 28163  1  0  0  0
 29164  1  0  0  0
 29165  1  0  0  0
 32166  1  0  0  0
 33167  1  0  0  0
 36168  1  0  0  0
 36169  1  0  0  0
 36170  1  0  0  0
 37171  1  0  0  0
 38172  1  0  0  0
 41173  1  0  0  0
 41174  1  0  0  0
 42175  1  0  0  0
 43176  1  0  0  0
 43177  1  0  0  0
 43178  1  0  0  0
 44179  1  0  0  0
 44180  1  0  0  0
 44181  1  0  0  0
 45182  1  0  0  0
 46183  1  0  0  0
 49184  1  0  0  0
 49185  1  0  0  0
 50186  1  0  0  0
 50187  1  0  0  0
 51188  1  0  0  0
 51189  1  0  0  0
 52190  1  0  0  0
 54191  1  0  0  0
 55192  1  0  0  0
 55193  1  0  0  0
 56194  1  0  0  0
 57195  1  0  0  0
 60196  1  0  0  0
 60197  1  0  0  0
 61198  1  0  0  0
 61199  1  0  0  0
 62200  1  0  0  0
 62201  1  0  0  0
 63202  1  0  0  0
 65203  1  0  0  0
 66204  1  0  0  0
 66205  1  0  0  0
 67206  1  0  0  0
 68207  1  0  0  0
 71208  1  0  0  0
 72209  1  0  0  0
 72210  1  0  0  0
 73211  1  0  0  0
 73212  1  0  0  0
 73213  1  0  0  0
 74214  1  0  0  0
 74215  1  0  0  0
 74216  1  0  0  0
 75217  1  0  0  0
 76218  1  0  0  0
 76219  1  0  0  0
 79220  1  0  0  0
 80221  1  0  0  0
 83222  1  0  0  0
 83223  1  0  0  0
 86224  1  0  0  0
 87225  1  0  0  0
 88226  1  0  0  0
 91227  1  0  0  0
 91228  1  0  0  0
 91229  1  0  0  0
 92230  1  0  0  0
 93231  1  0  0  0
 96232  1  0  0  0
 96233  1  0  0  0
 98234  1  0  0  0
 99235  1  0  0  0
100236  1  0  0  0
101237  1  0  0  0
102238  1  0  0  0
103239  1  0  0  0
104240  1  0  0  0
107241  1  0  0  0
107242  1  0  0  0
110243  1  0  0  0
110244  1  0  0  0
111245  1  0  0  0
112246  1  0  0  0
115247  1  0  0  0
115248  1  0  0  0
115249  1  0  0  0
116250  1  0  0  0
117251  1  0  0  0
120252  1  0  0  0
120253  1  0  0  0
120254  1  0  0  0
121255  1  0  0  0
122256  1  0  0  0
124257  1  0  0  0
125258  1  0  0  0
125259  1  0  0  0
127260  1  0  0  0
128261  1  0  0  0
129262  1  0  0  0
130263  1  0  0  0
132264  1  0  0  0
M  END
$$$$
