4yec_ligand
  -I-interpret- 

 81 80  0  0  0  0  0  0  0  0999 V2000
    2.6900    5.1450   14.9970 C   0  0  0  0  0
    2.4460    6.3490   14.9860 O   0  0  0  0  0
    2.5830    4.3470   16.2630 C   0  0  0  0  0
    2.6240    4.4360   13.8750 N   0  0  0  0  0
    2.8130    5.0720   12.5740 C   0  0  0  0  0
    1.8710    4.4580   11.5390 C   0  0  0  0  0
    1.5450    3.2670   11.6110 O   0  0  0  0  0
    4.2790    4.9320   12.1120 C   0  0  0  0  0
    4.6490    3.4670   12.0580 C   0  0  0  0  0
    4.5190    5.6240   10.7690 C   0  0  0  0  0
    1.4270    5.2760   10.5860 N   0  0  0  0  0
    0.4790    4.8340    9.5690 C   0  0  0  0  0
    1.1600    3.9700    8.5110 C   0  0  0  0  0
    2.3510    4.1280    8.2200 O   0  0  0  0  0
   -0.1940    6.0410    8.9010 C   0  0  0  0  0
   -1.7190    6.0810    8.7580 C   0  0  0  0  0
   -2.3970    6.2960   10.1020 C   0  0  0  0  0
   -2.1380    7.1690    7.7740 C   0  0  0  0  0
    0.3930    3.0390    7.9570 N   0  0  0  0  0
    0.8340    2.2810    6.7910 C   0  0  0  0  0
   -0.1820    2.4730    5.6760 C   0  0  0  0  0
   -1.3170    2.8950    5.9400 O   0  0  0  0  0
    0.9930    0.7600    7.0680 C   0  0  0  0  0
   -0.2750    0.1970    7.4280 O   0  0  0  0  0
    2.0380    0.4810    8.1650 C   0  0  0  0  0
   -1.7730   -0.1460    4.2810 C   0  0  0  0  0
   -1.6130    0.7910    3.1080 C   0  0  0  0  0
   -2.2380    0.6280    2.0600 O   0  0  0  0  0
   -0.8380    2.0700    3.3050 C   0  0  0  0  0
    0.0680    1.9640    4.4720 N   0  0  0  0  0
   -0.0290    2.3890    2.0500 C   0  0  0  0  0
   -0.7220    3.5330    1.3310 C   0  0  0  0  0
    0.1010    4.1000    0.1900 C   0  0  0  0  0
    1.3000    4.8390    0.7330 C   0  0  0  0  0
    1.8100    5.6370   -0.3870 N   0  3  0  0  0
    3.2699    4.7526   17.0058 H   0  0  0  0  0
    1.5623    4.4032   16.6412 H   0  0  0  0  0
    2.8393    3.3075   16.0585 H   0  0  0  0  0
    2.4388    3.4341   13.9231 H   0  0  0  0  0
    2.5799    6.1323   12.6720 H   0  0  0  0  0
    4.9236    5.4328   12.8343 H   0  0  0  0  0
    4.0440    2.9685   11.3007 H   0  0  0  0  0
    5.7045    3.3693   11.8039 H   0  0  0  0  0
    4.4643    3.0108   13.0306 H   0  0  0  0  0
    5.5733    5.5446   10.5041 H   0  0  0  0  0
    3.9129    5.1438   10.0008 H   0  0  0  0  0
    4.2412    6.6750   10.8485 H   0  0  0  0  0
    1.7597    6.2400   10.5668 H   0  0  0  0  0
   -0.2798    4.2302   10.0667 H   0  0  0  0  0
    0.1769    6.0289    7.8761 H   0  0  0  0  0
    0.0420    6.8818    9.5532 H   0  0  0  0  0
   -2.0397    5.1141    8.3703 H   0  0  0  0  0
   -2.1334    5.4802   10.7751 H   0  0  0  0  0
   -2.0641    7.2424   10.5282 H   0  0  0  0  0
   -3.4778    6.3190    9.9627 H   0  0  0  0  0
   -1.7912    8.1371    8.1354 H   0  0  0  0  0
   -1.6966    6.9645    6.7986 H   0  0  0  0  0
   -3.2245    7.1800    7.6875 H   0  0  0  0  0
   -0.5264    2.8491    8.3559 H   0  0  0  0  0
    1.8184    2.6584    6.5141 H   0  0  0  0  0
    1.3526    0.2884    6.1534 H   0  0  0  0  0
   -0.1703   -0.7421    7.5978 H   0  0  0  0  0
    3.0053    0.8742    7.8520 H   0  0  0  0  0
    1.7294    0.9664    9.0909 H   0  0  0  0  0
    2.1161   -0.5943    8.3255 H   0  0  0  0  0
   -2.8123   -0.1405    4.6096 H   0  0  0  0  0
   -1.4912   -1.1549    3.9796 H   0  0  0  0  0
   -1.1306    0.1833    5.0977 H   0  0  0  0  0
   -1.5490    2.8748    3.4915 H   0  0  0  0  0
    0.9479    1.4643    4.3435 H   0  0  0  0  0
    0.0275    1.5136    1.4030 H   0  0  0  0  0
    0.9894    2.6709    2.3172 H   0  0  0  0  0
   -0.8818    4.3322    2.0547 H   0  0  0  0  0
   -1.6511    3.1475    0.9111 H   0  0  0  0  0
   -0.5144    4.7909   -0.3863 H   0  0  0  0  0
    0.4420    3.2829   -0.4458 H   0  0  0  0  0
    2.0564    4.1503    1.1093 H   0  0  0  0  0
    1.0304    5.4683    1.5811 H   0  0  0  0  0
    2.6280    6.1647   -0.0823 H   0  0  0  0  0
    2.0703    5.0170   -1.1540 H   0  0  0  0  0
    1.0852    6.2824   -0.7009 H   0  0  0  0  0
  1  2  2  0  0  0
  1  3  1  0  0  0
  4  1  1  0  0  0
  5  4  1  0  0  0
  6  5  1  0  0  0
  5  8  1  0  0  0
  6  7  2  0  0  0
 11  6  1  0  0  0
  8  9  1  0  0  0
  8 10  1  0  0  0
 12 11  1  0  0  0
 13 12  1  0  0  0
 12 15  1  0  0  0
 13 14  2  0  0  0
 19 13  1  0  0  0
 15 16  1  0  0  0
 16 17  1  0  0  0
 16 18  1  0  0  0
 20 19  1  0  0  0
 21 20  1  0  0  0
 20 23  1  0  0  0
 21 22  2  0  0  0
 30 21  1  0  0  0
 23 24  1  0  0  0
 23 25  1  0  0  0
 27 26  1  0  0  0
 27 28  2  0  0  0
 29 27  1  0  0  0
 29 30  1  0  0  0
 29 31  1  0  0  0
 31 32  1  0  0  0
 32 33  1  0  0  0
 33 34  1  0  0  0
 34 35  1  0  0  0
  3 36  1  0  0  0
  3 37  1  0  0  0
  3 38  1  0  0  0
  4 39  1  0  0  0
  5 40  1  0  0  0
  8 41  1  0  0  0
  9 42  1  0  0  0
  9 43  1  0  0  0
  9 44  1  0  0  0
 10 45  1  0  0  0
 10 46  1  0  0  0
 10 47  1  0  0  0
 11 48  1  0  0  0
 12 49  1  0  0  0
 15 50  1  0  0  0
 15 51  1  0  0  0
 16 52  1  0  0  0
 17 53  1  0  0  0
 17 54  1  0  0  0
 17 55  1  0  0  0
 18 56  1  0  0  0
 18 57  1  0  0  0
 18 58  1  0  0  0
 19 59  1  0  0  0
 20 60  1  0  0  0
 23 61  1  0  0  0
 24 62  1  0  0  0
 25 63  1  0  0  0
 25 64  1  0  0  0
 25 65  1  0  0  0
 26 66  1  0  0  0
 26 67  1  0  0  0
 26 68  1  0  0  0
 29 69  1  0  0  0
 30 70  1  0  0  0
 31 71  1  0  0  0
 31 72  1  0  0  0
 32 73  1  0  0  0
 32 74  1  0  0  0
 33 75  1  0  0  0
 33 76  1  0  0  0
 34 77  1  0  0  0
 34 78  1  0  0  0
 35 79  1  0  0  0
 35 80  1  0  0  0
 35 81  1  0  0  0
M  END
$$$$
