4qdk_ligand
  -I-interpret- 

 47 49  0  0  0  0  0  0  0  0999 V2000
   21.6290    2.5200   15.5870 N   0  3  0  0  0
   22.6840    3.5180   15.7340 C   0  0  0  0  0
   22.5260    4.6500   14.7250 C   0  0  0  0  0
   21.1720    5.3510   14.7360 C   0  0  0  0  0
   21.1490    6.8040   13.6510 S   0  0  0  0  0
   22.6790    4.0860   17.1440 C   0  0  0  0  0
   23.6970    4.5820   17.6280 O   0  0  0  0  0
   21.6550    4.0580   17.8270 O   0  0  0  0  0
   20.1710    5.9130   12.4180 C   0  0  0  0  0
   21.0460    5.1930   11.3990 C   0  0  0  0  0
   20.2540    4.3140   10.6250 O   0  0  0  0  0
   21.7330    6.1370   10.4190 C   0  0  0  0  0
   23.1250    5.9310   10.5000 O   0  0  0  0  0
   21.2350    5.7080    9.0510 C   0  0  0  0  0
   22.2500    5.7500    8.0750 O   0  0  0  0  0
   20.7690    4.2860    9.3130 C   0  0  0  0  0
   19.7490    3.8100    8.3640 N   0  0  0  0  0
   18.6550    4.4920    7.9020 C   0  0  0  0  0
   17.9810    3.6840    7.0510 N   0  0  0  0  0
   18.6300    2.4990    6.9690 C   0  0  0  0  0
   18.3780    1.3350    6.2540 C   0  0  0  0  0
   17.3160    1.2500    5.4570 N   0  0  0  0  0
   19.2420    0.2670    6.3690 N   0  0  0  0  0
   20.3450    0.3540    7.1970 C   0  0  0  0  0
   20.5890    1.5140    7.9020 N   0  0  0  0  0
   19.7440    2.5680    7.7890 C   0  0  0  0  0
   21.6444    2.1481   14.6373 H   0  0  0  0  0
   21.7839    1.7627   16.2525 H   0  0  0  0  0
   20.7241    2.9542   15.7688 H   0  0  0  0  0
   23.6359    3.0219   15.5446 H   0  0  0  0  0
   22.6378    4.2041   13.7367 H   0  0  0  0  0
   23.2692    5.4041   14.9841 H   0  0  0  0  0
   20.9688    5.6831   15.7541 H   0  0  0  0  0
   20.4211    4.6467   14.3779 H   0  0  0  0  0
   24.4103    4.5351   16.9872 H   0  0  0  0  0
   19.5562    6.6380   11.8846 H   0  0  0  0  0
   19.5705    5.1659   12.9371 H   0  0  0  0  0
   21.8063    4.6702   11.9792 H   0  0  0  0  0
   21.5237    7.1876   10.6204 H   0  0  0  0  0
   23.5707    6.5201    9.8869 H   0  0  0  0  0
   20.4585    6.3607    8.6522 H   0  0  0  0  0
   21.8909    5.4718    7.2293 H   0  0  0  0  0
   21.5973    3.5886    9.1877 H   0  0  0  0  0
   18.3753    5.5101    8.1730 H   0  0  0  0  0
   16.6804    2.0428    5.3679 H   0  0  0  0  0
   17.1374    0.3920    4.9351 H   0  0  0  0  0
   21.0224   -0.4945    7.2929 H   0  0  0  0  0
  1  2  1  0  0  0
  2  3  1  0  0  0
  2  6  1  0  0  0
  3  4  1  0  0  0
  4  5  1  0  0  0
  5  9  1  0  0  0
  6  7  1  0  0  0
  6  8  2  0  0  0
  9 10  1  0  0  0
 10 11  1  0  0  0
 10 12  1  0  0  0
 11 16  1  0  0  0
 12 13  1  0  0  0
 12 14  1  0  0  0
 14 15  1  0  0  0
 14 16  1  0  0  0
 16 17  1  0  0  0
 17 18  4  0  0  0
 17 26  4  0  0  0
 18 19  4  0  0  0
 19 20  4  0  0  0
 20 21  4  0  0  0
 20 26  4  0  0  0
 21 22  1  0  0  0
 21 23  4  0  0  0
 23 24  4  0  0  0
 24 25  4  0  0  0
 25 26  4  0  0  0
  1 27  1  0  0  0
  1 28  1  0  0  0
  1 29  1  0  0  0
  2 30  1  0  0  0
  3 31  1  0  0  0
  3 32  1  0  0  0
  4 33  1  0  0  0
  4 34  1  0  0  0
  7 35  1  0  0  0
  9 36  1  0  0  0
  9 37  1  0  0  0
 10 38  1  0  0  0
 12 39  1  0  0  0
 13 40  1  0  0  0
 14 41  1  0  0  0
 15 42  1  0  0  0
 16 43  1  0  0  0
 18 44  1  0  0  0
 22 45  1  0  0  0
 22 46  1  0  0  0
 24 47  1  0  0  0
M  END
$$$$
