5etk_ligand
  -I-interpret- 

 28 30  0  0  0  0  0  0  0  0999 V2000
  -10.4250   27.5090  -18.5500 C   0  0  0  0  0
  -11.7220   27.0620  -18.6050 C   0  0  0  0  0
   -9.4310   26.6510  -18.1340 C   0  0  0  0  0
  -11.9840   25.7710  -18.2230 C   0  0  0  0  0
   -9.6440   25.3280  -17.7590 C   0  0  0  0  0
   -9.4270   20.5370  -19.5200 C   0  0  0  0  0
  -10.9550   24.9360  -17.8160 C   0  0  0  0  0
   -9.9560   21.4160  -20.4450 C   0  0  0  0  0
   -9.9450   19.2880  -19.4460 C   0  0  0  0  0
  -11.4920   19.9590  -21.1600 C   0  0  0  0  0
   -8.3760   22.4280  -19.3280 C   0  0  0  0  0
   -8.5190   24.2970  -17.3640 C   0  0  0  0  0
  -10.9950   21.1810  -21.2810 N   0  0  0  0  0
   -9.2800   22.5800  -20.3180 N   0  0  0  0  0
  -11.0130   19.0340  -20.2850 N   0  0  0  0  0
   -8.4190   21.1750  -18.8370 N   0  0  0  0  0
  -12.5330   19.5870  -21.9140 N   0  0  0  0  0
   -9.5800   18.3240  -18.6560 O   0  0  0  0  0
  -11.2890   23.6960  -17.4850 F   0  0  0  0  0
   -7.3130   23.6570  -18.7680 S   0  0  0  0  0
  -10.1841   28.5337  -18.8330 H   0  0  0  0  0
  -12.5242   27.7174  -18.9441 H   0  0  0  0  0
   -8.4110   27.0333  -18.0961 H   0  0  0  0  0
  -13.0084   25.3990  -18.2396 H   0  0  0  0  0
   -9.0508   23.4111  -17.0168 H   0  0  0  0  0
   -7.8805   24.8261  -16.6566 H   0  0  0  0  0
  -11.3576   21.8735  -21.9363 H   0  0  0  0  0
  -12.9257   18.6508  -21.8151 H   0  0  0  0  0
  1  2  4  0  0  0
  3  1  4  0  0  0
  4  2  4  0  0  0
  5  3  4  0  0  0
  7  4  4  0  0  0
  5  7  4  0  0  0
 12  5  1  0  0  0
  6  8  4  0  0  0
  6  9  1  0  0  0
 16  6  4  0  0  0
  7 19  1  0  0  0
  8 13  1  0  0  0
 14  8  4  0  0  0
  9 15  1  0  0  0
  9 18  2  0  0  0
 13 10  1  0  0  0
 15 10  4  0  0  0
 10 17  2  0  0  0
 11 14  4  0  0  0
 11 16  4  0  0  0
 20 11  1  0  0  0
 12 20  1  0  0  0
  1 21  1  0  0  0
  2 22  1  0  0  0
  3 23  1  0  0  0
  4 24  1  0  0  0
 12 25  1  0  0  0
 12 26  1  0  0  0
 13 27  1  0  0  0
 17 28  1  0  0  0
M  END
$$$$
