5xmx_ligand
  -I-interpret- 

 59 61  0  0  0  0  0  0  0  0999 V2000
    4.6160   -3.0610   51.8430 C   0  0  0  0  0
    4.2430   -3.2940   53.1690 C   0  0  0  0  0
    4.7810   -2.4760   54.2010 C   0  0  0  0  0
    4.4090   -2.6920   55.6080 C   0  0  0  0  0
    3.5450   -3.6890   56.0660 C   0  0  0  0  0
    4.3360   -2.6070   57.8180 C   0  0  0  0  0
    5.9570   -1.1840   52.5910 C   0  0  0  0  0
    5.7960   -1.2460   47.8880 C   0  0  0  0  0
    3.0210   -2.7270   48.6660 C   0  0  0  0  0
    1.6250   -4.8190   47.4920 C   0  0  0  0  0
    1.1030   -3.5010   47.5030 C   0  0  0  0  0
    1.7840   -2.4820   48.1310 C   0  0  0  0  0
    0.0350   -0.8470   47.6920 C   0  0  0  0  0
   -0.8730    1.2840   48.3490 C   0  0  0  0  0
   -1.0970    2.7540   48.2570 C   0  0  0  0  0
    7.1960   -1.7320   50.0860 O   0  0  0  0  0
    5.9510   -1.7140   50.2150 C   0  0  0  0  0
    5.4580   -2.0010   51.5740 C   0  0  0  0  0
    3.4790   -3.5820   57.4080 C   0  0  0  0  0
    4.9540   -2.0500   56.7010 O   0  0  0  0  0
    5.6350   -1.4080   53.9020 C   0  0  0  0  0
    5.1370   -1.4890   49.1990 N   0  0  0  0  0
    3.6880   -1.4990   49.3110 C   0  0  0  0  0
    3.5610   -4.0270   48.6420 C   0  0  0  0  0
    2.8680   -5.0870   48.0280 C   0  0  0  0  0
    1.3000   -1.1700   48.2230 O   0  0  0  0  0
   -0.0970    0.6310   47.5070 C   0  0  0  0  0
   -1.5690    0.5580   49.4640 C   0  0  0  0  0
    0.0610    3.4920   47.6450 C   0  0  0  0  0
   -0.1450    3.8710   46.2230 C   0  0  0  0  0
    0.7770    4.6200   45.7890 O   0  0  0  0  0
   -1.0990    3.4410   45.5120 O   0  0  0  0  0
    4.2507   -3.7011   51.0399 H   0  0  0  0  0
    3.5455   -4.0959   53.4108 H   0  0  0  0  0
    3.0201   -4.4199   55.4509 H   0  0  0  0  0
    4.5102   -2.3104   58.8523 H   0  0  0  0  0
    6.6147   -0.3531   52.3358 H   0  0  0  0  0
    6.4412   -0.3708   47.9638 H   0  0  0  0  0
    6.3929   -2.1165   47.6159 H   0  0  0  0  0
    5.0352   -1.0733   47.1268 H   0  0  0  0  0
    1.0391   -5.6282   47.0561 H   0  0  0  0  0
    0.1537   -3.2922   47.0097 H   0  0  0  0  0
   -0.7355   -1.1863   48.3843 H   0  0  0  0  0
   -0.0766   -1.3353   46.7239 H   0  0  0  0  0
   -1.2312    3.1319   49.2706 H   0  0  0  0  0
   -1.9663    2.9165   47.6198 H   0  0  0  0  0
    2.8421   -4.1798   58.0599 H   0  0  0  0  0
    6.0330   -0.7717   54.6924 H   0  0  0  0  0
    3.4451   -1.5189   50.3734 H   0  0  0  0  0
    3.3165   -0.6170   48.7894 H   0  0  0  0  0
    4.5294   -4.2152   49.1055 H   0  0  0  0  0
    3.2990   -6.0869   47.9775 H   0  0  0  0  0
    0.4291    1.1493   46.7054 H   0  0  0  0  0
   -2.2253   -0.2049   49.0452 H   0  0  0  0  0
   -0.8266    0.0867   50.1081 H   0  0  0  0  0
   -2.1585    1.2670   50.0453 H   0  0  0  0  0
    0.9229    2.8257   47.6797 H   0  0  0  0  0
    0.1898    4.4154   48.2096 H   0  0  0  0  0
   -1.6757    2.8933   46.0496 H   0  0  0  0  0
  1  2  4  0  0  0
 18  1  4  0  0  0
  2  3  4  0  0  0
  3  4  1  0  0  0
 21  3  4  0  0  0
  4  5  4  0  0  0
  4 20  4  0  0  0
  5 19  4  0  0  0
  6 19  4  0  0  0
 20  6  4  0  0  0
 18  7  4  0  0  0
  7 21  4  0  0  0
 22  8  1  0  0  0
  9 12  4  0  0  0
 23  9  1  0  0  0
  9 24  4  0  0  0
 11 10  4  0  0  0
 10 25  4  0  0  0
 12 11  4  0  0  0
 12 26  1  0  0  0
 26 13  1  0  0  0
 13 27  1  0  0  0
 14 15  1  0  0  0
 27 14  2  0  0  0
 14 28  1  0  0  0
 15 29  1  0  0  0
 17 16  2  0  0  0
 17 18  1  0  0  0
 22 17  1  0  0  0
 22 23  1  0  0  0
 24 25  4  0  0  0
 29 30  1  0  0  0
 30 31  2  0  0  0
 30 32  1  0  0  0
  1 33  1  0  0  0
  2 34  1  0  0  0
  5 35  1  0  0  0
  6 36  1  0  0  0
  7 37  1  0  0  0
  8 38  1  0  0  0
  8 39  1  0  0  0
  8 40  1  0  0  0
 10 41  1  0  0  0
 11 42  1  0  0  0
 13 43  1  0  0  0
 13 44  1  0  0  0
 15 45  1  0  0  0
 15 46  1  0  0  0
 19 47  1  0  0  0
 21 48  1  0  0  0
 23 49  1  0  0  0
 23 50  1  0  0  0
 24 51  1  0  0  0
 25 52  1  0  0  0
 27 53  1  0  0  0
 28 54  1  0  0  0
 28 55  1  0  0  0
 28 56  1  0  0  0
 29 57  1  0  0  0
 29 58  1  0  0  0
 32 59  1  0  0  0
M  END
$$$$
