3hhm_ligand
  -I-interpret- 

 59 62  0  0  0  0  0  0  0  0999 V2000
   60.7470   60.3390  113.7990 C   0  0  0  0  0
   61.7350   59.3080  114.0360 O   0  0  0  0  0
   61.1520   61.3550  112.7000 C   0  0  0  0  0
   59.3110   59.7840  113.6550 C   0  0  0  0  0
   62.3490   58.7430  112.8480 C   0  0  0  0  0
   63.2390   57.9180  112.9500 O   0  0  0  0  0
   61.8690   59.1740  111.5500 C   0  0  0  0  0
   61.3750   60.5450  111.4240 C   0  0  0  0  0
   61.8660   58.3110  110.5480 C   0  0  0  0  0
   61.1350   61.0340  110.2040 C   0  0  0  0  0
   60.3320   62.2280  110.0380 C   0  0  0  0  0
   61.6180   60.4370  109.1200 O   0  0  0  0  0
   59.7080   62.3970  109.0070 O   0  0  0  0  0
   60.3330   63.2000  111.1730 C   0  0  0  0  0
   59.0530   62.7640  114.7380 O   0  0  0  0  0
   59.8800   63.4300  113.7390 C   0  0  0  0  0
   58.6100   63.3670  116.0330 C   0  0  0  0  0
   60.0920   62.4730  112.5090 C   0  0  0  0  0
   59.3230   64.3320  111.0550 C   0  0  0  0  0
   62.4970   62.0020  113.0450 C   0  0  0  0  0
   59.3020   64.8330  113.4350 C   0  0  0  0  0
   59.7200   65.3690  112.0780 C   0  0  0  0  0
   61.2030   65.7490  112.0670 C   0  0  0  0  0
   58.9110   66.5310  111.6010 C   0  0  0  0  0
   59.0910   65.0690  109.7380 C   0  0  0  0  0
   58.5030   66.4190  110.1480 C   0  0  0  0  0
   58.6220   67.4690  112.3190 O   0  0  0  0  0
   57.5710   62.9380  116.5310 O   0  0  0  0  0
   59.3620   64.4410  116.7800 C   0  0  0  0  0
   59.2290   58.3810  113.4210 O   0  0  0  0  0
   57.8730   57.9770  113.2090 C   0  0  0  0  0
   60.7255   60.9340  114.7120 H   0  0  0  0  0
   58.8694   60.2743  112.7874 H   0  0  0  0  0
   58.8030   59.9758  114.6001 H   0  0  0  0  0
   61.4829   58.6100  109.5723 H   0  0  0  0  0
   62.2466   57.3006  110.6978 H   0  0  0  0  0
   61.3462   60.9251  108.3393 H   0  0  0  0  0
   61.3222   63.6563  111.1363 H   0  0  0  0  0
   60.8872   63.6283  114.1055 H   0  0  0  0  0
   59.1227   61.9772  112.4574 H   0  0  0  0  0
   58.3746   63.8110  111.1865 H   0  0  0  0  0
   63.2434   61.2235  113.2026 H   0  0  0  0  0
   62.8101   62.6464  112.2235 H   0  0  0  0  0
   62.3911   62.5948  113.9535 H   0  0  0  0  0
   59.6816   65.5185  114.1927 H   0  0  0  0  0
   58.2151   64.7508  113.4377 H   0  0  0  0  0
   61.8053   64.8629  112.2676 H   0  0  0  0  0
   61.4655   66.1548  111.0900 H   0  0  0  0  0
   61.3903   66.4989  112.8356 H   0  0  0  0  0
   58.4228   64.5184  109.0758 H   0  0  0  0  0
   60.0129   65.1830  109.1677 H   0  0  0  0  0
   58.8688   67.2453  109.5384 H   0  0  0  0  0
   57.4241   66.4748  110.0034 H   0  0  0  0  0
   58.7218   65.3151  116.8991 H   0  0  0  0  0
   59.6514   64.0646  117.7612 H   0  0  0  0  0
   60.2541   64.7163  116.2175 H   0  0  0  0  0
   57.2805   58.2210  114.0907 H   0  0  0  0  0
   57.4702   58.5015  112.3425 H   0  0  0  0  0
   57.8389   56.9019  113.0328 H   0  0  0  0  0
  1  2  1  0  0  0
  3  1  1  0  0  0
  1  4  1  0  0  0
  2  5  1  0  0  0
  3  8  1  0  0  0
 18  3  1  0  0  0
  3 20  1  0  0  0
  4 30  1  0  0  0
  5  6  2  0  0  0
  7  5  1  0  0  0
  8  7  1  0  0  0
  7  9  2  0  0  0
  8 10  2  0  0  0
 11 10  1  0  0  0
 10 12  1  0  0  0
 11 13  2  0  0  0
 14 11  1  0  0  0
 18 14  1  0  0  0
 14 19  1  0  0  0
 16 15  1  0  0  0
 15 17  1  0  0  0
 16 18  1  0  0  0
 16 21  1  0  0  0
 17 28  2  0  0  0
 17 29  1  0  0  0
 19 22  1  0  0  0
 19 25  1  0  0  0
 21 22  1  0  0  0
 22 23  1  0  0  0
 22 24  1  0  0  0
 24 26  1  0  0  0
 24 27  2  0  0  0
 25 26  1  0  0  0
 30 31  1  0  0  0
  1 32  1  0  0  0
  4 33  1  0  0  0
  4 34  1  0  0  0
  9 35  1  0  0  0
  9 36  1  0  0  0
 12 37  1  0  0  0
 14 38  1  0  0  0
 16 39  1  0  0  0
 18 40  1  0  0  0
 19 41  1  0  0  0
 20 42  1  0  0  0
 20 43  1  0  0  0
 20 44  1  0  0  0
 21 45  1  0  0  0
 21 46  1  0  0  0
 23 47  1  0  0  0
 23 48  1  0  0  0
 23 49  1  0  0  0
 25 50  1  0  0  0
 25 51  1  0  0  0
 26 52  1  0  0  0
 26 53  1  0  0  0
 29 54  1  0  0  0
 29 55  1  0  0  0
 29 56  1  0  0  0
 31 57  1  0  0  0
 31 58  1  0  0  0
 31 59  1  0  0  0
M  END
$$$$
