6qr7_ligand
  -I-interpret- 

 57 61  0  0  0  0  0  0  0  0999 V2000
  -24.3980  -18.8600   11.5010 C   0  0  0  0  0
  -25.3450  -22.3570   10.6650 C   0  0  0  0  0
  -23.2070  -23.6170   11.0130 C   0  0  0  0  0
  -22.8550  -23.4750    8.4860 C   0  0  0  0  0
  -19.8740  -24.6550    6.2290 C   0  0  0  0  0
  -19.3470  -26.8510    6.3790 C   0  0  0  0  0
  -19.4540  -27.9840    4.2150 C   0  0  0  0  0
  -20.5470  -25.7910    4.4590 C   0  0  0  0  0
  -21.1370  -24.4530    9.8780 C   0  0  0  0  0
  -17.8090  -16.8440   12.9900 N   0  0  0  0  0
  -18.7190  -17.8340   12.7410 C   0  0  0  0  0
  -18.4570  -19.1700   12.6360 N   0  0  0  0  0
  -19.6290  -19.7970   12.4040 N   0  0  0  0  0
  -20.6450  -18.9220   12.3890 C   0  0  0  0  0
  -22.0810  -19.3420   12.0440 C   0  0  0  0  0
  -22.2860  -20.6850   11.7320 C   0  0  0  0  0
  -23.5800  -21.1200   11.3300 C   0  0  0  0  0
  -24.6160  -20.2220   11.2120 C   0  0  0  0  0
  -23.1170  -18.4220   11.9030 C   0  0  0  0  0
  -25.7690  -21.0180   10.7820 C   0  0  0  0  0
  -24.0460  -22.3990   10.9770 N   0  0  0  0  0
  -22.3890  -23.8390    9.7450 C   0  0  0  0  0
  -22.0610  -23.7370    7.3490 C   0  0  0  0  0
  -20.7790  -24.3560    7.4890 C   0  0  0  0  0
  -20.1390  -25.7480    5.8240 N   0  3  0  0  0
  -18.6590  -27.7590    5.3720 C   0  0  0  0  0
  -19.7420  -26.7140    3.5600 C   0  0  0  0  0
  -20.3350  -24.7110    8.7250 C   0  0  0  0  0
  -20.0960  -17.6660   12.5640 C   0  0  0  0  0
  -20.7980  -16.2640   12.6260 C   0  0  0  0  0
  -21.2690  -15.2000   12.6770 N   0  0  0  0  0
  -25.2168  -18.1458   11.4144 H   0  0  0  0  0
  -25.9644  -23.2050   10.3729 H   0  0  0  0  0
  -23.8769  -24.4700   11.1210 H   0  0  0  0  0
  -22.5035  -23.5027   11.8377 H   0  0  0  0  0
  -23.8258  -22.9912    8.3784 H   0  0  0  0  0
  -18.8210  -24.6055    6.5063 H   0  0  0  0  0
  -20.0609  -23.9141    5.4517 H   0  0  0  0  0
  -20.0468  -27.4813    6.9278 H   0  0  0  0  0
  -18.5519  -26.3894    6.9645 H   0  0  0  0  0
  -20.3902  -28.4594    4.5076 H   0  0  0  0  0
  -18.9119  -28.6308    3.5251 H   0  0  0  0  0
  -20.4143  -24.7833    4.0651 H   0  0  0  0  0
  -21.5692  -26.1693    4.4540 H   0  0  0  0  0
  -20.7733  -24.7351   10.8660 H   0  0  0  0  0
  -16.8241  -17.0768   13.1173 H   0  0  0  0  0
  -18.1151  -15.8728   13.0484 H   0  0  0  0  0
  -21.4622  -21.3960   11.7954 H   0  0  0  0  0
  -22.9394  -17.3653   12.1027 H   0  0  0  0  0
  -26.7735  -20.6421   10.5877 H   0  0  0  0  0
  -22.4267  -23.4661    6.3586 H   0  0  0  0  0
  -21.0223  -25.9938    6.2710 H   0  0  0  0  0
  -18.4809  -28.7214    5.8517 H   0  0  0  0  0
  -17.7344  -27.2750    5.0575 H   0  0  0  0  0
  -20.3255  -26.9145    2.6614 H   0  0  0  0  0
  -18.7963  -26.2261    3.3238 H   0  0  0  0  0
  -19.3641  -25.1939    8.8355 H   0  0  0  0  0
 18  1  4  0  0  0
  1 19  4  0  0  0
  2 20  4  0  0  0
 21  2  4  0  0  0
  3 21  1  0  0  0
 22  3  1  0  0  0
  4 22  4  0  0  0
 23  4  4  0  0  0
 24  5  1  0  0  0
  5 25  1  0  0  0
 25  6  1  0  0  0
  6 26  1  0  0  0
 26  7  1  0  0  0
 27  7  1  0  0  0
 25  8  1  0  0  0
  8 27  1  0  0  0
 22  9  4  0  0  0
  9 28  4  0  0  0
 11 10  1  0  0  0
 11 12  4  0  0  0
 29 11  4  0  0  0
 13 12  4  0  0  0
 14 13  4  0  0  0
 15 14  1  0  0  0
 14 29  4  0  0  0
 16 15  4  0  0  0
 15 19  4  0  0  0
 17 16  4  0  0  0
 17 18  4  0  0  0
 21 17  4  0  0  0
 18 20  4  0  0  0
 23 24  4  0  0  0
 24 28  4  0  0  0
 29 30  1  0  0  0
 30 31  3  0  0  0
  1 32  1  0  0  0
  2 33  1  0  0  0
  3 34  1  0  0  0
  3 35  1  0  0  0
  4 36  1  0  0  0
  5 37  1  0  0  0
  5 38  1  0  0  0
  6 39  1  0  0  0
  6 40  1  0  0  0
  7 41  1  0  0  0
  7 42  1  0  0  0
  8 43  1  0  0  0
  8 44  1  0  0  0
  9 45  1  0  0  0
 10 46  1  0  0  0
 10 47  1  0  0  0
 16 48  1  0  0  0
 19 49  1  0  0  0
 20 50  1  0  0  0
 23 51  1  0  0  0
 25 52  1  0  0  0
 26 53  1  0  0  0
 26 54  1  0  0  0
 27 55  1  0  0  0
 27 56  1  0  0  0
 28 57  1  0  0  0
M  END
$$$$
