3n46_ligand
  -I-interpret- 

 37 39  0  0  0  0  0  0  0  0999 V2000
    3.0830   75.7430   25.5720 N   0  0  0  0  0
    4.5170   75.9630   25.5700 C   0  0  0  0  0
    4.6720   77.5460   25.6140 C   0  0  0  0  0
    3.2440   78.0220   25.4930 C   0  0  0  0  0
    2.4090   76.9370   25.4880 C   0  0  0  0  0
    1.0110   77.0570   25.4080 C   0  0  0  0  0
    0.4830   78.3590   25.3060 C   0  0  0  0  0
    1.3450   79.4820   25.2840 C   0  0  0  0  0
    2.7500   79.3250   25.3970 C   0  0  0  0  0
    5.0590   75.3700   24.2600 C   0  0  0  0  0
    4.3560   75.2270   23.2640 O   0  0  0  0  0
    6.3390   74.9980   24.2680 O   0  0  0  0  0
    2.5110   74.4910   25.6330 C   0  0  0  0  0
    1.3040   74.2760   25.5610 O   0  0  0  0  0
    3.4470   73.4980   25.7870 O   0  0  0  0  0
    2.8880   72.1790   25.9820 C   0  0  0  0  0
    4.0200   71.1640   25.8580 C   0  0  0  0  0
    5.1750   71.2790   26.6530 C   0  0  0  0  0
    6.2260   70.3560   26.5160 C   0  0  0  0  0
    6.1120   69.2980   25.5850 C   0  0  0  0  0
    4.9430   69.1650   24.7940 C   0  0  0  0  0
    3.9000   70.1090   24.9310 C   0  0  0  0  0
    5.0579   75.5035   26.3973 H   0  0  0  0  0
    5.3176   77.9324   24.8253 H   0  0  0  0  0
    5.1633   77.9004   26.5201 H   0  0  0  0  0
    0.3633   76.1805   25.4242 H   0  0  0  0  0
   -0.5957   78.5028   25.2436 H   0  0  0  0  0
    0.9228   80.4814   25.1787 H   0  0  0  0  0
    3.4176   80.1866   25.4085 H   0  0  0  0  0
    6.7208   75.1875   25.1282 H   0  0  0  0  0
    2.1209   71.9808   25.2335 H   0  0  0  0  0
    2.4248   72.1081   26.9661 H   0  0  0  0  0
    5.2552   72.0881   27.3789 H   0  0  0  0  0
    7.1248   70.4553   27.1246 H   0  0  0  0  0
    6.9262   68.5817   25.4750 H   0  0  0  0  0
    4.8493   68.3415   24.0860 H   0  0  0  0  0
    3.0021   70.0211   24.3193 H   0  0  0  0  0
  1  2  1  0  0  0
  1  5  1  0  0  0
  1 13  1  0  0  0
  2  3  1  0  0  0
  2 10  1  0  0  0
  3  4  1  0  0  0
  4  5  4  0  0  0
  4  9  4  0  0  0
  5  6  4  0  0  0
  6  7  4  0  0  0
  7  8  4  0  0  0
  8  9  4  0  0  0
 10 11  2  0  0  0
 10 12  1  0  0  0
 13 14  2  0  0  0
 13 15  1  0  0  0
 15 16  1  0  0  0
 16 17  1  0  0  0
 17 18  4  0  0  0
 17 22  4  0  0  0
 18 19  4  0  0  0
 19 20  4  0  0  0
 20 21  4  0  0  0
 21 22  4  0  0  0
  2 23  1  0  0  0
  3 24  1  0  0  0
  3 25  1  0  0  0
  6 26  1  0  0  0
  7 27  1  0  0  0
  8 28  1  0  0  0
  9 29  1  0  0  0
 12 30  1  0  0  0
 16 31  1  0  0  0
 16 32  1  0  0  0
 18 33  1  0  0  0
 19 34  1  0  0  0
 20 35  1  0  0  0
 21 36  1  0  0  0
 22 37  1  0  0  0
M  END
$$$$
