2xwe_ligand
  -I-interpret- 

 50 51  0  0  0  0  0  0  0  0999 V2000
  -35.7090  -14.5450   -2.9030 O   0  0  0  0  0
  -35.9380  -15.5770   -1.9090 C   0  0  0  0  0
  -34.6250  -16.0380   -1.3540 C   0  0  0  0  0
  -33.8070  -14.7370   -1.1140 C   0  0  0  0  0
  -33.0480  -15.0630    0.4950 S   0  0  0  0  0
  -36.6470  -16.7810   -2.4550 C   0  0  0  0  0
  -37.8770  -16.3460   -2.9790 O   0  0  0  0  0
  -37.0060  -17.7410   -1.2990 C   0  0  0  0  0
  -37.2050  -19.0260   -1.8390 O   0  0  0  0  0
  -35.9760  -17.8110   -0.1170 C   0  0  0  0  0
  -36.7490  -17.4980    1.0430 O   0  0  0  0  0
  -34.9210  -16.7770   -0.0770 N   0  0  0  0  0
  -34.1510  -16.2930    1.0180 C   0  0  0  0  0
  -34.2080  -16.7110    2.2500 N   0  0  0  0  0
  -35.2200  -17.7910    2.4530 C   0  0  0  0  0
  -35.1160  -18.5980    3.7350 C   0  0  0  0  0
  -35.5690  -17.7350    4.9240 C   0  0  0  0  0
  -34.3570  -17.1070    5.6440 C   0  0  0  0  0
  -34.4900  -17.2600    7.1850 C   0  0  0  0  0
  -35.8200  -16.6500    7.6880 C   0  0  0  0  0
  -36.6410  -17.5950    8.5840 C   0  0  0  0  0
  -37.8910  -16.8470    9.0920 C   0  0  0  0  0
  -35.2542  -13.8045   -2.4949 H   0  0  0  0  0
  -36.5710  -15.1272   -1.1441 H   0  0  0  0  0
  -34.0629  -16.7088   -2.0037 H   0  0  0  0  0
  -34.4173  -13.8340   -1.1289 H   0  0  0  0  0
  -33.0809  -14.5318   -1.9006 H   0  0  0  0  0
  -36.0130  -17.2712   -3.1938 H   0  0  0  0  0
  -37.7174  -15.7412   -3.7073 H   0  0  0  0  0
  -37.9085  -17.3354   -0.8418 H   0  0  0  0  0
  -37.8358  -18.9744   -2.5608 H   0  0  0  0  0
  -35.4887  -18.7821   -0.2035 H   0  0  0  0  0
  -36.1836  -17.5203    1.8185 H   0  0  0  0  0
  -35.0659  -18.5008    1.6403 H   0  0  0  0  0
  -36.1871  -17.2899    2.4935 H   0  0  0  0  0
  -34.0820  -18.9085    3.8853 H   0  0  0  0  0
  -35.7542  -19.4786    3.6620 H   0  0  0  0  0
  -36.1068  -18.3672    5.6305 H   0  0  0  0  0
  -36.2084  -16.9345    4.5519 H   0  0  0  0  0
  -34.3137  -16.0458    5.3987 H   0  0  0  0  0
  -33.4510  -17.6173    5.3171 H   0  0  0  0  0
  -33.6617  -16.7361    7.6619 H   0  0  0  0  0
  -34.4746  -18.3210    7.4344 H   0  0  0  0  0
  -36.4267  -16.4274    6.8103 H   0  0  0  0  0
  -35.5689  -15.7737    8.2857 H   0  0  0  0  0
  -36.0353  -17.9159    9.4315 H   0  0  0  0  0
  -36.9448  -18.4717    8.0120 H   0  0  0  0  0
  -37.5819  -15.9729    9.6651 H   0  0  0  0  0
  -38.4942  -16.5304    8.2411 H   0  0  0  0  0
  -38.4770  -17.5111    9.7274 H   0  0  0  0  0
  1  2  1  0  0  0
  2  3  1  0  0  0
  2  6  1  0  0  0
  3  4  1  0  0  0
  3 12  1  0  0  0
  4  5  1  0  0  0
  5 13  1  0  0  0
  6  7  1  0  0  0
  6  8  1  0  0  0
  8  9  1  0  0  0
  8 10  1  0  0  0
 10 11  1  0  0  0
 10 12  1  0  0  0
 12 13  1  0  0  0
 13 14  2  0  0  0
 14 15  1  0  0  0
 15 16  1  0  0  0
 16 17  1  0  0  0
 17 18  1  0  0  0
 18 19  1  0  0  0
 19 20  1  0  0  0
 20 21  1  0  0  0
 21 22  1  0  0  0
  1 23  1  0  0  0
  2 24  1  0  0  0
  3 25  1  0  0  0
  4 26  1  0  0  0
  4 27  1  0  0  0
  6 28  1  0  0  0
  7 29  1  0  0  0
  8 30  1  0  0  0
  9 31  1  0  0  0
 10 32  1  0  0  0
 11 33  1  0  0  0
 15 34  1  0  0  0
 15 35  1  0  0  0
 16 36  1  0  0  0
 16 37  1  0  0  0
 17 38  1  0  0  0
 17 39  1  0  0  0
 18 40  1  0  0  0
 18 41  1  0  0  0
 19 42  1  0  0  0
 19 43  1  0  0  0
 20 44  1  0  0  0
 20 45  1  0  0  0
 21 46  1  0  0  0
 21 47  1  0  0  0
 22 48  1  0  0  0
 22 49  1  0  0  0
 22 50  1  0  0  0
M  END
$$$$
