4zwx_ligand
  -I-interpret- 

 69 69  0  0  0  0  0  0  0  0999 V2000
    3.3710    9.5540   81.8260 C   0  0  0  0  0
    3.9330   10.9280   81.9430 C   0  0  0  0  0
    5.2910   11.1350   81.3920 C   0  0  0  0  0
    5.9910   10.0410   80.6100 C   0  0  0  0  0
    6.1880    7.6350   80.5570 C   0  0  0  0  0
    2.9510   11.9130   81.4700 O   0  0  0  0  0
    1.2930   13.6390   82.2750 C   0  0  0  0  0
    2.6190   12.8780   82.4450 C   0  0  0  0  0
    3.3500   13.0990   83.3600 O   0  0  0  0  0
    5.5160   12.5710   80.9980 O   0  0  0  0  0
    5.2070   13.2990   79.8170 C   0  0  0  0  0
    4.5420   12.9070   78.9150 O   0  0  0  0  0
    5.8060   14.7220   79.7690 C   0  0  0  0  0
    6.3920   10.3810   79.2740 O   0  0  0  0  0
    7.7950   10.4040   79.1320 C   0  0  0  0  0
    8.4820   10.3800   80.1050 O   0  0  0  0  0
    8.4180   10.4480   77.7230 C   0  0  0  0  0
    5.2400    8.6820   80.5600 C   0  0  0  0  0
    7.0700    7.8880   81.6460 O   0  0  0  0  0
    8.1710    7.0050   81.6740 C   0  0  0  0  0
    9.0530    7.1100   82.4700 O   0  0  0  0  0
    8.1890    5.8940   80.6290 C   0  0  0  0  0
    4.4720    8.6180   81.8790 O   0  0  0  0  0
    2.5130    9.2550   83.3790 S   0  0  0  0  0
    3.6480    9.5560   84.5160 O   0  0  0  0  0
    1.1690   10.2140   83.4360 O   0  0  0  0  0
    2.0760    7.5780   83.3790 N   0  0  0  0  0
    0.9790    7.4380   82.3940 C   0  0  0  0  0
   -0.3540    7.3180   83.1840 C   0  0  0  0  0
   -0.1850    6.2650   84.3200 C   0  0  0  0  0
   -1.5530    5.6580   84.6820 C   0  0  0  0  0
   -1.4620    4.7510   85.9320 C   0  0  0  0  0
   -1.0070    3.4990   85.4580 O   0  0  0  0  0
   -1.4440    2.1660   86.3500 S   0  0  0  0  0
   -2.8720    2.3210   86.0500 O   0  0  0  0  0
   -0.6350    2.5320   87.6970 O   0  0  0  0  0
   -0.7150    0.8550   85.5480 N   0  0  0  0  0
    2.7628    9.4536   80.9271 H   0  0  0  0  0
    4.1097   11.0828   83.0074 H   0  0  0  0  0
    5.9379   10.9406   82.2475 H   0  0  0  0  0
    6.8912    9.9279   81.2142 H   0  0  0  0  0
    6.7317    7.6024   79.6128 H   0  0  0  0  0
    5.7008    6.6660   80.6653 H   0  0  0  0  0
    0.6616   13.4654   83.1464 H   0  0  0  0  0
    1.4973   14.7054   82.1793 H   0  0  0  0  0
    0.7838   13.2835   81.3792 H   0  0  0  0  0
    6.4579   14.8113   78.9000 H   0  0  0  0  0
    4.9998   15.4520   79.6966 H   0  0  0  0  0
    6.3816   14.9034   80.6767 H   0  0  0  0  0
    9.0294   11.3451   77.6253 H   0  0  0  0  0
    9.0396    9.5651   77.5743 H   0  0  0  0  0
    7.6240   10.4649   76.9764 H   0  0  0  0  0
    4.5998    8.5920   79.6825 H   0  0  0  0  0
    9.0812    5.9930   80.0107 H   0  0  0  0  0
    8.1981    4.9259   81.1299 H   0  0  0  0  0
    7.3006    5.9720   80.0023 H   0  0  0  0  0
    2.4908    6.8367   83.9437 H   0  0  0  0  0
    1.1346    6.5533   81.7766 H   0  0  0  0  0
    0.9509    8.3038   81.7324 H   0  0  0  0  0
   -1.1510    7.0036   82.5101 H   0  0  0  0  0
   -0.6102    8.2848   83.6173 H   0  0  0  0  0
    0.2362    6.7509   85.2001 H   0  0  0  0  0
    0.4804    5.4721   83.9784 H   0  0  0  0  0
   -1.8940    5.0529   83.8420 H   0  0  0  0  0
   -2.2445    6.4725   84.8976 H   0  0  0  0  0
   -2.4264    4.6622   86.4321 H   0  0  0  0  0
   -0.7842    5.1659   86.6780 H   0  0  0  0  0
   -1.2691    0.2649   84.9274 H   0  0  0  0  0
    0.2762    0.6590   85.6877 H   0  0  0  0  0
  1  2  1  0  0  0
  1 23  1  0  0  0
  1 24  1  0  0  0
  2  3  1  0  0  0
  2  6  1  0  0  0
  3  4  1  0  0  0
  3 10  1  0  0  0
  4 14  1  0  0  0
  4 18  1  0  0  0
 18  5  1  0  0  0
  5 19  1  0  0  0
  6  8  1  0  0  0
  8  7  1  0  0  0
  8  9  2  0  0  0
 10 11  1  0  0  0
 11 12  2  0  0  0
 11 13  1  0  0  0
 14 15  1  0  0  0
 15 16  2  0  0  0
 15 17  1  0  0  0
 18 23  1  0  0  0
 19 20  1  0  0  0
 20 21  2  0  0  0
 20 22  1  0  0  0
 24 25  2  0  0  0
 24 26  2  0  0  0
 24 27  1  0  0  0
 27 28  1  0  0  0
 28 29  1  0  0  0
 29 30  1  0  0  0
 30 31  1  0  0  0
 31 32  1  0  0  0
 32 33  1  0  0  0
 33 34  1  0  0  0
 34 35  2  0  0  0
 34 36  2  0  0  0
 34 37  1  0  0  0
  1 38  1  0  0  0
  2 39  1  0  0  0
  3 40  1  0  0  0
  4 41  1  0  0  0
  5 42  1  0  0  0
  5 43  1  0  0  0
  7 44  1  0  0  0
  7 45  1  0  0  0
  7 46  1  0  0  0
 13 47  1  0  0  0
 13 48  1  0  0  0
 13 49  1  0  0  0
 17 50  1  0  0  0
 17 51  1  0  0  0
 17 52  1  0  0  0
 18 53  1  0  0  0
 22 54  1  0  0  0
 22 55  1  0  0  0
 22 56  1  0  0  0
 27 57  1  0  0  0
 28 58  1  0  0  0
 28 59  1  0  0  0
 29 60  1  0  0  0
 29 61  1  0  0  0
 30 62  1  0  0  0
 30 63  1  0  0  0
 31 64  1  0  0  0
 31 65  1  0  0  0
 32 66  1  0  0  0
 32 67  1  0  0  0
 37 68  1  0  0  0
 37 69  1  0  0  0
M  END
$$$$
