2cem_ligand
  -I-interpret- 

 96100  0  0  0  0  0  0  0  0999 V2000
   14.1700   23.0120    5.5050 C   0  0  0  0  0
   14.5110   21.4910    5.2910 C   0  0  0  0  0
   13.5950   20.6500    5.2550 O   0  0  0  0  0
   15.7910   21.0870    5.1640 N   0  0  0  0  0
   16.1520   19.6710    4.9760 C   0  0  0  0  0
   16.1360   19.1610    3.5630 C   0  0  0  0  0
   15.2830   19.5320    2.4720 C   0  0  0  0  0
   15.4860   18.8810    1.2090 C   0  0  0  0  0
   16.5120   17.8900    1.0590 C   0  0  0  0  0
   17.3540   17.5290    2.1640 C   0  0  0  0  0
   17.1400   18.1880    3.4090 C   0  0  0  0  0
   17.8920   17.9870    4.7040 C   0  0  0  0  0
   17.5680   19.2780    5.4960 C   0  0  0  0  0
   18.5520   20.2300    5.1140 O   0  0  0  0  0
   13.9170   23.3220    7.0150 C   0  0  0  0  0
   14.8160   22.6240    8.0270 C   0  0  0  0  0
   14.3030   21.5170    8.7960 C   0  0  0  0  0
   15.1370   20.8470    9.7380 C   0  0  0  0  0
   16.4910   21.2770    9.9200 C   0  0  0  0  0
   17.0070   22.3760    9.1590 C   0  0  0  0  0
   16.1710   23.0510    8.2130 C   0  0  0  0  0
   15.2390   23.8640    5.1170 O   0  0  0  0  0
   12.9050   23.0300    4.5760 C   0  0  0  0  0
   11.9580   24.0570    4.2140 N   0  3  0  0  0
   11.3060   24.8080    5.1770 N   0  0  0  0  0
   11.3830   23.6150    2.9110 C   0  0  0  0  0
   10.4630   24.5590    6.2070 C   0  0  0  0  0
   10.3010   23.4280    6.7000 O   0  0  0  0  0
    9.6980   25.7940    6.7430 C   0  0  0  0  0
    9.6640   26.0380    8.2970 C   0  0  0  0  0
    8.9080   27.3360    8.6760 C   0  0  0  0  0
   11.0650   26.1420    8.9260 C   0  0  0  0  0
    8.3140   25.7110    6.2350 N   0  0  0  0  0
    7.6990   26.6060    5.4450 C   0  0  0  0  0
    8.3060   27.6300    5.0760 O   0  0  0  0  0
    6.4180   26.3340    5.0850 O   0  0  0  0  0
    9.8760   23.4420    2.9570 C   0  0  0  0  0
    9.0330   24.4590    2.4050 C   0  0  0  0  0
    7.6070   24.3290    2.4660 C   0  0  0  0  0
    7.0140   23.1780    3.0890 C   0  0  0  0  0
    9.2900   22.2870    3.5650 C   0  0  0  0  0
    7.8670   22.1590    3.6300 C   0  0  0  0  0
    5.6620   27.2080    4.2510 C   0  0  0  0  0
    8.9020   24.9000    8.9810 C   0  0  0  0  0
    2.6720   22.8880    3.3260 C   0  0  0  0  0
    3.4910   21.8610    3.8780 C   0  0  0  0  0
    4.9130   21.9390    3.8060 C   0  0  0  0  0
    5.5330   23.0630    3.1720 C   0  0  0  0  0
    4.7030   24.0880    2.6230 N   0  0  0  0  0
    3.2790   24.0040    2.6960 C   0  0  0  0  0
   16.5341   21.7848    5.1992 H   0  0  0  0  0
   15.3527   19.2185    5.5630 H   0  0  0  0  0
   14.5048   20.2848    2.5977 H   0  0  0  0  0
   14.8563   19.1414    0.3583 H   0  0  0  0  0
   16.6541   17.4047    0.0934 H   0  0  0  0  0
   18.1328   16.7743    2.0541 H   0  0  0  0  0
   18.9615   17.8396    4.5540 H   0  0  0  0  0
   17.5930   17.0809    5.2309 H   0  0  0  0  0
   17.5748   19.1918    6.5826 H   0  0  0  0  0
   18.3957   21.0547    5.5799 H   0  0  0  0  0
   12.9064   22.9714    7.2245 H   0  0  0  0  0
   14.1076   24.3885    7.1348 H   0  0  0  0  0
   13.2723   21.1910    8.6562 H   0  0  0  0  0
   14.7459   20.0108   10.3175 H   0  0  0  0  0
   17.1310   20.7666   10.6397 H   0  0  0  0  0
   18.0384   22.6988    9.3007 H   0  0  0  0  0
   16.5643   23.8877    7.6356 H   0  0  0  0  0
   15.4425   23.7184    4.1902 H   0  0  0  0  0
   12.2484   22.3924    5.1681 H   0  0  0  0  0
   13.3984   22.9044    3.6122 H   0  0  0  0  0
   12.3571   24.9844    4.0692 H   0  0  0  0  0
   11.5136   25.8027    5.0879 H   0  0  0  0  0
   11.8212   22.6477    2.6654 H   0  0  0  0  0
   11.6069   24.3835    2.1712 H   0  0  0  0  0
   10.2671   26.6494    6.3788 H   0  0  0  0  0
    9.4004   28.1905    8.2117 H   0  0  0  0  0
    7.8789   27.2719    8.3226 H   0  0  0  0  0
    8.9147   27.4557    9.7594 H   0  0  0  0  0
   11.6107   25.2150    8.7498 H   0  0  0  0  0
   11.6042   26.9742    8.4734 H   0  0  0  0  0
   10.9687   26.3102    9.9986 H   0  0  0  0  0
    7.7713   24.8928    6.5115 H   0  0  0  0  0
    9.4779   25.3366    1.9360 H   0  0  0  0  0
    6.9712   25.1046    2.0390 H   0  0  0  0  0
    9.9275   21.5054    3.9783 H   0  0  0  0  0
    7.4257   21.2777    4.0956 H   0  0  0  0  0
    5.5769   28.1829    4.7311 H   0  0  0  0  0
    6.1655   27.3173    3.2905 H   0  0  0  0  0
    4.6674   26.7899    4.0958 H   0  0  0  0  0
    7.8823   24.8653    8.5975 H   0  0  0  0  0
    9.4019   23.9538    8.7739 H   0  0  0  0  0
    8.8812   25.0735   10.0569 H   0  0  0  0  0
    1.5861   22.8163    3.3876 H   0  0  0  0  0
    3.0239   21.0035    4.3622 H   0  0  0  0  0
    5.5262   21.1451    4.2324 H   0  0  0  0  0
    2.6615   24.7944    2.2693 H   0  0  0  0  0
  1  2  1  0  0  0
  1 15  1  0  0  0
  1 22  1  0  0  0
 23  1  1  0  0  0
  2  3  2  0  0  0
  2  4  1  0  0  0
  4  5  1  0  0  0
  5  6  1  0  0  0
  5 13  1  0  0  0
  6  7  4  0  0  0
  6 11  4  0  0  0
  7  8  4  0  0  0
  8  9  4  0  0  0
 10  9  4  0  0  0
 11 10  4  0  0  0
 12 11  1  0  0  0
 13 12  1  0  0  0
 13 14  1  0  0  0
 15 16  1  0  0  0
 16 17  4  0  0  0
 16 21  4  0  0  0
 17 18  4  0  0  0
 18 19  4  0  0  0
 20 19  4  0  0  0
 21 20  4  0  0  0
 24 23  1  0  0  0
 24 25  1  0  0  0
 26 24  1  0  0  0
 25 27  1  0  0  0
 37 26  1  0  0  0
 27 28  2  0  0  0
 27 29  1  0  0  0
 29 30  1  0  0  0
 29 33  1  0  0  0
 30 31  1  0  0  0
 30 32  1  0  0  0
 30 44  1  0  0  0
 33 34  1  0  0  0
 34 35  2  0  0  0
 34 36  1  0  0  0
 36 43  1  0  0  0
 38 37  4  0  0  0
 41 37  4  0  0  0
 39 38  4  0  0  0
 40 39  4  0  0  0
 40 42  4  0  0  0
 48 40  1  0  0  0
 42 41  4  0  0  0
 46 45  4  0  0  0
 45 50  4  0  0  0
 47 46  4  0  0  0
 47 48  4  0  0  0
 48 49  4  0  0  0
 49 50  4  0  0  0
  4 51  1  0  0  0
  5 52  1  0  0  0
  7 53  1  0  0  0
  8 54  1  0  0  0
  9 55  1  0  0  0
 10 56  1  0  0  0
 12 57  1  0  0  0
 12 58  1  0  0  0
 13 59  1  0  0  0
 14 60  1  0  0  0
 15 61  1  0  0  0
 15 62  1  0  0  0
 17 63  1  0  0  0
 18 64  1  0  0  0
 19 65  1  0  0  0
 20 66  1  0  0  0
 21 67  1  0  0  0
 22 68  1  0  0  0
 23 69  1  0  0  0
 23 70  1  0  0  0
 24 71  1  0  0  0
 25 72  1  0  0  0
 26 73  1  0  0  0
 26 74  1  0  0  0
 29 75  1  0  0  0
 31 76  1  0  0  0
 31 77  1  0  0  0
 31 78  1  0  0  0
 32 79  1  0  0  0
 32 80  1  0  0  0
 32 81  1  0  0  0
 33 82  1  0  0  0
 38 83  1  0  0  0
 39 84  1  0  0  0
 41 85  1  0  0  0
 42 86  1  0  0  0
 43 87  1  0  0  0
 43 88  1  0  0  0
 43 89  1  0  0  0
 44 90  1  0  0  0
 44 91  1  0  0  0
 44 92  1  0  0  0
 45 93  1  0  0  0
 46 94  1  0  0  0
 47 95  1  0  0  0
 50 96  1  0  0  0
M  END
$$$$
