### 
### Created by X-TOOL on Mon Sep 10 21:12:56 2018
### 

@<TRIPOS>MOLECULE
2cem_ligand
   96   100     1     0     0
SMALL
GAST_HUCK


@<TRIPOS>ATOM
      1 C1         14.1700   23.0120    5.5050 C.3       1 2AH         0.1955
      2 C2         14.5110   21.4910    5.2910 C.2       1 2AH         0.2370
      3 O3         13.5950   20.6500    5.2550 O.2       1 2AH        -0.3412
      4 N4         15.7910   21.0870    5.1640 N.am      1 2AH        -0.2677
      5 C5         16.1520   19.6710    4.9760 C.3       1 2AH         0.1008
      6 C6         16.1360   19.1610    3.5630 C.ar      1 2AH        -0.0131
      7 C7         15.2830   19.5320    2.4720 C.ar      1 2AH        -0.0646
      8 C8         15.4860   18.8810    1.2090 C.ar      1 2AH        -0.0754
      9 C9         16.5120   17.8900    1.0590 C.ar      1 2AH        -0.0755
     10 C10        17.3540   17.5290    2.1640 C.ar      1 2AH        -0.0667
     11 C11        17.1400   18.1880    3.4090 C.ar      1 2AH        -0.0360
     12 C12        17.8920   17.9870    4.7040 C.3       1 2AH         0.0085
     13 C13        17.5680   19.2780    5.4960 C.3       1 2AH         0.0952
     14 O14        18.5520   20.2300    5.1140 O.3       1 2AH        -0.3856
     15 C24        13.9170   23.3220    7.0150 C.3       1 2AH         0.0222
     16 C25        14.8160   22.6240    8.0270 C.ar      1 2AH        -0.0411
     17 C26        14.3030   21.5170    8.7960 C.ar      1 2AH        -0.0604
     18 C27        15.1370   20.8470    9.7380 C.ar      1 2AH        -0.0686
     19 C28        16.4910   21.2770    9.9200 C.ar      1 2AH        -0.0687
     20 C29        17.0070   22.3760    9.1590 C.ar      1 2AH        -0.0686
     21 C30        16.1710   23.0510    8.2130 C.ar      1 2AH        -0.0604
     22 O36        15.2390   23.8640    5.1170 O.3       1 2AH        -0.3781
     23 C41        12.9050   23.0300    4.5760 C.3       1 2AH         0.0335
     24 N42        11.9580   24.0570    4.2140 N.4       1 2AH         0.3817
     25 N43        11.3060   24.8080    5.1770 N.am      1 2AH        -0.2494
     26 C44        11.3830   23.6150    2.9110 C.3       1 2AH         0.0278
     27 C45        10.4630   24.5590    6.2070 C.2       1 2AH         0.2392
     28 O46        10.3010   23.4280    6.7000 O.2       1 2AH        -0.3898
     29 C47         9.6980   25.7940    6.7430 C.3       1 2AH         0.1419
     30 C48         9.6640   26.0380    8.2970 C.3       1 2AH         0.0027
     31 C49         8.9080   27.3360    8.6760 C.3       1 2AH        -0.0558
     32 C50        11.0650   26.1420    8.9260 C.3       1 2AH        -0.0558
     33 N51         8.3140   25.7110    6.2350 N.am      1 2AH        -0.2405
     34 C54         7.6990   26.6060    5.4450 C.2       1 2AH         0.3216
     35 O55         8.3060   27.6300    5.0760 O.2       1 2AH        -0.3774
     36 O56         6.4180   26.3340    5.0850 O.3       1 2AH        -0.2672
     37 C78         9.8760   23.4420    2.9570 C.ar      1 2AH         0.0049
     38 C79         9.0330   24.4590    2.4050 C.ar      1 2AH        -0.0520
     39 C80         7.6070   24.3290    2.4660 C.ar      1 2AH        -0.0565
     40 C81         7.0140   23.1780    3.0890 C.ar      1 2AH        -0.0068
     41 C82         9.2900   22.2870    3.5650 C.ar      1 2AH        -0.0520
     42 C83         7.8670   22.1590    3.6300 C.ar      1 2AH        -0.0565
     43 C91         5.6620   27.2080    4.2510 C.3       1 2AH         0.0663
     44 C92         8.9020   24.9000    8.9810 C.3       1 2AH        -0.0558
     45 C93         2.6720   22.8880    3.3260 C.ar      1 2AH        -0.0355
     46 C94         3.4910   21.8610    3.8780 C.ar      1 2AH        -0.0433
     47 C95         4.9130   21.9390    3.8060 C.ar      1 2AH        -0.0287
     48 C96         5.5330   23.0630    3.1720 C.ar      1 2AH         0.0481
     49 N97         4.7030   24.0880    2.6230 N.ar      1 2AH        -0.2940
     50 C98         3.2790   24.0040    2.6960 C.ar      1 2AH         0.0086
     51 H1         16.5195   21.7711    5.1986 H         1 2AH         0.1887
     52 H2         15.4079   19.0973    5.5480 H         1 2AH         0.0734
     53 H3         14.5091   20.2806    2.5970 H         1 2AH         0.0538
     54 H4         14.8598   19.1400    0.3629 H         1 2AH         0.0541
     55 H5         16.6534   17.4074    0.0987 H         1 2AH         0.0541
     56 H6         18.1285   16.7785    2.0547 H         1 2AH         0.0537
     57 H7         18.9731   17.8942    4.5236 H         1 2AH         0.0439
     58 H8         17.5313   17.0948    5.2368 H         1 2AH         0.0439
     59 H9         17.5706   19.1221    6.5849 H         1 2AH         0.0659
     60 H10        18.3973   21.0460    5.5750 H         1 2AH         0.2103
     61 H11        12.8791   23.0374    7.2423 H         1 2AH         0.0443
     62 H12        14.0392   24.4061    7.1557 H         1 2AH         0.0443
     63 H13        13.2780   21.1928    8.6569 H         1 2AH         0.0557
     64 H14        14.7480   20.0154   10.3143 H         1 2AH         0.0599
     65 H15        17.1275   20.7694   10.6358 H         1 2AH         0.0559
     66 H16        18.0327   22.6970    9.2999 H         1 2AH         0.0599
     67 H17        16.5621   23.8831    7.6388 H         1 2AH         0.0557
     68 H18        14.9841   24.7698    5.2479 H         1 2AH         0.2083
     69 H19        12.2690   22.2396    5.0012 H         1 2AH         0.0838
     70 H20        13.3011   22.6991    3.6046 H         1 2AH         0.0838
     71 H21        12.5788   24.7832    3.8926 H         1 2AH         0.2321
     72 H22        11.5095   25.7832    5.0897 H         1 2AH         0.2383
     73 H23        11.8382   22.6523    2.6353 H         1 2AH         0.0995
     74 H24        11.6263   24.3679    2.1469 H         1 2AH         0.0995
     75 H25        10.1797   26.6790    6.3017 H         1 2AH         0.0806
     76 H26         8.9141   27.4579    9.7692 H         1 2AH         0.0237
     77 H27         7.8692   27.2726    8.3200 H         1 2AH         0.0237
     78 H28         9.4040   28.1992    8.2081 H         1 2AH         0.0237
     79 H29        11.6437   25.2385    8.6837 H         1 2AH         0.0237
     80 H30        10.9707   26.2351   10.0180 H         1 2AH         0.0237
     81 H31        11.5819   27.0267    8.5258 H         1 2AH         0.0237
     82 H32         7.7820   24.9088    6.5061 H         1 2AH         0.1899
     83 H33         9.4755   25.3318    1.9386 H         1 2AH         0.0567
     84 H34         6.9747   25.1004    2.0414 H         1 2AH         0.0625
     85 H35         9.9240   21.5097    3.9760 H         1 2AH         0.0567
     86 H36         7.4282   21.2826    4.0930 H         1 2AH         0.0625
     87 H37         4.6580   26.7871    4.0936 H         1 2AH         0.0575
     88 H38         6.1691   27.3192    3.2812 H         1 2AH         0.0575
     89 H39         5.5753   28.1923    4.7344 H         1 2AH         0.0575
     90 H40         7.8977   24.8145    8.5405 H         1 2AH         0.0237
     91 H41         8.8137   25.1124   10.0567 H         1 2AH         0.0237
     92 H42         9.4470   23.9554    8.8373 H         1 2AH         0.0237
     93 H43         1.5921   22.8167    3.3872 H         1 2AH         0.0697
     94 H44         3.0264   21.0082    4.3596 H         1 2AH         0.0732
     95 H45         5.5228   21.1495    4.2301 H         1 2AH         0.0706
     96 H46         2.6649   24.7900    2.2716 H         1 2AH         0.0823
@<TRIPOS>BOND
     1    1    2 1  
     2    1   15 1  
     3    1   22 1  
     4   23    1 1  
     5    2    3 2  
     6    2    4 am 
     7    4    5 1  
     8    5    6 1  
     9    5   13 1  
    10    6    7 ar 
    11    6   11 ar 
    12    7    8 ar 
    13    8    9 ar 
    14   10    9 ar 
    15   11   10 ar 
    16   12   11 1  
    17   13   12 1  
    18   13   14 1  
    19   15   16 1  
    20   16   17 ar 
    21   16   21 ar 
    22   17   18 ar 
    23   18   19 ar 
    24   20   19 ar 
    25   21   20 ar 
    26   24   23 1  
    27   24   25 1  
    28   26   24 1  
    29   25   27 am 
    30   37   26 1  
    31   27   28 2  
    32   27   29 1  
    33   29   30 1  
    34   29   33 1  
    35   30   31 1  
    36   30   32 1  
    37   30   44 1  
    38   33   34 am 
    39   34   35 2  
    40   34   36 1  
    41   36   43 1  
    42   38   37 ar 
    43   41   37 ar 
    44   39   38 ar 
    45   40   39 ar 
    46   40   42 ar 
    47   48   40 1  
    48   42   41 ar 
    49   46   45 ar 
    50   45   50 ar 
    51   47   46 ar 
    52   47   48 ar 
    53   48   49 ar 
    54   49   50 ar 
    55    4   51 1  
    56    5   52 1  
    57    7   53 1  
    58    8   54 1  
    59    9   55 1  
    60   10   56 1  
    61   12   57 1  
    62   12   58 1  
    63   13   59 1  
    64   14   60 1  
    65   15   61 1  
    66   15   62 1  
    67   17   63 1  
    68   18   64 1  
    69   19   65 1  
    70   20   66 1  
    71   21   67 1  
    72   22   68 1  
    73   23   69 1  
    74   23   70 1  
    75   24   71 1  
    76   25   72 1  
    77   26   73 1  
    78   26   74 1  
    79   29   75 1  
    80   31   76 1  
    81   31   77 1  
    82   31   78 1  
    83   32   79 1  
    84   32   80 1  
    85   32   81 1  
    86   33   82 1  
    87   38   83 1  
    88   39   84 1  
    89   41   85 1  
    90   42   86 1  
    91   43   87 1  
    92   43   88 1  
    93   43   89 1  
    94   44   90 1  
    95   44   91 1  
    96   44   92 1  
    97   45   93 1  
    98   46   94 1  
    99   47   95 1  
   100   50   96 1  
@<TRIPOS>SUBSTRUCTURE
     1 2AH         1

