6g29_ligand
  -I-interpret- 

 41 43  0  0  0  0  0  0  0  0999 V2000
   -4.8370    5.7900  -20.5300 C   0  0  0  0  0
   -3.4860    8.1680  -19.9990 C   0  0  0  0  0
   -1.4560    9.5770  -19.5820 C   0  0  0  0  0
   -1.5700   11.9720  -19.6500 N   0  0  0  0  0
   -2.8720   11.8630  -19.9370 C   0  0  0  0  0
   -5.3010    6.7610  -22.7950 C   0  0  0  0  0
   -4.9070    7.0680  -25.2440 C   0  0  0  0  0
   -6.4850    7.7240  -22.8770 C   0  0  0  0  0
   -2.9940    7.3540  -17.5660 C   0  0  0  0  0
   -3.5560    7.1480  -18.9470 C   0  0  0  0  0
   -4.2420    6.0190  -19.2460 C   0  0  0  0  0
   -5.4230    4.7580  -20.8490 O   0  0  0  0  0
   -4.6880    6.8120  -21.4490 N   0  0  0  0  0
   -4.0280    7.9880  -21.1700 N   0  0  0  0  0
   -2.8230    9.4800  -19.8200 C   0  0  0  0  0
   -0.8800   10.8330  -19.5160 C   0  0  0  0  0
   -3.5390   10.6550  -20.0200 C   0  0  0  0  0
   -4.2620    7.0720  -23.8710 C   0  0  0  0  0
   -6.0450    8.0310  -25.2890 N   0  3  0  0  0
   -7.0850    7.7110  -24.2700 C   0  0  0  0  0
   -0.8502    8.6805  -19.4500 H   0  0  0  0  0
   -3.4383   12.7772  -20.1153 H   0  0  0  0  0
   -5.6727    5.7516  -22.9712 H   0  0  0  0  0
   -5.2817    6.0667  -25.4564 H   0  0  0  0  0
   -4.1641    7.3626  -25.9852 H   0  0  0  0  0
   -6.1378    8.7321  -22.6504 H   0  0  0  0  0
   -7.2454    7.4120  -22.1610 H   0  0  0  0  0
   -1.9231    7.5447  -17.6357 H   0  0  0  0  0
   -3.4865    8.2064  -17.0981 H   0  0  0  0  0
   -3.1669    6.4595  -16.9676 H   0  0  0  0  0
   -3.4826    5.2399  -19.1797 H   0  0  0  0  0
   -5.1011    6.0636  -18.5766 H   0  0  0  0  0
   -3.9635    8.7177  -21.8797 H   0  0  0  0  0
    0.1946   10.8987  -19.3455 H   0  0  0  0  0
   -4.6065   10.6242  -20.2382 H   0  0  0  0  0
   -3.4820    6.3111  -23.8425 H   0  0  0  0  0
   -3.8372    8.0576  -23.6807 H   0  0  0  0  0
   -6.4745    7.9755  -26.2125 H   0  0  0  0  0
   -5.6822    8.9640  -25.0935 H   0  0  0  0  0
   -7.8749    8.4603  -24.3225 H   0  0  0  0  0
   -7.4867    6.7184  -24.4734 H   0  0  0  0  0
 11  1  1  0  0  0
  1 12  2  0  0  0
  1 13  1  0  0  0
 10  2  2  0  0  0
  2 14  1  0  0  0
  2 15  1  0  0  0
 15  3  4  0  0  0
  3 16  4  0  0  0
  4  5  4  0  0  0
 16  4  4  0  0  0
  5 17  4  0  0  0
  6  8  1  0  0  0
 13  6  1  0  0  0
  6 18  1  0  0  0
 18  7  1  0  0  0
  7 19  1  0  0  0
  8 20  1  0  0  0
 10  9  1  0  0  0
 10 11  1  0  0  0
 13 14  1  0  0  0
 15 17  4  0  0  0
 19 20  1  0  0  0
  3 21  1  0  0  0
  5 22  1  0  0  0
  6 23  1  0  0  0
  7 24  1  0  0  0
  7 25  1  0  0  0
  8 26  1  0  0  0
  8 27  1  0  0  0
  9 28  1  0  0  0
  9 29  1  0  0  0
  9 30  1  0  0  0
 11 31  1  0  0  0
 11 32  1  0  0  0
 14 33  1  0  0  0
 16 34  1  0  0  0
 17 35  1  0  0  0
 18 36  1  0  0  0
 18 37  1  0  0  0
 19 38  1  0  0  0
 19 39  1  0  0  0
 20 40  1  0  0  0
 20 41  1  0  0  0
M  END
$$$$
