6oiq_ligand
  -I-interpret- 

 41 43  0  0  0  0  0  0  0  0999 V2000
   -5.1880  -10.8180   17.9100 C   0  0  0  0  0
   -5.9960  -11.9260   18.2720 C   0  0  0  0  0
   -7.3300  -13.8730   17.5620 C   0  0  0  0  0
   -6.4850  -12.7690   17.3150 C   0  0  0  0  0
   -6.2660  -12.1540   19.6740 C   0  0  0  0  0
   -7.1060  -13.2600   19.9120 C   0  0  0  0  0
   -7.6710  -14.1350   18.9370 C   0  0  0  0  0
   -7.7900  -14.7320   16.5300 C   0  0  0  0  0
   -8.6570  -16.5450   14.4860 C   0  0  0  0  0
   -8.1540  -17.0410   15.7080 C   0  0  0  0  0
   -7.7990  -16.1220   16.7220 C   0  0  0  0  0
   -8.6940  -15.1460   14.2840 C   0  0  0  0  0
   -8.2200  -14.2590   15.2770 C   0  0  0  0  0
   -6.1550  -12.4540   15.9310 F   0  0  0  0  0
   -5.5140   -9.9880   17.0420 O   0  0  0  0  0
   -4.0990  -10.6640   18.6860 N   0  0  0  0  0
   -3.1730   -9.5880   18.3490 N   0  0  0  0  0
   -3.3240   -8.1790   19.3780 S   0  0  0  0  0
   -2.5470   -7.0880   18.8470 O   0  0  0  0  0
   -4.7530   -7.7710   19.7310 O   0  0  0  0  0
   -2.6260   -8.5570   21.0270 C   0  0  0  0  0
   -3.2640   -9.5190   21.8020 C   0  0  0  0  0
   -2.7630   -9.7840   23.0830 C   0  0  0  0  0
   -1.5610   -9.1410   23.4120 C   0  0  0  0  0
   -0.9430   -8.1650   22.6130 C   0  0  0  0  0
   -1.4840   -7.8340   21.3460 C   0  0  0  0  0
   -5.8590  -11.5305   20.4700 H   0  0  0  0  0
   -7.3505  -13.4697   20.9533 H   0  0  0  0  0
   -8.3268  -14.9591   19.2179 H   0  0  0  0  0
   -9.0102  -17.2274   13.7128 H   0  0  0  0  0
   -8.0413  -18.1134   15.8671 H   0  0  0  0  0
   -7.5187  -16.5121   17.7004 H   0  0  0  0  0
   -9.0928  -14.7469   13.3514 H   0  0  0  0  0
   -8.1871  -13.1897   15.0682 H   0  0  0  0  0
   -3.9271  -11.2782   19.4820 H   0  0  0  0  0
   -2.5001   -9.6506   17.5850 H   0  0  0  0  0
   -4.1338  -10.0545   21.4216 H   0  0  0  0  0
   -3.2749  -10.4478   23.7798 H   0  0  0  0  0
   -1.0750   -9.4163   24.3480 H   0  0  0  0  0
   -0.0445   -7.6607   22.9687 H   0  0  0  0  0
   -1.0465   -7.0849   20.6860 H   0  0  0  0  0
  2  1  1  0  0  0
  1 15  2  0  0  0
  1 16  1  0  0  0
  4  2  4  0  0  0
  2  5  4  0  0  0
  3  4  4  0  0  0
  3  7  4  0  0  0
  8  3  1  0  0  0
  4 14  1  0  0  0
  6  5  4  0  0  0
  7  6  4  0  0  0
 11  8  4  0  0  0
  8 13  4  0  0  0
 10  9  4  0  0  0
  9 12  4  0  0  0
 10 11  4  0  0  0
 12 13  4  0  0  0
 16 17  1  0  0  0
 17 18  1  0  0  0
 18 19  2  0  0  0
 18 20  2  0  0  0
 18 21  1  0  0  0
 21 22  4  0  0  0
 21 26  4  0  0  0
 22 23  4  0  0  0
 23 24  4  0  0  0
 24 25  4  0  0  0
 25 26  4  0  0  0
  5 27  1  0  0  0
  6 28  1  0  0  0
  7 29  1  0  0  0
  9 30  1  0  0  0
 10 31  1  0  0  0
 11 32  1  0  0  0
 12 33  1  0  0  0
 13 34  1  0  0  0
 16 35  1  0  0  0
 17 36  1  0  0  0
 22 37  1  0  0  0
 23 38  1  0  0  0
 24 39  1  0  0  0
 25 40  1  0  0  0
 26 41  1  0  0  0
M  END
$$$$
