3zlv_ligand
  -I-interpret- 

 23 23  0  0  0  0  0  0  0  0999 V2000
   38.0160   19.1120    9.8320 O   0  0  0  0  0
   38.0310   20.2490   10.2740 C   0  0  0  0  0
   39.0650   20.6880   10.9880 N   0  0  0  0  0
   36.8650   21.1730   10.0470 C   0  0  0  0  0
   36.7570   22.3330   10.7990 C   0  0  0  0  0
   35.6810   23.1910   10.5970 C   0  0  0  0  0
   34.7370   22.9020    9.6910 N   0  0  0  0  0
   34.8180   21.7830    8.9480 C   0  0  0  0  0
   35.8810   20.8920    9.1060 C   0  0  0  0  0
   33.6160   23.8350    9.5210 C   0  0  0  0  0
   32.3970   23.0990    9.6350 O   0  0  0  0  0
   31.2530   23.9200    9.8780 C   0  0  0  0  0
   39.8568   20.0716   11.1711 H   0  0  0  0  0
   39.0656   21.6408   11.3521 H   0  0  0  0  0
   37.5134   22.5719   11.5466 H   0  0  0  0  0
   35.6049   24.1078   11.1817 H   0  0  0  0  0
   34.0426   21.5693    8.2123 H   0  0  0  0  0
   35.9387   19.9880    8.4997 H   0  0  0  0  0
   33.6733   24.3134    8.5433 H   0  0  0  0  0
   33.6567   24.6108   10.2856 H   0  0  0  0  0
   31.3916   24.4673   10.8104 H   0  0  0  0  0
   31.1322   24.6252    9.0557 H   0  0  0  0  0
   30.3656   23.2915    9.9527 H   0  0  0  0  0
  1  2  2  0  0  0
  2  3  1  0  0  0
  2  4  1  0  0  0
  4  5  4  0  0  0
  4  9  4  0  0  0
  5  6  4  0  0  0
  6  7  4  0  0  0
  7  8  4  0  0  0
  7 10  1  0  0  0
  8  9  4  0  0  0
 10 11  1  0  0  0
 11 12  1  0  0  0
  3 13  1  0  0  0
  3 14  1  0  0  0
  5 15  1  0  0  0
  6 16  1  0  0  0
  8 17  1  0  0  0
  9 18  1  0  0  0
 10 19  1  0  0  0
 10 20  1  0  0  0
 12 21  1  0  0  0
 12 22  1  0  0  0
 12 23  1  0  0  0
M  END
$$$$
