3qtv_ligand
  -I-interpret- 

 55 57  0  0  0  0  0  0  0  0999 V2000
   16.3240  -15.5750   23.1220 N   0  3  0  0  0
   17.5740  -14.8360   23.1290 C   0  0  0  0  0
   17.3340  -13.4700   22.5350 C   0  0  0  0  0
   16.4020  -12.7660   22.9200 O   0  0  0  0  0
   18.0670  -14.7750   24.5810 C   0  0  0  0  0
   19.4860  -14.2600   24.6610 C   0  0  0  0  0
   19.7430  -13.0940   25.3650 C   0  0  0  0  0
   20.5370  -14.9340   24.0400 C   0  0  0  0  0
   21.0300  -12.5830   25.4470 C   0  0  0  0  0
   21.8300  -14.4270   24.1340 C   0  0  0  0  0
   22.0810  -13.2550   24.8330 C   0  0  0  0  0
   18.1550  -13.0590   21.5740 N   0  0  0  0  0
   17.9440  -11.7490   20.9560 C   0  0  0  0  0
   16.5540  -11.6290   20.3890 C   0  0  0  0  0
   16.0470  -12.5660   19.7770 O   0  0  0  0  0
   18.9730  -11.7000   19.8310 C   0  0  0  0  0
   20.0360  -12.7230   20.2060 C   0  0  0  0  0
   19.2970  -13.7850   21.0070 C   0  0  0  0  0
   15.9050  -10.4820   20.5940 N   0  0  0  0  0
   14.5420  -10.2290   20.0990 C   0  0  0  0  0
   13.5360  -10.4590   21.2090 C   0  0  0  0  0
   13.2030   -9.4420   22.1000 C   0  0  0  0  0
   12.2790   -9.6970   23.1090 C   0  0  0  0  0
   11.7190  -10.9100   23.2440 N   0  0  0  0  0
   10.7470  -11.1450   24.3190 C   0  0  0  0  0
   12.0350  -11.9080   22.4010 C   0  0  0  0  0
   12.9460  -11.7040   21.3730 C   0  0  0  0  0
   15.9699  -15.6328   22.1672 H   0  0  0  0  0
   16.4841  -16.5151   23.4840 H   0  0  0  0  0
   15.6430  -15.0944   23.7099 H   0  0  0  0  0
   18.3439  -15.3167   22.5255 H   0  0  0  0  0
   18.0403  -15.7817   24.9980 H   0  0  0  0  0
   17.4207  -14.0963   25.1376 H   0  0  0  0  0
   18.9240  -12.5723   25.8601 H   0  0  0  0  0
   20.3472  -15.8523   23.4843 H   0  0  0  0  0
   21.2168  -11.6573   25.9912 H   0  0  0  0  0
   22.6533  -14.9559   23.6538 H   0  0  0  0  0
   23.0960  -12.8635   24.9004 H   0  0  0  0  0
   18.0522  -10.9361   21.6741 H   0  0  0  0  0
   19.3994  -10.7026   19.7233 H   0  0  0  0  0
   18.5207  -11.9298   18.8662 H   0  0  0  0  0
   20.8441  -12.2725   20.7823 H   0  0  0  0  0
   20.5184  -13.1453   19.3245 H   0  0  0  0  0
   18.9890  -14.6308   20.3923 H   0  0  0  0  0
   19.9240  -14.2392   21.7742 H   0  0  0  0  0
   16.3756   -9.7449   21.1189 H   0  0  0  0  0
   14.3280  -10.9092   19.2746 H   0  0  0  0  0
   14.4702   -9.1960   19.7585 H   0  0  0  0  0
   13.6609   -8.4571   22.0082 H   0  0  0  0  0
   12.0057   -8.8998   23.8003 H   0  0  0  0  0
   11.2214  -10.9601   25.2828 H   0  0  0  0  0
    9.8995  -10.4710   24.1945 H   0  0  0  0  0
   10.4011  -12.1777   24.2750 H   0  0  0  0  0
   11.5718  -12.8868   22.5255 H   0  0  0  0  0
   13.1971  -12.5206   20.6961 H   0  0  0  0  0
  1  2  1  0  0  0
  2  3  1  0  0  0
  2  5  1  0  0  0
  3  4  2  0  0  0
  3 12  1  0  0  0
  5  6  1  0  0  0
  6  7  4  0  0  0
  6  8  4  0  0  0
  7  9  4  0  0  0
  8 10  4  0  0  0
  9 11  4  0  0  0
 10 11  4  0  0  0
 12 13  1  0  0  0
 12 18  1  0  0  0
 13 14  1  0  0  0
 13 16  1  0  0  0
 14 15  2  0  0  0
 14 19  1  0  0  0
 16 17  1  0  0  0
 17 18  1  0  0  0
 19 20  1  0  0  0
 20 21  1  0  0  0
 21 22  4  0  0  0
 21 27  4  0  0  0
 22 23  4  0  0  0
 23 24  4  0  0  0
 24 25  1  0  0  0
 24 26  4  0  0  0
 26 27  4  0  0  0
  1 28  1  0  0  0
  1 29  1  0  0  0
  1 30  1  0  0  0
  2 31  1  0  0  0
  5 32  1  0  0  0
  5 33  1  0  0  0
  7 34  1  0  0  0
  8 35  1  0  0  0
  9 36  1  0  0  0
 10 37  1  0  0  0
 11 38  1  0  0  0
 13 39  1  0  0  0
 16 40  1  0  0  0
 16 41  1  0  0  0
 17 42  1  0  0  0
 17 43  1  0  0  0
 18 44  1  0  0  0
 18 45  1  0  0  0
 19 46  1  0  0  0
 20 47  1  0  0  0
 20 48  1  0  0  0
 22 49  1  0  0  0
 23 50  1  0  0  0
 25 51  1  0  0  0
 25 52  1  0  0  0
 25 53  1  0  0  0
 26 54  1  0  0  0
 27 55  1  0  0  0
M  END
$$$$
