2x0y_ligand
  -I-interpret- 

 32 33  0  0  0  0  0  0  0  0999 V2000
   35.6110   47.2310   22.1750 C   0  0  0  0  0
   35.2800   45.7690   22.2350 N   0  0  0  0  0
   36.2860   44.8090   22.1740 C   0  0  0  0  0
   37.4510   45.2020   22.0710 O   0  0  0  0  0
   35.9690   43.4200   22.2160 N   0  0  0  0  0
   37.0540   42.4090   22.1670 C   0  0  0  0  0
   34.6280   43.0120   22.3280 C   0  0  0  0  0
   34.3300   41.8080   22.3740 O   0  0  0  0  0
   33.6310   43.9970   22.3900 C   0  0  0  0  0
   33.9440   45.3540   22.3460 C   0  0  0  0  0
   32.8030   46.0490   22.4350 N   0  0  0  0  0
   31.7940   45.1740   22.5430 C   0  0  0  0  0
   32.3080   43.9460   22.5120 N   0  0  0  0  0
   31.5640   42.6810   22.5950 C   0  0  0  0  0
   30.0650   42.8360   22.6760 C   0  0  0  0  0
   29.7180   43.4200   23.9320 O   0  0  0  0  0
   29.4630   41.4380   22.5790 C   0  0  0  0  0
   28.1560   41.5710   22.0600 O   0  0  0  0  0
   35.1238   47.6772   21.3080 H   0  0  0  0  0
   35.2581   47.7197   23.0832 H   0  0  0  0  0
   36.6907   47.3546   22.0904 H   0  0  0  0  0
   37.0359   41.8139   23.0800 H   0  0  0  0  0
   36.9044   41.7588   21.3050 H   0  0  0  0  0
   38.0159   42.9142   22.0801 H   0  0  0  0  0
   30.7374   45.4237   22.6394 H   0  0  0  0  0
   31.8820   42.1852   23.5122 H   0  0  0  0  0
   31.7770   42.1268   21.6809 H   0  0  0  0  0
   29.6921   43.4761   21.8765 H   0  0  0  0  0
   28.7646   43.5192   23.9850 H   0  0  0  0  0
   29.4359   40.9667   23.5614 H   0  0  0  0  0
   30.0684   40.8076   21.9277 H   0  0  0  0  0
   27.7517   40.7033   21.9879 H   0  0  0  0  0
  1  2  1  0  0  0
  2  3  1  0  0  0
  2 10  1  0  0  0
  3  4  2  0  0  0
  3  5  1  0  0  0
  5  6  1  0  0  0
  5  7  1  0  0  0
  7  8  2  0  0  0
  7  9  1  0  0  0
  9 10  4  0  0  0
  9 13  4  0  0  0
 10 11  4  0  0  0
 11 12  4  0  0  0
 12 13  4  0  0  0
 13 14  1  0  0  0
 14 15  1  0  0  0
 15 16  1  0  0  0
 15 17  1  0  0  0
 17 18  1  0  0  0
  1 19  1  0  0  0
  1 20  1  0  0  0
  1 21  1  0  0  0
  6 22  1  0  0  0
  6 23  1  0  0  0
  6 24  1  0  0  0
 12 25  1  0  0  0
 14 26  1  0  0  0
 14 27  1  0  0  0
 15 28  1  0  0  0
 16 29  1  0  0  0
 17 30  1  0  0  0
 17 31  1  0  0  0
 18 32  1  0  0  0
M  END
$$$$
