6mlj_ligand
  -I-interpret- 

 27 26  0  0  0  0  0  0  0  0999 V2000
   15.7980  -11.9580   38.8010 N   0  3  0  0  0
   16.6280  -11.8150   39.9570 C   0  0  0  0  0
   15.8160  -12.4260   41.1030 C   0  0  0  0  0
   14.5770  -12.7610   40.8340 O   0  0  0  0  0
   17.0650  -10.3550   40.2400 C   0  0  0  0  0
   15.9740   -9.2790   40.0810 C   0  0  0  0  0
   15.9840   -7.9020   40.8470 C   0  0  0  0  0
   14.8870   -6.9920   40.4570 N   0  0  0  0  0
   14.7200   -5.7090   40.8210 C   0  0  0  0  0
   15.6110   -5.1100   41.6010 N   0  0  0  0  0
   13.6820   -5.0000   40.3740 N   0  0  0  0  0
   16.3290  -12.5470   42.1770 O   0  0  0  0  0
   15.5522  -12.9405   38.6798 H   0  0  0  0  0
   14.9488  -11.4064   38.9233 H   0  0  0  0  0
   16.3032  -11.6287   37.9784 H   0  0  0  0  0
   17.5811  -12.3246   39.8160 H   0  0  0  0  0
   14.3892  -12.5738   39.9113 H   0  0  0  0  0
   17.8359  -10.1192   39.5064 H   0  0  0  0  0
   17.3733  -10.3255   41.2851 H   0  0  0  0  0
   15.0877   -9.7719   40.4805 H   0  0  0  0  0
   16.0815   -8.9773   39.0391 H   0  0  0  0  0
   16.9217   -7.4024   40.6036 H   0  0  0  0  0
   15.8624   -8.1203   41.9080 H   0  0  0  0  0
   14.1744   -7.3825   39.8405 H   0  0  0  0  0
   16.4292   -5.6235   41.9284 H   0  0  0  0  0
   13.5856   -4.0182   40.6331 H   0  0  0  0  0
   12.9848   -5.4398   39.7732 H   0  0  0  0  0
  1  2  1  0  0  0
  2  3  1  0  0  0
  2  5  1  0  0  0
  3  4  1  0  0  0
  3 12  2  0  0  0
  5  6  1  0  0  0
  6  7  1  0  0  0
  7  8  1  0  0  0
  8  9  1  0  0  0
  9 10  2  0  0  0
  9 11  1  0  0  0
  1 13  1  0  0  0
  1 14  1  0  0  0
  1 15  1  0  0  0
  2 16  1  0  0  0
  4 17  1  0  0  0
  5 18  1  0  0  0
  5 19  1  0  0  0
  6 20  1  0  0  0
  6 21  1  0  0  0
  7 22  1  0  0  0
  7 23  1  0  0  0
  8 24  1  0  0  0
 10 25  1  0  0  0
 11 26  1  0  0  0
 11 27  1  0  0  0
M  END
$$$$
