3g32_ligand
  -I-interpret- 

 26 28  0  0  0  0  0  0  0  0999 V2000
   -7.7350   53.9950   13.2500 O   0  0  0  0  0
   -7.3260   53.0940   12.4250 C   0  0  0  0  0
   -7.9970   52.8120   11.2360 C   0  0  0  0  0
   -9.1490   53.3180   10.6420 C   0  0  0  0  0
   -9.5370   52.7800    9.4090 C   0  0  0  0  0
   -8.7920   51.7610    8.7970 C   0  0  0  0  0
   -7.6360   51.2570    9.4020 C   0  0  0  0  0
   -7.2690   51.8090   10.6250 C   0  0  0  0  0
   -6.2170   52.3620   12.6480 N   0  0  0  0  0
   -6.1580   51.5730   11.5730 C   0  0  0  0  0
   -5.2330   50.7050   11.3780 O   0  0  0  0  0
   -5.2910   52.4130   13.7780 C   0  0  0  0  0
   -4.5370   53.7330   13.7410 C   0  0  0  0  0
   -3.2710   53.5700   12.9400 C   0  0  0  0  0
   -2.0790   53.2470   13.4660 N   0  0  0  0  0
   -1.1370   53.1710   12.4390 N   0  0  0  0  0
   -1.7930   53.4770   11.2490 N   0  0  0  0  0
   -3.1300   53.7070   11.6000 N   0  0  0  0  0
   -9.7298   54.1066   11.1204 H   0  0  0  0  0
  -10.4325   53.1591    8.9166 H   0  0  0  0  0
   -9.1179   51.3571    7.8385 H   0  0  0  0  0
   -7.0484   50.4663    8.9356 H   0  0  0  0  0
   -4.5855   51.5847   13.7127 H   0  0  0  0  0
   -5.8466   52.3331   14.7124 H   0  0  0  0  0
   -4.2858   54.0352   14.7577 H   0  0  0  0  0
   -5.1634   54.4949   13.2771 H   0  0  0  0  0
  1  2  2  0  0  0
  2  3  1  0  0  0
  2  9  1  0  0  0
  3  4  4  0  0  0
  3  8  4  0  0  0
  4  5  4  0  0  0
  5  6  4  0  0  0
  6  7  4  0  0  0
  7  8  4  0  0  0
  8 10  1  0  0  0
  9 10  1  0  0  0
  9 12  1  0  0  0
 10 11  2  0  0  0
 12 13  1  0  0  0
 13 14  1  0  0  0
 14 15  4  0  0  0
 14 18  4  0  0  0
 15 16  4  0  0  0
 16 17  4  0  0  0
 17 18  4  0  0  0
  4 19  1  0  0  0
  5 20  1  0  0  0
  6 21  1  0  0  0
  7 22  1  0  0  0
 12 23  1  0  0  0
 12 24  1  0  0  0
 13 25  1  0  0  0
 13 26  1  0  0  0
M  END
$$$$
