6i8y_ligand
  -I-interpret- 

 52 55  0  0  0  0  0  0  0  0999 V2000
   36.3340  -12.8390  -15.3580 N   0  3  0  0  0
   37.4930   -4.1310  -19.0130 N   0  0  0  0  0
   38.1350   -7.5980  -17.9260 C   0  0  0  0  0
   36.7180   -7.5550  -18.1640 C   0  0  0  0  0
   35.8840   -8.6650  -17.9860 C   0  0  0  0  0
   36.5580   -9.8110  -17.5650 C   0  0  0  0  0
   34.5230  -10.9320  -16.9910 C   0  0  0  0  0
   35.1420  -12.5460  -15.0550 C   0  0  0  0  0
   38.0790  -14.1320  -14.5460 C   0  0  0  0  0
   37.5070   -5.3960  -18.6620 C   0  0  0  0  0
   39.6670   -5.6160  -17.2250 C   0  0  0  0  0
   38.6330   -6.2050  -18.1790 C   0  0  0  0  0
   39.6140   -6.0560  -19.3180 C   0  0  0  0  0
   40.7030   -5.7580  -18.3110 C   0  0  0  0  0
   38.7660   -8.7210  -17.4590 C   0  0  0  0  0
   36.3190   -6.1980  -18.6050 N   0  0  0  0  0
   37.9220   -9.8940  -17.2740 C   0  0  0  0  0
   38.3480  -11.0910  -16.7990 O   0  0  0  0  0
   39.7500  -11.2210  -16.5610 C   0  0  0  0  0
   35.9170  -11.0340  -17.2590 O   0  0  0  0  0
   34.1970  -12.2130  -16.2040 C   0  0  0  0  0
   36.9720  -13.0880  -14.2420 C   0  0  0  0  0
   37.7490  -14.6230  -15.9030 C   0  0  0  0  0
   36.4900  -14.2010  -16.1360 C   0  0  0  0  0
   36.6714  -12.0606  -15.9243 H   0  0  0  0  0
   38.3496   -3.5793  -18.9664 H   0  0  0  0  0
   34.8084   -8.6363  -18.1602 H   0  0  0  0  0
   33.9331  -10.8480  -17.9038 H   0  0  0  0  0
   34.2762  -10.0303  -16.4306 H   0  0  0  0  0
   35.2029  -11.6423  -14.4486 H   0  0  0  0  0
   34.7291  -13.4352  -14.5786 H   0  0  0  0  0
   38.1003  -14.9362  -13.8105 H   0  0  0  0  0
   39.0783  -13.6996  -14.4958 H   0  0  0  0  0
   39.8292   -6.0546  -16.2404 H   0  0  0  0  0
   39.4947   -4.6538  -16.7426 H   0  0  0  0  0
   39.4118   -5.3637  -20.1352 H   0  0  0  0  0
   39.7395   -6.8555  -20.0482 H   0  0  0  0  0
   41.5310   -6.4555  -18.1840 H   0  0  0  0  0
   41.4087   -4.9485  -18.4977 H   0  0  0  0  0
   39.8336   -8.7358  -17.2395 H   0  0  0  0  0
   35.3723   -5.8902  -18.8275 H   0  0  0  0  0
   40.2919  -11.0603  -17.4930 H   0  0  0  0  0
   40.0626  -10.4801  -15.8251 H   0  0  0  0  0
   39.9620  -12.2214  -16.1838 H   0  0  0  0  0
   34.2731  -13.0372  -16.9132 H   0  0  0  0  0
   33.2142  -12.0584  -15.7587 H   0  0  0  0  0
   36.2827  -13.4770  -13.4926 H   0  0  0  0  0
   37.4148  -12.1729  -13.8488 H   0  0  0  0  0
   37.8274  -15.7082  -15.9677 H   0  0  0  0  0
   38.4455  -14.2405  -16.6491 H   0  0  0  0  0
   36.3105  -14.0678  -17.2028 H   0  0  0  0  0
   35.7594  -14.9348  -15.7955 H   0  0  0  0  0
  8  1  1  0  0  0
  1 22  1  0  0  0
  1 24  1  0  0  0
 10  2  2  0  0  0
  3  4  4  0  0  0
 12  3  1  0  0  0
  3 15  4  0  0  0
  4  5  4  0  0  0
  4 16  1  0  0  0
  5  6  4  0  0  0
  6 17  4  0  0  0
  6 20  1  0  0  0
 20  7  1  0  0  0
  7 21  1  0  0  0
 21  8  1  0  0  0
 22  9  1  0  0  0
  9 23  1  0  0  0
 10 12  1  0  0  0
 10 16  1  0  0  0
 12 11  1  0  0  0
 11 14  1  0  0  0
 12 13  1  0  0  0
 13 14  1  0  0  0
 15 17  4  0  0  0
 17 18  1  0  0  0
 18 19  1  0  0  0
 23 24  1  0  0  0
  1 25  1  0  0  0
  2 26  1  0  0  0
  5 27  1  0  0  0
  7 28  1  0  0  0
  7 29  1  0  0  0
  8 30  1  0  0  0
  8 31  1  0  0  0
  9 32  1  0  0  0
  9 33  1  0  0  0
 11 34  1  0  0  0
 11 35  1  0  0  0
 13 36  1  0  0  0
 13 37  1  0  0  0
 14 38  1  0  0  0
 14 39  1  0  0  0
 15 40  1  0  0  0
 16 41  1  0  0  0
 19 42  1  0  0  0
 19 43  1  0  0  0
 19 44  1  0  0  0
 21 45  1  0  0  0
 21 46  1  0  0  0
 22 47  1  0  0  0
 22 48  1  0  0  0
 23 49  1  0  0  0
 23 50  1  0  0  0
 24 51  1  0  0  0
 24 52  1  0  0  0
M  END
$$$$
