3juo_ligand
  -I-interpret- 

 33 34  0  0  0  0  0  0  0  0999 V2000
   46.0170   -4.4040   93.0130 O   0  0  0  0  0
   44.0180   -4.2730   92.3020 O   0  0  0  0  0
   48.3370    0.3930   93.7750 Br  0  0  0  0  0
   45.3940    0.4840   93.4910 C   0  0  0  0  0
   44.1290   -0.0540   93.2690 C   0  0  0  0  0
   46.4280   -1.7090   93.2330 C   0  0  0  0  0
   39.1160   -1.6360   92.4640 C   0  0  0  0  0
   39.0140   -0.8880   91.1380 C   0  0  0  0  0
   40.4580   -2.3450   92.5620 C   0  0  0  0  0
   41.4870   -0.4080   91.3180 C   0  0  0  0  0
   40.1170    0.0840   91.0420 N   0  3  0  0  0
   42.8190   -2.0130   92.7670 N   0  0  0  0  0
   45.0580   -3.7380   92.7210 C   0  0  0  0  0
   46.5510   -0.3440   93.4730 C   0  0  0  0  0
   44.0050   -1.4420   93.0160 C   0  0  0  0  0
   45.1560   -2.2510   92.9810 C   0  0  0  0  0
   41.5260   -1.2890   92.6450 C   0  0  0  0  0
   43.3620   -3.5960   92.1203 H   0  0  0  0  0
   45.4991    1.5522   93.6808 H   0  0  0  0  0
   43.2459    0.5846   93.2897 H   0  0  0  0  0
   47.3088   -2.3511   93.2403 H   0  0  0  0  0
   38.3162   -2.3744   92.5207 H   0  0  0  0  0
   39.0269   -0.9238   93.2843 H   0  0  0  0  0
   38.0598   -0.3637   91.0870 H   0  0  0  0  0
   39.0793   -1.5971   90.3128 H   0  0  0  0  0
   40.6174   -2.9790   91.6898 H   0  0  0  0  0
   40.4864   -2.9844   93.4443 H   0  0  0  0  0
   42.1450    0.4508   91.4509 H   0  0  0  0  0
   41.8102   -1.0260   90.4803 H   0  0  0  0  0
   39.9277    0.7860   91.7574 H   0  0  0  0  0
   40.1267    0.3936   90.0702 H   0  0  0  0  0
   42.8016   -3.0263   92.6518 H   0  0  0  0  0
   41.3838   -0.6196   93.4934 H   0  0  0  0  0
 13  1  2  0  0  0
 13  2  1  0  0  0
 14  3  1  0  0  0
  4  5  4  0  0  0
 14  4  4  0  0  0
  5 15  4  0  0  0
  6 14  4  0  0  0
 16  6  4  0  0  0
  7  8  1  0  0  0
  9  7  1  0  0  0
 11  8  1  0  0  0
 17  9  1  0  0  0
 10 11  1  0  0  0
 17 10  1  0  0  0
 15 12  1  0  0  0
 12 17  1  0  0  0
 13 16  1  0  0  0
 15 16  4  0  0  0
  2 18  1  0  0  0
  4 19  1  0  0  0
  5 20  1  0  0  0
  6 21  1  0  0  0
  7 22  1  0  0  0
  7 23  1  0  0  0
  8 24  1  0  0  0
  8 25  1  0  0  0
  9 26  1  0  0  0
  9 27  1  0  0  0
 10 28  1  0  0  0
 10 29  1  0  0  0
 11 30  1  0  0  0
 11 31  1  0  0  0
 12 32  1  0  0  0
 17 33  1  0  0  0
M  END
$$$$
