6b3e_ligand
  -I-interpret- 

 58 62  0  0  0  0  0  0  0  0999 V2000
   -0.0330   14.5170   -6.8490 C   0  0  0  0  0
    0.8910   15.1610   -7.8030 C   0  0  0  0  0
    0.3150   17.6030   -7.8230 C   0  0  0  0  0
    0.7350   19.2680   -6.4200 C   0  0  0  0  0
   -0.4090   19.7780   -8.3560 C   0  0  0  0  0
   -1.3580   21.9980   -8.6270 C   0  0  0  0  0
   -0.2050   22.8820   -8.7810 C   0  0  0  0  0
    1.4050   24.2170   -8.1700 C   0  0  0  0  0
    0.4510   23.1360   -9.8930 N   0  0  0  0  0
    2.4940   24.5770  -10.2660 C   0  0  0  0  0
    3.4280   25.3930   -9.6600 C   0  0  0  0  0
    3.3430   25.5990   -8.3120 C   0  0  0  0  0
    2.3480   25.0280   -7.5680 C   0  0  0  0  0
    1.3440   19.7570   -5.2710 N   0  0  0  0  0
    1.9230   21.5490   -3.6550 C   0  0  0  0  0
    1.8560   18.7860   -4.2920 C   0  0  0  0  0
    0.7610   18.3600   -3.3250 C   0  0  0  0  0
    0.1980   16.9970   -3.6330 C   0  0  0  0  0
    0.3150   16.3580   -8.3910 N   0  0  0  0  0
   -0.3010   16.5050   -9.5930 C   0  0  0  0  0
   -0.7010   17.7250   -9.8440 N   0  0  0  0  0
   -0.3120   18.4310   -8.7190 C   0  0  0  0  0
    0.8490   17.9530   -6.6610 N   0  0  0  0  0
    0.1280   20.1750   -7.2010 N   0  0  0  0  0
   -1.0480   20.6800   -9.1020 N   0  0  0  0  0
    0.3250   23.5140   -7.7170 N   0  0  0  0  0
    1.4820   23.9870   -9.5090 C   0  0  0  0  0
    2.2950   25.2430   -6.2460 F   0  0  0  0  0
    4.2710   26.3390   -7.6880 F   0  0  0  0  0
    1.0010   21.0840   -4.7570 C   0  0  0  0  0
    3.2560   20.8450   -3.7190 C   0  0  0  0  0
    3.0960   19.3340   -3.5910 C   0  0  0  0  0
    1.2180   16.1050   -3.9830 O   0  0  0  0  0
   -0.2671   15.2145   -6.0447 H   0  0  0  0  0
   -0.9502   14.2363   -7.3667 H   0  0  0  0  0
    0.4384   13.6263   -6.4336 H   0  0  0  0  0
    1.1018   14.4537   -8.6051 H   0  0  0  0  0
    1.7947   15.4458   -7.2642 H   0  0  0  0  0
   -2.1900   22.3969   -9.2073 H   0  0  0  0  0
   -1.6217   21.9408   -7.5709 H   0  0  0  0  0
    2.5475   24.3932  -11.3391 H   0  0  0  0  0
    4.2178   25.8638  -10.2454 H   0  0  0  0  0
    1.4576   21.3226   -2.6957 H   0  0  0  0  0
    2.0909   22.6195   -3.7727 H   0  0  0  0  0
    2.1678   17.8827   -4.8164 H   0  0  0  0  0
   -0.0525   19.0808   -3.4075 H   0  0  0  0  0
    1.1975   18.3203   -2.3270 H   0  0  0  0  0
   -0.4950   17.0841   -4.4698 H   0  0  0  0  0
   -0.3108   16.6185   -2.7464 H   0  0  0  0  0
   -0.4491   15.6783  -10.2878 H   0  0  0  0  0
   -1.3277   20.4226  -10.0485 H   0  0  0  0  0
   -0.0066   21.0292   -4.3448 H   0  0  0  0  0
    1.0877   21.7913   -5.5818 H   0  0  0  0  0
    3.8733   21.1983   -2.8930 H   0  0  0  0  0
    3.7161   21.0633   -4.6827 H   0  0  0  0  0
    3.9655   18.8736   -4.0601 H   0  0  0  0  0
    2.9977   19.1057   -2.5297 H   0  0  0  0  0
    0.8374   15.2448   -4.1747 H   0  0  0  0  0
  2  1  1  0  0  0
 19  2  1  0  0  0
  3 19  4  0  0  0
 22  3  4  0  0  0
  3 23  4  0  0  0
  4 14  1  0  0  0
  4 23  4  0  0  0
 24  4  4  0  0  0
  5 22  4  0  0  0
  5 24  4  0  0  0
 25  5  1  0  0  0
  7  6  1  0  0  0
  6 25  1  0  0  0
  9  7  4  0  0  0
  7 26  4  0  0  0
  8 13  4  0  0  0
  8 26  4  0  0  0
 27  8  4  0  0  0
 27  9  4  0  0  0
 10 11  4  0  0  0
 10 27  4  0  0  0
 11 12  4  0  0  0
 12 13  4  0  0  0
 12 29  1  0  0  0
 13 28  1  0  0  0
 14 16  1  0  0  0
 14 30  1  0  0  0
 30 15  1  0  0  0
 15 31  1  0  0  0
 16 17  1  0  0  0
 16 32  1  0  0  0
 17 18  1  0  0  0
 18 33  1  0  0  0
 19 20  4  0  0  0
 20 21  4  0  0  0
 21 22  4  0  0  0
 31 32  1  0  0  0
  1 34  1  0  0  0
  1 35  1  0  0  0
  1 36  1  0  0  0
  2 37  1  0  0  0
  2 38  1  0  0  0
  6 39  1  0  0  0
  6 40  1  0  0  0
 10 41  1  0  0  0
 11 42  1  0  0  0
 15 43  1  0  0  0
 15 44  1  0  0  0
 16 45  1  0  0  0
 17 46  1  0  0  0
 17 47  1  0  0  0
 18 48  1  0  0  0
 18 49  1  0  0  0
 20 50  1  0  0  0
 25 51  1  0  0  0
 30 52  1  0  0  0
 30 53  1  0  0  0
 31 54  1  0  0  0
 31 55  1  0  0  0
 32 56  1  0  0  0
 32 57  1  0  0  0
 33 58  1  0  0  0
M  END
$$$$
