6rln_ligand
  -I-interpret- 

 45 48  0  0  0  0  0  0  0  0999 V2000
    7.4530  -10.5810    1.7140 C   0  0  0  0  0
    8.3610   -8.6580   -0.2110 C   0  0  0  0  0
    3.5970  -14.1300    4.5660 C   0  0  0  0  0
    2.3500  -14.7720    5.0440 C   0  0  0  0  0
    0.9930  -13.1060    6.3720 C   0  0  0  0  0
   -0.9650  -12.0580    5.4670 C   0  0  0  0  0
    0.2960  -13.6150    4.1440 C   0  0  0  0  0
    5.6960  -13.4730    4.3480 N   0  0  0  0  0
    4.8110  -14.2560    5.0950 N   0  0  0  0  0
    4.9790  -12.8890    3.3950 C   0  0  0  0  0
    7.1190   -9.1140    2.0210 C   0  0  0  0  0
    7.9760   -8.0280   -3.7310 F   0  0  0  0  0
    5.4960  -11.9550    2.3410 C   0  0  0  0  0
   10.6550  -11.1680   -1.5310 F   0  0  0  0  0
   -0.0740  -12.2300    6.5070 C   0  0  0  0  0
    9.7380  -10.3820    0.8870 N   0  0  0  0  0
   -0.7780  -12.7480    4.2830 C   0  0  0  0  0
    9.3950   -9.6140   -0.2510 C   0  0  0  0  0
    7.8430   -8.1190    1.1100 C   0  0  0  0  0
    9.7650  -10.1490   -1.4780 C   0  0  0  0  0
    9.3350   -9.6040   -2.6670 C   0  0  0  0  0
    9.3620  -11.5810    2.7770 O   0  0  0  0  0
    7.9240   -8.0770   -1.4040 C   0  0  0  0  0
    8.4280   -8.5720   -2.5830 C   0  0  0  0  0
    6.7290  -11.4870    2.5880 N   0  0  0  0  0
    4.8170  -11.6690    1.3510 O   0  0  0  0  0
    3.6950  -13.2900    3.5230 N   0  0  0  0  0
    1.1890  -13.8150    5.1910 C   0  0  0  0  0
    8.9380  -10.8920    1.8510 C   0  0  0  0  0
    7.1521  -10.7291    0.6769 H   0  0  0  0  0
    2.5557  -15.1876    6.0304 H   0  0  0  0  0
    2.0641  -15.5187    4.3032 H   0  0  0  0  0
    1.6868  -13.2407    7.2018 H   0  0  0  0  0
   -1.8123  -11.3814    5.5783 H   0  0  0  0  0
    0.4416  -14.1457    3.2031 H   0  0  0  0  0
    7.4371   -8.9128    3.0440 H   0  0  0  0  0
    6.0484   -8.9822    1.8645 H   0  0  0  0  0
   -0.2091  -11.6764    7.4362 H   0  0  0  0  0
   10.7327  -10.5796    0.9961 H   0  0  0  0  0
   -1.4761  -12.6103    3.4573 H   0  0  0  0  0
    7.1085   -7.3549    0.8556 H   0  0  0  0  0
    8.7210   -7.7877    1.6645 H   0  0  0  0  0
    9.6952   -9.9717   -3.6278 H   0  0  0  0  0
    7.2059   -7.2569   -1.3999 H   0  0  0  0  0
    7.1887  -11.7878    3.4474 H   0  0  0  0  0
  1 11  1  0  0  0
  1 25  1  0  0  0
 29  1  1  0  0  0
 18  2  4  0  0  0
  2 19  1  0  0  0
  2 23  4  0  0  0
  3  4  1  0  0  0
  3  9  4  0  0  0
 27  3  4  0  0  0
  4 28  1  0  0  0
  5 15  4  0  0  0
 28  5  4  0  0  0
 15  6  4  0  0  0
 17  6  4  0  0  0
  7 17  4  0  0  0
 28  7  4  0  0  0
  8  9  4  0  0  0
 10  8  4  0  0  0
 13 10  1  0  0  0
 10 27  4  0  0  0
 19 11  1  0  0  0
 24 12  1  0  0  0
 25 13  1  0  0  0
 13 26  2  0  0  0
 20 14  1  0  0  0
 18 16  1  0  0  0
 16 29  1  0  0  0
 20 18  4  0  0  0
 21 20  4  0  0  0
 21 24  4  0  0  0
 29 22  2  0  0  0
 23 24  4  0  0  0
  1 30  1  0  0  0
  4 31  1  0  0  0
  4 32  1  0  0  0
  5 33  1  0  0  0
  6 34  1  0  0  0
  7 35  1  0  0  0
 11 36  1  0  0  0
 11 37  1  0  0  0
 15 38  1  0  0  0
 16 39  1  0  0  0
 17 40  1  0  0  0
 19 41  1  0  0  0
 19 42  1  0  0  0
 21 43  1  0  0  0
 23 44  1  0  0  0
 25 45  1  0  0  0
M  END
$$$$
