5uc4_ligand
  -I-interpret- 

 40 42  0  0  0  0  0  0  0  0999 V2000
   35.4920   84.1510   -6.5720 C   0  0  0  0  0
   36.5450   86.0770   -7.4210 C   0  0  0  0  0
   36.9000   85.1300  -10.0190 C   0  0  0  0  0
   33.4980   79.5180   -2.8150 C   0  0  0  0  0
   37.1500   86.8720   -8.3500 C   0  0  0  0  0
   37.3260   86.3890   -9.6710 C   0  0  0  0  0
   36.2830   84.3100   -9.0490 C   0  0  0  0  0
   31.1210   82.2250   -5.1370 C   0  0  0  0  0
   31.6200   81.7070   -3.8500 C   0  0  0  0  0
   30.8460   82.3680   -2.5810 C   0  0  0  0  0
   33.1170   81.9200   -3.6890 C   0  0  0  0  0
   33.6220   83.1690   -3.9800 C   0  0  0  0  0
   35.0200   83.4270   -3.8090 C   0  0  0  0  0
   35.8900   82.4370   -3.3130 C   0  0  0  0  0
   37.2160   82.7310   -3.1070 O   0  0  0  0  0
   35.3700   81.1820   -3.0030 C   0  0  0  0  0
   33.9970   80.9110   -3.1730 C   0  0  0  0  0
   32.6920   78.9140   -3.5910 O   0  0  0  0  0
   35.5740   84.7820   -4.1560 C   0  0  0  0  0
   35.8590   85.6200   -3.2700 O   0  0  0  0  0
   35.6850   85.0970   -5.4910 N   0  0  0  0  0
   36.2210   86.3240   -5.9900 C   0  0  0  0  0
   36.1160   84.7730   -7.7700 C   0  0  0  0  0
   34.9927   83.1836   -6.5180 H   0  0  0  0  0
   37.0374   84.7665  -11.0374 H   0  0  0  0  0
   33.8313   79.0389   -1.8944 H   0  0  0  0  0
   37.4950   87.8698   -8.0789 H   0  0  0  0  0
   37.8040   87.0227  -10.4181 H   0  0  0  0  0
   35.9402   83.3106   -9.3170 H   0  0  0  0  0
   30.0590   81.9982   -5.2313 H   0  0  0  0  0
   31.2680   83.3044   -5.1743 H   0  0  0  0  0
   31.6683   81.7540   -5.9535 H   0  0  0  0  0
   31.4170   80.6362   -3.8655 H   0  0  0  0  0
   30.9908   83.4483   -2.5913 H   0  0  0  0  0
   29.7818   82.1421   -2.6483 H   0  0  0  0  0
   31.2487   81.9550   -1.6561 H   0  0  0  0  0
   32.9599   83.9570   -4.3388 H   0  0  0  0  0
   37.6663   81.9533   -2.7693 H   0  0  0  0  0
   36.0313   80.4021   -2.6254 H   0  0  0  0  0
   36.3634   87.2516   -5.4355 H   0  0  0  0  0
 21  1  4  0  0  0
  1 23  4  0  0  0
  2  5  4  0  0  0
  2 22  4  0  0  0
 23  2  4  0  0  0
  3  6  4  0  0  0
  7  3  4  0  0  0
 17  4  1  0  0  0
  4 18  2  0  0  0
  5  6  4  0  0  0
 23  7  4  0  0  0
  9  8  1  0  0  0
  9 10  1  0  0  0
 11  9  1  0  0  0
 12 11  4  0  0  0
 11 17  4  0  0  0
 13 12  4  0  0  0
 13 14  4  0  0  0
 19 13  1  0  0  0
 14 15  1  0  0  0
 14 16  4  0  0  0
 16 17  4  0  0  0
 19 20  2  0  0  0
 19 21  1  0  0  0
 21 22  4  0  0  0
  1 24  1  0  0  0
  3 25  1  0  0  0
  4 26  1  0  0  0
  5 27  1  0  0  0
  6 28  1  0  0  0
  7 29  1  0  0  0
  8 30  1  0  0  0
  8 31  1  0  0  0
  8 32  1  0  0  0
  9 33  1  0  0  0
 10 34  1  0  0  0
 10 35  1  0  0  0
 10 36  1  0  0  0
 12 37  1  0  0  0
 15 38  1  0  0  0
 16 39  1  0  0  0
 22 40  1  0  0  0
M  END
$$$$
