5zyj_ligand
  -I-interpret- 

 63 66  0  0  0  0  0  0  0  0999 V2000
  -30.1270    6.2490   -7.3900 C   0  0  0  0  0
  -36.4560    2.6920   -5.6650 C   0  0  0  0  0
  -35.9290    1.6040   -4.7290 C   0  0  0  0  0
  -31.9510    0.2370   -5.2490 C   0  0  0  0  0
  -33.6030    1.2510   -3.7870 C   0  0  0  0  0
  -34.5560    1.1150   -4.8410 C   0  0  0  0  0
  -32.9410    0.1610   -6.2540 C   0  0  0  0  0
  -26.6310    5.3920   -6.2750 C   0  0  0  0  0
  -34.2310    0.5890   -6.0740 N   0  0  0  0  0
  -34.3390    3.8040   -6.3840 C   0  0  0  0  0
  -33.5210    4.4170   -7.3470 C   0  0  0  0  0
  -29.6090    5.7610   -6.2130 C   0  0  0  0  0
  -31.5820    4.4270   -5.7820 C   0  0  0  0  0
  -27.9690    6.1960   -4.2130 O   0  0  0  0  0
  -28.0670    6.3580   -5.6530 S   0  0  0  0  0
  -28.0320    7.7090   -6.1950 O   0  0  0  0  0
  -26.5270    5.5290   -7.8130 C   0  0  0  0  0
  -27.3870    4.6020   -8.4800 O   0  0  0  0  0
  -30.2970    4.8750   -5.3520 C   0  0  0  0  0
  -32.1540    4.8870   -6.9670 C   0  0  0  0  0
  -31.4270    5.7740   -7.7780 C   0  0  0  0  0
  -35.6360    3.3680   -6.7360 C   0  0  0  0  0
  -36.1010    3.4920   -8.0670 C   0  0  0  0  0
  -37.5020    3.0840   -8.4800 C   0  0  0  0  0
  -37.4860    1.7620   -9.2940 C   0  0  0  0  0
  -38.9700    1.3870   -9.4710 C   0  0  0  0  0
  -39.1130   -0.0850   -9.1220 C   0  0  0  0  0
  -40.3680   -0.5380   -9.8500 C   0  0  0  0  0
  -35.3090    4.1250   -9.0330 C   0  0  0  0  0
  -34.0000    4.5560   -8.6730 C   0  0  0  0  0
  -36.9980    1.3030   -5.7480 C   0  0  0  0  0
  -32.3110    0.7830   -3.9970 C   0  0  0  0  0
  -29.5763    6.9640   -8.0012 H   0  0  0  0  0
  -36.8920    3.6829   -5.5378 H   0  0  0  0  0
  -35.8385    1.4640   -3.6518 H   0  0  0  0  0
  -30.9367   -0.1162   -5.4347 H   0  0  0  0  0
  -33.8820    1.7113   -2.8392 H   0  0  0  0  0
  -32.6653   -0.2591   -7.2213 H   0  0  0  0  0
  -26.7666    4.3417   -6.0169 H   0  0  0  0  0
  -25.7176    5.7733   -5.8185 H   0  0  0  0  0
  -33.9738    3.6648   -5.3665 H   0  0  0  0  0
  -32.1283    3.7092   -5.1702 H   0  0  0  0  0
  -25.4989    5.3217   -8.1097 H   0  0  0  0  0
  -26.8262    6.5396   -8.0910 H   0  0  0  0  0
  -27.2993    4.7122   -9.4296 H   0  0  0  0  0
  -29.8664    4.5497   -4.4050 H   0  0  0  0  0
  -31.8578    6.1092   -8.7215 H   0  0  0  0  0
  -37.9234    3.8716   -9.1046 H   0  0  0  0  0
  -38.0988    2.9312   -7.5808 H   0  0  0  0  0
  -36.9288    0.9779   -8.7814 H   0  0  0  0  0
  -36.9821    1.8833  -10.2529 H   0  0  0  0  0
  -39.2896    1.5686  -10.4972 H   0  0  0  0  0
  -39.5976    1.9960   -8.8204 H   0  0  0  0  0
  -39.1902   -0.2407   -8.0459 H   0  0  0  0  0
  -38.2384   -0.6603   -9.4256 H   0  0  0  0  0
  -41.2200    0.0449   -9.4999 H   0  0  0  0  0
  -40.2390   -0.3876  -10.9218 H   0  0  0  0  0
  -40.5418   -1.5950   -9.6485 H   0  0  0  0  0
  -35.6876    4.2850  -10.0425 H   0  0  0  0  0
  -33.3554    5.0007   -9.4312 H   0  0  0  0  0
  -37.1911    0.5568   -6.5187 H   0  0  0  0  0
  -37.9736    0.8177   -5.7748 H   0  0  0  0  0
  -31.5751    0.8374   -3.1948 H   0  0  0  0  0
 12  1  4  0  0  0
  1 21  4  0  0  0
  2  3  1  0  0  0
 22  2  1  0  0  0
  2 31  1  0  0  0
  3  6  1  0  0  0
 31  3  1  0  0  0
  7  4  4  0  0  0
 32  4  4  0  0  0
  6  5  4  0  0  0
  5 32  4  0  0  0
  6  9  4  0  0  0
  9  7  4  0  0  0
 15  8  1  0  0  0
  8 17  1  0  0  0
 11 10  4  0  0  0
 10 22  4  0  0  0
 20 11  1  0  0  0
 11 30  4  0  0  0
 12 15  1  0  0  0
 19 12  4  0  0  0
 13 19  4  0  0  0
 13 20  4  0  0  0
 15 14  2  0  0  0
 15 16  2  0  0  0
 17 18  1  0  0  0
 20 21  4  0  0  0
 22 23  4  0  0  0
 23 24  1  0  0  0
 23 29  4  0  0  0
 24 25  1  0  0  0
 25 26  1  0  0  0
 26 27  1  0  0  0
 27 28  1  0  0  0
 29 30  4  0  0  0
  1 33  1  0  0  0
  2 34  1  0  0  0
  3 35  1  0  0  0
  4 36  1  0  0  0
  5 37  1  0  0  0
  7 38  1  0  0  0
  8 39  1  0  0  0
  8 40  1  0  0  0
 10 41  1  0  0  0
 13 42  1  0  0  0
 17 43  1  0  0  0
 17 44  1  0  0  0
 18 45  1  0  0  0
 19 46  1  0  0  0
 21 47  1  0  0  0
 24 48  1  0  0  0
 24 49  1  0  0  0
 25 50  1  0  0  0
 25 51  1  0  0  0
 26 52  1  0  0  0
 26 53  1  0  0  0
 27 54  1  0  0  0
 27 55  1  0  0  0
 28 56  1  0  0  0
 28 57  1  0  0  0
 28 58  1  0  0  0
 29 59  1  0  0  0
 30 60  1  0  0  0
 31 61  1  0  0  0
 31 62  1  0  0  0
 32 63  1  0  0  0
M  END
$$$$
