4mcb_ligand
  -I-interpret- 

 46 49  0  0  0  0  0  0  0  0999 V2000
   25.1930   44.2490   -2.5680 C   0  0  0  0  0
   23.6750   42.8880   -3.8210 C   0  0  0  0  0
   26.2580   43.5300   -3.0800 C   0  0  0  0  0
   24.7430   42.1550   -4.3160 C   0  0  0  0  0
   28.1150   38.6900   -8.6670 C   0  0  0  0  0
   28.1880   37.9490   -7.5100 C   0  0  0  0  0
   20.7320   42.9490    1.6530 C   0  0  0  0  0
   20.2110   41.6750   -0.1930 C   0  0  0  0  0
   20.8860   42.8430    0.2890 C   0  0  0  0  0
   23.8970   43.9380   -2.9510 C   0  0  0  0  0
   26.0370   42.4830   -3.9640 C   0  0  0  0  0
   19.5810   40.9840    0.8310 C   0  0  0  0  0
   28.4870   40.1180   -7.1160 C   0  0  0  0  0
   18.7750   39.3570   -0.4630 C   0  0  0  0  0
   20.0810   41.1260   -1.5360 C   0  0  0  0  0
   21.6720   43.8880   -0.3510 C   0  0  0  0  0
   22.7400   44.7020   -2.3960 C   0  0  0  0  0
   27.1800   41.6800   -4.5210 C   0  0  0  0  0
   28.7280   41.3440   -6.3280 C   0  0  0  0  0
   28.2990   40.0290   -8.4170 N   0  0  0  0  0
   18.8630   39.8370    0.7390 N   0  0  0  0  0
   28.4280   38.8790   -6.5360 N   0  0  0  0  0
   19.3540   39.9540   -1.5690 N   0  0  0  0  0
   21.8120   43.8280   -1.7050 N   0  0  0  0  0
   27.5010   42.0200   -5.9030 N   0  3  0  0  0
   20.5660   41.6140   -2.5490 O   0  0  0  0  0
   22.1960   44.7710    0.3220 O   0  0  0  0  0
   19.8250   41.6980    2.3820 S   0  0  0  0  0
   25.3726   45.0606   -1.8630 H   0  0  0  0  0
   22.6575   42.6350   -4.1191 H   0  0  0  0  0
   27.2761   43.7870   -2.7877 H   0  0  0  0  0
   24.5599   41.3154   -4.9866 H   0  0  0  0  0
   27.9343   38.2688   -9.6560 H   0  0  0  0  0
   28.0797   36.8704   -7.3959 H   0  0  0  0  0
   21.1582   43.7720    2.2267 H   0  0  0  0  0
   18.2147   38.4336   -0.6097 H   0  0  0  0  0
   22.2143   45.1823   -3.2212 H   0  0  0  0  0
   23.1189   45.4363   -1.6851 H   0  0  0  0  0
   26.8882   40.6300   -4.4982 H   0  0  0  0  0
   28.0604   41.8939   -3.9150 H   0  0  0  0  0
   29.2791   42.0372   -6.9635 H   0  0  0  0  0
   29.2683   41.0521   -5.4275 H   0  0  0  0  0
   19.2349   39.4952   -2.4722 H   0  0  0  0  0
   21.2569   43.1597   -2.2394 H   0  0  0  0  0
   27.6382   43.0284   -5.9720 H   0  0  0  0  0
   26.7333   41.7203   -6.5040 H   0  0  0  0  0
  3  1  4  0  0  0
  1 10  4  0  0  0
  4  2  4  0  0  0
  2 10  4  0  0  0
 11  3  4  0  0  0
 11  4  4  0  0  0
  6  5  4  0  0  0
 20  5  4  0  0  0
 22  6  4  0  0  0
  9  7  4  0  0  0
  7 28  4  0  0  0
  9  8  4  0  0  0
  8 12  4  0  0  0
  8 15  1  0  0  0
 16  9  1  0  0  0
 10 17  1  0  0  0
 18 11  1  0  0  0
 12 21  1  0  0  0
 12 28  4  0  0  0
 19 13  1  0  0  0
 13 20  4  0  0  0
 13 22  4  0  0  0
 21 14  2  0  0  0
 23 14  1  0  0  0
 15 23  1  0  0  0
 15 26  2  0  0  0
 24 16  1  0  0  0
 16 27  2  0  0  0
 17 24  1  0  0  0
 25 18  1  0  0  0
 19 25  1  0  0  0
  1 29  1  0  0  0
  2 30  1  0  0  0
  3 31  1  0  0  0
  4 32  1  0  0  0
  5 33  1  0  0  0
  6 34  1  0  0  0
  7 35  1  0  0  0
 14 36  1  0  0  0
 17 37  1  0  0  0
 17 38  1  0  0  0
 18 39  1  0  0  0
 18 40  1  0  0  0
 19 41  1  0  0  0
 19 42  1  0  0  0
 23 43  1  0  0  0
 24 44  1  0  0  0
 25 45  1  0  0  0
 25 46  1  0  0  0
M  END
$$$$
