6ed6_ligand
  -I-interpret- 

 44 47  0  0  0  0  0  0  0  0999 V2000
   32.0220   43.8710   58.0870 N   0  0  0  0  0
   27.3180   49.0310   48.6470 C   0  0  0  0  0
   26.4320   49.9440   48.0480 C   0  0  0  0  0
   25.0320   49.7580   48.2480 C   0  0  0  0  0
   24.5530   48.7430   49.0810 C   0  0  0  0  0
   22.2730   49.4350   48.6450 C   0  0  0  0  0
   26.7570   46.2870   53.8980 C   0  0  0  0  0
   28.8040   45.3040   55.5600 C   0  0  0  0  0
   27.1310   44.9400   53.8160 C   0  0  0  0  0
   30.1360   45.3940   57.7050 C   0  0  0  0  0
   30.7680   43.7540   55.9810 C   0  0  0  0  0
   25.0400   47.7600   53.2580 O   0  0  0  0  0
   25.7800   46.8560   52.9440 C   0  0  0  0  0
   28.1530   44.4490   54.6430 C   0  0  0  0  0
   29.9140   44.8210   56.4060 C   0  0  0  0  0
   31.7960   43.3210   56.8560 C   0  0  0  0  0
   31.1910   44.8870   58.4880 C   0  0  0  0  0
   28.3670   46.6330   55.6530 C   0  0  0  0  0
   27.3520   47.1210   54.8380 C   0  0  0  0  0
   25.8000   46.3780   51.6570 N   0  0  0  0  0
   24.8750   46.8270   50.6200 C   0  0  0  0  0
   25.4500   47.8560   49.6990 C   0  0  0  0  0
   23.1960   48.5660   49.3060 O   0  0  0  0  0
   22.9230   50.7710   48.2470 C   0  0  0  0  0
   24.1370   50.5340   47.5420 O   0  0  0  0  0
   26.8220   47.9930   49.4410 C   0  0  0  0  0
   28.3921   49.1328   48.4921 H   0  0  0  0  0
   26.8055   50.7726   47.4463 H   0  0  0  0  0
   21.4527   49.6462   49.3310 H   0  0  0  0  0
   21.9290   48.9396   47.7371 H   0  0  0  0  0
   26.6301   44.2752   53.1123 H   0  0  0  0  0
   29.5036   46.2010   58.0750 H   0  0  0  0  0
   30.6311   43.2849   55.0067 H   0  0  0  0  0
   28.4464   43.4013   54.5774 H   0  0  0  0  0
   32.4412   42.5053   56.5295 H   0  0  0  0  0
   31.3575   45.3277   59.4709 H   0  0  0  0  0
   28.8332   47.2979   56.3801 H   0  0  0  0  0
   27.0232   48.1556   54.9357 H   0  0  0  0  0
   26.4962   45.6736   51.4129 H   0  0  0  0  0
   24.0213   47.2822   51.1221 H   0  0  0  0  0
   24.6193   45.9571   50.0150 H   0  0  0  0  0
   23.1388   51.3459   49.1475 H   0  0  0  0  0
   22.2383   51.3243   47.6042 H   0  0  0  0  0
   27.5183   47.2725   49.8701 H   0  0  0  0  0
 16  1  4  0  0  0
 17  1  4  0  0  0
  3  2  4  0  0  0
  2 26  4  0  0  0
  4  3  4  0  0  0
  5  4  4  0  0  0
  4 25  1  0  0  0
 22  5  4  0  0  0
  5 23  1  0  0  0
 23  6  1  0  0  0
  6 24  1  0  0  0
  7  9  4  0  0  0
 13  7  1  0  0  0
  7 19  4  0  0  0
 14  8  4  0  0  0
  8 15  1  0  0  0
 18  8  4  0  0  0
  9 14  4  0  0  0
 15 10  4  0  0  0
 10 17  4  0  0  0
 15 11  4  0  0  0
 11 16  4  0  0  0
 13 12  2  0  0  0
 20 13  1  0  0  0
 19 18  4  0  0  0
 21 20  1  0  0  0
 21 22  1  0  0  0
 22 26  4  0  0  0
 24 25  1  0  0  0
  2 27  1  0  0  0
  3 28  1  0  0  0
  6 29  1  0  0  0
  6 30  1  0  0  0
  9 31  1  0  0  0
 10 32  1  0  0  0
 11 33  1  0  0  0
 14 34  1  0  0  0
 16 35  1  0  0  0
 17 36  1  0  0  0
 18 37  1  0  0  0
 19 38  1  0  0  0
 20 39  1  0  0  0
 21 40  1  0  0  0
 21 41  1  0  0  0
 24 42  1  0  0  0
 24 43  1  0  0  0
 26 44  1  0  0  0
M  END
$$$$
