5e8f_ligand
  -I-interpret- 

 87 86  0  0  0  0  0  0  0  0999 V2000
    9.8770  -21.9650    7.6090 N   0  3  0  0  0
    9.8680  -21.2400    8.9360 C   0  0  0  0  0
    9.4100  -19.7770    8.8280 C   0  0  0  0  0
   10.1120  -18.9250    8.2710 O   0  0  0  0  0
   11.2570  -21.2150    9.5790 C   0  0  0  0  0
   12.0050  -22.5270    9.7170 C   0  0  0  0  0
   11.1240  -23.6920   10.0460 C   0  0  0  0  0
   11.9710  -24.9040   10.4220 C   0  0  0  0  0
   11.0490  -25.9410   10.9690 N   0  3  0  0  0
    8.2840  -19.4630    9.4330 N   0  0  0  0  0
    7.7740  -18.0790    9.4530 C   0  0  0  0  0
    8.3250  -17.2810   10.6420 C   0  0  0  0  0
    8.3780  -17.7990   11.7530 O   0  0  0  0  0
    6.2470  -18.0760    9.5690 C   0  0  0  0  0
    5.7830  -16.7440    9.6200 O   0  0  0  0  0
    8.6710  -16.0150   10.3770 N   0  0  0  0  0
    9.0720  -15.0570   11.4020 C   0  0  0  0  0
    7.9670  -14.1270   11.9010 C   0  0  0  0  0
    8.1900  -13.3390   12.8400 O   0  0  0  0  0
   10.2230  -14.1880   10.8830 C   0  0  0  0  0
   11.4910  -14.9390   10.5380 C   0  0  0  0  0
   12.2410  -14.1670    9.4390 C   0  0  0  0  0
   13.0480  -15.1090    8.5490 C   0  0  0  0  0
   14.3330  -15.5460    9.1630 N   0  3  0  0  0
    6.7950  -14.2130   11.2780 N   0  0  0  0  0
    5.6770  -13.2830   11.5450 C   0  0  0  0  0
    4.4340  -14.0430   11.9800 C   0  0  0  0  0
    3.3150  -13.5320   12.0770 O   0  0  0  0  0
    5.3430  -12.4940   10.2880 C   0  0  0  0  0
    5.0510  -13.4190    9.2240 O   0  0  0  0  0
    6.5790  -11.6540    9.9110 C   0  0  0  0  0
    4.6080  -15.7400   12.0060 N   0  0  0  0  0
    3.4580  -16.4510   12.4920 C   0  0  0  0  0
    4.0930  -17.5750   13.2990 C   0  0  0  0  0
    4.9010  -18.3410   12.8030 O   0  0  0  0  0
    2.6770  -16.9210   11.2700 C   0  0  0  0  0
    1.5110  -18.2380   11.7300 S   0  0  0  0  0
    3.7840  -17.5690   14.5840 O   0  0  0  0  0
    4.1930  -18.7870   15.2010 C   0  0  0  0  0
    8.9367  -21.9601    7.2138 H   0  0  0  0  0
   10.5180  -21.4945    6.9702 H   0  0  0  0  0
   10.1824  -22.9278    7.7510 H   0  0  0  0  0
    9.1595  -21.8029    9.5437 H   0  0  0  0  0
   11.0958  -20.8667   10.5992 H   0  0  0  0  0
   11.8696  -20.6025    8.9174 H   0  0  0  0  0
   12.7135  -22.4129   10.5374 H   0  0  0  0  0
   12.4755  -22.7359    8.7562 H   0  0  0  0  0
   10.5171  -23.9375    9.1745 H   0  0  0  0  0
   10.4844  -23.4287   10.8884 H   0  0  0  0  0
   12.7210  -24.6302   11.1641 H   0  0  0  0  0
   12.5000  -25.2858    9.5488 H   0  0  0  0  0
   11.5861  -26.7676   11.2310 H   0  0  0  0  0
   10.5711  -25.5702   11.7903 H   0  0  0  0  0
   10.3615  -26.1919   10.2585 H   0  0  0  0  0
    7.7501  -20.1958    9.9002 H   0  0  0  0  0
    8.0992  -17.6159    8.5214 H   0  0  0  0  0
    5.9501  -18.5998   10.4776 H   0  0  0  0  0
    5.8154  -18.5788    8.7035 H   0  0  0  0  0
    4.8258  -16.7423    9.6927 H   0  0  0  0  0
    8.6533  -15.7033    9.4060 H   0  0  0  0  0
    9.3656  -15.6739   12.2513 H   0  0  0  0  0
   10.4778  -13.4942   11.6842 H   0  0  0  0  0
    9.8736  -13.7229    9.9612 H   0  0  0  0  0
   11.2429  -15.9393   10.1830 H   0  0  0  0  0
   12.1209  -15.0266   11.4233 H   0  0  0  0  0
   12.9277  -13.4669    9.9147 H   0  0  0  0  0
   11.5095  -13.6475    8.8200 H   0  0  0  0  0
   13.2880  -14.5702    7.6324 H   0  0  0  0  0
   12.4439  -16.0006    8.3809 H   0  0  0  0  0
   14.8206  -16.1701    8.5203 H   0  0  0  0  0
   14.9136  -14.7288    9.3515 H   0  0  0  0  0
   14.1415  -16.0372   10.0362 H   0  0  0  0  0
    6.6619  -14.9515   10.5871 H   0  0  0  0  0
    5.9878  -12.6080   12.3424 H   0  0  0  0  0
    4.4821  -11.8462   10.4534 H   0  0  0  0  0
    4.8388  -12.9300    8.4256 H   0  0  0  0  0
    6.8190  -10.9755   10.7296 H   0  0  0  0  0
    7.4246  -12.3166    9.7268 H   0  0  0  0  0
    6.3644  -11.0779    9.0109 H   0  0  0  0  0
    5.4595  -16.2116   11.7012 H   0  0  0  0  0
    2.7484  -15.8959   13.1055 H   0  0  0  0  0
    3.3765  -17.3091   10.5296 H   0  0  0  0  0
    2.1181  -16.0793   10.8609 H   0  0  0  0  0
    0.8416  -18.6322   10.6505 H   0  0  0  0  0
    3.6887  -19.6243   14.7187 H   0  0  0  0  0
    5.2719  -18.9016   15.0960 H   0  0  0  0  0
    3.9301  -18.7632   16.2586 H   0  0  0  0  0
  1  2  1  0  0  0
  2  3  1  0  0  0
  2  5  1  0  0  0
  3  4  2  0  0  0
  3 10  1  0  0  0
  5  6  1  0  0  0
  6  7  1  0  0  0
  7  8  1  0  0  0
  8  9  1  0  0  0
 10 11  1  0  0  0
 11 12  1  0  0  0
 11 14  1  0  0  0
 12 13  2  0  0  0
 12 16  1  0  0  0
 14 15  1  0  0  0
 16 17  1  0  0  0
 17 18  1  0  0  0
 17 20  1  0  0  0
 18 19  2  0  0  0
 18 25  1  0  0  0
 20 21  1  0  0  0
 21 22  1  0  0  0
 22 23  1  0  0  0
 23 24  1  0  0  0
 25 26  1  0  0  0
 26 27  1  0  0  0
 26 29  1  0  0  0
 27 28  2  0  0  0
 27 32  1  0  0  0
 29 30  1  0  0  0
 29 31  1  0  0  0
 32 33  1  0  0  0
 33 34  1  0  0  0
 33 36  1  0  0  0
 34 35  2  0  0  0
 34 38  1  0  0  0
 36 37  1  0  0  0
 38 39  1  0  0  0
  1 40  1  0  0  0
  1 41  1  0  0  0
  1 42  1  0  0  0
  2 43  1  0  0  0
  5 44  1  0  0  0
  5 45  1  0  0  0
  6 46  1  0  0  0
  6 47  1  0  0  0
  7 48  1  0  0  0
  7 49  1  0  0  0
  8 50  1  0  0  0
  8 51  1  0  0  0
  9 52  1  0  0  0
  9 53  1  0  0  0
  9 54  1  0  0  0
 10 55  1  0  0  0
 11 56  1  0  0  0
 14 57  1  0  0  0
 14 58  1  0  0  0
 15 59  1  0  0  0
 16 60  1  0  0  0
 17 61  1  0  0  0
 20 62  1  0  0  0
 20 63  1  0  0  0
 21 64  1  0  0  0
 21 65  1  0  0  0
 22 66  1  0  0  0
 22 67  1  0  0  0
 23 68  1  0  0  0
 23 69  1  0  0  0
 24 70  1  0  0  0
 24 71  1  0  0  0
 24 72  1  0  0  0
 25 73  1  0  0  0
 26 74  1  0  0  0
 29 75  1  0  0  0
 30 76  1  0  0  0
 31 77  1  0  0  0
 31 78  1  0  0  0
 31 79  1  0  0  0
 32 80  1  0  0  0
 33 81  1  0  0  0
 36 82  1  0  0  0
 36 83  1  0  0  0
 37 84  1  0  0  0
 39 85  1  0  0  0
 39 86  1  0  0  0
 39 87  1  0  0  0
M  END
$$$$
