4tk4_ligand
  -I-interpret- 

145147  0  0  0  0  0  0  0  0999 V2000
  -73.6920   -9.5800  -32.9660 N   0  3  0  0  0
  -73.7270  -10.4170  -31.7720 C   0  0  0  0  0
  -74.4980  -11.7120  -32.0150 C   0  0  0  0  0
  -75.7000  -11.6930  -32.2810 O   0  0  0  0  0
  -74.3440   -9.6490  -30.6010 C   0  0  0  0  0
  -74.7470  -10.5210  -29.4480 C   0  0  0  0  0
  -73.7910  -11.0930  -28.6260 C   0  0  0  0  0
  -76.0830  -10.7670  -29.1850 C   0  0  0  0  0
  -74.1630  -11.8970  -27.5640 C   0  0  0  0  0
  -76.4600  -11.5680  -28.1260 C   0  0  0  0  0
  -75.4990  -12.1330  -27.3150 C   0  0  0  0  0
  -73.7920  -12.8340  -31.9240 N   0  0  0  0  0
  -74.3950  -14.1480  -32.1060 C   0  0  0  0  0
  -73.8790  -15.1300  -31.0640 C   0  0  0  0  0
  -72.6900  -15.1430  -30.7490 O   0  0  0  0  0
  -74.1140  -14.6770  -33.5110 C   0  0  0  0  0
  -74.6930  -15.9560  -33.6930 O   0  0  0  0  0
  -74.7720  -15.9590  -30.5360 N   0  0  0  0  0
  -74.3720  -16.9630  -29.5600 C   0  0  0  0  0
  -73.9140  -18.2460  -30.2500 C   0  0  0  0  0
  -74.4250  -19.3340  -29.9870 O   0  0  0  0  0
  -75.5150  -17.2820  -28.5760 C   0  0  0  0  0
  -76.8600  -17.3280  -29.3100 C   0  0  0  0  0
  -75.5390  -16.2590  -27.4260 C   0  0  0  0  0
  -77.9700  -17.8570  -28.4650 C   0  0  0  0  0
  -72.9340  -18.1010  -31.1330 N   0  0  0  0  0
  -72.3170  -19.2300  -31.8130 C   0  0  0  0  0
  -70.8160  -19.0090  -31.8390 C   0  0  0  0  0
  -70.3590  -17.8920  -32.0730 O   0  0  0  0  0
  -72.8550  -19.3980  -33.2470 C   0  0  0  0  0
  -72.1140  -20.5040  -33.9830 C   0  0  0  0  0
  -74.3490  -19.6730  -33.2260 C   0  0  0  0  0
  -70.0550  -20.0640  -31.5770 N   0  0  0  0  0
  -68.6160  -19.9440  -31.4540 C   0  0  0  0  0
  -67.9730  -19.3620  -32.6960 C   0  0  0  0  0
  -68.3590  -19.6770  -33.8230 O   0  0  0  0  0
  -66.9790  -18.5100  -32.4850 N   0  0  0  0  0
  -66.2770  -17.8720  -33.5890 C   0  0  0  0  0
  -64.8610  -18.4080  -33.7370 C   0  0  0  0  0
  -64.0840  -18.4260  -32.7820 O   0  0  0  0  0
  -66.2410  -16.3450  -33.4210 C   0  0  0  0  0
  -65.5830  -16.0090  -32.1940 O   0  0  0  0  0
  -67.6550  -15.7960  -33.4010 C   0  0  0  0  0
  -64.5400  -18.8390  -34.9510 N   0  0  0  0  0
  -63.2900  -19.5260  -35.2330 C   0  0  0  0  0
  -62.1270  -18.5430  -35.3010 C   0  0  0  0  0
  -62.3030  -17.3790  -35.6610 O   0  0  0  0  0
  -63.3940  -20.3030  -36.5510 C   0  0  0  0  0
  -64.5320  -21.3160  -36.7250 C   0  0  0  0  0
  -65.8010  -20.6570  -37.2670 C   0  0  0  0  0
  -64.0970  -22.4620  -37.6260 C   0  0  0  0  0
  -60.9370  -19.0220  -34.9560 N   0  0  0  0  0
  -59.7280  -18.2120  -35.0380 C   0  0  0  0  0
  -58.6650  -18.9340  -35.8570 C   0  0  0  0  0
  -58.4450  -20.1310  -35.6760 O   0  0  0  0  0
  -59.1870  -17.9050  -33.6380 C   0  0  0  0  0
  -59.2060  -16.4410  -33.2550 C   0  0  0  0  0
  -59.9710  -15.5230  -33.9630 C   0  0  0  0  0
  -58.4460  -15.9750  -32.1880 C   0  0  0  0  0
  -59.9850  -14.1840  -33.6120 C   0  0  0  0  0
  -58.4530  -14.6410  -31.8310 C   0  0  0  0  0
  -59.2240  -13.7500  -32.5460 C   0  0  0  0  0
  -59.2330  -12.4200  -32.1940 O   0  0  0  0  0
  -58.0020  -18.2030  -36.7650 N   0  0  0  0  0
  -56.9590  -18.7720  -37.6260 C   0  0  0  0  0
  -55.7120  -19.1740  -36.8430 C   0  0  0  0  0
  -55.5620  -20.3510  -36.5140 O   0  0  0  0  0
  -56.6510  -17.6320  -38.6020 C   0  0  0  0  0
  -57.0380  -16.3940  -37.8640 C   0  0  0  0  0
  -58.2360  -16.7770  -37.0510 C   0  0  0  0  0
  -54.8461  -18.3114  -36.5368 O   0  0  0  0  0
  -73.2787  -10.1056  -33.7362 H   0  0  0  0  0
  -74.6419   -9.3026  -33.2132 H   0  0  0  0  0
  -73.1311   -8.7485  -32.7806 H   0  0  0  0  0
  -72.6989  -10.6814  -31.5248 H   0  0  0  0  0
  -75.2466   -9.1630  -30.9713 H   0  0  0  0  0
  -73.5881   -8.9546  -30.2341 H   0  0  0  0  0
  -72.7341  -10.9077  -28.8179 H   0  0  0  0  0
  -76.8475  -10.3226  -29.8223 H   0  0  0  0  0
  -73.4015  -12.3436  -26.9246 H   0  0  0  0  0
  -77.5163  -11.7536  -27.9312 H   0  0  0  0  0
  -75.7946  -12.7655  -26.4779 H   0  0  0  0  0
  -72.7945  -12.7735  -31.7199 H   0  0  0  0  0
  -75.4726  -14.0447  -31.9791 H   0  0  0  0  0
  -73.0355  -14.7574  -33.6466 H   0  0  0  0  0
  -74.5462  -13.9894  -34.2379 H   0  0  0  0  0
  -74.5041  -16.2681  -34.5810 H   0  0  0  0  0
  -75.7501  -15.8917  -30.8175 H   0  0  0  0  0
  -73.5374  -16.5462  -28.9963 H   0  0  0  0  0
  -75.3377  -18.2665  -28.1431 H   0  0  0  0  0
  -76.7481  -17.9946  -30.1651 H   0  0  0  0  0
  -77.1174  -16.3076  -29.5941 H   0  0  0  0  0
  -74.5903  -16.2940  -26.8904 H   0  0  0  0  0
  -75.6910  -15.2596  -27.8336 H   0  0  0  0  0
  -76.3527  -16.5016  -26.7425 H   0  0  0  0  0
  -77.7313  -18.8721  -28.1477 H   0  0  0  0  0
  -78.0929  -17.2205  -27.5887 H   0  0  0  0  0
  -78.8939  -17.8635  -29.0434 H   0  0  0  0  0
  -72.5998  -17.1606  -31.3435 H   0  0  0  0  0
  -72.5602  -20.1445  -31.2721 H   0  0  0  0  0
  -72.6833  -18.4655  -33.7846 H   0  0  0  0  0
  -71.0535  -20.2574  -34.0342 H   0  0  0  0  0
  -72.2441  -21.4449  -33.4484 H   0  0  0  0  0
  -72.5153  -20.5994  -34.9919 H   0  0  0  0  0
  -74.5409  -20.5881  -32.6657 H   0  0  0  0  0
  -74.8640  -18.8389  -32.7494 H   0  0  0  0  0
  -74.7103  -19.7886  -34.2479 H   0  0  0  0  0
  -70.4918  -20.9782  -31.4598 H   0  0  0  0  0
  -68.2075  -20.9429  -31.3009 H   0  0  0  0  0
  -68.4048  -19.2736  -30.6209 H   0  0  0  0  0
  -66.7000  -18.2969  -31.5273 H   0  0  0  0  0
  -66.8325  -18.1110  -34.4959 H   0  0  0  0  0
  -65.6954  -15.9081  -34.2574 H   0  0  0  0  0
  -65.5631  -15.0544  -32.0938 H   0  0  0  0  0
  -68.1530  -16.0442  -34.3383 H   0  0  0  0  0
  -68.2031  -16.2377  -32.5688 H   0  0  0  0  0
  -67.6213  -14.7131  -33.2816 H   0  0  0  0  0
  -65.1961  -18.6820  -35.7160 H   0  0  0  0  0
  -63.1014  -20.2260  -34.4191 H   0  0  0  0  0
  -62.4798  -20.8943  -36.6027 H   0  0  0  0  0
  -63.5732  -19.5439  -37.3125 H   0  0  0  0  0
  -64.7666  -21.7164  -35.7387 H   0  0  0  0  0
  -66.1326  -19.8847  -36.5730 H   0  0  0  0  0
  -65.5898  -20.2086  -38.2378 H   0  0  0  0  0
  -66.5819  -21.4097  -37.3752 H   0  0  0  0  0
  -63.8213  -22.0687  -38.6045 H   0  0  0  0  0
  -63.2395  -22.9668  -37.1812 H   0  0  0  0  0
  -64.9196  -23.1687  -37.7356 H   0  0  0  0  0
  -60.8673  -19.9840  -34.6243 H   0  0  0  0  0
  -59.9790  -17.2716  -35.5287 H   0  0  0  0  0
  -58.1438  -18.2209  -33.6264 H   0  0  0  0  0
  -59.8316  -18.4251  -32.9294 H   0  0  0  0  0
  -60.5697  -15.8623  -34.8083 H   0  0  0  0  0
  -57.8327  -16.6763  -31.6223 H   0  0  0  0  0
  -60.5939  -13.4764  -34.1747 H   0  0  0  0  0
  -57.8528  -14.2951  -30.9894 H   0  0  0  0  0
  -58.6557  -12.2861  -31.4387 H   0  0  0  0  0
  -57.2838  -19.6903  -38.1152 H   0  0  0  0  0
  -57.1980  -17.7371  -39.5389 H   0  0  0  0  0
  -55.6022  -17.6200  -38.8985 H   0  0  0  0  0
  -57.2615  -15.5736  -38.5460 H   0  0  0  0  0
  -56.2252  -16.0314  -37.2347 H   0  0  0  0  0
  -58.3417  -16.1772  -36.1470 H   0  0  0  0  0
  -59.1754  -16.6004  -37.5749 H   0  0  0  0  0
  -55.1197  -17.4532  -36.8688 H   0  0  0  0  0
  1  2  1  0  0  0
  2  3  1  0  0  0
  2  5  1  0  0  0
  3  4  2  0  0  0
  3 12  1  0  0  0
  5  6  1  0  0  0
  6  7  4  0  0  0
  6  8  4  0  0  0
  7  9  4  0  0  0
  8 10  4  0  0  0
  9 11  4  0  0  0
 10 11  4  0  0  0
 12 13  1  0  0  0
 13 14  1  0  0  0
 13 16  1  0  0  0
 14 15  2  0  0  0
 14 18  1  0  0  0
 16 17  1  0  0  0
 18 19  1  0  0  0
 19 20  1  0  0  0
 19 22  1  0  0  0
 20 21  2  0  0  0
 20 26  1  0  0  0
 22 23  1  0  0  0
 22 24  1  0  0  0
 23 25  1  0  0  0
 26 27  1  0  0  0
 27 28  1  0  0  0
 27 30  1  0  0  0
 28 29  2  0  0  0
 28 33  1  0  0  0
 30 31  1  0  0  0
 30 32  1  0  0  0
 33 34  1  0  0  0
 34 35  1  0  0  0
 35 36  2  0  0  0
 35 37  1  0  0  0
 37 38  1  0  0  0
 38 39  1  0  0  0
 38 41  1  0  0  0
 39 40  2  0  0  0
 39 44  1  0  0  0
 41 42  1  0  0  0
 41 43  1  0  0  0
 44 45  1  0  0  0
 45 46  1  0  0  0
 45 48  1  0  0  0
 46 47  2  0  0  0
 46 52  1  0  0  0
 48 49  1  0  0  0
 49 50  1  0  0  0
 49 51  1  0  0  0
 52 53  1  0  0  0
 53 54  1  0  0  0
 53 56  1  0  0  0
 54 55  2  0  0  0
 54 64  1  0  0  0
 56 57  1  0  0  0
 57 58  4  0  0  0
 57 59  4  0  0  0
 58 60  4  0  0  0
 59 61  4  0  0  0
 60 62  4  0  0  0
 61 62  4  0  0  0
 62 63  1  0  0  0
 64 65  1  0  0  0
 64 70  1  0  0  0
 65 66  1  0  0  0
 65 68  1  0  0  0
 66 67  2  0  0  0
 68 69  1  0  0  0
 69 70  1  0  0  0
 66 71  1  0  0  0
  1 72  1  0  0  0
  1 73  1  0  0  0
  1 74  1  0  0  0
  2 75  1  0  0  0
  5 76  1  0  0  0
  5 77  1  0  0  0
  7 78  1  0  0  0
  8 79  1  0  0  0
  9 80  1  0  0  0
 10 81  1  0  0  0
 11 82  1  0  0  0
 12 83  1  0  0  0
 13 84  1  0  0  0
 16 85  1  0  0  0
 16 86  1  0  0  0
 17 87  1  0  0  0
 18 88  1  0  0  0
 19 89  1  0  0  0
 22 90  1  0  0  0
 23 91  1  0  0  0
 23 92  1  0  0  0
 24 93  1  0  0  0
 24 94  1  0  0  0
 24 95  1  0  0  0
 25 96  1  0  0  0
 25 97  1  0  0  0
 25 98  1  0  0  0
 26 99  1  0  0  0
 27100  1  0  0  0
 30101  1  0  0  0
 31102  1  0  0  0
 31103  1  0  0  0
 31104  1  0  0  0
 32105  1  0  0  0
 32106  1  0  0  0
 32107  1  0  0  0
 33108  1  0  0  0
 34109  1  0  0  0
 34110  1  0  0  0
 37111  1  0  0  0
 38112  1  0  0  0
 41113  1  0  0  0
 42114  1  0  0  0
 43115  1  0  0  0
 43116  1  0  0  0
 43117  1  0  0  0
 44118  1  0  0  0
 45119  1  0  0  0
 48120  1  0  0  0
 48121  1  0  0  0
 49122  1  0  0  0
 50123  1  0  0  0
 50124  1  0  0  0
 50125  1  0  0  0
 51126  1  0  0  0
 51127  1  0  0  0
 51128  1  0  0  0
 52129  1  0  0  0
 53130  1  0  0  0
 56131  1  0  0  0
 56132  1  0  0  0
 58133  1  0  0  0
 59134  1  0  0  0
 60135  1  0  0  0
 61136  1  0  0  0
 63137  1  0  0  0
 65138  1  0  0  0
 68139  1  0  0  0
 68140  1  0  0  0
 69141  1  0  0  0
 69142  1  0  0  0
 70143  1  0  0  0
 70144  1  0  0  0
 71145  1  0  0  0
M  END
$$$$
