### 
### Created by X-TOOL on Mon Sep 10 21:13:17 2018
### 

@<TRIPOS>MOLECULE
4tk4_ligand
  144   146     1     0     0
SMALL
GAST_HUCK


@<TRIPOS>ATOM
      1 N         -73.6920   -9.5800  -32.9660 N.4       1 PHE         0.2394
      2 CA        -73.7270  -10.4170  -31.7720 C.3       1 PHE         0.0744
      3 C         -74.4980  -11.7120  -32.0150 C.2       1 PHE         0.2288
      4 O         -75.7000  -11.6930  -32.2810 O.2       1 PHE        -0.3905
      5 CB        -74.3440   -9.6490  -30.6010 C.3       1 PHE         0.0416
      6 CG        -74.7470  -10.5210  -29.4480 C.ar      1 PHE        -0.0353
      7 CD1       -73.7910  -11.0930  -28.6260 C.ar      1 PHE        -0.0600
      8 CD2       -76.0830  -10.7670  -29.1850 C.ar      1 PHE        -0.0600
      9 CE1       -74.1630  -11.8970  -27.5640 C.ar      1 PHE        -0.0686
     10 CE2       -76.4600  -11.5680  -28.1260 C.ar      1 PHE        -0.0686
     11 CZ        -75.4990  -12.1330  -27.3150 C.ar      1 PHE        -0.0687
     12 N         -73.7920  -12.8340  -31.9240 N.am      1 SER        -0.2587
     13 CA        -74.3950  -14.1480  -32.1060 C.3       1 SER         0.1540
     14 C         -73.8790  -15.1300  -31.0640 C.2       1 SER         0.2062
     15 O         -72.6900  -15.1430  -30.7490 O.2       1 SER        -0.3943
     16 CB        -74.1140  -14.6770  -33.5110 C.3       1 SER         0.0843
     17 OG        -74.6930  -15.9560  -33.6930 O.3       1 SER        -0.3903
     18 N         -74.7720  -15.9590  -30.5360 N.am      1 ILE        -0.2634
     19 CA        -74.3720  -16.9630  -29.5600 C.3       1 ILE         0.1335
     20 C         -73.9140  -18.2460  -30.2500 C.2       1 ILE         0.2042
     21 O         -74.4250  -19.3340  -29.9870 O.2       1 ILE        -0.3944
     22 CB        -75.5150  -17.2820  -28.5760 C.3       1 ILE        -0.0037
     23 CG1       -76.8600  -17.3280  -29.3100 C.3       1 ILE        -0.0491
     24 CG2       -75.5390  -16.2590  -27.4260 C.3       1 ILE        -0.0582
     25 CD1       -77.9700  -17.8570  -28.4650 C.3       1 ILE        -0.0648
     26 N         -72.9340  -18.1010  -31.1330 N.am      1 VAL        -0.2635
     27 CA        -72.3170  -19.2300  -31.8130 C.3       1 VAL         0.1332
     28 C         -70.8160  -19.0090  -31.8390 C.2       1 VAL         0.2039
     29 O         -70.3590  -17.8920  -32.0730 O.2       1 VAL        -0.3944
     30 CB        -72.8550  -19.3980  -33.2470 C.3       1 VAL        -0.0063
     31 CG1       -72.1140  -20.5040  -33.9830 C.3       1 VAL        -0.0584
     32 CG2       -74.3490  -19.6730  -33.2260 C.3       1 VAL        -0.0584
     33 N         -70.0550  -20.0640  -31.5770 N.am      1 GLY        -0.2664
     34 CA        -68.6160  -19.9440  -31.4540 C.3       1 GLY         0.1201
     35 C         -67.9730  -19.3620  -32.6960 C.2       1 GLY         0.2008
     36 O         -68.3590  -19.6770  -33.8230 O.2       1 GLY        -0.3947
     37 N         -66.9790  -18.5100  -32.4850 N.am      1 THR        -0.2616
     38 CA        -66.2770  -17.8720  -33.5890 C.3       1 THR         0.1565
     39 C         -64.8610  -18.4080  -33.7370 C.2       1 THR         0.2065
     40 O         -64.0840  -18.4260  -32.7820 O.2       1 THR        -0.3943
     41 CB        -66.2410  -16.3450  -33.4210 C.3       1 THR         0.0924
     42 OG1       -65.5830  -16.0090  -32.1940 O.3       1 THR        -0.3874
     43 CG2       -67.6550  -15.7960  -33.4010 C.3       1 THR        -0.0346
     44 N         -64.5400  -18.8390  -34.9510 N.am      1 LEU        -0.2636
     45 CA        -63.2900  -19.5260  -35.2330 C.3       1 LEU         0.1312
     46 C         -62.1270  -18.5430  -35.3010 C.2       1 LEU         0.2040
     47 O         -62.3030  -17.3790  -35.6610 O.2       1 LEU        -0.3944
     48 CB        -63.3940  -20.3030  -36.5510 C.3       1 LEU        -0.0101
     49 CG        -64.5320  -21.3160  -36.7250 C.3       1 LEU        -0.0425
     50 CD1       -65.8010  -20.6570  -37.2670 C.3       1 LEU        -0.0625
     51 CD2       -64.0970  -22.4620  -37.6260 C.3       1 LEU        -0.0625
     52 N         -60.9370  -19.0220  -34.9560 N.am      1 TYR        -0.2621
     53 CA        -59.7280  -18.2120  -35.0380 C.3       1 TYR         0.1392
     54 C         -58.6650  -18.9340  -35.8570 C.2       1 TYR         0.2078
     55 O         -58.4450  -20.1310  -35.6760 O.2       1 TYR        -0.3940
     56 CB        -59.1870  -17.9050  -33.6380 C.3       1 TYR         0.0164
     57 CG        -59.2060  -16.4410  -33.2550 C.ar      1 TYR        -0.0493
     58 CD1       -59.9710  -15.5230  -33.9630 C.ar      1 TYR        -0.0685
     59 CD2       -58.4460  -15.9750  -32.1880 C.ar      1 TYR        -0.0685
     60 CE1       -59.9850  -14.1840  -33.6120 C.ar      1 TYR        -0.0398
     61 CE2       -58.4530  -14.6410  -31.8310 C.ar      1 TYR        -0.0398
     62 CZ        -59.2240  -13.7500  -32.5460 C.ar      1 TYR         0.0805
     63 OH        -59.2330  -12.4200  -32.1940 O.3       1 TYR        -0.3376
     64 N         -58.0020  -18.2030  -36.7650 N.am      1 PRO        -0.2530
     65 CA        -56.9590  -18.7720  -37.6260 C.3       1 PRO         0.1254
     66 C         -55.7120  -19.1740  -36.8430 C.2       1 PRO         0.2151
     67 O         -55.5620  -20.3510  -36.5140 O.co2     1 PRO        -0.4120
     68 CB        -56.6510  -17.6320  -38.6020 C.3       1 PRO        -0.0135
     69 CG        -57.0380  -16.3940  -37.8640 C.3       1 PRO        -0.0287
     70 CD        -58.2360  -16.7770  -37.0510 C.3       1 PRO         0.0363
     71 H         -73.1767   -8.7362  -32.7698 H         1 PHE         0.2017
     72 H         -74.6332   -9.3432  -33.2381 H         1 PHE         0.2017
     73 H         -73.2419  -10.0821  -33.7152 H         1 PHE         0.2017
     74 H         -72.6918  -10.6791  -31.5081 H         1 PHE         0.1122
     75 H         -75.2377   -9.1212  -30.9652 H         1 PHE         0.0507
     76 H         -73.6070   -8.9164  -30.2403 H         1 PHE         0.0507
     77 H         -72.7399  -10.9087  -28.8168 H         1 PHE         0.0557
     78 H         -76.8433  -10.3250  -29.8188 H         1 PHE         0.0557
     79 H         -73.4057  -12.3411  -26.9281 H         1 PHE         0.0599
     80 H         -77.5105  -11.7526  -27.9323 H         1 PHE         0.0599
     81 H         -75.7930  -12.7620  -26.4825 H         1 PHE         0.0559
     82 H         -72.8140  -12.7747  -31.7239 H         1 SER         0.1885
     83 H         -75.4835  -14.0494  -31.9818 H         1 SER         0.0823
     84 H         -73.0263  -14.7496  -33.6579 H         1 SER         0.0606
     85 H         -74.5382  -13.9810  -34.2497 H         1 SER         0.0606
     86 H         -75.6331  -15.8972  -33.5701 H         1 SER         0.2097
     87 H         -75.7309  -15.8930  -30.8120 H         1 ILE         0.1883
     88 H         -73.5259  -16.5588  -28.9849 H         1 ILE         0.0803
     89 H         -75.3287  -18.2762  -28.1437 H         1 ILE         0.0345
     90 H         -76.7545  -17.9741  -30.1940 H         1 ILE         0.0267
     91 H         -77.1193  -16.3080  -29.6301 H         1 ILE         0.0267
     92 H         -74.5614  -16.2513  -26.9217 H         1 ILE         0.0235
     93 H         -76.3215  -16.5366  -26.7045 H         1 ILE         0.0235
     94 H         -75.7511  -15.2581  -27.8300 H         1 ILE         0.0235
     95 H         -78.9030  -17.8640  -29.0476 H         1 ILE         0.0230
     96 H         -78.0951  -17.2155  -27.5803 H         1 ILE         0.0230
     97 H         -77.7304  -18.8815  -28.1442 H         1 ILE         0.0230
     98 H         -72.6064  -17.1790  -31.3394 H         1 VAL         0.1883
     99 H         -72.5371  -20.1481  -31.2485 H         1 VAL         0.0802
    100 H         -72.6868  -18.4554  -33.7884 H         1 VAL         0.0343
    101 H         -72.5181  -20.6013  -35.0015 H         1 VAL         0.0234
    102 H         -72.2446  -21.4542  -33.4445 H         1 VAL         0.0234
    103 H         -71.0435  -20.2563  -34.0354 H         1 VAL         0.0234
    104 H         -74.8636  -18.8620  -32.6898 H         1 VAL         0.0234
    105 H         -74.5388  -20.6285  -32.7151 H         1 VAL         0.0234
    106 H         -74.7264  -19.7275  -34.2578 H         1 VAL         0.0234
    107 H         -70.4833  -20.9603  -31.4621 H         1 GLY         0.1881
    108 H         -68.1930  -20.9432  -31.2733 H         1 GLY         0.0763
    109 H         -68.3885  -19.2896  -30.5996 H         1 GLY         0.0763
    110 H         -66.7055  -18.3011  -31.5461 H         1 THR         0.1884
    111 H         -66.8269  -18.1014  -34.5136 H         1 THR         0.0826
    112 H         -65.6902  -15.9005  -34.2631 H         1 THR         0.0639
    113 H         -66.0560  -16.3951  -31.4662 H         1 THR         0.2101
    114 H         -67.6223  -14.7031  -33.2806 H         1 THR         0.0257
    115 H         -68.2093  -16.2409  -32.5615 H         1 THR         0.0257
    116 H         -68.1587  -16.0457  -34.3464 H         1 THR         0.0257
    117 H         -65.1833  -18.6851  -35.7010 H         1 LEU         0.1883
    118 H         -63.0955  -20.2399  -34.4191 H         1 LEU         0.0800
    119 H         -62.4498  -20.8531  -36.6771 H         1 LEU         0.0315
    120 H         -63.4963  -19.5608  -37.3564 H         1 LEU         0.0315
    121 H         -64.7661  -21.7321  -35.7340 H         1 LEU         0.0298
    122 H         -66.5899  -21.4156  -37.3767 H         1 LEU         0.0232
    123 H         -65.5892  -20.2041  -38.2468 H         1 LEU         0.0232
    124 H         -66.1368  -19.8773  -36.5675 H         1 LEU         0.0232
    125 H         -63.1842  -22.9219  -37.2194 H         1 LEU         0.0232
    126 H         -63.8950  -22.0775  -38.6366 H         1 LEU         0.0232
    127 H         -64.8972  -23.2153  -37.6734 H         1 LEU         0.0232
    128 H         -60.8687  -19.9652  -34.6308 H         1 TYR         0.1885
    129 H         -59.9745  -17.2628  -35.5363 H         1 TYR         0.0821
    130 H         -58.1462  -18.2576  -33.5888 H         1 TYR         0.0453
    131 H         -59.7962  -18.4573  -32.9074 H         1 TYR         0.0453
    132 H         -60.5664  -15.8604  -34.8036 H         1 TYR         0.0530
    133 H         -57.8361  -16.6725  -31.6254 H         1 TYR         0.0530
    134 H         -60.5905  -13.4803  -34.1716 H         1 TYR         0.0525
    135 H         -57.8561  -14.2970  -30.9941 H         1 TYR         0.0525
    136 H         -59.8089  -11.9425  -32.7795 H         1 TYR         0.2458
    137 H         -57.3420  -19.6522  -38.1633 H         1 PRO         0.0753
    138 O1        -54.8461  -18.3114  -36.5368 O.co2     1 PRO        -0.4120
    139 H         -57.2439  -17.7373  -39.5225 H         1 PRO         0.0307
    140 H         -55.5807  -17.6152  -38.8551 H         1 PRO         0.0307
    141 H         -57.2922  -15.5887  -38.5689 H         1 PRO         0.0286
    142 H         -56.2180  -16.0633  -37.2096 H         1 PRO         0.0286
    143 H         -58.2866  -16.1907  -36.1216 H         1 PRO         0.0524
    144 H         -59.1641  -16.6361  -37.6244 H         1 PRO         0.0524
@<TRIPOS>BOND
     1    1    2 1  
     2    2    3 1  
     3    2    5 1  
     4    3    4 2  
     5    3   12 am 
     6    5    6 1  
     7    6    7 ar 
     8    6    8 ar 
     9    7    9 ar 
    10    8   10 ar 
    11    9   11 ar 
    12   10   11 ar 
    13   12   13 1  
    14   13   14 1  
    15   13   16 1  
    16   14   15 2  
    17   14   18 am 
    18   16   17 1  
    19   18   19 1  
    20   19   20 1  
    21   19   22 1  
    22   20   21 2  
    23   20   26 am 
    24   22   23 1  
    25   22   24 1  
    26   23   25 1  
    27   26   27 1  
    28   27   28 1  
    29   27   30 1  
    30   28   29 2  
    31   28   33 am 
    32   30   31 1  
    33   30   32 1  
    34   33   34 1  
    35   34   35 1  
    36   35   36 2  
    37   35   37 am 
    38   37   38 1  
    39   38   39 1  
    40   38   41 1  
    41   39   40 2  
    42   39   44 am 
    43   41   42 1  
    44   41   43 1  
    45   44   45 1  
    46   45   46 1  
    47   45   48 1  
    48   46   47 2  
    49   46   52 am 
    50   48   49 1  
    51   49   50 1  
    52   49   51 1  
    53   52   53 1  
    54   53   54 1  
    55   53   56 1  
    56   54   55 2  
    57   54   64 am 
    58   56   57 1  
    59   57   58 ar 
    60   57   59 ar 
    61   58   60 ar 
    62   59   61 ar 
    63   60   62 ar 
    64   61   62 ar 
    65   62   63 1  
    66   64   65 1  
    67   64   70 1  
    68   65   66 1  
    69   65   68 1  
    70   66   67 ar 
    71   68   69 1  
    72   69   70 1  
    73    1   71 1  
    74    1   72 1  
    75    1   73 1  
    76    2   74 1  
    77    5   75 1  
    78    5   76 1  
    79    7   77 1  
    80    8   78 1  
    81    9   79 1  
    82   10   80 1  
    83   11   81 1  
    84   12   82 1  
    85   13   83 1  
    86   16   84 1  
    87   16   85 1  
    88   17   86 1  
    89   18   87 1  
    90   19   88 1  
    91   22   89 1  
    92   23   90 1  
    93   23   91 1  
    94   24   92 1  
    95   24   93 1  
    96   24   94 1  
    97   25   95 1  
    98   25   96 1  
    99   25   97 1  
   100   26   98 1  
   101   27   99 1  
   102   30  100 1  
   103   31  101 1  
   104   31  102 1  
   105   31  103 1  
   106   32  104 1  
   107   32  105 1  
   108   32  106 1  
   109   33  107 1  
   110   34  108 1  
   111   34  109 1  
   112   37  110 1  
   113   38  111 1  
   114   41  112 1  
   115   42  113 1  
   116   43  114 1  
   117   43  115 1  
   118   43  116 1  
   119   44  117 1  
   120   45  118 1  
   121   48  119 1  
   122   48  120 1  
   123   49  121 1  
   124   50  122 1  
   125   50  123 1  
   126   50  124 1  
   127   51  125 1  
   128   51  126 1  
   129   51  127 1  
   130   52  128 1  
   131   53  129 1  
   132   56  130 1  
   133   56  131 1  
   134   58  132 1  
   135   59  133 1  
   136   60  134 1  
   137   61  135 1  
   138   63  136 1  
   139   65  137 1  
   140   66  138 ar 
   141   68  139 1  
   142   68  140 1  
   143   69  141 1  
   144   69  142 1  
   145   70  143 1  
   146   70  144 1  
@<TRIPOS>SUBSTRUCTURE
     1 PHE         1

