### 
### Created by X-TOOL on Mon Sep 10 21:13:01 2018
### 

@<TRIPOS>MOLECULE
3ern_ligand
   33    34     1     0     0
SMALL
GAST_HUCK


@<TRIPOS>ATOM
      1 P          68.0490  -70.4000   41.7900 P.3       1 CAR         0.2008
      2 OP1        67.5360  -69.0370   41.4610 O.co2     1 CAR        -0.5537
      3 OP2        68.5660  -71.1910   40.4760 O.co2     1 CAR        -0.5537
      4 OP3        66.8870  -71.3290   42.4460 O.co2     1 CAR        -0.5537
      5 O5'        69.2900  -70.4020   42.8180 O.3       1 CAR        -0.2734
      6 C5'        69.7030  -71.6540   43.4090 C.3       1 CAR         0.1072
      7 C4'        71.1620  -71.6210   43.8930 C.3       1 CAR         0.1183
      8 O4'        72.0040  -71.1110   42.8400 O.3       1 CAR        -0.3353
      9 C3'        71.3660  -70.6440   45.0360 C.3       1 CAR         0.1150
     10 O3'        71.0310  -71.2810   46.2560 O.3       1 CAR        -0.3864
     11 C2'        72.8610  -70.4070   44.9580 C.3       1 CAR         0.1399
     12 O2'        73.2050  -69.1220   45.4570 O.3       1 CAR        -0.3835
     13 C1'        73.1400  -70.4510   43.4510 C.3       1 CAR         0.2109
     14 N1         73.3350  -69.0940   42.8540 N.am      1 CAR        -0.1467
     15 C2         74.6270  -68.5510   42.7750 C.2       1 CAR         0.3488
     16 O2         75.5820  -69.1970   43.2040 O.2       1 CAR        -0.3777
     17 N3         74.8210  -67.2830   42.2110 N.am      1 CAR        -0.1924
     18 C4         73.7210  -66.5660   41.7280 C.2       1 CAR         0.0853
     19 N4         73.8850  -65.3640   41.2040 N.2       1 CAR        -0.4291
     20 C5         72.4440  -67.0920   41.8140 C.2       1 CAR         0.0019
     21 C6         72.2460  -68.3500   42.3740 C.2       1 CAR         0.0739
     22 H1         69.5980  -72.4508   42.6579 H         1 CAR         0.0639
     23 H2         69.0509  -71.8713   44.2678 H         1 CAR         0.0639
     24 H3         71.4718  -72.6332   44.1920 H         1 CAR         0.0650
     25 H4         70.7882  -69.7167   44.9082 H         1 CAR         0.0648
     26 H5         71.1573  -70.6727   46.9747 H         1 CAR         0.2100
     27 H6         73.4186  -71.1855   45.4994 H         1 CAR         0.0677
     28 H7         72.9339  -69.0531   46.3649 H         1 CAR         0.2101
     29 H8         74.0504  -71.0417   43.2714 H         1 CAR         0.1013
     30 H9         75.7401  -66.8930   42.1541 H         1 CAR         0.2412
     31 H10        73.0886  -64.8522   40.8577 H         1 CAR         0.0340
     32 H11        71.5939  -66.5211   41.4433 H         1 CAR         0.0330
     33 H12        71.2394  -68.7602   42.4404 H         1 CAR         0.1288
@<TRIPOS>BOND
     1    1    2 ar 
     2    1    3 ar 
     3    1    4 ar 
     4    1    5 1  
     5    5    6 1  
     6    6    7 1  
     7    7    8 1  
     8    7    9 1  
     9    8   13 1  
    10    9   10 1  
    11    9   11 1  
    12   11   12 1  
    13   11   13 1  
    14   13   14 1  
    15   14   15 am 
    16   14   21 1  
    17   15   16 2  
    18   15   17 am 
    19   17   18 1  
    20   18   19 2  
    21   18   20 1  
    22   20   21 2  
    23    6   22 1  
    24    6   23 1  
    25    7   24 1  
    26    9   25 1  
    27   10   26 1  
    28   11   27 1  
    29   12   28 1  
    30   13   29 1  
    31   17   30 1  
    32   19   31 1  
    33   20   32 1  
    34   21   33 1  
@<TRIPOS>SUBSTRUCTURE
     1 CAR         1

