3ern_ligand
  -I-interpret- 

 35 36  0  0  0  0  0  0  0  0999 V2000
   68.0490  -70.4000   41.7900 P   0  0  0  0  0
   67.5360  -69.0370   41.4610 O   0  0  0  0  0
   68.5660  -71.1910   40.4760 O   0  0  0  0  0
   66.8870  -71.3290   42.4460 O   0  0  0  0  0
   69.2900  -70.4020   42.8180 O   0  0  0  0  0
   69.7030  -71.6540   43.4090 C   0  0  0  0  0
   71.1620  -71.6210   43.8930 C   0  0  0  0  0
   72.0040  -71.1110   42.8400 O   0  0  0  0  0
   71.3660  -70.6440   45.0360 C   0  0  0  0  0
   71.0310  -71.2810   46.2560 O   0  0  0  0  0
   72.8610  -70.4070   44.9580 C   0  0  0  0  0
   73.2050  -69.1220   45.4570 O   0  0  0  0  0
   73.1400  -70.4510   43.4510 C   0  0  0  0  0
   73.3350  -69.0940   42.8540 N   0  0  0  0  0
   74.6270  -68.5510   42.7750 C   0  0  0  0  0
   75.5820  -69.1970   43.2040 O   0  0  0  0  0
   74.8210  -67.2830   42.2110 N   0  0  0  0  0
   73.7210  -66.5660   41.7280 C   0  0  0  0  0
   73.8850  -65.3640   41.2040 N   0  0  0  0  0
   72.4440  -67.0920   41.8140 C   0  0  0  0  0
   72.2460  -68.3500   42.3740 C   0  0  0  0  0
   68.8860  -72.0592   40.7318 H   0  0  0  0  0
   67.2469  -72.1963   42.6458 H   0  0  0  0  0
   69.6176  -72.4302   42.6485 H   0  0  0  0  0
   69.0657  -71.8458   44.2722 H   0  0  0  0  0
   71.4024  -72.6396   44.1977 H   0  0  0  0  0
   70.7685  -69.7340   44.9811 H   0  0  0  0  0
   71.1586  -70.6663   46.9822 H   0  0  0  0  0
   73.4275  -71.1318   45.5426 H   0  0  0  0  0
   74.1552  -68.9999   45.3954 H   0  0  0  0  0
   74.0717  -70.9870   43.2704 H   0  0  0  0  0
   75.7584  -66.8852   42.1529 H   0  0  0  0  0
   74.8174  -64.9541   41.1500 H   0  0  0  0  0
   71.5932  -66.5206   41.4429 H   0  0  0  0  0
   71.2385  -68.7606   42.4404 H   0  0  0  0  0
  1  2  2  0  0  0
  1  3  1  0  0  0
  1  4  1  0  0  0
  1  5  1  0  0  0
  5  6  1  0  0  0
  6  7  1  0  0  0
  7  8  1  0  0  0
  7  9  1  0  0  0
  8 13  1  0  0  0
  9 10  1  0  0  0
  9 11  1  0  0  0
 11 12  1  0  0  0
 11 13  1  0  0  0
 13 14  1  0  0  0
 14 15  1  0  0  0
 14 21  1  0  0  0
 15 16  2  0  0  0
 15 17  1  0  0  0
 17 18  1  0  0  0
 18 19  2  0  0  0
 18 20  1  0  0  0
 20 21  2  0  0  0
  3 22  1  0  0  0
  4 23  1  0  0  0
  6 24  1  0  0  0
  6 25  1  0  0  0
  7 26  1  0  0  0
  9 27  1  0  0  0
 10 28  1  0  0  0
 11 29  1  0  0  0
 12 30  1  0  0  0
 13 31  1  0  0  0
 17 32  1  0  0  0
 19 33  1  0  0  0
 20 34  1  0  0  0
 21 35  1  0  0  0
M  END
$$$$
