4cc6_ligand
  -I-interpret- 

 34 36  0  0  0  0  0  0  0  0999 V2000
   28.3780   13.3790    8.4130 O   0  0  0  0  0
   27.4720   14.3290    7.8590 C   0  0  0  0  0
   27.6300   15.6830    8.5340 C   0  0  0  0  0
   26.8490   16.7250    7.8590 N   0  0  0  0  0
   27.0240   18.0950    8.1730 C   0  0  0  0  0
   27.4520   18.5010    9.4320 C   0  0  0  0  0
   27.5880   19.8610    9.7120 C   0  0  0  0  0
   27.3120   20.8020    8.7890 N   0  0  0  0  0
   26.8910   20.4090    7.5810 C   0  0  0  0  0
   26.6670   19.0760    7.2610 C   0  0  0  0  0
   26.6050   21.5350    6.5910 C   0  0  0  0  0
   25.4010   22.0830    6.7820 F   0  0  0  0  0
   27.4930   22.5240    6.6700 F   0  0  0  0  0
   26.6430   21.1210    5.3270 F   0  0  0  0  0
   28.1420   20.3440   10.9840 C   0  0  0  0  0
   28.2440   21.6680   11.1850 N   0  0  0  0  0
   28.8660   21.8300   12.3900 N   0  0  0  0  0
   29.1100   20.6210   12.9680 C   0  0  0  0  0
   29.7480   20.2400   14.1370 C   0  0  0  0  0
   29.9570   18.9540   14.4530 N   0  0  0  0  0
   29.6350   18.0230   13.5490 C   0  0  0  0  0
   28.9670   18.3210   12.3790 C   0  0  0  0  0
   28.7260   19.6610   12.0520 C   0  0  0  0  0
   28.2616   12.5335    7.9736 H   0  0  0  0  0
   26.4528   13.9753    8.0148 H   0  0  0  0  0
   27.6849   14.4393    6.7957 H   0  0  0  0  0
   28.6823   15.9644    8.4936 H   0  0  0  0  0
   27.2713   15.5975    9.5597 H   0  0  0  0  0
   26.1665   16.4578    7.1496 H   0  0  0  0  0
   27.6805   17.7594   10.1975 H   0  0  0  0  0
   26.2168   18.8051    6.3060 H   0  0  0  0  0
   30.0922   21.0130   14.8241 H   0  0  0  0  0
   29.9113   16.9868   13.7441 H   0  0  0  0  0
   28.6309   17.5228   11.7172 H   0  0  0  0  0
  1  2  1  0  0  0
  2  3  1  0  0  0
  3  4  1  0  0  0
  4  5  1  0  0  0
  5  6  4  0  0  0
  5 10  4  0  0  0
  6  7  4  0  0  0
  7  8  4  0  0  0
  7 15  1  0  0  0
  8  9  4  0  0  0
  9 10  4  0  0  0
  9 11  1  0  0  0
 11 12  1  0  0  0
 11 13  1  0  0  0
 11 14  1  0  0  0
 15 16  4  0  0  0
 15 23  4  0  0  0
 16 17  4  0  0  0
 17 18  4  0  0  0
 18 19  4  0  0  0
 18 23  4  0  0  0
 19 20  4  0  0  0
 20 21  4  0  0  0
 21 22  4  0  0  0
 22 23  4  0  0  0
  1 24  1  0  0  0
  2 25  1  0  0  0
  2 26  1  0  0  0
  3 27  1  0  0  0
  3 28  1  0  0  0
  4 29  1  0  0  0
  6 30  1  0  0  0
 10 31  1  0  0  0
 19 32  1  0  0  0
 21 33  1  0  0  0
 22 34  1  0  0  0
M  END
$$$$
