3h2f_ligand
  -I-interpret- 

 21 22  0  0  0  0  0  0  0  0999 V2000
  -81.6760   87.3650   91.8050 O   0  0  0  0  0
  -80.7100   86.6190   92.0500 C   0  0  0  0  0
  -79.8520   86.9020   93.2290 C   0  0  0  0  0
  -78.7350   85.9650   93.4480 C   0  0  0  0  0
  -78.5410   84.9380   92.5690 N   0  0  0  0  0
  -79.3640   84.7570   91.4960 C   0  0  0  0  0
  -79.1200   83.7030   90.6710 N   0  0  0  0  0
  -80.4410   85.5520   91.2660 N   0  0  0  0  0
  -80.0730   87.9340   94.0980 N   0  0  0  0  0
  -79.2420   88.1640   95.1480 C   0  0  0  0  0
  -78.0850   87.3220   95.4660 C   0  0  0  0  0
  -77.8700   86.1900   94.5370 N   0  0  0  0  0
  -76.7530   85.2630   94.7110 C   0  0  0  0  0
  -77.7649   84.2930   92.7177 H   0  0  0  0  0
  -79.7438   83.5144   89.8863 H   0  0  0  0  0
  -79.4469   89.0215   95.7890 H   0  0  0  0  0
  -78.2658   86.8935   96.4518 H   0  0  0  0  0
  -77.2022   87.9580   95.4008 H   0  0  0  0  0
  -75.8138   85.8134   94.6560 H   0  0  0  0  0
  -76.8342   84.7767   95.6831 H   0  0  0  0  0
  -76.7812   84.5102   93.9232 H   0  0  0  0  0
  1  2  2  0  0  0
  2  3  1  0  0  0
  2  8  1  0  0  0
  3  4  2  0  0  0
  3  9  1  0  0  0
  4  5  1  0  0  0
  4 12  1  0  0  0
  5  6  1  0  0  0
  6  7  2  0  0  0
  6  8  4  0  0  0
  9 10  2  0  0  0
 10 11  1  0  0  0
 11 12  1  0  0  0
 12 13  1  0  0  0
  5 14  1  0  0  0
  7 15  1  0  0  0
 10 16  1  0  0  0
 11 17  1  0  0  0
 11 18  1  0  0  0
 13 19  1  0  0  0
 13 20  1  0  0  0
 13 21  1  0  0  0
M  END
$$$$
