### 
### Created by X-TOOL on Mon Sep 10 21:13:29 2018
### 

@<TRIPOS>MOLECULE
4ztr_ligand
   54    57     1     0     0
SMALL
GAST_HUCK


@<TRIPOS>ATOM
      1 C01        -8.7790   27.4840  -13.9090 C.3       1 4RJ        -0.0565
      2 C02        -9.6250   26.3630  -13.2580 C.3       1 4RJ        -0.0261
      3 C03        -9.2860   26.1900  -11.7910 C.ar      1 4RJ        -0.0520
      4 C04        -8.5690   25.0720  -11.3750 C.ar      1 4RJ        -0.0692
      5 C05        -8.2490   24.9180  -10.0270 C.ar      1 4RJ        -0.0669
      6 C06        -8.6420   25.9000   -9.1140 C.ar      1 4RJ        -0.0188
      7 C07        -9.3760   27.0140   -9.5360 C.ar      1 4RJ        -0.0669
      8 C08        -9.6870   27.1590  -10.8790 C.ar      1 4RJ        -0.0692
      9 N09        -8.3630   25.7590   -7.7270 N.2       1 4RJ        -0.3144
     10 C10        -7.5580   26.5170   -7.0170 C.2       1 4RJ         0.2156
     11 S11        -6.6150   27.8190   -7.5510 S.3       1 4RJ         0.0485
     12 C12        -5.9410   28.1840   -6.1820 C.2       1 4RJ         0.1210
     13 C13        -5.0600   29.1440   -5.9240 C.3       1 4RJ         0.0397
     14 C14        -4.4300   30.1200   -6.9420 C.ar      1 4RJ        -0.0187
     15 C15        -3.9000   31.3030   -6.4240 C.ar      1 4RJ        -0.0080
     16 C16        -3.3030   32.2480   -7.2410 C.ar      1 4RJ         0.1268
     17 N17        -2.7600   33.4860   -6.7630 N.pl3     1 4RJ        -0.2458
     18 C18        -2.2940   33.7670   -5.3780 C.ar      1 4RJ         0.1374
     19 C19        -2.7890   33.0900   -4.2620 C.ar      1 4RJ        -0.0074
     20 C20        -2.3500   33.3720   -2.9670 C.ar      1 4RJ        -0.0386
     21 C21        -1.3960   34.3690   -2.8210 C.ar      1 4RJ         0.0249
     22 C22        -0.9230   35.0380   -3.9680 C.ar      1 4RJ         0.0122
     23 N23        -1.3750   34.7270   -5.1700 N.ar      1 4RJ        -0.2760
     24 C24        -0.8980   34.6860   -1.4130 C.2       1 4RJ         0.0623
     25 O25         0.2390   35.2510   -1.2520 O.co2     1 4RJ        -0.5620
     26 O26        -1.6120   34.3680   -0.4010 O.co2     1 4RJ        -0.5620
     27 N27        -3.2520   32.0070   -8.5600 N.ar      1 4RJ        -0.2902
     28 C28        -3.7290   30.9100   -9.1130 C.ar      1 4RJ        -0.0098
     29 C29        -4.3220   29.9330   -8.3460 C.ar      1 4RJ        -0.0426
     30 C30        -6.3680   27.3250   -5.0490 C.2       1 4RJ         0.2389
     31 O31        -5.9710   27.4410   -3.8910 O.2       1 4RJ        -0.3991
     32 N32        -7.4150   26.2120   -5.4960 N.am      1 4RJ        -0.1838
     33 C33        -8.0470   25.2180   -4.7250 C.3       1 4RJ         0.0553
     34 H1         -9.0520   27.5800  -14.9702 H         1 4RJ         0.0250
     35 H2         -7.7113   27.2326  -13.8264 H         1 4RJ         0.0250
     36 H3         -8.9725   28.4360  -13.3931 H         1 4RJ         0.0250
     37 H4         -9.4293   25.4168  -13.7837 H         1 4RJ         0.0408
     38 H5        -10.6905   26.6203  -13.3504 H         1 4RJ         0.0408
     39 H6         -8.2606   24.3240  -12.0964 H         1 4RJ         0.0535
     40 H7         -7.7009   24.0454   -9.6905 H         1 4RJ         0.0520
     41 H8         -9.6992   27.7586   -8.8175 H         1 4RJ         0.0520
     42 H9        -10.2419   28.0266  -11.2173 H         1 4RJ         0.0535
     43 H10        -4.2068   28.6292   -5.4582 H         1 4RJ         0.0680
     44 H11        -5.5509   29.7878   -5.1793 H         1 4RJ         0.0680
     45 H12        -3.9572   31.4860   -5.3571 H         1 4RJ         0.0564
     46 H13        -2.6853   34.2551   -7.4441 H         1 4RJ         0.2171
     47 H14        -3.5386   32.3203   -4.4056 H         1 4RJ         0.0633
     48 H15        -2.7388   32.8338   -2.1101 H         1 4RJ         0.0734
     49 H16        -0.1781   35.8184   -3.8625 H         1 4RJ         0.0822
     50 H17        -3.6533   30.7754  -10.1859 H         1 4RJ         0.0763
     51 H18        -4.7029   29.0298   -8.8088 H         1 4RJ         0.0558
     52 H19        -8.7117   24.6226   -5.3681 H         1 4RJ         0.0578
     53 H20        -8.6372   25.6927   -3.9273 H         1 4RJ         0.0578
     54 H21        -7.2859   24.5620   -4.2773 H         1 4RJ         0.0578
@<TRIPOS>BOND
     1    1    2 1  
     2    2    3 1  
     3    3    4 ar 
     4    3    8 ar 
     5    4    5 ar 
     6    5    6 ar 
     7    6    7 ar 
     8    6    9 1  
     9    7    8 ar 
    10    9   10 2  
    11   10   11 1  
    12   10   32 1  
    13   11   12 1  
    14   12   13 1  
    15   12   30 1  
    16   13   14 1  
    17   14   15 ar 
    18   14   29 ar 
    19   15   16 ar 
    20   16   17 1  
    21   16   27 ar 
    22   17   18 1  
    23   18   19 ar 
    24   18   23 ar 
    25   19   20 ar 
    26   20   21 ar 
    27   21   22 ar 
    28   21   24 1  
    29   22   23 ar 
    30   24   25 ar 
    31   24   26 ar 
    32   27   28 ar 
    33   28   29 ar 
    34   30   31 2  
    35   30   32 am 
    36   32   33 1  
    37    1   34 1  
    38    1   35 1  
    39    1   36 1  
    40    2   37 1  
    41    2   38 1  
    42    4   39 1  
    43    5   40 1  
    44    7   41 1  
    45    8   42 1  
    46   13   43 1  
    47   13   44 1  
    48   15   45 1  
    49   17   46 1  
    50   19   47 1  
    51   20   48 1  
    52   22   49 1  
    53   28   50 1  
    54   29   51 1  
    55   33   52 1  
    56   33   53 1  
    57   33   54 1  
@<TRIPOS>SUBSTRUCTURE
     1 4RJ         1

