4ztr_ligand
  -I-interpret- 

 56 59  0  0  0  0  0  0  0  0999 V2000
   -8.7790   27.4840  -13.9090 C   0  0  0  0  0
   -9.6250   26.3630  -13.2580 C   0  0  0  0  0
   -9.2860   26.1900  -11.7910 C   0  0  0  0  0
   -8.5690   25.0720  -11.3750 C   0  0  0  0  0
   -8.2490   24.9180  -10.0270 C   0  0  0  0  0
   -8.6420   25.9000   -9.1140 C   0  0  0  0  0
   -9.3760   27.0140   -9.5360 C   0  0  0  0  0
   -9.6870   27.1590  -10.8790 C   0  0  0  0  0
   -8.3630   25.7590   -7.7270 N   0  0  0  0  0
   -7.5580   26.5170   -7.0170 C   0  0  0  0  0
   -6.6150   27.8190   -7.5510 S   0  0  0  0  0
   -5.9410   28.1840   -6.1820 C   0  0  0  0  0
   -5.0600   29.1440   -5.9240 C   0  0  0  0  0
   -4.4300   30.1200   -6.9420 C   0  0  0  0  0
   -3.9000   31.3030   -6.4240 C   0  0  0  0  0
   -3.3030   32.2480   -7.2410 C   0  0  0  0  0
   -2.7600   33.4860   -6.7630 N   0  0  0  0  0
   -2.2940   33.7670   -5.3780 C   0  0  0  0  0
   -2.7890   33.0900   -4.2620 C   0  0  0  0  0
   -2.3500   33.3720   -2.9670 C   0  0  0  0  0
   -1.3960   34.3690   -2.8210 C   0  0  0  0  0
   -0.9230   35.0380   -3.9680 C   0  0  0  0  0
   -1.3750   34.7270   -5.1700 N   0  0  0  0  0
   -0.8980   34.6860   -1.4130 C   0  0  0  0  0
    0.2390   35.2510   -1.2520 O   0  0  0  0  0
   -1.6120   34.3680   -0.4010 O   0  0  0  0  0
   -3.2520   32.0070   -8.5600 N   0  0  0  0  0
   -3.7290   30.9100   -9.1130 C   0  0  0  0  0
   -4.3220   29.9330   -8.3460 C   0  0  0  0  0
   -6.3680   27.3250   -5.0490 C   0  0  0  0  0
   -5.9710   27.4410   -3.8910 O   0  0  0  0  0
   -7.4150   26.2120   -5.4960 N   0  0  0  0  0
   -8.0470   25.2180   -4.7250 C   0  0  0  0  0
   -8.9716   28.4267  -13.3969 H   0  0  0  0  0
   -7.7213   27.2337  -13.8265 H   0  0  0  0  0
   -9.0504   27.5782  -14.9605 H   0  0  0  0  0
   -9.4120   25.4267  -13.7738 H   0  0  0  0  0
  -10.6776   26.6344  -13.3389 H   0  0  0  0  0
   -8.2589   24.3198  -12.1004 H   0  0  0  0  0
   -7.6979   24.0406   -9.6887 H   0  0  0  0  0
   -9.7010   27.7627   -8.8136 H   0  0  0  0  0
  -10.2450   28.0314  -11.2192 H   0  0  0  0  0
   -5.5021   28.9042   -6.8725 H   0  0  0  0  0
   -4.1915   28.5649   -5.6103 H   0  0  0  0  0
   -5.6501   29.8222   -5.3076 H   0  0  0  0  0
   -3.9575   31.4871   -5.3512 H   0  0  0  0  0
   -2.6860   34.2476   -7.4375 H   0  0  0  0  0
   -3.5428   32.3160   -4.4063 H   0  0  0  0  0
   -2.7409   32.8308   -2.1054 H   0  0  0  0  0
   -0.1740   35.8227   -3.8619 H   0  0  0  0  0
    0.6363   35.4182   -2.1098 H   0  0  0  0  0
   -3.6529   30.7746  -10.1919 H   0  0  0  0  0
   -4.7050   29.0248   -8.8113 H   0  0  0  0  0
   -9.1271   25.3576   -4.7693 H   0  0  0  0  0
   -7.7898   24.2352   -5.1201 H   0  0  0  0  0
   -7.7117   25.2943   -3.6907 H   0  0  0  0  0
  1  2  1  0  0  0
  2  3  1  0  0  0
  3  4  4  0  0  0
  3  8  4  0  0  0
  4  5  4  0  0  0
  5  6  4  0  0  0
  6  7  4  0  0  0
  6  9  1  0  0  0
  7  8  4  0  0  0
  9 10  2  0  0  0
 10 11  1  0  0  0
 10 32  1  0  0  0
 11 12  1  0  0  0
 12 13  1  0  0  0
 12 30  1  0  0  0
 13 14  1  0  0  0
 14 15  4  0  0  0
 14 29  4  0  0  0
 15 16  4  0  0  0
 16 17  1  0  0  0
 16 27  4  0  0  0
 17 18  1  0  0  0
 18 19  4  0  0  0
 18 23  4  0  0  0
 19 20  4  0  0  0
 20 21  4  0  0  0
 21 22  4  0  0  0
 21 24  1  0  0  0
 22 23  4  0  0  0
 24 25  1  0  0  0
 24 26  2  0  0  0
 27 28  4  0  0  0
 28 29  4  0  0  0
 30 31  2  0  0  0
 30 32  1  0  0  0
 32 33  1  0  0  0
  1 34  1  0  0  0
  1 35  1  0  0  0
  1 36  1  0  0  0
  2 37  1  0  0  0
  2 38  1  0  0  0
  4 39  1  0  0  0
  5 40  1  0  0  0
  7 41  1  0  0  0
  8 42  1  0  0  0
 12 43  1  0  0  0
 13 44  1  0  0  0
 13 45  1  0  0  0
 15 46  1  0  0  0
 17 47  1  0  0  0
 19 48  1  0  0  0
 20 49  1  0  0  0
 22 50  1  0  0  0
 25 51  1  0  0  0
 28 52  1  0  0  0
 29 53  1  0  0  0
 33 54  1  0  0  0
 33 55  1  0  0  0
 33 56  1  0  0  0
M  END
$$$$
