6htp_ligand
  -I-interpret- 

 86 87  0  0  0  0  0  0  0  0999 V2000
   56.6420 -133.8210   33.0600 C   0  0  0  0  0
   58.3940 -135.3540   33.6300 C   0  0  0  0  0
   59.5990 -135.5640   34.2920 C   0  0  0  0  0
   61.3020 -134.3780   36.7320 C   0  0  0  0  0
   62.8420 -135.6860   39.7270 C   0  0  0  0  0
   63.6740 -135.3700   42.0300 C   0  0  0  0  0
   64.2660 -132.9920   42.2010 C   0  0  0  0  0
   65.3700 -130.6890   41.0060 C   0  0  0  0  0
   65.9420 -129.5870   40.3700 C   0  0  0  0  0
   64.9510 -133.0610   40.9700 C   0  0  0  0  0
   61.8640 -136.7030   43.2710 C   0  0  0  0  0
   61.3140 -139.4240   42.0510 C   0  0  0  0  0
   64.1550 -131.7400   42.8210 C   0  0  0  0  0
   64.7020 -130.5960   42.2380 C   0  0  0  0  0
   65.0760 -128.4150   40.3790 N   0  3  0  0  0
   65.4900 -131.9260   40.3850 C   0  0  0  0  0
   63.6960 -134.0600   42.8770 C   0  0  0  0  0
   63.3530 -136.6360   42.8580 C   0  0  0  0  0
   61.2290 -138.4050   43.5110 S   0  0  0  0  0
   59.7610 -138.2910   43.9230 O   0  0  0  0  0
   61.9920 -139.1140   44.6120 O   0  0  0  0  0
   62.6750 -135.2340   40.9730 N   0  0  0  0  0
   63.8220 -136.2960   39.2990 O   0  0  0  0  0
   61.5840 -135.4870   38.9070 C   0  0  0  0  0
   60.7300 -136.7260   39.2790 C   0  0  0  0  0
   59.4200 -136.8730   38.4760 C   0  0  0  0  0
   58.6530 -138.0900   39.0310 C   0  0  0  0  0
   58.5660 -135.5880   38.5670 C   0  0  0  0  0
   61.8060 -135.3980   37.4530 N   0  0  0  0  0
   60.6440 -133.4500   37.1980 O   0  0  0  0  0
   61.5480 -134.4560   35.2330 C   0  0  0  0  0
   62.3120 -133.2550   34.6800 C   0  0  0  0  0
   63.7840 -133.1980   35.1180 C   0  0  0  0  0
   64.4140 -131.9340   34.5020 C   0  0  0  0  0
   64.5500 -134.4530   34.6630 C   0  0  0  0  0
   60.2520 -134.4350   34.5730 N   0  0  0  0  0
   60.0130 -136.6950   34.5630 O   0  0  0  0  0
   57.8490 -134.1190   33.7030 N   0  0  0  0  0
   55.9940 -134.8220   32.3170 C   0  0  0  0  0
   56.5630 -136.1190   32.2330 N   0  0  0  0  0
   57.7790 -136.3810   32.8940 C   0  0  0  0  0
   56.2095 -132.8233   33.1349 H   0  0  0  0  0
   64.6773 -135.5005   41.6244 H   0  0  0  0  0
   66.1230 -129.8594   39.3302 H   0  0  0  0  0
   66.8556 -129.3302   40.9061 H   0  0  0  0  0
   65.0583 -134.0236   40.4701 H   0  0  0  0  0
   61.2852 -136.2540   42.4638 H   0  0  0  0  0
   61.7711 -136.1867   44.2265 H   0  0  0  0  0
   60.9073 -140.4104   42.2738 H   0  0  0  0  0
   60.7332 -138.9620   41.2527 H   0  0  0  0  0
   62.3533 -139.5205   41.7369 H   0  0  0  0  0
   63.6328 -131.6584   43.7743 H   0  0  0  0  0
   64.6109 -129.6318   42.7381 H   0  0  0  0  0
   65.5441 -127.6442   39.9025 H   0  0  0  0  0
   64.2039 -128.6344   39.8976 H   0  0  0  0  0
   64.8759 -128.1490   41.3432 H   0  0  0  0  0
   66.0116 -132.0044   39.4311 H   0  0  0  0  0
   64.2949 -134.2488   43.7679 H   0  0  0  0  0
   62.6644 -133.7955   43.1092 H   0  0  0  0  0
   63.9556 -136.6089   43.7659 H   0  0  0  0  0
   63.5735 -137.5083   42.2427 H   0  0  0  0  0
   61.7975 -134.7660   41.1998 H   0  0  0  0  0
   61.1114 -134.5310   39.1326 H   0  0  0  0  0
   60.4488 -136.6140   40.3261 H   0  0  0  0  0
   61.3358 -137.6054   39.0605 H   0  0  0  0  0
   59.6462 -137.0273   37.4209 H   0  0  0  0  0
   59.2651 -138.9851   38.9200 H   0  0  0  0  0
   58.4317 -137.9282   40.0860 H   0  0  0  0  0
   57.7219 -138.2141   38.4780 H   0  0  0  0  0
   58.3168 -135.3920   39.6099 H   0  0  0  0  0
   59.1314 -134.7482   38.1631 H   0  0  0  0  0
   57.6496 -135.7208   37.9919 H   0  0  0  0  0
   62.3510 -136.1216   36.9842 H   0  0  0  0  0
   62.1328 -135.3581   35.0534 H   0  0  0  0  0
   61.8252 -132.3575   35.0616 H   0  0  0  0  0
   62.3001 -133.3357   33.5931 H   0  0  0  0  0
   63.8409 -133.1623   36.2059 H   0  0  0  0  0
   64.3453 -131.9879   33.4155 H   0  0  0  0  0
   63.8799 -131.0530   34.8579 H   0  0  0  0  0
   65.4610 -131.8701   34.7984 H   0  0  0  0  0
   64.0899 -135.3375   35.1034 H   0  0  0  0  0
   64.5129 -134.5256   33.5761 H   0  0  0  0  0
   65.5878 -134.3815   34.9884 H   0  0  0  0  0
   59.8342 -133.5395   34.3200 H   0  0  0  0  0
   55.0563 -134.6027   31.8063 H   0  0  0  0  0
   58.2373 -137.3682   32.8353 H   0  0  0  0  0
 38  1  4  0  0  0
  1 39  4  0  0  0
  3  2  1  0  0  0
  2 38  4  0  0  0
  2 41  4  0  0  0
 36  3  1  0  0  0
  3 37  2  0  0  0
  4 29  1  0  0  0
  4 30  2  0  0  0
 31  4  1  0  0  0
  5 22  1  0  0  0
  5 23  2  0  0  0
 24  5  1  0  0  0
  6 17  1  0  0  0
  6 18  1  0  0  0
 22  6  1  0  0  0
  7 10  4  0  0  0
  7 13  4  0  0  0
 17  7  1  0  0  0
  8  9  1  0  0  0
 14  8  4  0  0  0
 16  8  4  0  0  0
  9 15  1  0  0  0
 10 16  4  0  0  0
 18 11  1  0  0  0
 11 19  1  0  0  0
 19 12  1  0  0  0
 13 14  4  0  0  0
 19 20  2  0  0  0
 19 21  2  0  0  0
 24 25  1  0  0  0
 29 24  1  0  0  0
 25 26  1  0  0  0
 26 27  1  0  0  0
 26 28  1  0  0  0
 31 32  1  0  0  0
 31 36  1  0  0  0
 32 33  1  0  0  0
 33 34  1  0  0  0
 33 35  1  0  0  0
 39 40  4  0  0  0
 40 41  4  0  0  0
  1 42  1  0  0  0
  6 43  1  0  0  0
  9 44  1  0  0  0
  9 45  1  0  0  0
 10 46  1  0  0  0
 11 47  1  0  0  0
 11 48  1  0  0  0
 12 49  1  0  0  0
 12 50  1  0  0  0
 12 51  1  0  0  0
 13 52  1  0  0  0
 14 53  1  0  0  0
 15 54  1  0  0  0
 15 55  1  0  0  0
 15 56  1  0  0  0
 16 57  1  0  0  0
 17 58  1  0  0  0
 17 59  1  0  0  0
 18 60  1  0  0  0
 18 61  1  0  0  0
 22 62  1  0  0  0
 24 63  1  0  0  0
 25 64  1  0  0  0
 25 65  1  0  0  0
 26 66  1  0  0  0
 27 67  1  0  0  0
 27 68  1  0  0  0
 27 69  1  0  0  0
 28 70  1  0  0  0
 28 71  1  0  0  0
 28 72  1  0  0  0
 29 73  1  0  0  0
 31 74  1  0  0  0
 32 75  1  0  0  0
 32 76  1  0  0  0
 33 77  1  0  0  0
 34 78  1  0  0  0
 34 79  1  0  0  0
 34 80  1  0  0  0
 35 81  1  0  0  0
 35 82  1  0  0  0
 35 83  1  0  0  0
 36 84  1  0  0  0
 39 85  1  0  0  0
 41 86  1  0  0  0
M  END
$$$$
