5os5_ligand
  -I-interpret- 

 25 26  0  0  0  0  0  0  0  0999 V2000
  -13.4480   14.1570  -16.2650 C   0  0  0  0  0
  -12.9850   15.1510  -17.1080 C   0  0  0  0  0
  -12.6240   18.0780  -20.0870 C   0  0  0  0  0
  -13.5780   18.2850  -21.0650 C   0  0  0  0  0
  -14.1760   17.2060  -21.7000 C   0  0  0  0  0
  -12.2670   16.7920  -19.7100 C   0  0  0  0  0
  -12.8620   15.7140  -20.3510 C   0  0  0  0  0
  -13.8080   15.9180  -21.3370 C   0  0  0  0  0
  -11.6330   15.2550  -17.3920 C   0  0  0  0  0
  -10.7470   14.3620  -16.8090 C   0  0  0  0  0
  -11.2110   13.3620  -15.9750 C   0  0  0  0  0
  -15.1310   17.4270  -22.6810 O   0  0  0  0  0
  -11.0290   16.5540  -18.4550 S   0  0  0  0  0
  -12.5650   13.2530  -15.6950 C   0  0  0  0  0
  -13.0270   12.2550  -14.8580 O   0  0  0  0  0
  -14.5136   14.0840  -16.0475 H   0  0  0  0  0
  -13.6878   15.8564  -17.5514 H   0  0  0  0  0
  -12.1477   18.9332  -19.6075 H   0  0  0  0  0
  -13.8622   19.3010  -21.3390 H   0  0  0  0  0
  -12.5805   14.6980  -20.0741 H   0  0  0  0  0
  -14.2678   15.0629  -21.8324 H   0  0  0  0  0
   -9.6791   14.4489  -17.0093 H   0  0  0  0  0
  -10.5083   12.6546  -15.5346 H   0  0  0  0  0
  -15.4434   16.5840  -23.0175 H   0  0  0  0  0
  -12.2864   11.7243  -14.5555 H   0  0  0  0  0
  2  1  4  0  0  0
  1 14  4  0  0  0
  9  2  4  0  0  0
  3  4  4  0  0  0
  6  3  4  0  0  0
  4  5  4  0  0  0
  8  5  4  0  0  0
  5 12  1  0  0  0
  6  7  4  0  0  0
 13  6  1  0  0  0
  7  8  4  0  0  0
  9 10  4  0  0  0
  9 13  1  0  0  0
 10 11  4  0  0  0
 11 14  4  0  0  0
 14 15  1  0  0  0
  1 16  1  0  0  0
  2 17  1  0  0  0
  3 18  1  0  0  0
  4 19  1  0  0  0
  7 20  1  0  0  0
  8 21  1  0  0  0
 10 22  1  0  0  0
 11 23  1  0  0  0
 12 24  1  0  0  0
 15 25  1  0  0  0
M  END
$$$$
