### 
### Created by X-TOOL on Mon Sep 10 21:13:25 2018
### 

@<TRIPOS>MOLECULE
4pgd_ligand
  133   137     1     0     0
SMALL
GAST_HUCK


@<TRIPOS>ATOM
      1 N          56.4190   19.1140    5.3550 N.4       1 PHE         0.2394
      2 CA         57.5330   19.8500    4.6990 C.3       1 PHE         0.0744
      3 C          57.0380   20.3830    3.3600 C.2       1 PHE         0.2288
      4 O          56.9440   19.6390    2.3800 O.2       1 PHE        -0.3905
      5 CB         58.7270   18.9130    4.5150 C.3       1 PHE         0.0416
      6 CG         60.0410   19.6170    4.3740 C.ar      1 PHE        -0.0353
      7 CD1        60.5990   19.8330    3.1220 C.ar      1 PHE        -0.0600
      8 CD2        60.7330   20.0480    5.4980 C.ar      1 PHE        -0.0600
      9 CE1        61.8210   20.4750    2.9930 C.ar      1 PHE        -0.0686
     10 CE2        61.9550   20.6920    5.3750 C.ar      1 PHE        -0.0686
     11 CZ         62.4990   20.9080    4.1210 C.ar      1 PHE        -0.0687
     12 N          56.6980   21.6680    3.3310 N.am      1 ALA        -0.2611
     13 CA         56.1060   22.2730    2.1480 C.3       1 ALA         0.1285
     14 C          57.1580   22.4810    1.0590 C.2       1 ALA         0.2061
     15 O          58.3450   22.6170    1.3610 O.2       1 ALA        -0.3942
     16 CB         55.4450   23.5950    2.5060 C.3       1 ALA        -0.0244
     17 N          56.7300   22.4960   -0.2150 N.am      1 PRO        -0.2498
     18 CA         57.6540   22.8240   -1.2940 C.3       1 PRO         0.1338
     19 C          58.2610   24.2080   -1.1040 C.2       1 PRO         0.2039
     20 O          57.5390   25.1630   -0.8100 O.2       1 PRO        -0.3944
     21 CB         56.7690   22.8010   -2.5430 C.3       1 PRO        -0.0104
     22 CG         55.6290   21.9210   -2.1900 C.3       1 PRO        -0.0281
     23 CD         55.3970   22.1230   -0.7210 C.3       1 PRO         0.0369
     24 N          59.5770   24.3050   -1.2700 N.am      1 GLY        -0.2664
     25 CA         60.3040   25.5520   -1.0530 C.3       1 GLY         0.1201
     26 C          60.6260   26.3200   -2.3190 C.2       1 GLY         0.2009
     27 O          61.1250   27.4400   -2.2470 O.2       1 GLY        -0.3947
     28 N          60.3530   25.7300   -3.4800 N.am      1 ASN        -0.2618
     29 CA         60.6170   26.3950   -4.7490 C.3       1 ASN         0.1476
     30 C          59.5200   26.1530   -5.7750 C.2       1 ASN         0.2064
     31 O          59.4130   25.0630   -6.3340 O.2       1 ASN        -0.3942
     32 CB         61.9600   25.9420   -5.3290 C.3       1 ASN         0.0773
     33 CG         62.2100   26.5020   -6.7240 C.2       1 ASN         0.1780
     34 OD1        62.0650   27.7040   -6.9610 O.2       1 ASN        -0.3970
     35 ND2        62.5700   25.6270   -7.6580 N.am      1 ASN        -0.3007
     36 N          58.7060   27.1750   -6.0140 N.am      1 TYR        -0.2620
     37 CA         57.8100   27.1840   -7.1600 C.3       1 TYR         0.1392
     38 C          58.4780   28.0240   -8.2400 C.2       1 TYR         0.2082
     39 O          58.5500   29.2480   -8.1140 O.2       1 TYR        -0.3940
     40 CB         56.4510   27.7770   -6.7970 C.3       1 TYR         0.0164
     41 CG         55.6940   26.9770   -5.7740 C.ar      1 TYR        -0.0493
     42 CD1        54.8480   25.9440   -6.1540 C.ar      1 TYR        -0.0685
     43 CD2        55.8210   27.2580   -4.4220 C.ar      1 TYR        -0.0685
     44 CE1        54.1500   25.2100   -5.2100 C.ar      1 TYR        -0.0398
     45 CE2        55.1300   26.5330   -3.4690 C.ar      1 TYR        -0.0398
     46 CZ         54.2950   25.5100   -3.8640 C.ar      1 TYR         0.0805
     47 OH         53.6120   24.7910   -2.9070 O.3       1 TYR        -0.3376
     48 N          58.9860   27.3740   -9.3000 N.am      1 PRO        -0.2497
     49 CA         59.6950   28.1270  -10.3330 C.3       1 PRO         0.1338
     50 C          58.7680   29.1020  -11.0410 C.2       1 PRO         0.2041
     51 O          57.5920   28.8000  -11.2310 O.2       1 PRO        -0.3944
     52 CB         60.1870   27.0390  -11.2920 C.3       1 PRO        -0.0104
     53 CG         59.2570   25.9000  -11.0900 C.3       1 PRO        -0.0281
     54 CD         58.8300   25.9530   -9.6560 C.3       1 PRO         0.0369
     55 N          59.2890   30.2650  -11.4110 N.am      1 ALA        -0.2640
     56 CA         58.4650   31.3030  -12.0230 C.3       1 ALA         0.1282
     57 C          57.9730   30.8910  -13.4120 C.2       1 ALA         0.2032
     58 O          58.6570   30.1590  -14.1340 O.2       1 ALA        -0.3944
     59 CB         59.2270   32.6190  -12.0970 C.3       1 ALA        -0.0244
     60 N          56.7830   31.3710  -13.7740 N.am      1 PHE        -0.2677
     61 CA         56.1810   31.0710  -15.0730 C.3       1 PHE         0.1039
     62 C          56.9110   31.7690  -16.2220 C.2       1 PHE         0.0621
     63 O          57.9100   32.4690  -16.0320 O.co2     1 PHE        -0.5664
     64 CB         54.7020   31.4840  -15.0950 C.3       1 PHE         0.0159
     65 CG         53.8180   30.7120  -14.1430 C.ar      1 PHE        -0.0392
     66 CD1        54.2250   29.5070  -13.5780 C.ar      1 PHE        -0.0602
     67 CD2        52.5480   31.1800  -13.8490 C.ar      1 PHE        -0.0602
     68 CE1        53.3930   28.8060  -12.7230 C.ar      1 PHE        -0.0686
     69 CE2        51.7140   30.4800  -12.9970 C.ar      1 PHE        -0.0686
     70 CZ         52.1350   29.2920  -12.4360 C.ar      1 PHE        -0.0687
     71 OXT        56.5060   31.6470  -17.3820 O.co2     1 PHE        -0.5664
     72 H1         56.7311   18.7546    6.2435 H         1 PHE         0.2017
     73 H2         56.1290   18.3490    4.7662 H         1 PHE         0.2017
     74 H3         55.6421   19.7397    5.4998 H         1 PHE         0.2017
     75 H4         57.8376   20.6955    5.3333 H         1 PHE         0.1122
     76 H5         58.5582   18.3122    3.6092 H         1 PHE         0.0507
     77 H6         58.7831   18.2491    5.3902 H         1 PHE         0.0507
     78 H7         60.0739   19.4962    2.2355 H         1 PHE         0.0557
     79 H8         60.3132   19.8791    6.4830 H         1 PHE         0.0557
     80 H9         62.2461   20.6382    2.0093 H         1 PHE         0.0599
     81 H10        62.4837   21.0259    6.2605 H         1 PHE         0.0599
     82 H11        63.4524   21.4143    4.0216 H         1 PHE         0.0559
     83 H12        56.8530   22.2322    4.1420 H         1 ALA         0.1884
     84 H13        55.3347   21.5919    1.7591 H         1 ALA         0.0797
     85 H14        55.0024   24.0401    1.6027 H         1 ALA         0.0277
     86 H15        56.1980   24.2808    2.9214 H         1 ALA         0.0277
     87 H16        54.6564   23.4203    3.2528 H         1 ALA         0.0277
     88 H17        58.4573   22.0758   -1.3635 H         1 PRO         0.0802
     89 H18        57.3221   22.3915   -3.4011 H         1 PRO         0.0313
     90 H19        56.4149   23.8140   -2.7846 H         1 PRO         0.0313
     91 H20        55.8778   20.8698   -2.3976 H         1 PRO         0.0287
     92 H21        54.7336   22.2058   -2.7620 H         1 PRO         0.0287
     93 H22        54.6689   22.9284   -0.5443 H         1 PRO         0.0524
     94 H23        55.0409   21.1963   -0.2473 H         1 PRO         0.0524
     95 H24        60.0875   23.4934   -1.5541 H         1 GLY         0.1881
     96 H25        61.2504   25.3141   -0.5454 H         1 GLY         0.0763
     97 H26        59.6928   26.1978   -0.4055 H         1 GLY         0.0763
     98 H27        59.9585   24.8111   -3.4815 H         1 ASN         0.1885
     99 H28        60.6696   27.4766   -4.5559 H         1 ASN         0.0826
    100 H29        61.9688   24.8434   -5.3828 H         1 ASN         0.0551
    101 H30        62.7656   26.2829   -4.6621 H         1 ASN         0.0551
    102 H31        62.7474   25.9372   -8.5920 H         1 ASN         0.1814
    103 H32        62.6634   24.6586   -7.4265 H         1 ASN         0.1814
    104 H33        58.7092   27.9572   -5.3910 H         1 TYR         0.1885
    105 H34        57.6656   26.1558   -7.5233 H         1 TYR         0.0821
    106 H35        55.8424   27.8351   -7.7115 H         1 TYR         0.0453
    107 H36        56.6099   28.7894   -6.3973 H         1 TYR         0.0453
    108 H37        54.7321   25.7085   -7.2057 H         1 TYR         0.0530
    109 H38        56.4753   28.0624   -4.1060 H         1 TYR         0.0530
    110 H39        53.4938   24.4053   -5.5214 H         1 TYR         0.0525
    111 H40        55.2443   26.7678   -2.4169 H         1 TYR         0.0525
    112 H41        53.0821   24.1259   -3.3305 H         1 TYR         0.2458
    113 H42        60.5421   28.6799   -9.9010 H         1 PRO         0.0802
    114 H43        61.2180   26.7445  -11.0465 H         1 PRO         0.0313
    115 H44        60.1446   27.3928  -12.3327 H         1 PRO         0.0313
    116 H45        59.7686   24.9491  -11.2998 H         1 PRO         0.0287
    117 H46        58.3835   26.0000  -11.7511 H         1 PRO         0.0287
    118 H47        57.7833   25.6332   -9.5459 H         1 PRO         0.0524
    119 H48        59.4750   25.3184   -9.0306 H         1 PRO         0.0524
    120 H49        60.2643   30.4335  -11.2679 H         1 ALA         0.1883
    121 H50        57.5830   31.4542  -11.3833 H         1 ALA         0.0797
    122 H51        58.5894   33.3863  -12.5604 H         1 ALA         0.0277
    123 H52        60.1356   32.4831  -12.7019 H         1 ALA         0.0277
    124 H53        59.5064   32.9385  -11.0822 H         1 ALA         0.0277
    125 H54        56.2844   31.9567  -13.1350 H         1 PHE         0.1877
    126 H55        56.2439   29.9846  -15.2333 H         1 PHE         0.0749
    127 H56        54.3194   31.3348  -16.1155 H         1 PHE         0.0467
    128 H57        54.6398   32.5503  -14.8323 H         1 PHE         0.0467
    129 H58        55.2073   29.1122  -13.8109 H         1 PHE         0.0557
    130 H59        52.2035   32.1071  -14.2927 H         1 PHE         0.0557
    131 H60        53.7298   27.8760  -12.2794 H         1 PHE         0.0599
    132 H61        50.7268   30.8656  -12.7692 H         1 PHE         0.0599
    133 H62        51.4785   28.7421  -11.7714 H         1 PHE         0.0559
@<TRIPOS>BOND
     1    1    2 1  
     2    2    3 1  
     3    2    5 1  
     4    3    4 2  
     5    3   12 am 
     6    5    6 1  
     7    6    7 ar 
     8    6    8 ar 
     9    7    9 ar 
    10    8   10 ar 
    11    9   11 ar 
    12   10   11 ar 
    13   12   13 1  
    14   13   14 1  
    15   13   16 1  
    16   14   15 2  
    17   14   17 am 
    18   17   18 1  
    19   17   23 1  
    20   18   19 1  
    21   18   21 1  
    22   19   20 2  
    23   19   24 am 
    24   21   22 1  
    25   22   23 1  
    26   24   25 1  
    27   25   26 1  
    28   26   27 2  
    29   26   28 am 
    30   28   29 1  
    31   29   30 1  
    32   29   32 1  
    33   30   31 2  
    34   30   36 am 
    35   32   33 1  
    36   33   34 2  
    37   33   35 am 
    38   36   37 1  
    39   37   38 1  
    40   37   40 1  
    41   38   39 2  
    42   38   48 am 
    43   40   41 1  
    44   41   42 ar 
    45   41   43 ar 
    46   42   44 ar 
    47   43   45 ar 
    48   44   46 ar 
    49   45   46 ar 
    50   46   47 1  
    51   48   49 1  
    52   48   54 1  
    53   49   50 1  
    54   49   52 1  
    55   50   51 2  
    56   50   55 am 
    57   52   53 1  
    58   53   54 1  
    59   55   56 1  
    60   56   57 1  
    61   56   59 1  
    62   57   58 2  
    63   57   60 am 
    64   60   61 1  
    65   61   62 1  
    66   61   64 1  
    67   62   63 ar 
    68   62   71 ar 
    69   64   65 1  
    70   65   66 ar 
    71   65   67 ar 
    72   66   68 ar 
    73   67   69 ar 
    74   68   70 ar 
    75   69   70 ar 
    76    1   72 1  
    77    1   73 1  
    78    1   74 1  
    79    2   75 1  
    80    5   76 1  
    81    5   77 1  
    82    7   78 1  
    83    8   79 1  
    84    9   80 1  
    85   10   81 1  
    86   11   82 1  
    87   12   83 1  
    88   13   84 1  
    89   16   85 1  
    90   16   86 1  
    91   16   87 1  
    92   18   88 1  
    93   21   89 1  
    94   21   90 1  
    95   22   91 1  
    96   22   92 1  
    97   23   93 1  
    98   23   94 1  
    99   24   95 1  
   100   25   96 1  
   101   25   97 1  
   102   28   98 1  
   103   29   99 1  
   104   32  100 1  
   105   32  101 1  
   106   35  102 1  
   107   35  103 1  
   108   36  104 1  
   109   37  105 1  
   110   40  106 1  
   111   40  107 1  
   112   42  108 1  
   113   43  109 1  
   114   44  110 1  
   115   45  111 1  
   116   47  112 1  
   117   49  113 1  
   118   52  114 1  
   119   52  115 1  
   120   53  116 1  
   121   53  117 1  
   122   54  118 1  
   123   54  119 1  
   124   55  120 1  
   125   56  121 1  
   126   59  122 1  
   127   59  123 1  
   128   59  124 1  
   129   60  125 1  
   130   61  126 1  
   131   64  127 1  
   132   64  128 1  
   133   66  129 1  
   134   67  130 1  
   135   68  131 1  
   136   69  132 1  
   137   70  133 1  
@<TRIPOS>SUBSTRUCTURE
     1 PHE         1

