4pgd_ligand
  -I-interpret- 

134138  0  0  0  0  0  0  0  0999 V2000
   56.4190   19.1140    5.3550 N   0  3  0  0  0
   57.5330   19.8500    4.6990 C   0  0  0  0  0
   57.0380   20.3830    3.3600 C   0  0  0  0  0
   56.9440   19.6390    2.3800 O   0  0  0  0  0
   58.7270   18.9130    4.5150 C   0  0  0  0  0
   60.0410   19.6170    4.3740 C   0  0  0  0  0
   60.5990   19.8330    3.1220 C   0  0  0  0  0
   60.7330   20.0480    5.4980 C   0  0  0  0  0
   61.8210   20.4750    2.9930 C   0  0  0  0  0
   61.9550   20.6920    5.3750 C   0  0  0  0  0
   62.4990   20.9080    4.1210 C   0  0  0  0  0
   56.6980   21.6680    3.3310 N   0  0  0  0  0
   56.1060   22.2730    2.1480 C   0  0  0  0  0
   57.1580   22.4810    1.0590 C   0  0  0  0  0
   58.3450   22.6170    1.3610 O   0  0  0  0  0
   55.4450   23.5950    2.5060 C   0  0  0  0  0
   56.7300   22.4960   -0.2150 N   0  0  0  0  0
   57.6540   22.8240   -1.2940 C   0  0  0  0  0
   58.2610   24.2080   -1.1040 C   0  0  0  0  0
   57.5390   25.1630   -0.8100 O   0  0  0  0  0
   56.7690   22.8010   -2.5430 C   0  0  0  0  0
   55.6290   21.9210   -2.1900 C   0  0  0  0  0
   55.3970   22.1230   -0.7210 C   0  0  0  0  0
   59.5770   24.3050   -1.2700 N   0  0  0  0  0
   60.3040   25.5520   -1.0530 C   0  0  0  0  0
   60.6260   26.3200   -2.3190 C   0  0  0  0  0
   61.1250   27.4400   -2.2470 O   0  0  0  0  0
   60.3530   25.7300   -3.4800 N   0  0  0  0  0
   60.6170   26.3950   -4.7490 C   0  0  0  0  0
   59.5200   26.1530   -5.7750 C   0  0  0  0  0
   59.4130   25.0630   -6.3340 O   0  0  0  0  0
   61.9600   25.9420   -5.3290 C   0  0  0  0  0
   62.2100   26.5020   -6.7240 C   0  0  0  0  0
   62.0650   27.7040   -6.9610 O   0  0  0  0  0
   62.5700   25.6270   -7.6580 N   0  0  0  0  0
   58.7060   27.1750   -6.0140 N   0  0  0  0  0
   57.8100   27.1840   -7.1600 C   0  0  0  0  0
   58.4780   28.0240   -8.2400 C   0  0  0  0  0
   58.5500   29.2480   -8.1140 O   0  0  0  0  0
   56.4510   27.7770   -6.7970 C   0  0  0  0  0
   55.6940   26.9770   -5.7740 C   0  0  0  0  0
   54.8480   25.9440   -6.1540 C   0  0  0  0  0
   55.8210   27.2580   -4.4220 C   0  0  0  0  0
   54.1500   25.2100   -5.2100 C   0  0  0  0  0
   55.1300   26.5330   -3.4690 C   0  0  0  0  0
   54.2950   25.5100   -3.8640 C   0  0  0  0  0
   53.6120   24.7910   -2.9070 O   0  0  0  0  0
   58.9860   27.3740   -9.3000 N   0  0  0  0  0
   59.6950   28.1270  -10.3330 C   0  0  0  0  0
   58.7680   29.1020  -11.0410 C   0  0  0  0  0
   57.5920   28.8000  -11.2310 O   0  0  0  0  0
   60.1870   27.0390  -11.2920 C   0  0  0  0  0
   59.2570   25.9000  -11.0900 C   0  0  0  0  0
   58.8300   25.9530   -9.6560 C   0  0  0  0  0
   59.2890   30.2650  -11.4110 N   0  0  0  0  0
   58.4650   31.3030  -12.0230 C   0  0  0  0  0
   57.9730   30.8910  -13.4120 C   0  0  0  0  0
   58.6570   30.1590  -14.1340 O   0  0  0  0  0
   59.2270   32.6190  -12.0970 C   0  0  0  0  0
   56.7830   31.3710  -13.7740 N   0  0  0  0  0
   56.1810   31.0710  -15.0730 C   0  0  0  0  0
   56.9110   31.7690  -16.2220 C   0  0  0  0  0
   57.9100   32.4690  -16.0320 O   0  0  0  0  0
   54.7020   31.4840  -15.0950 C   0  0  0  0  0
   53.8180   30.7120  -14.1430 C   0  0  0  0  0
   54.2250   29.5070  -13.5780 C   0  0  0  0  0
   52.5480   31.1800  -13.8490 C   0  0  0  0  0
   53.3930   28.8060  -12.7230 C   0  0  0  0  0
   51.7140   30.4800  -12.9970 C   0  0  0  0  0
   52.1350   29.2920  -12.4360 C   0  0  0  0  0
   56.5060   31.6470  -17.3820 O   0  0  0  0  0
   55.6238   19.7411    5.4766 H   0  0  0  0  0
   56.1444   18.3242    4.7709 H   0  0  0  0  0
   56.7276   18.7738    6.2657 H   0  0  0  0  0
   57.8567   20.6881    5.3162 H   0  0  0  0  0
   58.5598   18.3549    3.5938 H   0  0  0  0  0
   58.7889   18.2906    5.4077 H   0  0  0  0  0
   60.0710   19.4944    2.2306 H   0  0  0  0  0
   60.3109   19.8782    6.4885 H   0  0  0  0  0
   62.2485   20.6391    2.0038 H   0  0  0  0  0
   62.4866   21.0278    6.2654 H   0  0  0  0  0
   63.4576   21.4171    4.0211 H   0  0  0  0  0
   56.8561   22.2435    4.1582 H   0  0  0  0  0
   55.3456   21.5946    1.7611 H   0  0  0  0  0
   54.6639   23.4206    3.2460 H   0  0  0  0  0
   56.1921   24.2736    2.9175 H   0  0  0  0  0
   55.0068   24.0350    1.6102 H   0  0  0  0  0
   58.4951   22.1325   -1.3447 H   0  0  0  0  0
   57.3097   22.4314   -3.4142 H   0  0  0  0  0
   56.4362   23.8012   -2.8205 H   0  0  0  0  0
   55.8479   20.8777   -2.4173 H   0  0  0  0  0
   54.7406   22.1707   -2.7700 H   0  0  0  0  0
   54.6428   22.8828   -0.5160 H   0  0  0  0  0
   54.9968   21.2341   -0.2334 H   0  0  0  0  0
   60.0977   23.4771   -1.5597 H   0  0  0  0  0
   61.2545   25.2904   -0.5881 H   0  0  0  0  0
   59.6647   26.1924   -0.4452 H   0  0  0  0  0
   59.9506   24.7927   -3.4815 H   0  0  0  0  0
   60.6467   27.4635   -4.5356 H   0  0  0  0  0
   61.9466   24.8544   -5.4000 H   0  0  0  0  0
   62.7504   26.3066   -4.6730 H   0  0  0  0  0
   62.7376   25.9413   -8.6138 H   0  0  0  0  0
   62.6786   24.6414   -7.4188 H   0  0  0  0  0
   58.7092   27.9729   -5.3786 H   0  0  0  0  0
   57.6307   26.1656   -7.5048 H   0  0  0  0  0
   55.8502   27.7937   -7.7063 H   0  0  0  0  0
   56.6304   28.7638   -6.3703 H   0  0  0  0  0
   54.7315   25.7072   -7.2116 H   0  0  0  0  0
   56.4789   28.0668   -4.1042 H   0  0  0  0  0
   53.4902   24.4009   -5.5232 H   0  0  0  0  0
   55.2449   26.7691   -2.4111 H   0  0  0  0  0
   53.8296   25.1319   -2.0364 H   0  0  0  0  0
   60.5033   28.7375   -9.9305 H   0  0  0  0  0
   61.2203   26.7580  -11.0883 H   0  0  0  0  0
   60.1869   27.3821  -12.3266 H   0  0  0  0  0
   59.7439   24.9519  -11.3186 H   0  0  0  0  0
   58.3981   25.9730  -11.7571 H   0  0  0  0  0
   57.8100   25.5968   -9.5115 H   0  0  0  0  0
   59.4237   25.2965   -9.0199 H   0  0  0  0  0
   60.2838   30.4369  -11.2651 H   0  0  0  0  0
   57.5885   31.4397  -11.3897 H   0  0  0  0  0
   59.5033   32.9345  -11.0909 H   0  0  0  0  0
   60.1271   32.4830  -12.6965 H   0  0  0  0  0
   58.5942   33.3784  -12.5564 H   0  0  0  0  0
   56.2744   31.9685  -13.1222 H   0  0  0  0  0
   56.2671   29.9937  -15.2150 H   0  0  0  0  0
   54.3323   31.2881  -16.1015 H   0  0  0  0  0
   54.6596   32.5298  -14.7908 H   0  0  0  0  0
   55.2127   29.1100  -13.8122 H   0  0  0  0  0
   52.2016   32.1122  -14.2951 H   0  0  0  0  0
   53.7316   27.8709  -12.2770 H   0  0  0  0  0
   50.7214   30.8677  -12.7680 H   0  0  0  0  0
   51.4749   28.7391  -11.7677 H   0  0  0  0  0
   55.7297   31.0823  -17.3910 H   0  0  0  0  0
  1  2  1  0  0  0
  2  3  1  0  0  0
  2  5  1  0  0  0
  3  4  2  0  0  0
  3 12  1  0  0  0
  5  6  1  0  0  0
  6  7  4  0  0  0
  6  8  4  0  0  0
  7  9  4  0  0  0
  8 10  4  0  0  0
  9 11  4  0  0  0
 10 11  4  0  0  0
 12 13  1  0  0  0
 13 14  1  0  0  0
 13 16  1  0  0  0
 14 15  2  0  0  0
 14 17  1  0  0  0
 17 18  1  0  0  0
 17 23  1  0  0  0
 18 19  1  0  0  0
 18 21  1  0  0  0
 19 20  2  0  0  0
 19 24  1  0  0  0
 21 22  1  0  0  0
 22 23  1  0  0  0
 24 25  1  0  0  0
 25 26  1  0  0  0
 26 27  2  0  0  0
 26 28  1  0  0  0
 28 29  1  0  0  0
 29 30  1  0  0  0
 29 32  1  0  0  0
 30 31  2  0  0  0
 30 36  1  0  0  0
 32 33  1  0  0  0
 33 34  2  0  0  0
 33 35  1  0  0  0
 36 37  1  0  0  0
 37 38  1  0  0  0
 37 40  1  0  0  0
 38 39  2  0  0  0
 38 48  1  0  0  0
 40 41  1  0  0  0
 41 42  4  0  0  0
 41 43  4  0  0  0
 42 44  4  0  0  0
 43 45  4  0  0  0
 44 46  4  0  0  0
 45 46  4  0  0  0
 46 47  1  0  0  0
 48 49  1  0  0  0
 48 54  1  0  0  0
 49 50  1  0  0  0
 49 52  1  0  0  0
 50 51  2  0  0  0
 50 55  1  0  0  0
 52 53  1  0  0  0
 53 54  1  0  0  0
 55 56  1  0  0  0
 56 57  1  0  0  0
 56 59  1  0  0  0
 57 58  2  0  0  0
 57 60  1  0  0  0
 60 61  1  0  0  0
 61 62  1  0  0  0
 61 64  1  0  0  0
 62 63  2  0  0  0
 62 71  1  0  0  0
 64 65  1  0  0  0
 65 66  4  0  0  0
 65 67  4  0  0  0
 66 68  4  0  0  0
 67 69  4  0  0  0
 68 70  4  0  0  0
 69 70  4  0  0  0
  1 72  1  0  0  0
  1 73  1  0  0  0
  1 74  1  0  0  0
  2 75  1  0  0  0
  5 76  1  0  0  0
  5 77  1  0  0  0
  7 78  1  0  0  0
  8 79  1  0  0  0
  9 80  1  0  0  0
 10 81  1  0  0  0
 11 82  1  0  0  0
 12 83  1  0  0  0
 13 84  1  0  0  0
 16 85  1  0  0  0
 16 86  1  0  0  0
 16 87  1  0  0  0
 18 88  1  0  0  0
 21 89  1  0  0  0
 21 90  1  0  0  0
 22 91  1  0  0  0
 22 92  1  0  0  0
 23 93  1  0  0  0
 23 94  1  0  0  0
 24 95  1  0  0  0
 25 96  1  0  0  0
 25 97  1  0  0  0
 28 98  1  0  0  0
 29 99  1  0  0  0
 32100  1  0  0  0
 32101  1  0  0  0
 35102  1  0  0  0
 35103  1  0  0  0
 36104  1  0  0  0
 37105  1  0  0  0
 40106  1  0  0  0
 40107  1  0  0  0
 42108  1  0  0  0
 43109  1  0  0  0
 44110  1  0  0  0
 45111  1  0  0  0
 47112  1  0  0  0
 49113  1  0  0  0
 52114  1  0  0  0
 52115  1  0  0  0
 53116  1  0  0  0
 53117  1  0  0  0
 54118  1  0  0  0
 54119  1  0  0  0
 55120  1  0  0  0
 56121  1  0  0  0
 59122  1  0  0  0
 59123  1  0  0  0
 59124  1  0  0  0
 60125  1  0  0  0
 61126  1  0  0  0
 64127  1  0  0  0
 64128  1  0  0  0
 66129  1  0  0  0
 67130  1  0  0  0
 68131  1  0  0  0
 69132  1  0  0  0
 70133  1  0  0  0
 71134  1  0  0  0
M  END
$$$$
