5dfp_ligand
  -I-interpret- 

 72 76  0  0  0  0  0  0  0  0999 V2000
   10.4200   34.9290  -12.9240 C   0  0  0  0  0
    7.7880   34.9030  -12.0230 C   0  0  0  0  0
    9.6470   36.1000  -12.9530 C   0  0  0  0  0
    6.1120   34.2150  -10.3140 C   0  0  0  0  0
    3.0120   35.7450  -12.6460 C   0  0  0  0  0
   18.5200   33.8240  -15.7520 C   0  0  0  0  0
   17.7840   33.9990  -17.0800 C   0  0  0  0  0
   19.5760   34.3020  -18.7560 C   0  0  0  0  0
   17.9440   32.9780  -20.6350 C   0  0  0  0  0
   18.1600   34.8390  -14.7490 N   0  0  0  0  0
   16.8040   34.6660  -12.7100 N   0  0  0  0  0
   16.8660   34.8020  -14.0730 C   0  0  0  0  0
   15.8220   34.9500  -14.9210 N   0  0  0  0  0
   14.6060   34.9420  -14.3590 C   0  0  0  0  0
   14.3810   34.7800  -12.9580 C   0  0  0  0  0
   15.5400   34.6520  -12.1730 C   0  0  0  0  0
   13.4750   35.0930  -15.3190 N   0  0  0  0  0
   12.1200   35.0790  -14.8400 C   0  0  0  0  0
   11.8480   34.9450  -13.4300 C   0  0  0  0  0
   12.9350   34.7900  -12.4880 C   0  0  0  0  0
   13.7030   35.2320  -16.7530 C   0  0  0  0  0
   13.9350   33.8630  -17.3550 C   0  0  0  0  0
   11.0650   35.2140  -15.6830 O   0  0  0  0  0
    9.8680   33.7370  -12.4570 C   0  0  0  0  0
    8.5420   33.7250  -12.0070 C   0  0  0  0  0
    8.3280   36.0950  -12.5060 C   0  0  0  0  0
   10.3330   37.5570  -13.5480 Cl  0  0  0  0  0
    6.3710   34.8360  -11.5350 C   0  0  0  0  0
    4.8540   34.0920   -9.8340 N   0  0  0  0  0
    3.8890   34.6030  -10.6160 C   0  0  0  0  0
    4.1530   35.2070  -11.8360 C   0  0  0  0  0
    5.4060   35.3420  -12.3190 N   0  0  0  0  0
   18.5780   33.3010  -18.1700 C   0  0  0  0  0
   20.1420   33.9330  -20.1070 C   0  0  0  0  0
   19.3650   33.0170  -20.9250 N   0  3  0  0  0
   17.6730   32.6360  -19.1920 C   0  0  0  0  0
   19.7460   32.8520  -22.3340 C   0  0  0  0  0
    6.9441   33.8189   -9.7320 H   0  0  0  0  0
    2.3244   34.9340  -12.8862 H   0  0  0  0  0
    2.4883   36.5088  -12.0711 H   0  0  0  0  0
    3.3966   36.1820  -13.5676 H   0  0  0  0  0
   19.5872   33.9217  -15.9513 H   0  0  0  0  0
   18.2444   32.8497  -15.3484 H   0  0  0  0  0
   17.6865   35.0593  -17.3132 H   0  0  0  0  0
   16.7867   33.5646  -17.0115 H   0  0  0  0  0
   20.4183   34.3438  -18.0654 H   0  0  0  0  0
   19.0362   35.2395  -18.8891 H   0  0  0  0  0
   17.4891   32.2091  -21.2594 H   0  0  0  0  0
   17.5273   33.9649  -20.8361 H   0  0  0  0  0
   18.8241   35.5793  -14.5226 H   0  0  0  0  0
   15.4312   34.5370  -11.0946 H   0  0  0  0  0
   12.8675   35.6766  -11.8575 H   0  0  0  0  0
   12.7848   33.7938  -12.0719 H   0  0  0  0  0
   14.5769   35.8602  -16.9252 H   0  0  0  0  0
   12.8323   35.6936  -17.2188 H   0  0  0  0  0
   14.8070   33.4052  -16.8880 H   0  0  0  0  0
   13.0587   33.2382  -17.1822 H   0  0  0  0  0
   14.1058   33.9630  -18.4269 H   0  0  0  0  0
   11.3853   35.2931  -16.5845 H   0  0  0  0  0
   10.4626   32.8236  -12.4423 H   0  0  0  0  0
    8.0976   32.7981  -11.6444 H   0  0  0  0  0
    7.7290   37.0053  -12.5331 H   0  0  0  0  0
    2.8548   34.5403  -10.2774 H   0  0  0  0  0
   19.1507   32.4716  -17.7550 H   0  0  0  0  0
   21.0835   33.4226  -19.9040 H   0  0  0  0  0
   20.1918   34.8642  -20.6713 H   0  0  0  0  0
   19.7024   32.1233  -20.5675 H   0  0  0  0  0
   17.8380   31.5629  -19.0952 H   0  0  0  0  0
   16.6624   32.9844  -18.9791 H   0  0  0  0  0
   19.3921   31.8859  -22.6940 H   0  0  0  0  0
   19.2963   33.6489  -22.9264 H   0  0  0  0  0
   20.8313   32.8992  -22.4235 H   0  0  0  0  0
  1  3  4  0  0  0
 19  1  1  0  0  0
  1 24  4  0  0  0
 25  2  4  0  0  0
 26  2  4  0  0  0
  2 28  1  0  0  0
  3 26  4  0  0  0
  3 27  1  0  0  0
 28  4  4  0  0  0
  4 29  4  0  0  0
 31  5  1  0  0  0
  7  6  1  0  0  0
  6 10  1  0  0  0
 33  7  1  0  0  0
 33  8  1  0  0  0
  8 34  1  0  0  0
  9 35  1  0  0  0
 36  9  1  0  0  0
 10 12  1  0  0  0
 12 11  4  0  0  0
 11 16  4  0  0  0
 12 13  4  0  0  0
 13 14  4  0  0  0
 14 15  4  0  0  0
 14 17  1  0  0  0
 16 15  4  0  0  0
 15 20  1  0  0  0
 17 18  1  0  0  0
 17 21  1  0  0  0
 18 19  2  0  0  0
 18 23  1  0  0  0
 20 19  1  0  0  0
 21 22  1  0  0  0
 24 25  4  0  0  0
 28 32  4  0  0  0
 29 30  4  0  0  0
 31 30  4  0  0  0
 32 31  4  0  0  0
 33 36  1  0  0  0
 34 35  1  0  0  0
 35 37  1  0  0  0
  4 38  1  0  0  0
  5 39  1  0  0  0
  5 40  1  0  0  0
  5 41  1  0  0  0
  6 42  1  0  0  0
  6 43  1  0  0  0
  7 44  1  0  0  0
  7 45  1  0  0  0
  8 46  1  0  0  0
  8 47  1  0  0  0
  9 48  1  0  0  0
  9 49  1  0  0  0
 10 50  1  0  0  0
 16 51  1  0  0  0
 20 52  1  0  0  0
 20 53  1  0  0  0
 21 54  1  0  0  0
 21 55  1  0  0  0
 22 56  1  0  0  0
 22 57  1  0  0  0
 22 58  1  0  0  0
 23 59  1  0  0  0
 24 60  1  0  0  0
 25 61  1  0  0  0
 26 62  1  0  0  0
 30 63  1  0  0  0
 33 64  1  0  0  0
 34 65  1  0  0  0
 34 66  1  0  0  0
 35 67  1  0  0  0
 36 68  1  0  0  0
 36 69  1  0  0  0
 37 70  1  0  0  0
 37 71  1  0  0  0
 37 72  1  0  0  0
M  END
$$$$
