4gkc_ligand
  -I-interpret- 

 50 50  0  0  0  0  0  0  0  0999 V2000
    7.9800    2.3790    8.0210 C   0  0  0  0  0
    8.9130    2.7700    6.8410 C   0  0  0  0  0
    8.4530    4.0590    6.1980 C   0  0  0  0  0
    8.6790    5.1520    7.1890 C   0  0  0  0  0
    8.1030    4.8310    8.5530 C   0  0  0  0  0
    7.7880    3.5930    8.9460 C   0  0  0  0  0
    7.2790    3.4680   10.3530 C   0  0  0  0  0
    6.5300    2.4410   10.8060 C   0  0  0  0  0
    6.0580    2.3590   12.2160 C   0  0  0  0  0
    5.2880    1.3270   12.5640 C   0  0  0  0  0
    4.7070    1.0200   13.8780 C   0  0  0  0  0
    3.7570    0.1150   14.0710 C   0  0  0  0  0
    3.2390   -0.2130   15.4260 C   0  0  0  0  0
    2.2780   -1.1260   15.5200 C   0  0  0  0  0
    1.6780   -1.6730   16.7180 C   0  0  0  0  0
    8.6750    1.2140    8.6710 C   0  0  0  0  0
    6.6440    1.9500    7.4690 C   0  0  0  0  0
    7.9690    6.0800    9.4140 C   0  0  0  0  0
    6.4570    3.4010   13.2710 C   0  0  0  0  0
    3.8310    0.4670   16.6360 C   0  0  0  0  0
    8.8877    1.9760    6.0946 H   0  0  0  0  0
    9.9242    2.9090    7.2234 H   0  0  0  0  0
    7.3988    3.9981    5.9276 H   0  0  0  0  0
    9.0105    4.2509    5.2812 H   0  0  0  0  0
    8.1825    6.0487    6.8181 H   0  0  0  0  0
    9.7550    5.2845    7.3023 H   0  0  0  0  0
    7.5318    4.2611   11.0567 H   0  0  0  0  0
    6.2607    1.6424   10.1147 H   0  0  0  0  0
    5.0596    0.6177   11.7684 H   0  0  0  0  0
    5.0782    1.5677   14.7443 H   0  0  0  0  0
    3.3421   -0.4057   13.2080 H   0  0  0  0  0
    1.8932   -1.5115   14.5758 H   0  0  0  0  0
    2.4471   -2.1581   17.3190 H   0  0  0  0  0
    1.2194   -0.8685   17.2930 H   0  0  0  0  0
    0.9172   -2.4029   16.4411 H   0  0  0  0  0
    8.0586    0.8332    9.4853 H   0  0  0  0  0
    8.8304    0.4273    7.9327 H   0  0  0  0  0
    9.6378    1.5403    9.0643 H   0  0  0  0  0
    6.7938    1.1654    6.7273 H   0  0  0  0  0
    6.0219    1.5712    8.2800 H   0  0  0  0  0
    6.1539    2.8044    7.0021 H   0  0  0  0  0
    6.9270    6.2072    9.7077 H   0  0  0  0  0
    8.5885    5.9740   10.3046 H   0  0  0  0  0
    8.2959    6.9496    8.8438 H   0  0  0  0  0
    5.5591    3.8640   13.6803 H   0  0  0  0  0
    7.0121    2.9117   14.0713 H   0  0  0  0  0
    7.0820    4.1644   12.8076 H   0  0  0  0  0
    3.0458    1.0001   17.1721 H   0  0  0  0  0
    4.2757   -0.2822   17.2910 H   0  0  0  0  0
    4.5976    1.1726   16.3159 H   0  0  0  0  0
  1  2  1  0  0  0
  1  6  1  0  0  0
  1 16  1  0  0  0
  1 17  1  0  0  0
  2  3  1  0  0  0
  3  4  1  0  0  0
  4  5  1  0  0  0
  5  6  2  0  0  0
  5 18  1  0  0  0
  6  7  1  0  0  0
  7  8  2  0  0  0
  8  9  1  0  0  0
  9 10  2  0  0  0
  9 19  1  0  0  0
 10 11  1  0  0  0
 11 12  2  0  0  0
 12 13  1  0  0  0
 13 14  2  0  0  0
 13 20  1  0  0  0
 14 15  1  0  0  0
  2 21  1  0  0  0
  2 22  1  0  0  0
  3 23  1  0  0  0
  3 24  1  0  0  0
  4 25  1  0  0  0
  4 26  1  0  0  0
  7 27  1  0  0  0
  8 28  1  0  0  0
 10 29  1  0  0  0
 11 30  1  0  0  0
 12 31  1  0  0  0
 14 32  1  0  0  0
 15 33  1  0  0  0
 15 34  1  0  0  0
 15 35  1  0  0  0
 16 36  1  0  0  0
 16 37  1  0  0  0
 16 38  1  0  0  0
 17 39  1  0  0  0
 17 40  1  0  0  0
 17 41  1  0  0  0
 18 42  1  0  0  0
 18 43  1  0  0  0
 18 44  1  0  0  0
 19 45  1  0  0  0
 19 46  1  0  0  0
 19 47  1  0  0  0
 20 48  1  0  0  0
 20 49  1  0  0  0
 20 50  1  0  0  0
M  END
$$$$
