4mr5_ligand
  -I-interpret- 

 42 44  0  0  0  0  0  0  0  0999 V2000
   45.4380   -2.5670   23.6400 O   0  0  0  0  0
   46.6550   -2.6470   24.3800 C   0  0  0  0  0
   44.5800   -3.6360   23.5850 C   0  0  0  0  0
   43.4290   -3.5670   22.7700 C   0  0  0  0  0
   42.5890   -4.6620   22.6940 C   0  0  0  0  0
   42.2620   -8.0980   24.1540 N   0  0  0  0  0
   41.0200   -3.2670   21.3990 C   0  0  0  0  0
   41.4180   -4.5550   21.9460 O   0  0  0  0  0
   42.8410   -5.8080   23.3630 C   0  0  0  0  0
   44.5610  -12.7230   27.9070 O   0  0  0  0  0
   44.1720   -6.9620   25.0050 N   0  0  0  0  0
   41.9800   -6.9660   23.2970 C   0  0  0  0  0
   43.3310   -8.0530   24.9630 C   0  0  0  0  0
   40.9500   -7.0450   22.5100 O   0  0  0  0  0
   43.6740   -9.2490   25.8090 C   0  0  0  0  0
   44.9680   -9.3960   26.3570 C   0  0  0  0  0
   45.2670  -10.5500   27.0150 C   0  0  0  0  0
   46.6980  -10.6470   27.5200 C   0  0  0  0  0
   44.3010  -11.5680   27.1630 C   0  0  0  0  0
   43.0270  -11.4470   26.6120 C   0  0  0  0  0
   42.0550  -12.5190   26.6950 C   0  0  0  0  0
   42.7210  -10.2400   25.9320 C   0  0  0  0  0
   43.9620   -5.8330   24.2000 C   0  0  0  0  0
   44.8460   -4.7270   24.3150 C   0  0  0  0  0
   46.4295   -2.8498   25.4270 H   0  0  0  0  0
   47.2713   -3.4509   23.9775 H   0  0  0  0  0
   47.1908   -1.7013   24.2990 H   0  0  0  0  0
   43.2055   -2.6606   22.2073 H   0  0  0  0  0
   40.8797   -2.5557   22.2129 H   0  0  0  0  0
   41.7972   -2.9033   20.7269 H   0  0  0  0  0
   40.0859   -3.3803   20.8488 H   0  0  0  0  0
   43.7886  -13.2929   27.8915 H   0  0  0  0  0
   44.9702   -6.9761   25.6399 H   0  0  0  0  0
   45.7098   -8.6039   26.2554 H   0  0  0  0  0
   47.3850  -10.5798   26.6764 H   0  0  0  0  0
   46.8929   -9.8301   28.2149 H   0  0  0  0  0
   46.8383  -11.6003   28.0295 H   0  0  0  0  0
   42.4527  -13.4071   26.2039 H   0  0  0  0  0
   41.8506  -12.7421   27.7422 H   0  0  0  0  0
   41.1334  -12.2111   26.2011 H   0  0  0  0  0
   41.7288  -10.0946   25.5047 H   0  0  0  0  0
   45.7122   -4.7650   24.9755 H   0  0  0  0  0
  1  2  1  0  0  0
  3  1  1  0  0  0
  4  3  4  0  0  0
  3 24  4  0  0  0
  5  4  4  0  0  0
  5  8  1  0  0  0
  9  5  4  0  0  0
  6 12  1  0  0  0
 13  6  2  0  0  0
  8  7  1  0  0  0
 12  9  1  0  0  0
 23  9  4  0  0  0
 19 10  1  0  0  0
 13 11  1  0  0  0
 11 23  1  0  0  0
 12 14  2  0  0  0
 15 13  1  0  0  0
 16 15  4  0  0  0
 15 22  4  0  0  0
 17 16  4  0  0  0
 17 18  1  0  0  0
 17 19  4  0  0  0
 19 20  4  0  0  0
 20 21  1  0  0  0
 20 22  4  0  0  0
 23 24  4  0  0  0
  2 25  1  0  0  0
  2 26  1  0  0  0
  2 27  1  0  0  0
  4 28  1  0  0  0
  7 29  1  0  0  0
  7 30  1  0  0  0
  7 31  1  0  0  0
 10 32  1  0  0  0
 11 33  1  0  0  0
 16 34  1  0  0  0
 18 35  1  0  0  0
 18 36  1  0  0  0
 18 37  1  0  0  0
 21 38  1  0  0  0
 21 39  1  0  0  0
 21 40  1  0  0  0
 22 41  1  0  0  0
 24 42  1  0  0  0
M  END
$$$$
