6f3d_ligand
  -I-interpret- 

 60 63  0  0  0  0  0  0  0  0999 V2000
   20.3510   43.0080   12.8050 C   0  0  0  0  0
   20.8340   44.4380   12.5080 C   0  0  0  0  0
   22.3050   44.4900   12.0600 C   0  0  0  0  0
   24.4020   43.2830    9.2240 C   0  0  0  0  0
   23.8910   42.8790    7.0340 C   0  0  0  0  0
   26.0770   42.8730    7.5690 C   0  0  0  0  0
   25.8120   43.1890    8.9260 C   0  0  0  0  0
   27.0990   43.2190    9.5810 C   0  0  0  0  0
   28.0310   43.0110    8.6070 C   0  0  0  0  0
   27.3660   43.5390   11.0270 C   0  0  0  0  0
   27.3330   45.0630   11.2730 C   0  0  0  0  0
   27.6330   45.4030   12.7410 C   0  0  0  0  0
   28.9930   44.8280   13.1620 C   0  0  0  0  0
   29.3460   45.1960   14.5950 C   0  0  0  0  0
   17.9150   43.5530   12.3190 C   0  0  0  0  0
   28.4690   45.4740   15.4190 O   0  0  0  0  0
   30.6410   45.1870   14.8920 N   0  0  0  0  0
   28.9850   43.3070   12.9650 C   0  0  0  0  0
   28.7170   42.9620   11.5010 C   0  0  0  0  0
   27.4250   42.7500    7.4090 N   0  0  0  0  0
   25.1460   42.7560    6.5980 N   0  0  0  0  0
   23.4650   43.1590    8.2680 N   0  0  0  0  0
   23.9690   43.5370   10.4830 N   0  0  0  0  0
   22.5710   43.5250   10.9150 C   0  0  0  0  0
   22.1580   42.1110   11.3030 C   0  0  0  0  0
   20.6780   42.0330   11.6720 C   0  0  0  0  0
   18.8650   42.8530   13.1970 N   0  3  0  0  0
   18.5920   43.1210   14.6030 C   0  0  0  0  0
   20.9219   42.7556   13.6985 H   0  0  0  0  0
   20.7443   45.0180   13.4265 H   0  0  0  0  0
   20.2239   44.8344   11.6964 H   0  0  0  0  0
   22.9340   44.2073   12.9041 H   0  0  0  0  0
   22.5274   45.5012   11.7192 H   0  0  0  0  0
   23.1124   42.7318    6.2855 H   0  0  0  0  0
   29.1093   43.0477    8.7620 H   0  0  0  0  0
   26.5721   43.0689   11.6074 H   0  0  0  0  0
   26.3359   45.4304   11.0303 H   0  0  0  0  0
   28.0940   45.5302   10.6479 H   0  0  0  0  0
   26.8560   44.9686   13.3700 H   0  0  0  0  0
   27.6574   46.4868   12.8546 H   0  0  0  0  0
   29.7648   45.2675   12.5301 H   0  0  0  0  0
   16.9017   43.2199   12.5433 H   0  0  0  0  0
   17.9912   44.6273   12.4866 H   0  0  0  0  0
   18.1506   43.3287   11.2787 H   0  0  0  0  0
   30.9492   45.4167   15.8368 H   0  0  0  0  0
   31.3270   44.9504   14.1752 H   0  0  0  0  0
   28.1984   42.8729   13.5822 H   0  0  0  0  0
   29.9571   42.9063   13.2523 H   0  0  0  0  0
   29.5114   43.3933   10.8919 H   0  0  0  0  0
   28.6854   41.8771   11.4004 H   0  0  0  0  0
   24.6750   43.7541   11.1865 H   0  0  0  0  0
   21.9682   43.8629   10.0720 H   0  0  0  0  0
   22.7438   41.8092   12.1713 H   0  0  0  0  0
   22.3330   41.4566   10.4490 H   0  0  0  0  0
   20.0825   42.2962   10.7978 H   0  0  0  0  0
   20.4502   41.0196   12.0025 H   0  0  0  0  0
   18.6964   41.8582   13.0476 H   0  0  0  0  0
   18.6739   44.1917   14.7900 H   0  0  0  0  0
   17.5844   42.7843   14.8468 H   0  0  0  0  0
   19.3143   42.5868   15.2203 H   0  0  0  0  0
  2  1  1  0  0  0
  1 26  1  0  0  0
  1 27  1  0  0  0
  3  2  1  0  0  0
 24  3  1  0  0  0
  4  7  4  0  0  0
  4 22  4  0  0  0
 23  4  1  0  0  0
  5 21  4  0  0  0
 22  5  4  0  0  0
  7  6  4  0  0  0
  6 20  4  0  0  0
  6 21  4  0  0  0
  7  8  4  0  0  0
  8  9  4  0  0  0
  8 10  1  0  0  0
  9 20  4  0  0  0
 10 11  1  0  0  0
 10 19  1  0  0  0
 11 12  1  0  0  0
 12 13  1  0  0  0
 13 14  1  0  0  0
 18 13  1  0  0  0
 14 16  2  0  0  0
 14 17  1  0  0  0
 27 15  1  0  0  0
 19 18  1  0  0  0
 23 24  1  0  0  0
 24 25  1  0  0  0
 25 26  1  0  0  0
 27 28  1  0  0  0
  1 29  1  0  0  0
  2 30  1  0  0  0
  2 31  1  0  0  0
  3 32  1  0  0  0
  3 33  1  0  0  0
  5 34  1  0  0  0
  9 35  1  0  0  0
 10 36  1  0  0  0
 11 37  1  0  0  0
 11 38  1  0  0  0
 12 39  1  0  0  0
 12 40  1  0  0  0
 13 41  1  0  0  0
 15 42  1  0  0  0
 15 43  1  0  0  0
 15 44  1  0  0  0
 17 45  1  0  0  0
 17 46  1  0  0  0
 18 47  1  0  0  0
 18 48  1  0  0  0
 19 49  1  0  0  0
 19 50  1  0  0  0
 23 51  1  0  0  0
 24 52  1  0  0  0
 25 53  1  0  0  0
 25 54  1  0  0  0
 26 55  1  0  0  0
 26 56  1  0  0  0
 27 57  1  0  0  0
 28 58  1  0  0  0
 28 59  1  0  0  0
 28 60  1  0  0  0
M  END
$$$$
