### 
### Created by X-TOOL on Mon Sep 10 21:13:11 2018
### 

@<TRIPOS>MOLECULE
4fem_ligand
  126   132     1     0     0
SMALL
GAST_HUCK


@<TRIPOS>ATOM
      1 C1A        25.6330   32.3290  102.9480 C.3       1 ACX         0.1884
      2 C2A        24.8280   32.8930  101.7840 C.3       1 ACX         0.1341
      3 C3A        25.3870   34.2610  101.4220 C.3       1 ACX         0.1144
      4 C4A        25.2950   35.1790  102.6110 C.3       1 ACX         0.1184
      5 C5A        25.9900   34.5510  103.8020 C.3       1 ACX         0.1134
      6 C6A        25.7450   35.4380  105.0090 C.3       1 ACX         0.0730
      7 O1A        27.0030   32.2280  102.5620 O.3       1 ACX        -0.3401
      8 O2A        24.8570   31.9870  100.6570 O.3       1 ACX        -0.3841
      9 O3A        24.6940   34.8380  100.3200 O.3       1 ACX        -0.3864
     10 O5A        25.5210   33.2290  104.0640 O.3       1 ACX        -0.3405
     11 O6A        26.5790   35.0160  106.0800 O.3       1 ACX        -0.3924
     12 C1B        30.3860   30.0280  103.1910 C.3       1 ACX         0.1884
     13 C2B        29.4830   29.4340  102.1200 C.3       1 ACX         0.1341
     14 C3B        28.4110   30.4620  101.7290 C.3       1 ACX         0.1144
     15 C4B        27.6330   30.9850  102.9430 C.3       1 ACX         0.1184
     16 C5B        28.5560   31.2250  104.1650 C.3       1 ACX         0.1134
     17 C6B        27.7630   31.3310  105.4630 C.3       1 ACX         0.0730
     18 O1B        30.8610   31.3210  102.7930 O.3       1 ACX        -0.3401
     19 O2B        30.2510   29.0330  100.9760 O.3       1 ACX        -0.3841
     20 O3B        27.4950   29.9160  100.7700 O.3       1 ACX        -0.3864
     21 O5B        29.5490   30.2040  104.3280 O.3       1 ACX        -0.3405
     22 O6B        28.1780   32.5330  106.1270 O.3       1 ACX        -0.3924
     23 C1C        34.1930   33.7650  103.3010 C.3       1 ACX         0.1884
     24 C2C        34.1520   32.9190  102.0530 C.3       1 ACX         0.1341
     25 C3C        32.7790   32.2880  101.8330 C.3       1 ACX         0.1144
     26 C4C        32.2480   31.5850  103.0590 C.3       1 ACX         0.1184
     27 C5C        32.3930   32.4910  104.2870 C.3       1 ACX         0.1134
     28 C6C        32.1410   31.7160  105.5600 C.3       1 ACX         0.0730
     29 O1C        33.3980   34.9060  103.0850 O.3       1 ACX        -0.3401
     30 O2C        34.4010   33.8180  100.9890 O.3       1 ACX        -0.3841
     31 O3C        32.8180   31.3410  100.7650 O.3       1 ACX        -0.3864
     32 O5C        33.7140   33.0300  104.4250 O.3       1 ACX        -0.3405
     33 O6C        32.5990   32.5320  106.6350 O.3       1 ACX        -0.3924
     34 C1D        33.8100   38.9950  103.2200 C.3       1 ACX         0.1884
     35 C2D        34.6350   38.2770  102.1750 C.3       1 ACX         0.1341
     36 C3D        34.0820   36.8770  101.9830 C.3       1 ACX         0.1144
     37 C4D        34.1000   36.1170  103.2800 C.3       1 ACX         0.1184
     38 C5D        33.3470   36.9180  104.3060 C.3       1 ACX         0.1134
     39 C6D        33.3420   36.2270  105.6560 C.3       1 ACX         0.0730
     40 O1D        32.4520   39.0480  102.7630 O.3       1 ACX        -0.3401
     41 O2D        34.5740   39.0060  100.9390 O.3       1 ACX        -0.3841
     42 O3D        34.8580   36.1650  101.0410 O.3       1 ACX        -0.3864
     43 O5D        33.8940   38.2320  104.4240 O.3       1 ACX        -0.3405
     44 O6D        33.2790   37.2540  106.6710 O.3       1 ACX        -0.3924
     45 C1E        29.0790   41.2290  102.5990 C.3       1 ACX         0.1884
     46 C2E        30.0980   41.6690  101.5690 C.3       1 ACX         0.1341
     47 C3E        31.2500   40.6680  101.5030 C.3       1 ACX         0.1144
     48 C4E        31.8400   40.3380  102.8700 C.3       1 ACX         0.1184
     49 C5E        30.7520   40.2360  103.9410 C.3       1 ACX         0.1134
     50 C6E        31.3500   40.2650  105.3300 C.3       1 ACX         0.0730
     51 O1E        28.6780   39.8610  102.3310 O.3       1 ACX        -0.3401
     52 O2E        29.4630   41.7490  100.3020 O.3       1 ACX        -0.3841
     53 O3E        32.2790   41.1760  100.6660 O.3       1 ACX        -0.3864
     54 O5E        29.7810   41.2910  103.8310 O.3       1 ACX        -0.3405
     55 O6E        30.7530   41.3640  106.0140 O.3       1 ACX        -0.3924
     56 C1F        25.2120   37.5390  102.2850 C.3       1 ACX         0.1884
     57 C2F        25.5340   38.2790  101.0140 C.3       1 ACX         0.1341
     58 C3F        26.9730   38.7560  101.0480 C.3       1 ACX         0.1144
     59 C4F        27.2470   39.6200  102.2620 C.3       1 ACX         0.1184
     60 C5F        26.8050   38.8720  103.5180 C.3       1 ACX         0.1134
     61 C6F        26.8670   39.8010  104.7230 C.3       1 ACX         0.0730
     62 O1F        26.0130   36.3750  102.3280 O.3       1 ACX        -0.3401
     63 O2F        25.3690   37.3580   99.9280 O.3       1 ACX        -0.3841
     64 O3F        27.2450   39.5040   99.8750 O.3       1 ACX        -0.3864
     65 O5F        25.4720   38.3690  103.4110 O.3       1 ACX        -0.3405
     66 O6F        26.7090   39.0290  105.9160 O.3       1 ACX        -0.3924
     67 H1         25.2483   31.3366  103.2256 H         1 ACX         0.0938
     68 H2         23.7818   33.0139  102.1014 H         1 ACX         0.0671
     69 H3         26.4449   34.1424  101.1451 H         1 ACX         0.0648
     70 H4         24.2419   35.3965  102.8426 H         1 ACX         0.0651
     71 H5         27.0701   34.5035  103.5991 H         1 ACX         0.0647
     72 H6         24.6905   35.3620  105.3127 H         1 ACX         0.0584
     73 H7         25.9781   36.4817  104.7513 H         1 ACX         0.0584
     74 H8         24.3343   32.3463   99.9497 H         1 ACX         0.2101
     75 H9         25.0863   35.6759  100.1043 H         1 ACX         0.2100
     76 H10        26.3767   34.1145  106.3011 H         1 ACX         0.2095
     77 H11        31.2307   29.3584  103.4100 H         1 ACX         0.0938
     78 H12        28.9840   28.5447  102.5324 H         1 ACX         0.0671
     79 H13        28.9245   31.3162  101.2635 H         1 ACX         0.0648
     80 H14        26.8625   30.2506  103.2205 H         1 ACX         0.0651
     81 H15        29.0752   32.1806  103.9998 H         1 ACX         0.0647
     82 H16        27.9697   30.4593  106.1013 H         1 ACX         0.0584
     83 H17        26.6864   31.3769  105.2423 H         1 ACX         0.0584
     84 H18        29.6743   28.6424  100.3299 H         1 ACX         0.2101
     85 H19        26.8901   30.5930  100.4904 H         1 ACX         0.2100
     86 H20        28.0003   33.2800  105.5676 H         1 ACX         0.2095
     87 H21        35.2302   34.0753  103.4955 H         1 ACX         0.0938
     88 H22        34.9203   32.1330  102.0973 H         1 ACX         0.0671
     89 H23        32.0790   33.0934  101.5659 H         1 ACX         0.0648
     90 H24        32.7917   30.6440  103.2287 H         1 ACX         0.0651
     91 H25        31.6680   33.3137  104.1999 H         1 ACX         0.0647
     92 H26        32.6962   30.7666  105.5418 H         1 ACX         0.0584
     93 H27        31.0662   31.5102  105.6719 H         1 ACX         0.0584
     94 H28        33.7298   34.4902  100.9802 H         1 ACX         0.2101
     95 H29        31.9415   31.0127  100.6022 H         1 ACX         0.2100
     96 H30        33.5259   32.7085  106.5245 H         1 ACX         0.2095
     97 H31        34.1932   40.0127  103.3856 H         1 ACX         0.0938
     98 H32        35.6808   38.2142  102.5102 H         1 ACX         0.0671
     99 H33        33.0463   36.9507  101.6198 H         1 ACX         0.0648
    100 H34        35.1322   35.9266  103.6090 H         1 ACX         0.0651
    101 H35        32.3048   37.0095  103.9664 H         1 ACX         0.0647
    102 H36        34.2609   35.6348  105.7779 H         1 ACX         0.0584
    103 H37        32.4664   35.5660  105.7361 H         1 ACX         0.0584
    104 H38        33.6706   39.0640  100.6511 H         1 ACX         0.2101
    105 H39        34.4875   35.2990  100.9170 H         1 ACX         0.2100
    106 H40        34.0359   37.8227  106.5919 H         1 ACX         0.2095
    107 H41        28.2004   41.8909  102.6040 H         1 ACX         0.0938
    108 H42        30.4928   42.6579  101.8452 H         1 ACX         0.0671
    109 H43        30.8642   39.7362  101.0639 H         1 ACX         0.0648
    110 H44        32.5791   41.1009  103.1558 H         1 ACX         0.0651
    111 H45        30.2341   39.2752  103.8043 H         1 ACX         0.0647
    112 H46        32.4396   40.4034  105.2701 H         1 ACX         0.0584
    113 H47        31.1281   39.3255  105.8573 H         1 ACX         0.0584
    114 H48        28.7474   42.3721  100.3465 H         1 ACX         0.2101
    115 H49        32.9611   40.5214  100.5717 H         1 ACX         0.2100
    116 H50        29.8123   41.2373  106.0543 H         1 ACX         0.2095
    117 H51        24.1497   37.2534  102.2867 H         1 ACX         0.0938
    118 H52        24.8581   39.1383  100.8927 H         1 ACX         0.0671
    119 H53        27.6358   37.8787  101.0808 H         1 ACX         0.0648
    120 H54        26.7042   40.5733  102.1807 H         1 ACX         0.0651
    121 H55        27.4898   38.0260  103.6772 H         1 ACX         0.0647
    122 H56        26.0601   40.5456  104.6563 H         1 ACX         0.0584
    123 H57        27.8394   40.3148  104.7426 H         1 ACX         0.0584
    124 H58        25.9488   36.6159  100.0527 H         1 ACX         0.2101
    125 H59        28.1559   39.7737   99.8768 H         1 ACX         0.2100
    126 H60        25.8690   38.5856  105.8960 H         1 ACX         0.2095
@<TRIPOS>BOND
     1    2    1 1  
     2    1    7 1  
     3   10    1 1  
     4    3    2 1  
     5    2    8 1  
     6    4    3 1  
     7    3    9 1  
     8    4    5 1  
     9   62    4 1  
    10    5    6 1  
    11    5   10 1  
    12    6   11 1  
    13    7   15 1  
    14   13   12 1  
    15   12   18 1  
    16   21   12 1  
    17   14   13 1  
    18   13   19 1  
    19   15   14 1  
    20   14   20 1  
    21   15   16 1  
    22   16   17 1  
    23   16   21 1  
    24   17   22 1  
    25   18   26 1  
    26   24   23 1  
    27   23   29 1  
    28   32   23 1  
    29   25   24 1  
    30   24   30 1  
    31   26   25 1  
    32   25   31 1  
    33   26   27 1  
    34   27   28 1  
    35   27   32 1  
    36   28   33 1  
    37   29   37 1  
    38   35   34 1  
    39   34   40 1  
    40   43   34 1  
    41   36   35 1  
    42   35   41 1  
    43   37   36 1  
    44   36   42 1  
    45   37   38 1  
    46   38   39 1  
    47   38   43 1  
    48   39   44 1  
    49   40   48 1  
    50   46   45 1  
    51   45   51 1  
    52   54   45 1  
    53   47   46 1  
    54   46   52 1  
    55   48   47 1  
    56   47   53 1  
    57   48   49 1  
    58   49   50 1  
    59   49   54 1  
    60   50   55 1  
    61   51   59 1  
    62   56   57 1  
    63   56   62 1  
    64   56   65 1  
    65   57   58 1  
    66   57   63 1  
    67   58   59 1  
    68   58   64 1  
    69   59   60 1  
    70   60   61 1  
    71   60   65 1  
    72   61   66 1  
    73    1   67 1  
    74    2   68 1  
    75    3   69 1  
    76    4   70 1  
    77    5   71 1  
    78    6   72 1  
    79    6   73 1  
    80    8   74 1  
    81    9   75 1  
    82   11   76 1  
    83   12   77 1  
    84   13   78 1  
    85   14   79 1  
    86   15   80 1  
    87   16   81 1  
    88   17   82 1  
    89   17   83 1  
    90   19   84 1  
    91   20   85 1  
    92   22   86 1  
    93   23   87 1  
    94   24   88 1  
    95   25   89 1  
    96   26   90 1  
    97   27   91 1  
    98   28   92 1  
    99   28   93 1  
   100   30   94 1  
   101   31   95 1  
   102   33   96 1  
   103   34   97 1  
   104   35   98 1  
   105   36   99 1  
   106   37  100 1  
   107   38  101 1  
   108   39  102 1  
   109   39  103 1  
   110   41  104 1  
   111   42  105 1  
   112   44  106 1  
   113   45  107 1  
   114   46  108 1  
   115   47  109 1  
   116   48  110 1  
   117   49  111 1  
   118   50  112 1  
   119   50  113 1  
   120   52  114 1  
   121   53  115 1  
   122   55  116 1  
   123   56  117 1  
   124   57  118 1  
   125   58  119 1  
   126   59  120 1  
   127   60  121 1  
   128   61  122 1  
   129   61  123 1  
   130   63  124 1  
   131   64  125 1  
   132   66  126 1  
@<TRIPOS>SUBSTRUCTURE
     1 ACX         1

