4fem_ligand
  -I-interpret- 

126132  0  0  0  0  0  0  0  0999 V2000
   25.6330   32.3290  102.9480 C   0  0  0  0  0
   24.8280   32.8930  101.7840 C   0  0  0  0  0
   25.3870   34.2610  101.4220 C   0  0  0  0  0
   25.2950   35.1790  102.6110 C   0  0  0  0  0
   25.9900   34.5510  103.8020 C   0  0  0  0  0
   25.7450   35.4380  105.0090 C   0  0  0  0  0
   27.0030   32.2280  102.5620 O   0  0  0  0  0
   24.8570   31.9870  100.6570 O   0  0  0  0  0
   24.6940   34.8380  100.3200 O   0  0  0  0  0
   25.5210   33.2290  104.0640 O   0  0  0  0  0
   26.5790   35.0160  106.0800 O   0  0  0  0  0
   30.3860   30.0280  103.1910 C   0  0  0  0  0
   29.4830   29.4340  102.1200 C   0  0  0  0  0
   28.4110   30.4620  101.7290 C   0  0  0  0  0
   27.6330   30.9850  102.9430 C   0  0  0  0  0
   28.5560   31.2250  104.1650 C   0  0  0  0  0
   27.7630   31.3310  105.4630 C   0  0  0  0  0
   30.8610   31.3210  102.7930 O   0  0  0  0  0
   30.2510   29.0330  100.9760 O   0  0  0  0  0
   27.4950   29.9160  100.7700 O   0  0  0  0  0
   29.5490   30.2040  104.3280 O   0  0  0  0  0
   28.1780   32.5330  106.1270 O   0  0  0  0  0
   34.1930   33.7650  103.3010 C   0  0  0  0  0
   34.1520   32.9190  102.0530 C   0  0  0  0  0
   32.7790   32.2880  101.8330 C   0  0  0  0  0
   32.2480   31.5850  103.0590 C   0  0  0  0  0
   32.3930   32.4910  104.2870 C   0  0  0  0  0
   32.1410   31.7160  105.5600 C   0  0  0  0  0
   33.3980   34.9060  103.0850 O   0  0  0  0  0
   34.4010   33.8180  100.9890 O   0  0  0  0  0
   32.8180   31.3410  100.7650 O   0  0  0  0  0
   33.7140   33.0300  104.4250 O   0  0  0  0  0
   32.5990   32.5320  106.6350 O   0  0  0  0  0
   33.8100   38.9950  103.2200 C   0  0  0  0  0
   34.6350   38.2770  102.1750 C   0  0  0  0  0
   34.0820   36.8770  101.9830 C   0  0  0  0  0
   34.1000   36.1170  103.2800 C   0  0  0  0  0
   33.3470   36.9180  104.3060 C   0  0  0  0  0
   33.3420   36.2270  105.6560 C   0  0  0  0  0
   32.4520   39.0480  102.7630 O   0  0  0  0  0
   34.5740   39.0060  100.9390 O   0  0  0  0  0
   34.8580   36.1650  101.0410 O   0  0  0  0  0
   33.8940   38.2320  104.4240 O   0  0  0  0  0
   33.2790   37.2540  106.6710 O   0  0  0  0  0
   29.0790   41.2290  102.5990 C   0  0  0  0  0
   30.0980   41.6690  101.5690 C   0  0  0  0  0
   31.2500   40.6680  101.5030 C   0  0  0  0  0
   31.8400   40.3380  102.8700 C   0  0  0  0  0
   30.7520   40.2360  103.9410 C   0  0  0  0  0
   31.3500   40.2650  105.3300 C   0  0  0  0  0
   28.6780   39.8610  102.3310 O   0  0  0  0  0
   29.4630   41.7490  100.3020 O   0  0  0  0  0
   32.2790   41.1760  100.6660 O   0  0  0  0  0
   29.7810   41.2910  103.8310 O   0  0  0  0  0
   30.7530   41.3640  106.0140 O   0  0  0  0  0
   25.2120   37.5390  102.2850 C   0  0  0  0  0
   25.5340   38.2790  101.0140 C   0  0  0  0  0
   26.9730   38.7560  101.0480 C   0  0  0  0  0
   27.2470   39.6200  102.2620 C   0  0  0  0  0
   26.8050   38.8720  103.5180 C   0  0  0  0  0
   26.8670   39.8010  104.7230 C   0  0  0  0  0
   26.0130   36.3750  102.3280 O   0  0  0  0  0
   25.3690   37.3580   99.9280 O   0  0  0  0  0
   27.2450   39.5040   99.8750 O   0  0  0  0  0
   25.4720   38.3690  103.4110 O   0  0  0  0  0
   26.7090   39.0290  105.9160 O   0  0  0  0  0
   25.2563   31.3439  103.2232 H   0  0  0  0  0
   23.7829   33.0043  102.0728 H   0  0  0  0  0
   26.4295   34.1288  101.1326 H   0  0  0  0  0
   24.2420   35.3684  102.8195 H   0  0  0  0  0
   27.0552   34.4697  103.5855 H   0  0  0  0  0
   24.6999   35.3641  105.3097 H   0  0  0  0  0
   25.9746   36.4725  104.7539 H   0  0  0  0  0
   24.4980   31.1370  100.9219 H   0  0  0  0  0
   24.7540   34.2509   99.5628 H   0  0  0  0  0
   26.4249   35.5764  106.8441 H   0  0  0  0  0
   31.2467   29.3852  103.3755 H   0  0  0  0  0
   28.9924   28.5450  102.5164 H   0  0  0  0  0
   28.9419   31.3024  101.2817 H   0  0  0  0  0
   26.8953   30.2389  103.2383 H   0  0  0  0  0
   29.0571   32.1701  103.9557 H   0  0  0  0  0
   27.9502   30.4630  106.0952 H   0  0  0  0  0
   26.6936   31.3614  105.2542 H   0  0  0  0  0
   29.6648   28.6615  100.3127 H   0  0  0  0  0
   26.8376   30.5781  100.5441 H   0  0  0  0  0
   27.6933   32.6260  106.9504 H   0  0  0  0  0
   35.2207   34.0591  103.5143 H   0  0  0  0  0
   34.8746   32.1061  102.1242 H   0  0  0  0  0
   32.1134   33.1168  101.5919 H   0  0  0  0  0
   32.7950   30.6651  103.2657 H   0  0  0  0  0
   31.6676   33.2905  104.1361 H   0  0  0  0  0
   32.6688   30.7624  105.5446 H   0  0  0  0  0
   31.0812   31.4866  105.6712 H   0  0  0  0  0
   34.3885   33.3389  100.1572 H   0  0  0  0  0
   31.9455   30.9586  100.6459 H   0  0  0  0  0
   32.4563   32.0738  107.4664 H   0  0  0  0  0
   34.1680   40.0098  103.3937 H   0  0  0  0  0
   35.6739   38.2119  102.4982 H   0  0  0  0  0
   33.0567   36.9732  101.6257 H   0  0  0  0  0
   35.1246   35.9330  103.6032 H   0  0  0  0  0
   32.3147   36.9980  103.9654 H   0  0  0  0  0
   34.2424   35.6251  105.7789 H   0  0  0  0  0
   32.4855   35.5578  105.7379 H   0  0  0  0  0
   35.0972   38.5516  100.2746 H   0  0  0  0  0
   34.4957   35.2828  100.9311 H   0  0  0  0  0
   33.2745   36.8444  107.5392 H   0  0  0  0  0
   28.1790   41.8439  102.5959 H   0  0  0  0  0
   30.4990   42.6431  101.8489 H   0  0  0  0  0
   30.8361   39.7450  101.0971 H   0  0  0  0  0
   32.5409   41.1232  103.1534 H   0  0  0  0  0
   30.2503   39.2825  103.7759 H   0  0  0  0  0
   32.4328   40.3805  105.2829 H   0  0  0  0  0
   31.1546   39.3300  105.8551 H   0  0  0  0  0
   30.1021   42.0276   99.6420 H   0  0  0  0  0
   33.0003   40.5436  100.6278 H   0  0  0  0  0
   31.1084   41.4166  106.9043 H   0  0  0  0  0
   24.1576   37.2638  102.3095 H   0  0  0  0  0
   24.8800   39.1434  100.8990 H   0  0  0  0  0
   27.6181   37.8791  101.1024 H   0  0  0  0  0
   26.7044   40.5626  102.1897 H   0  0  0  0  0
   27.4850   38.0285  103.6376 H   0  0  0  0  0
   26.0702   40.5418  104.6568 H   0  0  0  0  0
   27.8287   40.3137  104.7422 H   0  0  0  0  0
   25.5679   37.8019   99.1004 H   0  0  0  0  0
   28.1557   39.8072   99.8942 H   0  0  0  0  0
   26.7473   39.6100  106.6792 H   0  0  0  0  0
  2  1  1  0  0  0
  1  7  1  0  0  0
 10  1  1  0  0  0
  3  2  1  0  0  0
  2  8  1  0  0  0
  4  3  1  0  0  0
  3  9  1  0  0  0
  4  5  1  0  0  0
 62  4  1  0  0  0
  5  6  1  0  0  0
  5 10  1  0  0  0
  6 11  1  0  0  0
  7 15  1  0  0  0
 13 12  1  0  0  0
 12 18  1  0  0  0
 21 12  1  0  0  0
 14 13  1  0  0  0
 13 19  1  0  0  0
 15 14  1  0  0  0
 14 20  1  0  0  0
 15 16  1  0  0  0
 16 17  1  0  0  0
 16 21  1  0  0  0
 17 22  1  0  0  0
 18 26  1  0  0  0
 24 23  1  0  0  0
 23 29  1  0  0  0
 32 23  1  0  0  0
 25 24  1  0  0  0
 24 30  1  0  0  0
 26 25  1  0  0  0
 25 31  1  0  0  0
 26 27  1  0  0  0
 27 28  1  0  0  0
 27 32  1  0  0  0
 28 33  1  0  0  0
 29 37  1  0  0  0
 35 34  1  0  0  0
 34 40  1  0  0  0
 43 34  1  0  0  0
 36 35  1  0  0  0
 35 41  1  0  0  0
 37 36  1  0  0  0
 36 42  1  0  0  0
 37 38  1  0  0  0
 38 39  1  0  0  0
 38 43  1  0  0  0
 39 44  1  0  0  0
 40 48  1  0  0  0
 46 45  1  0  0  0
 45 51  1  0  0  0
 54 45  1  0  0  0
 47 46  1  0  0  0
 46 52  1  0  0  0
 48 47  1  0  0  0
 47 53  1  0  0  0
 48 49  1  0  0  0
 49 50  1  0  0  0
 49 54  1  0  0  0
 50 55  1  0  0  0
 51 59  1  0  0  0
 56 57  1  0  0  0
 56 62  1  0  0  0
 56 65  1  0  0  0
 57 58  1  0  0  0
 57 63  1  0  0  0
 58 59  1  0  0  0
 58 64  1  0  0  0
 59 60  1  0  0  0
 60 61  1  0  0  0
 60 65  1  0  0  0
 61 66  1  0  0  0
  1 67  1  0  0  0
  2 68  1  0  0  0
  3 69  1  0  0  0
  4 70  1  0  0  0
  5 71  1  0  0  0
  6 72  1  0  0  0
  6 73  1  0  0  0
  8 74  1  0  0  0
  9 75  1  0  0  0
 11 76  1  0  0  0
 12 77  1  0  0  0
 13 78  1  0  0  0
 14 79  1  0  0  0
 15 80  1  0  0  0
 16 81  1  0  0  0
 17 82  1  0  0  0
 17 83  1  0  0  0
 19 84  1  0  0  0
 20 85  1  0  0  0
 22 86  1  0  0  0
 23 87  1  0  0  0
 24 88  1  0  0  0
 25 89  1  0  0  0
 26 90  1  0  0  0
 27 91  1  0  0  0
 28 92  1  0  0  0
 28 93  1  0  0  0
 30 94  1  0  0  0
 31 95  1  0  0  0
 33 96  1  0  0  0
 34 97  1  0  0  0
 35 98  1  0  0  0
 36 99  1  0  0  0
 37100  1  0  0  0
 38101  1  0  0  0
 39102  1  0  0  0
 39103  1  0  0  0
 41104  1  0  0  0
 42105  1  0  0  0
 44106  1  0  0  0
 45107  1  0  0  0
 46108  1  0  0  0
 47109  1  0  0  0
 48110  1  0  0  0
 49111  1  0  0  0
 50112  1  0  0  0
 50113  1  0  0  0
 52114  1  0  0  0
 53115  1  0  0  0
 55116  1  0  0  0
 56117  1  0  0  0
 57118  1  0  0  0
 58119  1  0  0  0
 59120  1  0  0  0
 60121  1  0  0  0
 61122  1  0  0  0
 61123  1  0  0  0
 63124  1  0  0  0
 64125  1  0  0  0
 66126  1  0  0  0
M  END
$$$$
