5zdg_ligand
  -I-interpret- 

 59 62  0  0  0  0  0  0  0  0999 V2000
   19.9280   59.7510   -0.9920 N   0  0  0  0  0
   20.7270   60.7760   -0.6010 C   0  0  0  0  0
   20.5290   62.0190   -1.0970 N   0  0  0  0  0
   19.5370   62.2250   -1.9910 C   0  0  0  0  0
   18.7470   61.2080   -2.3730 C   0  0  0  0  0
   18.9530   59.9470   -1.8590 C   0  0  0  0  0
   18.3300   58.6410   -2.0250 N   0  0  0  0  0
   17.8540   61.6790   -3.2500 N   0  0  0  0  0
   18.0900   62.9870   -3.4060 C   0  0  0  0  0
   19.1210   63.3390   -2.6260 N   0  0  0  0  0
   14.6010   65.7220   -1.7830 P   0  0  0  0  0
   13.6330   68.0000   -0.0630 P   0  0  0  0  0
   19.6750   64.6420   -2.5460 C   0  0  0  0  0
   14.1680   66.5050   -2.9870 O   0  0  0  0  0
   14.0150   68.8470   -1.2630 O   0  0  0  0  0
    9.5630   64.4350   -1.4640 C   0  0  0  0  0
    8.5100   64.5900   -2.1580 O   0  0  0  0  0
   19.5340   65.2860   -3.7090 C   0  0  0  0  0
   20.7390   66.0990   -3.9320 O   0  0  0  0  0
   14.0690   64.3260   -1.9180 O   0  0  0  0  0
   14.2830   68.6700    1.1440 O   0  0  0  0  0
    9.2250   64.3690    0.0140 C   0  0  0  0  0
    8.0300   63.5260    0.2090 O   0  0  0  0  0
   18.3380   66.2460   -3.5290 C   0  0  0  0  0
   18.4980   67.3410   -4.2550 O   0  0  0  0  0
   14.1230   66.4250   -0.3370 O   0  0  0  0  0
    9.0090   65.6570    0.3130 C   0  0  0  0  0
    7.6860   66.0880   -0.0470 O   0  0  0  0  0
   18.3910   66.6170   -1.9910 C   0  0  0  0  0
   18.9790   65.6030   -1.3990 O   0  0  0  0  0
   10.1510   66.4710   -0.5400 C   0  0  0  0  0
   10.4940   65.7110   -1.5410 O   0  0  0  0  0
   16.9580   66.8210   -1.4790 C   0  0  0  0  0
   16.2330   65.6580   -1.7900 O   0  0  0  0  0
   11.3700   66.7050    0.3270 C   0  0  0  0  0
   11.9660   67.9710    0.0720 O   0  0  0  0  0
   21.5299   60.5974    0.1142 H   0  0  0  0  0
   18.6867   57.8365   -1.5092 H   0  0  0  0  0
   17.5370   58.5308   -2.6570 H   0  0  0  0  0
   17.5337   63.6573   -4.0613 H   0  0  0  0  0
   20.7197   64.4767   -2.2827 H   0  0  0  0  0
   14.4995   67.4034   -2.9192 H   0  0  0  0  0
   10.0351   63.5318   -1.8507 H   0  0  0  0  0
    8.7441   64.6294   -3.0882 H   0  0  0  0  0
   19.3844   64.5965   -4.5399 H   0  0  0  0  0
   20.6563   66.5701   -4.7644 H   0  0  0  0  0
   14.0724   68.1718    1.9371 H   0  0  0  0  0
    9.9922   63.9247    0.6481 H   0  0  0  0  0
    7.8176   63.4853    1.1443 H   0  0  0  0  0
   17.3940   65.7988   -3.8404 H   0  0  0  0  0
   17.7440   67.9213   -4.1272 H   0  0  0  0  0
    9.0777   65.8359    1.3860 H   0  0  0  0  0
    7.5779   67.0132    0.1851 H   0  0  0  0  0
   18.9385   67.5386   -1.7935 H   0  0  0  0  0
    9.7635   67.4325   -0.8768 H   0  0  0  0  0
   16.5037   67.6926   -1.9501 H   0  0  0  0  0
   16.9573   66.9962   -0.4032 H   0  0  0  0  0
   12.1032   65.9303    0.1027 H   0  0  0  0  0
   11.0576   66.6780    1.3709 H   0  0  0  0  0
  2  1  4  0  0  0
  6  1  4  0  0  0
  3  2  4  0  0  0
  4  3  4  0  0  0
  4  5  4  0  0  0
 10  4  4  0  0  0
  5  6  4  0  0  0
  8  5  4  0  0  0
  6  7  1  0  0  0
  9  8  4  0  0  0
 10  9  4  0  0  0
 13 10  1  0  0  0
 11 14  1  0  0  0
 11 20  2  0  0  0
 26 11  1  0  0  0
 11 34  1  0  0  0
 12 15  2  0  0  0
 12 21  1  0  0  0
 12 26  1  0  0  0
 36 12  1  0  0  0
 13 18  1  0  0  0
 30 13  1  0  0  0
 16 17  1  0  0  0
 16 22  1  0  0  0
 32 16  1  0  0  0
 18 19  1  0  0  0
 24 18  1  0  0  0
 22 23  1  0  0  0
 27 22  1  0  0  0
 24 25  1  0  0  0
 29 24  1  0  0  0
 27 28  1  0  0  0
 31 27  1  0  0  0
 29 30  1  0  0  0
 33 29  1  0  0  0
 31 32  1  0  0  0
 35 31  1  0  0  0
 34 33  1  0  0  0
 35 36  1  0  0  0
  2 37  1  0  0  0
  7 38  1  0  0  0
  7 39  1  0  0  0
  9 40  1  0  0  0
 13 41  1  0  0  0
 14 42  1  0  0  0
 16 43  1  0  0  0
 17 44  1  0  0  0
 18 45  1  0  0  0
 19 46  1  0  0  0
 21 47  1  0  0  0
 22 48  1  0  0  0
 23 49  1  0  0  0
 24 50  1  0  0  0
 25 51  1  0  0  0
 27 52  1  0  0  0
 28 53  1  0  0  0
 29 54  1  0  0  0
 31 55  1  0  0  0
 33 56  1  0  0  0
 33 57  1  0  0  0
 35 58  1  0  0  0
 35 59  1  0  0  0
M  END
$$$$
