### 
### Created by X-TOOL on Mon Aug  2 16:10:02 2021
### 

@<TRIPOS>MOLECULE
5zdg_ligand
   57    60     1     0     0
SMALL
GAST_HUCK


@<TRIPOS>ATOM
      1 N1         19.9280   59.7510   -0.9920 N.ar      1 AR6        -0.2698
      2 C2         20.7270   60.7760   -0.6010 C.ar      1 AR6         0.0533
      3 N3         20.5290   62.0190   -1.0970 N.ar      1 AR6        -0.2714
      4 C4         19.5370   62.2250   -1.9910 C.ar      1 AR6         0.1613
      5 C5         18.7470   61.2080   -2.3730 C.ar      1 AR6         0.1045
      6 C6         18.9530   59.9470   -1.8590 C.ar      1 AR6         0.1298
      7 N6         18.3300   58.6410   -2.0250 N.pl3     1 AR6        -0.3152
      8 N7         17.8540   61.6790   -3.2500 N.2       1 AR6        -0.2958
      9 C8         18.0900   62.9870   -3.4060 C.2       1 AR6         0.1123
     10 N9         19.1210   63.3390   -2.6260 N.pl3     1 AR6        -0.1919
     11 PA         14.6010   65.7220   -1.7830 P.3       1 AR6         0.2972
     12 PB         13.6330   68.0000   -0.0630 P.3       1 AR6         0.2972
     13 C1'        19.6750   64.6420   -2.5460 C.3       1 AR6         0.2010
     14 O1A        14.1680   66.5050   -2.9870 O.co2     1 AR6        -0.6127
     15 O1B        14.0150   68.8470   -1.2630 O.co2     1 AR6        -0.6127
     16 C1D         9.5630   64.4350   -1.4640 C.3       1 AR6         0.1854
     17 O1D         8.5100   64.5900   -2.1580 O.3       1 AR6        -0.3649
     18 C2'        19.5340   65.2860   -3.7090 C.3       1 AR6         0.1385
     19 O2'        20.7390   66.0990   -3.9320 O.3       1 AR6        -0.3836
     20 O2A        14.0690   64.3260   -1.9180 O.co2     1 AR6        -0.6127
     21 O2B        14.2830   68.6700    1.1440 O.co2     1 AR6        -0.6127
     22 C2D         9.2250   64.3690    0.0140 C.3       1 AR6         0.1339
     23 O2D         8.0300   63.5260    0.2090 O.3       1 AR6        -0.3841
     24 C3'        18.3380   66.2460   -3.5290 C.3       1 AR6         0.1149
     25 O3'        18.4980   67.3410   -4.2550 O.3       1 AR6        -0.3864
     26 O3A        14.1230   66.4250   -0.3370 O.3       1 AR6        -0.1319
     27 C3D         9.0090   65.6570    0.3130 C.3       1 AR6         0.1144
     28 O3D         7.6860   66.0880   -0.0470 O.3       1 AR6        -0.3864
     29 C4'        18.3910   66.6170   -1.9910 C.3       1 AR6         0.1189
     30 O4'        18.9790   65.6030   -1.3990 O.3       1 AR6        -0.3364
     31 C4D        10.1510   66.4710   -0.5400 C.3       1 AR6         0.1184
     32 O4D        10.4940   65.7110   -1.5410 O.3       1 AR6        -0.3403
     33 C5'        16.9580   66.8210   -1.4790 C.3       1 AR6         0.1128
     34 O5'        16.2330   65.6580   -1.7900 O.3       1 AR6        -0.2476
     35 C5D        11.3700   66.7050    0.3270 C.3       1 AR6         0.1128
     36 O5D        11.9660   67.9710    0.0720 O.3       1 AR6        -0.2476
     37 H1         21.5255   60.5983    0.1102 H         1 AR6         0.0996
     38 H2         17.5293   58.5298   -2.6632 H         1 AR6         0.1820
     39 H3         18.6902   57.8287   -1.5041 H         1 AR6         0.1820
     40 H4         17.5342   63.6567   -4.0607 H         1 AR6         0.1349
     41 H5         20.7453   64.5381   -2.3146 H         1 AR6         0.0996
     42 H6         10.0953   63.5313   -1.7955 H         1 AR6         0.0935
     43 H7          8.0249   65.3391   -1.8324 H         1 AR6         0.2126
     44 H8         19.3681   64.5854   -4.5406 H         1 AR6         0.0676
     45 H9         21.5009   65.5323   -3.9619 H         1 AR6         0.2101
     46 H10        10.0605   63.9637    0.6036 H         1 AR6         0.0671
     47 H11         7.2983   63.9009   -0.2670 H         1 AR6         0.2101
     48 H12        17.3898   65.7546   -3.7927 H         1 AR6         0.0648
     49 H13        19.2917   67.7867   -3.9831 H         1 AR6         0.2100
     50 H14         9.1510   65.8213    1.3913 H         1 AR6         0.0648
     51 H15         7.5620   65.9784   -0.9825 H         1 AR6         0.2100
     52 H16        18.9725   67.5372   -1.8324 H         1 AR6         0.0651
     53 H17         9.7513   67.4308   -0.8991 H         1 AR6         0.0651
     54 H18        16.5023   67.6918   -1.9729 H         1 AR6         0.0648
     55 H19        16.9662   66.9795   -0.3905 H         1 AR6         0.0648
     56 H20        12.1089   65.9163    0.1224 H         1 AR6         0.0648
     57 H21        11.0688   66.6600    1.3840 H         1 AR6         0.0648
@<TRIPOS>BOND
     1    2    1 ar 
     2    6    1 ar 
     3    3    2 ar 
     4    4    3 ar 
     5    4    5 ar 
     6   10    4 1  
     7    5    6 ar 
     8    8    5 1  
     9    6    7 1  
    10    9    8 2  
    11   10    9 1  
    12   13   10 1  
    13   11   14 ar 
    14   11   20 ar 
    15   26   11 1  
    16   11   34 1  
    17   12   15 ar 
    18   12   21 ar 
    19   12   26 1  
    20   36   12 1  
    21   13   18 1  
    22   30   13 1  
    23   16   17 1  
    24   16   22 1  
    25   32   16 1  
    26   18   19 1  
    27   24   18 1  
    28   22   23 1  
    29   27   22 1  
    30   24   25 1  
    31   29   24 1  
    32   27   28 1  
    33   31   27 1  
    34   29   30 1  
    35   33   29 1  
    36   31   32 1  
    37   35   31 1  
    38   34   33 1  
    39   35   36 1  
    40    2   37 1  
    41    7   38 1  
    42    7   39 1  
    43    9   40 1  
    44   13   41 1  
    45   16   42 1  
    46   17   43 1  
    47   18   44 1  
    48   19   45 1  
    49   22   46 1  
    50   23   47 1  
    51   24   48 1  
    52   25   49 1  
    53   27   50 1  
    54   28   51 1  
    55   29   52 1  
    56   31   53 1  
    57   33   54 1  
    58   33   55 1  
    59   35   56 1  
    60   35   57 1  
@<TRIPOS>SUBSTRUCTURE
     1 AR6         1

