5q0x_ligand
  -I-interpret- 

 63 67  0  0  0  0  0  0  0  0999 V2000
  -13.7800   57.1560   -2.0470 C   0  0  0  0  0
  -11.9880   57.3130   -3.9830 C   0  0  0  0  0
  -12.7170   56.7420   -2.8660 C   0  0  0  0  0
  -12.1490   55.4800   -2.6300 C   0  0  0  0  0
  -10.2910   54.0980   -3.6370 C   0  0  0  0  0
  -14.2860   54.7080    1.5710 C   0  0  0  0  0
  -14.4030   52.7550    0.1300 C   0  0  0  0  0
  -18.2150   50.6940    3.7970 C   0  0  0  0  0
  -17.8780   49.8590    2.7320 C   0  0  0  0  0
  -18.9270   51.8480    3.4710 C   0  0  0  0  0
  -16.3730   51.2640    5.5550 C   0  0  0  0  0
  -14.2450   56.3210   -1.0290 C   0  0  0  0  0
  -13.6760   55.0520   -0.8070 C   0  0  0  0  0
  -12.6090   54.6520   -1.6170 C   0  0  0  0  0
  -11.1330   55.2850   -3.5410 N   0  0  0  0  0
  -11.0480   56.3850   -4.3440 C   0  0  0  0  0
  -12.1740   58.6290   -4.6410 C   0  0  0  0  0
  -13.0420   59.4070   -4.2760 O   0  0  0  0  0
  -11.3500   58.8930   -5.6220 O   0  0  0  0  0
  -14.6920   53.9450    2.6510 C   0  0  0  0  0
  -14.1410   54.1440    0.3010 C   0  0  0  0  0
  -14.8130   52.0030    1.2320 C   0  0  0  0  0
  -14.9550   52.5900    2.4800 C   0  0  0  0  0
  -15.3620   51.7490    3.4820 O   0  0  0  0  0
  -18.1120   50.2700    1.4300 C   0  0  0  0  0
  -18.9810   51.2700    1.1880 N   0  0  0  0  0
  -19.2100   52.1770    2.1550 C   0  0  0  0  0
  -17.5440   50.5740    5.1130 C   0  0  0  0  0
  -16.1920   50.8100    6.8040 C   0  0  0  0  0
  -17.1460   49.9230    7.1400 O   0  0  0  0  0
  -18.0240   49.7750    6.0330 N   0  0  0  0  0
  -16.7610   48.5570    2.9680 Cl  0  0  0  0  0
  -15.1390   51.1120    7.8770 C   0  0  0  0  0
  -15.6590   52.1300    8.8760 C   0  0  0  0  0
  -14.6190   49.8330    8.5330 C   0  0  0  0  0
  -15.5580   52.2480    4.7960 C   0  0  0  0  0
  -19.6720   52.7780    4.7300 Cl  0  0  0  0  0
  -14.2730   52.0450   -1.1990 C   0  0  0  0  0
  -14.2425   58.1301   -2.2061 H   0  0  0  0  0
   -9.7554   53.9571   -2.6982 H   0  0  0  0  0
  -10.9150   53.2265   -3.8351 H   0  0  0  0  0
   -9.5755   54.2263   -4.4492 H   0  0  0  0  0
  -14.0755   55.7680    1.7133 H   0  0  0  0  0
  -15.0643   56.6579   -0.3938 H   0  0  0  0  0
  -12.1360   53.6840   -1.4514 H   0  0  0  0  0
  -10.3331   56.5076   -5.1576 H   0  0  0  0  0
  -10.7518   58.1522   -5.7441 H   0  0  0  0  0
  -14.8055   54.4042    3.6330 H   0  0  0  0  0
  -15.0243   50.9407    1.1099 H   0  0  0  0  0
  -17.5937   49.7849    0.6028 H   0  0  0  0  0
  -19.6132   53.1587    1.9063 H   0  0  0  0  0
  -14.2756   51.5670    7.3915 H   0  0  0  0  0
  -15.9046   53.0555    8.3552 H   0  0  0  0  0
  -16.5521   51.7370    9.3618 H   0  0  0  0  0
  -14.8924   52.3258    9.6257 H   0  0  0  0  0
  -15.4481   49.3046    9.0036 H   0  0  0  0  0
  -14.1643   49.1960    7.7743 H   0  0  0  0  0
  -13.8751   50.0896    9.2872 H   0  0  0  0  0
  -14.5958   52.3931    5.2872 H   0  0  0  0  0
  -16.0730   53.2079    4.7574 H   0  0  0  0  0
  -14.9522   52.4995   -1.9203 H   0  0  0  0  0
  -13.2476   52.1334   -1.5579 H   0  0  0  0  0
  -14.5259   50.9922   -1.0733 H   0  0  0  0  0
  1  3  4  0  0  0
 12  1  4  0  0  0
  3  2  4  0  0  0
 16  2  4  0  0  0
  2 17  1  0  0  0
  4  3  4  0  0  0
 14  4  4  0  0  0
  4 15  4  0  0  0
 15  5  1  0  0  0
 20  6  4  0  0  0
  6 21  4  0  0  0
  7 21  4  0  0  0
 22  7  4  0  0  0
  7 38  1  0  0  0
  8  9  4  0  0  0
  8 10  4  0  0  0
 28  8  1  0  0  0
  9 25  4  0  0  0
  9 32  1  0  0  0
 10 27  4  0  0  0
 10 37  1  0  0  0
 11 28  4  0  0  0
 11 29  4  0  0  0
 36 11  1  0  0  0
 13 12  4  0  0  0
 13 14  4  0  0  0
 21 13  1  0  0  0
 15 16  4  0  0  0
 17 18  2  0  0  0
 17 19  1  0  0  0
 23 20  4  0  0  0
 23 22  4  0  0  0
 24 23  1  0  0  0
 24 36  1  0  0  0
 25 26  4  0  0  0
 26 27  4  0  0  0
 28 31  4  0  0  0
 29 30  4  0  0  0
 29 33  1  0  0  0
 30 31  4  0  0  0
 33 34  1  0  0  0
 33 35  1  0  0  0
  1 39  1  0  0  0
  5 40  1  0  0  0
  5 41  1  0  0  0
  5 42  1  0  0  0
  6 43  1  0  0  0
 12 44  1  0  0  0
 14 45  1  0  0  0
 16 46  1  0  0  0
 19 47  1  0  0  0
 20 48  1  0  0  0
 22 49  1  0  0  0
 25 50  1  0  0  0
 27 51  1  0  0  0
 33 52  1  0  0  0
 34 53  1  0  0  0
 34 54  1  0  0  0
 34 55  1  0  0  0
 35 56  1  0  0  0
 35 57  1  0  0  0
 35 58  1  0  0  0
 36 59  1  0  0  0
 36 60  1  0  0  0
 38 61  1  0  0  0
 38 62  1  0  0  0
 38 63  1  0  0  0
M  END
$$$$
