6et8_ligand
  -I-interpret- 

100104  0  0  0  0  0  0  0  0999 V2000
   24.5790   63.4260   59.4900 N   0  0  0  0  0
   23.7170   61.0860   59.0950 C   0  0  0  0  0
   24.3080   55.4480   55.8350 O   0  0  0  0  0
   25.1110   61.3440   58.6290 C   0  0  0  0  0
   24.6440   64.7070   60.0660 C   0  0  0  0  0
   25.8010   65.4270   60.3370 C   0  0  0  0  0
   25.7150   66.6980   60.8790 C   0  0  0  0  0
   24.4750   67.2700   61.1560 C   0  0  0  0  0
   23.3260   66.5520   60.8490 C   0  0  0  0  0
   23.4070   65.2840   60.3180 C   0  0  0  0  0
   24.3070   68.5830   61.8400 C   0  0  0  0  0
   25.2550   70.8320   62.1780 C   0  0  0  0  0
   23.9660   71.6020   61.7920 C   0  0  0  0  0
   23.0470   72.0090   62.8670 C   0  0  0  0  0
   25.8250   60.4470   57.9480 C   0  0  0  0  0
   25.5280   70.7800   63.6860 C   0  0  0  0  0
   24.5270   71.5360   65.7810 C   0  0  0  0  0
   24.3340   72.7640   66.3820 C   0  0  0  0  0
   24.3300   72.8650   67.7590 C   0  0  0  0  0
   24.5880   71.7410   68.5390 C   0  0  0  0  0
   24.6380   70.4940   67.9290 C   0  0  0  0  0
   24.6350   70.3910   66.5550 C   0  0  0  0  0
   24.8800   71.8650   69.9860 C   0  0  0  0  0
   24.0180   72.8720   72.0720 C   0  0  0  0  0
   22.9230   73.5780   72.5870 C   0  0  0  0  0
   25.3390   59.1290   57.5050 C   0  0  0  0  0
   22.8430   73.8160   73.9520 C   0  0  0  0  0
   23.8650   73.3630   74.8240 C   0  0  0  0  0
   24.9550   72.6760   74.2880 C   0  0  0  0  0
   25.0310   72.4350   72.9260 C   0  0  0  0  0
   23.8910   73.6020   76.2980 C   0  0  0  0  0
   22.6450   74.6660   78.1530 C   0  0  0  0  0
   21.4760   75.3740   78.4490 C   0  0  0  0  0
   21.2100   75.7440   79.7610 C   0  0  0  0  0
   22.1070   75.4040   80.7960 C   0  0  0  0  0
   23.2650   74.7010   80.4810 C   0  0  0  0  0
   26.1750   58.0260   57.6240 C   0  0  0  0  0
   23.5340   74.3430   79.1730 C   0  0  0  0  0
   21.8240   75.8000   82.2140 C   0  0  0  0  0
   19.6040   74.6720   77.1870 C   0  0  0  0  0
   22.0430   75.3860   71.3260 C   0  0  0  0  0
   25.8270   56.7990   57.0900 C   0  0  0  0  0
   24.6210   56.6490   56.4240 C   0  0  0  0  0
   23.7540   57.7250   56.3240 C   0  0  0  0  0
   24.1080   58.9480   56.8670 C   0  0  0  0  0
   25.5520   62.7030   58.9550 C   0  0  0  0  0
   25.2690   69.4950   61.6140 N   0  0  0  0  0
   22.3750   72.3190   63.7560 N   0  0  0  0  0
   24.6650   71.4800   64.3930 N   0  0  0  0  0
   24.0200   72.6500   70.6800 N   0  0  0  0  0
   22.8460   74.2940   76.7980 N   0  0  0  0  0
   26.6920   63.1150   58.7150 O   0  0  0  0  0
   21.7590   74.4720   74.4300 O   0  0  0  0  0
   21.9530   74.0000   71.6960 O   0  0  0  0  0
   23.3160   68.8130   62.5380 O   0  0  0  0  0
   26.4460   70.1340   64.1770 O   0  0  0  0  0
   25.8560   71.3030   70.4740 O   0  0  0  0  0
   24.8290   73.2000   76.9770 O   0  0  0  0  0
   22.6170   75.5350   83.1040 O   0  0  0  0  0
   20.7100   76.4410   82.4110 O   0  0  0  0  0
   20.0860   76.4580   79.9840 O   0  0  0  0  0
   20.6000   75.6690   77.4230 O   0  0  0  0  0
   23.6552   62.9935   59.4830 H   0  0  0  0  0
   23.0794   60.8826   58.2346 H   0  0  0  0  0
   23.7123   60.2254   59.7639 H   0  0  0  0  0
   23.3446   61.9622   59.6257 H   0  0  0  0  0
   23.4449   55.5119   55.4197 H   0  0  0  0  0
   26.7767   64.9910   60.1228 H   0  0  0  0  0
   26.6265   67.2569   61.0912 H   0  0  0  0  0
   22.3481   66.9979   61.0307 H   0  0  0  0  0
   22.4950   64.7306   60.0944 H   0  0  0  0  0
   26.0684   71.4114   61.7411 H   0  0  0  0  0
   23.3941   70.9108   61.1729 H   0  0  0  0  0
   24.3122   72.5332   61.3435 H   0  0  0  0  0
   26.8528   60.7108   57.6987 H   0  0  0  0  0
   24.1849   73.6533   65.7696 H   0  0  0  0  0
   24.1250   73.8239   68.2350 H   0  0  0  0  0
   24.6798   69.5925   68.5403 H   0  0  0  0  0
   24.7172   69.4139   66.0789 H   0  0  0  0  0
   25.7515   72.3269   74.9451 H   0  0  0  0  0
   25.8887   71.8999   72.5184 H   0  0  0  0  0
   23.9655   74.4304   81.2710 H   0  0  0  0  0
   27.1246   58.1299   58.1490 H   0  0  0  0  0
   24.4512   73.8026   78.9388 H   0  0  0  0  0
   20.0884   73.7302   76.9292 H   0  0  0  0  0
   19.0043   74.5391   78.0874 H   0  0  0  0  0
   18.9622   74.9889   76.3649 H   0  0  0  0  0
   21.9455   76.0058   72.2174 H   0  0  0  0  0
   23.0083   75.5732   70.8555 H   0  0  0  0  0
   21.2432   75.6264   70.6255 H   0  0  0  0  0
   26.5017   55.9491   57.1929 H   0  0  0  0  0
   22.7952   57.6087   55.8188 H   0  0  0  0  0
   23.4142   59.7857   56.7959 H   0  0  0  0  0
   26.0508   69.2328   61.0137 H   0  0  0  0  0
   24.0141   72.0548   63.8578 H   0  0  0  0  0
   23.3002   73.1294   70.1393 H   0  0  0  0  0
   22.1263   74.5792   76.1338 H   0  0  0  0  0
   21.8371   74.5654   75.3822 H   0  0  0  0  0
   20.2459   76.5378   81.5762 H   0  0  0  0  0
   20.0122   76.6521   80.9213 H   0  0  0  0  0
  1  5  1  0  0  0
 46  1  1  0  0  0
  4  2  1  0  0  0
 43  3  1  0  0  0
 15  4  2  0  0  0
  4 46  1  0  0  0
  5  6  4  0  0  0
  5 10  4  0  0  0
  6  7  4  0  0  0
  7  8  4  0  0  0
  9  8  4  0  0  0
  8 11  1  0  0  0
 10  9  4  0  0  0
 11 47  1  0  0  0
 11 55  2  0  0  0
 12 13  1  0  0  0
 12 16  1  0  0  0
 47 12  1  0  0  0
 13 14  1  0  0  0
 14 48  3  0  0  0
 26 15  1  0  0  0
 16 49  1  0  0  0
 16 56  2  0  0  0
 17 18  4  0  0  0
 17 22  4  0  0  0
 49 17  1  0  0  0
 18 19  4  0  0  0
 19 20  4  0  0  0
 21 20  4  0  0  0
 20 23  1  0  0  0
 22 21  4  0  0  0
 23 50  1  0  0  0
 23 57  2  0  0  0
 24 25  4  0  0  0
 24 30  4  0  0  0
 50 24  1  0  0  0
 25 27  4  0  0  0
 25 54  1  0  0  0
 37 26  4  0  0  0
 26 45  4  0  0  0
 27 28  4  0  0  0
 27 53  1  0  0  0
 29 28  4  0  0  0
 28 31  1  0  0  0
 30 29  4  0  0  0
 31 51  1  0  0  0
 31 58  2  0  0  0
 32 33  4  0  0  0
 32 38  4  0  0  0
 51 32  1  0  0  0
 33 34  4  0  0  0
 33 62  1  0  0  0
 34 35  4  0  0  0
 34 61  1  0  0  0
 36 35  4  0  0  0
 35 39  1  0  0  0
 38 36  4  0  0  0
 42 37  4  0  0  0
 39 59  2  0  0  0
 39 60  1  0  0  0
 62 40  1  0  0  0
 54 41  1  0  0  0
 42 43  4  0  0  0
 43 44  4  0  0  0
 44 45  4  0  0  0
 46 52  2  0  0  0
  1 63  1  0  0  0
  2 64  1  0  0  0
  2 65  1  0  0  0
  2 66  1  0  0  0
  3 67  1  0  0  0
  6 68  1  0  0  0
  7 69  1  0  0  0
  9 70  1  0  0  0
 10 71  1  0  0  0
 12 72  1  0  0  0
 13 73  1  0  0  0
 13 74  1  0  0  0
 15 75  1  0  0  0
 18 76  1  0  0  0
 19 77  1  0  0  0
 21 78  1  0  0  0
 22 79  1  0  0  0
 29 80  1  0  0  0
 30 81  1  0  0  0
 36 82  1  0  0  0
 37 83  1  0  0  0
 38 84  1  0  0  0
 40 85  1  0  0  0
 40 86  1  0  0  0
 40 87  1  0  0  0
 41 88  1  0  0  0
 41 89  1  0  0  0
 41 90  1  0  0  0
 42 91  1  0  0  0
 44 92  1  0  0  0
 45 93  1  0  0  0
 47 94  1  0  0  0
 49 95  1  0  0  0
 50 96  1  0  0  0
 51 97  1  0  0  0
 53 98  1  0  0  0
 60 99  1  0  0  0
 61100  1  0  0  0
M  END
$$$$
