4i6b_ligand
  -I-interpret- 

 39 41  0  0  0  0  0  0  0  0999 V2000
   13.7450    4.3300   10.2780 O   0  0  0  0  0
   12.6000    4.8340   10.3160 C   0  0  0  0  0
   11.4550    4.0350   10.0730 N   0  0  0  0  0
   11.6200    2.6010    9.7820 C   0  0  0  0  0
   10.1710    4.6340   10.0860 C   0  0  0  0  0
   12.5290    6.2920   10.5390 C   0  0  0  0  0
   13.1470    6.8470    9.2290 C   0  0  0  0  0
   12.3560    6.5460    7.9420 C   0  0  0  0  0
   11.1840    6.8780   10.6280 N   0  0  0  0  0
   11.0030    8.3190   10.9630 C   0  0  0  0  0
   10.8300    9.3240    9.8410 C   0  0  0  0  0
   11.1170   10.6690   10.5140 C   0  0  0  0  0
   12.0380   10.3940   11.7110 C   0  0  0  0  0
   12.1130    8.8760   11.8590 C   0  0  0  0  0
   10.0410    6.0850   10.3890 C   0  0  0  0  0
    8.7990    6.6240   10.4060 N   0  0  0  0  0
    7.7250    5.8570   10.1600 C   0  0  0  0  0
    7.8190    4.5420    9.8900 N   0  0  0  0  0
    9.0000    3.9100    9.8540 C   0  0  0  0  0
   11.0742    2.0162   10.5224 H   0  0  0  0  0
   11.2292    2.3861    8.7874 H   0  0  0  0  0
   12.6783    2.3430    9.8215 H   0  0  0  0  0
   13.0059    6.5270   11.4906 H   0  0  0  0  0
   14.1181    6.3651    9.1159 H   0  0  0  0  0
   13.1699    7.9319    9.3323 H   0  0  0  0  0
   12.2748    5.4670    7.8109 H   0  0  0  0  0
   11.3591    6.9799    8.0199 H   0  0  0  0  0
   12.8763    6.9789    7.0876 H   0  0  0  0  0
   10.0379    8.2402   11.4635 H   0  0  0  0  0
    9.8357    9.2846    9.3960 H   0  0  0  0  0
   11.4956    9.1284    9.0002 H   0  0  0  0  0
   10.1898   11.1373   10.8442 H   0  0  0  0  0
   11.5946   11.3535    9.8130 H   0  0  0  0  0
   11.6484   10.8562   12.6180 H   0  0  0  0  0
   13.0280   10.8201   11.5482 H   0  0  0  0  0
   13.0910    8.4950   11.5649 H   0  0  0  0  0
   11.9786    8.5699   12.8965 H   0  0  0  0  0
    6.7374    6.3178   10.1797 H   0  0  0  0  0
    9.0460    2.8411    9.6456 H   0  0  0  0  0
  1  2  2  0  0  0
  2  3  1  0  0  0
  2  6  1  0  0  0
  3  4  1  0  0  0
  3  5  1  0  0  0
  5 15  4  0  0  0
  5 19  4  0  0  0
  6  7  1  0  0  0
  6  9  1  0  0  0
  7  8  1  0  0  0
  9 10  1  0  0  0
  9 15  1  0  0  0
 10 11  1  0  0  0
 10 14  1  0  0  0
 11 12  1  0  0  0
 12 13  1  0  0  0
 13 14  1  0  0  0
 15 16  4  0  0  0
 16 17  4  0  0  0
 17 18  4  0  0  0
 18 19  4  0  0  0
  4 20  1  0  0  0
  4 21  1  0  0  0
  4 22  1  0  0  0
  6 23  1  0  0  0
  7 24  1  0  0  0
  7 25  1  0  0  0
  8 26  1  0  0  0
  8 27  1  0  0  0
  8 28  1  0  0  0
 10 29  1  0  0  0
 11 30  1  0  0  0
 11 31  1  0  0  0
 12 32  1  0  0  0
 12 33  1  0  0  0
 13 34  1  0  0  0
 13 35  1  0  0  0
 14 36  1  0  0  0
 14 37  1  0  0  0
 17 38  1  0  0  0
 19 39  1  0  0  0
M  END
$$$$
