### 
### Created by X-TOOL on Mon Aug  2 16:12:41 2021
### 

@<TRIPOS>MOLECULE
6bs3_ligand
   39    41     1     0     0
SMALL
GAST_HUCK


@<TRIPOS>ATOM
      1 PB         77.6640   42.7360   12.5850 P.3       1 ADP         0.2069
      2 O1B        78.2500   41.9050   11.4230 O.co2     1 ADP        -0.5891
      3 O2B        76.1840   42.3410   12.7990 O.co2     1 ADP        -0.5891
      4 O3B        78.4570   42.6560   13.8610 O.co2     1 ADP        -0.5891
      5 PA         77.5690   45.0250   10.6950 P.3       1 ADP         0.3276
      6 O1A        76.5330   44.3700    9.7650 O.co2     1 ADP        -0.5556
      7 O2A        78.9110   45.0770   10.0710 O.co2     1 ADP        -0.5556
      8 O3A        77.6130   44.2440   12.0820 O.3       1 ADP        -0.1548
      9 O5'        77.0560   46.4140   11.2640 O.3       1 ADP        -0.2436
     10 C5'        75.7570   46.6890   11.8370 C.3       1 ADP         0.1132
     11 C4'        75.2270   47.9510   11.1960 C.3       1 ADP         0.1189
     12 O4'        76.0620   49.0650   11.5740 O.3       1 ADP        -0.3364
     13 C3'        75.1800   47.9660    9.6660 C.3       1 ADP         0.1149
     14 O3'        74.0220   48.6610    9.2290 O.3       1 ADP        -0.3864
     15 C2'        76.4740   48.6990    9.2870 C.3       1 ADP         0.1385
     16 O2'        76.4380   49.3140    8.0030 O.3       1 ADP        -0.3836
     17 C1'        76.5840   49.7100   10.4260 C.3       1 ADP         0.2010
     18 N9         77.9410   50.1640   10.7300 N.pl3     1 ADP        -0.1919
     19 C8         79.0260   49.3890   11.0550 C.2       1 ADP         0.1123
     20 N7         80.1030   50.0750   11.3550 N.2       1 ADP        -0.2958
     21 C5         79.7020   51.3960   11.2120 C.ar      1 ADP         0.1045
     22 C6         80.3720   52.6240   11.4160 C.ar      1 ADP         0.1298
     23 N6         81.6530   52.7230   11.7760 N.pl3     1 ADP        -0.3152
     24 N1         79.6660   53.7650   11.2340 N.ar      1 ADP        -0.2698
     25 C2         78.3840   53.6790   10.8600 C.ar      1 ADP         0.0533
     26 N3         77.6560   52.5840   10.6170 N.ar      1 ADP        -0.2714
     27 C4         78.3730   51.4650   10.8250 C.ar      1 ADP         0.1613
     28 H1         75.8500   46.8319   12.9237 H         1 ADP         0.0648
     29 H2         75.0737   45.8511   11.6345 H         1 ADP         0.0648
     30 H3         74.2058   48.1102   11.5726 H         1 ADP         0.0651
     31 H4         75.1735   46.9456    9.2552 H         1 ADP         0.0648
     32 H5         73.2472   48.2251    9.5639 H         1 ADP         0.2100
     33 H6         77.3255   48.0029    9.3063 H         1 ADP         0.0676
     34 H7         75.7360   49.9536    7.9790 H         1 ADP         0.2101
     35 H8         75.9738   50.5905   10.1762 H         1 ADP         0.0996
     36 H9         78.9955   48.3005   11.0631 H         1 ADP         0.1349
     37 H10        82.0806   53.6507   11.9081 H         1 ADP         0.1820
     38 H11        82.2143   51.8717   11.9218 H         1 ADP         0.1820
     39 H12        77.8664   54.6235   10.7376 H         1 ADP         0.0996
@<TRIPOS>BOND
     1    1    2 ar 
     2    1    3 ar 
     3    1    4 ar 
     4    8    1 1  
     5    5    6 ar 
     6    5    7 ar 
     7    5    8 1  
     8    5    9 1  
     9    9   10 1  
    10   10   11 1  
    11   11   12 1  
    12   11   13 1  
    13   12   17 1  
    14   13   14 1  
    15   13   15 1  
    16   15   16 1  
    17   15   17 1  
    18   17   18 1  
    19   18   19 1  
    20   18   27 1  
    21   19   20 2  
    22   20   21 1  
    23   21   22 ar 
    24   21   27 ar 
    25   22   23 1  
    26   22   24 ar 
    27   24   25 ar 
    28   25   26 ar 
    29   26   27 ar 
    30   10   28 1  
    31   10   29 1  
    32   11   30 1  
    33   13   31 1  
    34   14   32 1  
    35   15   33 1  
    36   16   34 1  
    37   17   35 1  
    38   19   36 1  
    39   23   37 1  
    40   23   38 1  
    41   25   39 1  
@<TRIPOS>SUBSTRUCTURE
     1 ADP         1

