6bs3_ligand
  -I-interpret- 

 42 44  0  0  0  0  0  0  0  0999 V2000
   77.6640   42.7360   12.5850 P   0  0  0  0  0
   78.2500   41.9050   11.4230 O   0  0  0  0  0
   76.1840   42.3410   12.7990 O   0  0  0  0  0
   78.4570   42.6560   13.8610 O   0  0  0  0  0
   77.5690   45.0250   10.6950 P   0  0  0  0  0
   76.5330   44.3700    9.7650 O   0  0  0  0  0
   78.9110   45.0770   10.0710 O   0  0  0  0  0
   77.6130   44.2440   12.0820 O   0  0  0  0  0
   77.0560   46.4140   11.2640 O   0  0  0  0  0
   75.7570   46.6890   11.8370 C   0  0  0  0  0
   75.2270   47.9510   11.1960 C   0  0  0  0  0
   76.0620   49.0650   11.5740 O   0  0  0  0  0
   75.1800   47.9660    9.6660 C   0  0  0  0  0
   74.0220   48.6610    9.2290 O   0  0  0  0  0
   76.4740   48.6990    9.2870 C   0  0  0  0  0
   76.4380   49.3140    8.0030 O   0  0  0  0  0
   76.5840   49.7100   10.4260 C   0  0  0  0  0
   77.9410   50.1640   10.7300 N   0  0  0  0  0
   79.0260   49.3890   11.0550 C   0  0  0  0  0
   80.1030   50.0750   11.3550 N   0  0  0  0  0
   79.7020   51.3960   11.2120 C   0  0  0  0  0
   80.3720   52.6240   11.4160 C   0  0  0  0  0
   81.6530   52.7230   11.7760 N   0  0  0  0  0
   79.6660   53.7650   11.2340 N   0  0  0  0  0
   78.3840   53.6790   10.8600 C   0  0  0  0  0
   77.6560   52.5840   10.6170 N   0  0  0  0  0
   78.3730   51.4650   10.8250 C   0  0  0  0  0
   77.6935   42.0050   10.6471 H   0  0  0  0  0
   75.7132   42.4046   11.9648 H   0  0  0  0  0
   75.6780   44.3538   10.2013 H   0  0  0  0  0
   75.8392   46.8185   12.9162 H   0  0  0  0  0
   75.0779   45.8567   11.6520 H   0  0  0  0  0
   74.1993   48.0115   11.5543 H   0  0  0  0  0
   75.1201   46.9789    9.2076 H   0  0  0  0  0
   73.9972   48.6676    8.2693 H   0  0  0  0  0
   77.3325   48.0346    9.1886 H   0  0  0  0  0
   77.2762   49.7508    7.8350 H   0  0  0  0  0
   76.0429   50.6066   10.1235 H   0  0  0  0  0
   78.9955   48.2995   11.0631 H   0  0  0  0  0
   82.2088   51.8800   11.9204 H   0  0  0  0  0
   82.0765   53.6417   11.9068 H   0  0  0  0  0
   77.8635   54.6288   10.7370 H   0  0  0  0  0
  1  2  1  0  0  0
  1  3  1  0  0  0
  1  4  2  0  0  0
  8  1  1  0  0  0
  5  6  1  0  0  0
  5  7  2  0  0  0
  5  8  1  0  0  0
  5  9  1  0  0  0
  9 10  1  0  0  0
 10 11  1  0  0  0
 11 12  1  0  0  0
 11 13  1  0  0  0
 12 17  1  0  0  0
 13 14  1  0  0  0
 13 15  1  0  0  0
 15 16  1  0  0  0
 15 17  1  0  0  0
 17 18  1  0  0  0
 18 19  4  0  0  0
 18 27  4  0  0  0
 19 20  4  0  0  0
 20 21  4  0  0  0
 21 22  4  0  0  0
 21 27  4  0  0  0
 22 23  1  0  0  0
 22 24  4  0  0  0
 24 25  4  0  0  0
 25 26  4  0  0  0
 26 27  4  0  0  0
  2 28  1  0  0  0
  3 29  1  0  0  0
  6 30  1  0  0  0
 10 31  1  0  0  0
 10 32  1  0  0  0
 11 33  1  0  0  0
 13 34  1  0  0  0
 14 35  1  0  0  0
 15 36  1  0  0  0
 16 37  1  0  0  0
 17 38  1  0  0  0
 19 39  1  0  0  0
 23 40  1  0  0  0
 23 41  1  0  0  0
 25 42  1  0  0  0
M  END
$$$$
