1ghv_ligand
  -I-interpret- 

 29 31  0  0  0  0  0  0  0  0999 V2000
   11.8160  -11.7880   22.9290 C   0  0  0  0  0
   12.3380  -10.5140   22.5970 C   0  0  0  0  0
   13.2450  -10.3690   21.5590 C   0  0  0  0  0
   13.5950  -11.5020   20.8900 C   0  0  0  0  0
   13.1270  -12.7400   21.1680 C   0  0  0  0  0
   12.2210  -12.9280   22.1960 C   0  0  0  0  0
   10.9220  -11.9140   23.9730 C   0  0  0  0  0
   10.2600  -13.0300   24.0920 N   0  0  0  0  0
   10.7710  -10.9130   24.8170 N   0  0  0  0  0
   14.3940  -11.6540   19.9230 N   0  0  0  0  0
   13.6190  -13.6650   20.3810 N   0  0  0  0  0
   14.4070  -12.9200   19.6150 C   0  0  0  0  0
   15.1520  -13.4170   18.5520 C   0  0  0  0  0
   14.9440  -14.7360   18.1510 C   0  0  0  0  0
   15.6750  -15.2340   17.0950 C   0  0  0  0  0
   16.5960  -14.4010   16.4620 C   0  0  0  0  0
   16.7800  -13.1550   16.8550 N   0  0  0  0  0
   16.1130  -12.6250   17.8570 C   0  0  0  0  0
   16.3280  -11.4690   18.1790 O   0  0  0  0  0
   12.0230   -9.6380   23.1640 H   0  0  0  0  0
   13.6576   -9.3962   21.2916 H   0  0  0  0  0
   11.8331  -13.9188   22.4328 H   0  0  0  0  0
    9.5979  -13.1510   24.8584 H   0  0  0  0  0
   10.1180  -10.9969   25.5961 H   0  0  0  0  0
   11.3072  -10.0545   24.6911 H   0  0  0  0  0
   14.2150  -15.3628   18.6646 H   0  0  0  0  0
   15.5356  -16.2619   16.7601 H   0  0  0  0  0
   17.1767  -14.7872   15.6243 H   0  0  0  0  0
   17.4652  -12.5813   16.3633 H   0  0  0  0  0
  1  7  1  0  0  0
  1  6  4  0  0  0
  1  2  4  0  0  0
  2  3  4  0  0  0
  3  4  4  0  0  0
  4 10  4  0  0  0
  4  5  4  0  0  0
  5 11  4  0  0  0
  5  6  4  0  0  0
 11 12  4  0  0  0
 12 13  1  0  0  0
 12 10  4  0  0  0
 13 18  1  0  0  0
 13 14  2  0  0  0
 14 15  1  0  0  0
 15 16  2  0  0  0
 16 17  1  0  0  0
 17 18  1  0  0  0
 18 19  2  0  0  0
  7  9  1  0  0  0
  7  8  2  0  0  0
  2 20  1  0  0  0
  3 21  1  0  0  0
  6 22  1  0  0  0
  8 23  1  0  0  0
  9 24  1  0  0  0
  9 25  1  0  0  0
 14 26  1  0  0  0
 15 27  1  0  0  0
 16 28  1  0  0  0
 17 29  1  0  0  0
M  END
$$$$
