6fhk_ligand
  -I-interpret- 

 42 44  0  0  0  0  0  0  0  0999 V2000
   20.5830   -8.5270   67.9800 P   0  0  0  0  0
   20.3680   -8.0970   66.5250 O   0  0  0  0  0
   21.9830   -8.8160   68.3570 O   0  0  0  0  0
   19.5490   -9.4590   68.5250 O   0  0  0  0  0
   20.9780   -5.8290   69.0890 P   0  0  0  0  0
   21.9160   -5.5290   67.9400 O   0  0  0  0  0
   19.9280   -4.8520   69.4830 O   0  0  0  0  0
   20.1940   -7.2180   68.8750 O   0  0  0  0  0
   21.9390   -6.1080   70.3250 O   0  0  0  0  0
   21.3060   -6.4140   71.5620 C   0  0  0  0  0
   22.3700   -6.3850   72.6190 C   0  0  0  0  0
   22.8360   -5.0300   72.6660 O   0  0  0  0  0
   21.7830   -6.7140   73.9750 C   0  0  0  0  0
   22.7070   -7.5990   74.6080 O   0  0  0  0  0
   21.8030   -5.3630   74.6550 C   0  0  0  0  0
   21.9380   -5.4360   76.0750 O   0  0  0  0  0
   23.0260   -4.7090   74.0350 C   0  0  0  0  0
   22.9640   -3.2450   74.1520 N   0  0  0  0  0
   21.9810   -2.4480   73.6890 C   0  0  0  0  0
   22.2720   -1.1680   73.9710 N   0  0  0  0  0
   23.4640   -1.1600   74.6170 C   0  0  0  0  0
   24.3360   -0.1340   75.2180 C   0  0  0  0  0
   24.0010    1.1780   75.1810 N   0  0  0  0  0
   25.4910   -0.5670   75.7650 N   0  0  0  0  0
   25.8440   -1.8680   75.8270 C   0  0  0  0  0
   25.0920   -2.8540   75.3130 N   0  0  0  0  0
   23.9190   -2.5260   74.7250 C   0  0  0  0  0
   19.4340   -7.9324   66.3758 H   0  0  0  0  0
   18.6805   -9.1839   68.2223 H   0  0  0  0  0
   22.5246   -6.2625   67.8253 H   0  0  0  0  0
   20.8313   -7.3943   71.5199 H   0  0  0  0  0
   20.5227   -5.6892   71.7837 H   0  0  0  0  0
   23.1554   -7.1057   72.3912 H   0  0  0  0  0
   20.7957   -7.1760   73.9776 H   0  0  0  0  0
   22.3760   -7.8374   75.4770 H   0  0  0  0  0
   20.8682   -4.8212   74.5110 H   0  0  0  0  0
   21.9436   -4.5485   76.4408 H   0  0  0  0  0
   23.9620   -5.0326   74.4902 H   0  0  0  0  0
   21.0876   -2.7897   73.1663 H   0  0  0  0  0
   23.1330    1.4703   74.7320 H   0  0  0  0  0
   24.6167    1.8737   75.6021 H   0  0  0  0  0
   26.7820   -2.1300   76.3165 H   0  0  0  0  0
  1  2  1  0  0  0
  1  3  2  0  0  0
  1  4  1  0  0  0
  8  1  1  0  0  0
  5  6  1  0  0  0
  5  7  2  0  0  0
  5  8  1  0  0  0
  5  9  1  0  0  0
  9 10  1  0  0  0
 10 11  1  0  0  0
 11 12  1  0  0  0
 11 13  1  0  0  0
 12 17  1  0  0  0
 13 14  1  0  0  0
 13 15  1  0  0  0
 15 16  1  0  0  0
 15 17  1  0  0  0
 17 18  1  0  0  0
 18 19  4  0  0  0
 18 27  4  0  0  0
 19 20  4  0  0  0
 20 21  4  0  0  0
 21 22  4  0  0  0
 21 27  4  0  0  0
 22 23  1  0  0  0
 22 24  4  0  0  0
 24 25  4  0  0  0
 25 26  4  0  0  0
 26 27  4  0  0  0
  2 28  1  0  0  0
  4 29  1  0  0  0
  6 30  1  0  0  0
 10 31  1  0  0  0
 10 32  1  0  0  0
 11 33  1  0  0  0
 13 34  1  0  0  0
 14 35  1  0  0  0
 15 36  1  0  0  0
 16 37  1  0  0  0
 17 38  1  0  0  0
 19 39  1  0  0  0
 23 40  1  0  0  0
 23 41  1  0  0  0
 25 42  1  0  0  0
M  END
$$$$
