### 
### Created by X-TOOL on Wed Jan  1 15:39:35 2020
### 

@<TRIPOS>MOLECULE
6fhk_ligand
   39    41     1     0     0
SMALL
GAST_HUCK


@<TRIPOS>ATOM
      1 PB         20.5830   -8.5270   67.9800 P.3       1 ADP         0.2069
      2 O1B        20.3680   -8.0970   66.5250 O.co2     1 ADP        -0.5891
      3 O2B        21.9830   -8.8160   68.3570 O.co2     1 ADP        -0.5891
      4 O3B        19.5490   -9.4590   68.5250 O.co2     1 ADP        -0.5891
      5 PA         20.9780   -5.8290   69.0890 P.3       1 ADP         0.3276
      6 O1A        21.9160   -5.5290   67.9400 O.co2     1 ADP        -0.5556
      7 O2A        19.9280   -4.8520   69.4830 O.co2     1 ADP        -0.5556
      8 O3A        20.1940   -7.2180   68.8750 O.3       1 ADP        -0.1548
      9 O5'        21.9390   -6.1080   70.3250 O.3       1 ADP        -0.2436
     10 C5'        21.3060   -6.4140   71.5620 C.3       1 ADP         0.1132
     11 C4'        22.3700   -6.3850   72.6190 C.3       1 ADP         0.1189
     12 O4'        22.8360   -5.0300   72.6660 O.3       1 ADP        -0.3364
     13 C3'        21.7830   -6.7140   73.9750 C.3       1 ADP         0.1149
     14 O3'        22.7070   -7.5990   74.6080 O.3       1 ADP        -0.3864
     15 C2'        21.8030   -5.3630   74.6550 C.3       1 ADP         0.1385
     16 O2'        21.9380   -5.4360   76.0750 O.3       1 ADP        -0.3836
     17 C1'        23.0260   -4.7090   74.0350 C.3       1 ADP         0.2010
     18 N9         22.9640   -3.2450   74.1520 N.pl3     1 ADP        -0.1919
     19 C8         21.9810   -2.4480   73.6890 C.2       1 ADP         0.1123
     20 N7         22.2720   -1.1680   73.9710 N.2       1 ADP        -0.2958
     21 C5         23.4640   -1.1600   74.6170 C.ar      1 ADP         0.1045
     22 C6         24.3360   -0.1340   75.2180 C.ar      1 ADP         0.1298
     23 N6         24.0010    1.1780   75.1810 N.pl3     1 ADP        -0.3152
     24 N1         25.4910   -0.5670   75.7650 N.ar      1 ADP        -0.2698
     25 C2         25.8440   -1.8680   75.8270 C.ar      1 ADP         0.0533
     26 N3         25.0920   -2.8540   75.3130 N.ar      1 ADP        -0.2714
     27 C4         23.9190   -2.5260   74.7250 C.ar      1 ADP         0.1613
     28 H1         20.8478   -7.4129   71.5148 H         1 ADP         0.0648
     29 H2         20.5315   -5.6655   71.7852 H         1 ADP         0.0648
     30 H3         23.1846   -7.0822   72.3732 H         1 ADP         0.0651
     31 H4         20.7734   -7.1475   73.9227 H         1 ADP         0.0648
     32 H5         22.3794   -7.8349   75.4679 H         1 ADP         0.2100
     33 H6         20.8893   -4.7996   74.4149 H         1 ADP         0.0676
     34 H7         21.2077   -5.9242   76.4367 H         1 ADP         0.2101
     35 H8         23.9671   -5.1015   74.4477 H         1 ADP         0.0996
     36 H9         21.0884   -2.7894   73.1668 H         1 ADP         0.1349
     37 H10        24.6228    1.8805   75.6062 H         1 ADP         0.1820
     38 H11        23.1245    1.4731   74.7276 H         1 ADP         0.1820
     39 H12        26.7768   -2.1286   76.3138 H         1 ADP         0.0996
@<TRIPOS>BOND
     1    1    2 ar 
     2    1    3 ar 
     3    1    4 ar 
     4    8    1 1  
     5    5    6 ar 
     6    5    7 ar 
     7    5    8 1  
     8    5    9 1  
     9    9   10 1  
    10   10   11 1  
    11   11   12 1  
    12   11   13 1  
    13   12   17 1  
    14   13   14 1  
    15   13   15 1  
    16   15   16 1  
    17   15   17 1  
    18   17   18 1  
    19   18   19 1  
    20   18   27 1  
    21   19   20 2  
    22   20   21 1  
    23   21   22 ar 
    24   21   27 ar 
    25   22   23 1  
    26   22   24 ar 
    27   24   25 ar 
    28   25   26 ar 
    29   26   27 ar 
    30   10   28 1  
    31   10   29 1  
    32   11   30 1  
    33   13   31 1  
    34   14   32 1  
    35   15   33 1  
    36   16   34 1  
    37   17   35 1  
    38   19   36 1  
    39   23   37 1  
    40   23   38 1  
    41   25   39 1  
@<TRIPOS>SUBSTRUCTURE
     1 ADP         1

