3ip6_ligand
  -I-interpret- 

 18 18  0  0  0  0  0  0  0  0999 V2000
   23.1980   18.7880   16.7770 N   0  3  0  0  0
   23.4530   18.5600   18.1990 C   0  0  0  0  0
   23.0210   17.1730   18.6780 C   0  0  0  0  0
   23.1290   16.8820   19.8780 O   0  0  0  0  0
   22.6240   19.6730   18.8500 C   0  0  0  0  0
   22.7480   20.8550   17.8270 C   0  0  0  0  0
   23.2200   20.2360   16.4920 C   0  0  0  0  0
   22.5730   16.3380   17.8710 O   0  0  0  0  0
   22.2826   18.4099   16.5333 H   0  0  0  0  0
   23.9204   18.3245   16.2259 H   0  0  0  0  0
   24.5138   18.5864   18.4483 H   0  0  0  0  0
   22.9822   19.9378   19.8448 H   0  0  0  0  0
   21.5901   19.3780   19.0292 H   0  0  0  0  0
   23.4568   21.6035   18.1811 H   0  0  0  0  0
   21.7925   21.3647   17.7034 H   0  0  0  0  0
   22.5866   20.5121   15.6490 H   0  0  0  0  0
   24.2025   20.5927   16.1829 H   0  0  0  0  0
   22.5560   16.7220   16.9913 H   0  0  0  0  0
  1  2  1  0  0  0
  1  7  1  0  0  0
  2  3  1  0  0  0
  2  5  1  0  0  0
  3  4  2  0  0  0
  3  8  1  0  0  0
  5  6  1  0  0  0
  6  7  1  0  0  0
  1  9  1  0  0  0
  1 10  1  0  0  0
  2 11  1  0  0  0
  5 12  1  0  0  0
  5 13  1  0  0  0
  6 14  1  0  0  0
  6 15  1  0  0  0
  7 16  1  0  0  0
  7 17  1  0  0  0
  8 18  1  0  0  0
M  END
$$$$
