1o36_ligand
  -I-interpret- 

 54 57  0  0  0  0  0  0  0  0999 V2000
   44.3040   -3.0640   26.2710 C   0  0  0  0  0
   44.6840   -1.6960   26.2610 C   0  0  0  0  0
   44.6520   -0.8960   27.4160 C   0  0  0  0  0
   44.2350   -1.5020   28.5660 C   0  0  0  0  0
   43.8740   -2.7760   28.6260 C   0  0  0  0  0
   43.8850   -3.6050   27.5140 C   0  0  0  0  0
   44.3500   -3.8360   25.0790 C   0  0  0  0  0
   44.1780   -5.1400   25.0960 N   0  0  0  0  0
   44.5680   -3.2230   23.9400 N   0  0  0  0  0
   44.1090   -1.0350   29.7590 N   0  0  0  0  0
   43.5120   -3.1480   29.8460 N   0  0  0  0  0
   43.6840   -2.0190   30.4880 C   0  0  0  0  0
   43.4220   -1.9020   31.8690 C   0  0  0  0  0
   43.1040   -3.0060   32.6710 C   0  0  0  0  0
   42.8430   -2.8800   34.0280 C   0  0  0  0  0
   42.4670   -4.1250   34.8700 C   0  0  0  0  0
   40.9580   -4.2980   34.6420 C   0  0  0  0  0
   40.5990   -5.1040   33.8060 O   0  0  0  0  0
   40.2030   -3.6120   35.3000 O   0  0  0  0  0
   42.7830   -3.9810   36.4330 C   0  0  0  0  0
   43.4210   -5.2510   37.1090 C   0  0  0  0  0
   43.2000   -6.3530   36.6280 O   0  0  0  0  0
   44.1200   -5.0800   38.1090 O   0  0  0  0  0
   42.9110   -1.6360   34.5890 C   0  0  0  0  0
   43.2220   -0.4960   33.8670 C   0  0  0  0  0
   43.4750   -0.6550   32.5080 C   0  0  0  0  0
   43.7800    0.4470   31.7460 O   0  0  0  0  0
   43.2790    0.7330   34.5440 C   0  0  0  0  0
   44.4740    1.4400   34.7030 C   0  0  0  0  0
   44.5570    2.6350   35.4040 C   0  0  0  0  0
   43.4290    3.1780   35.9740 C   0  0  0  0  0
   42.2160    2.5230   35.8410 C   0  0  0  0  0
   42.1430    1.3170   35.1350 C   0  0  0  0  0
   45.6280    1.0830   34.2030 N   0  0  0  0  0
   46.3250    1.7830   34.2150 O   0  0  0  0  0
   45.5620    0.5610   33.3770 O   0  0  0  0  0
   45.0128   -1.2496   25.3225 H   0  0  0  0  0
   44.9449    0.1537   27.3947 H   0  0  0  0  0
   43.5788   -4.6481   27.5932 H   0  0  0  0  0
   44.2144   -5.6706   24.2256 H   0  0  0  0  0
   44.0082   -5.6205   25.9795 H   0  0  0  0  0
   44.6036   -3.7574   23.0719 H   0  0  0  0  0
   43.0603   -3.9949   32.2146 H   0  0  0  0  0
   43.0628   -4.9827   34.5578 H   0  0  0  0  0
   41.3693   -5.5251   33.4176 H   0  0  0  0  0
   41.8284   -3.8087   36.9302 H   0  0  0  0  0
   43.5109   -3.1756   36.5317 H   0  0  0  0  0
   44.1607   -4.1428   38.3131 H   0  0  0  0  0
   42.7109   -1.5362   35.6558 H   0  0  0  0  0
   43.7828    1.2289   32.3029 H   0  0  0  0  0
   45.5162    3.1433   35.5029 H   0  0  0  0  0
   43.4893    4.1161   36.5258 H   0  0  0  0  0
   41.3166    2.9476   36.2870 H   0  0  0  0  0
   41.1796    0.8160   35.0402 H   0  0  0  0  0
  1  2  4  0  0  0
  1  6  4  0  0  0
  1  7  1  0  0  0
  2  3  4  0  0  0
  3  4  4  0  0  0
  4  5  4  0  0  0
  4 10  4  0  0  0
  5  6  4  0  0  0
  5 11  4  0  0  0
  7  8  1  0  0  0
  7  9  2  0  0  0
 10 12  4  0  0  0
 11 12  4  0  0  0
 12 13  1  0  0  0
 13 14  4  0  0  0
 13 26  4  0  0  0
 14 15  4  0  0  0
 15 16  1  0  0  0
 15 24  4  0  0  0
 16 17  1  0  0  0
 16 20  1  0  0  0
 17 18  1  0  0  0
 17 19  2  0  0  0
 20 21  1  0  0  0
 21 22  2  0  0  0
 21 23  1  0  0  0
 24 25  4  0  0  0
 25 26  4  0  0  0
 25 28  1  0  0  0
 26 27  1  0  0  0
 28 29  4  0  0  0
 28 33  4  0  0  0
 29 30  4  0  0  0
 29 34  1  0  0  0
 30 31  4  0  0  0
 31 32  4  0  0  0
 32 33  4  0  0  0
 34 35  2  0  0  0
 34 36  2  0  0  0
  2 37  1  0  0  0
  3 38  1  0  0  0
  6 39  1  0  0  0
  8 40  1  0  0  0
  8 41  1  0  0  0
  9 42  1  0  0  0
 14 43  1  0  0  0
 16 44  1  0  0  0
 18 45  1  0  0  0
 20 46  1  0  0  0
 20 47  1  0  0  0
 23 48  1  0  0  0
 24 49  1  0  0  0
 27 50  1  0  0  0
 30 51  1  0  0  0
 31 52  1  0  0  0
 32 53  1  0  0  0
 33 54  1  0  0  0
M  END
$$$$
