4osf_ligand
  -I-interpret- 

 23 23  0  0  0  0  0  0  0  0999 V2000
   52.1800  -14.1370   -2.1680 O   0  0  0  0  0
   52.7870  -14.2640   -3.4140 C   0  0  0  0  0
   52.0640  -14.7780   -4.5130 C   0  0  0  0  0
   52.6850  -14.9200   -5.7500 C   0  0  0  0  0
   54.0120  -14.5580   -5.8920 C   0  0  0  0  0
   54.7110  -14.7210   -7.2210 C   0  0  0  0  0
   54.2360  -13.6870   -8.2440 C   0  0  0  0  0
   54.3620  -12.4070   -7.6200 N   0  0  0  0  0
   55.3160  -11.4770   -8.0970 C   0  0  0  0  0
   56.4590  -11.9150   -9.2440 S   0  0  0  0  0
   54.7320  -14.0490   -4.7900 C   0  0  0  0  0
   54.1160  -13.9040   -3.5610 C   0  0  0  0  0
   52.8106  -13.7742   -1.5416 H   0  0  0  0  0
   51.0191  -15.0636   -4.3921 H   0  0  0  0  0
   52.1294  -15.3138   -6.6011 H   0  0  0  0  0
   54.4841  -15.7145   -7.6077 H   0  0  0  0  0
   55.7807  -14.5817   -7.0647 H   0  0  0  0  0
   53.2038  -13.8765   -8.5384 H   0  0  0  0  0
   54.8338  -13.7369   -9.1541 H   0  0  0  0  0
   53.7638  -12.1639   -6.8304 H   0  0  0  0  0
   55.3080  -10.4573   -7.7120 H   0  0  0  0  0
   55.7787  -13.7689   -4.9085 H   0  0  0  0  0
   54.6735  -13.5083   -2.7120 H   0  0  0  0  0
  1  2  1  0  0  0
  2  3  4  0  0  0
  2 12  4  0  0  0
  3  4  4  0  0  0
  4  5  4  0  0  0
  5  6  1  0  0  0
  5 11  4  0  0  0
  6  7  1  0  0  0
  7  8  1  0  0  0
  8  9  1  0  0  0
  9 10  2  0  0  0
 11 12  4  0  0  0
  1 13  1  0  0  0
  3 14  1  0  0  0
  4 15  1  0  0  0
  6 16  1  0  0  0
  6 17  1  0  0  0
  7 18  1  0  0  0
  7 19  1  0  0  0
  8 20  1  0  0  0
  9 21  1  0  0  0
 11 22  1  0  0  0
 12 23  1  0  0  0
M  END
$$$$
