2lbv_ligand
  -I-interpret- 

 62 61  0  0  0  0  0  0  0  0999 V2000
    0.5020   11.5810  -11.4880 C   0  0  0  0  0
    0.7410   10.8170  -10.1840 C   0  0  0  0  0
   -0.6140   10.5120   -9.5430 C   0  0  0  0  0
   -0.4290    9.8300   -8.1850 C   0  0  0  0  0
   -1.8050    9.6410   -7.5420 C   0  0  0  0  0
   -1.9320    9.3900   -6.0380 C   0  0  0  0  0
   -0.6800    9.3270   -5.1610 C   0  0  0  0  0
   -0.0530    7.9360   -5.2780 C   0  0  0  0  0
    0.1710    7.0640   -4.0400 C   0  0  0  0  0
   -0.2240    7.5580   -2.6470 C   0  0  0  0  0
   -1.0690    6.4970   -1.9370 C   0  0  0  0  0
   -0.5740    5.8410   -0.6450 C   0  0  0  0  0
    0.7750    6.2300   -0.0360 C   0  0  0  0  0
    0.6250    7.6550    0.5020 C   0  0  0  0  0
    1.8200    8.6110    0.5030 C   0  0  0  0  0
    3.1780    8.1510   -0.0320 C   0  0  0  0  0
    3.0830    7.9070   -1.5390 C   0  0  0  0  0
    2.6300    9.1830   -2.2530 C   0  0  0  0  0
    2.4460    8.8700   -3.7390 C   0  0  0  0  0
    2.0630   10.1300   -4.5170 C   0  0  0  0  0
   -0.5740   12.2120  -11.5850 O   0  0  0  0  0
    1.3970   11.5170  -12.3580 O   0  0  0  0  0
    1.3456   11.4194   -9.5060 H   0  0  0  0  0
    1.2722    9.8877  -10.3899 H   0  0  0  0  0
   -1.1720    9.8444  -10.1995 H   0  0  0  0  0
   -1.1532   11.4479   -9.3967 H   0  0  0  0  0
    0.1993   10.4468   -7.5425 H   0  0  0  0  0
    0.0543    8.8622   -8.3185 H   0  0  0  0  0
   -2.1921    8.7305   -7.9995 H   0  0  0  0  0
   -2.3074   10.5957   -7.6980 H   0  0  0  0  0
   -2.3647    8.3922   -5.9651 H   0  0  0  0  0
   -2.4818   10.2538   -5.6643 H   0  0  0  0  0
   -0.9505    9.5201   -4.1229 H   0  0  0  0  0
    0.0359   10.0798   -5.4909 H   0  0  0  0  0
    0.9532    8.1305   -5.6492 H   0  0  0  0  0
   -0.7721    7.3716   -5.8717 H   0  0  0  0  0
    1.2542    6.9560   -3.9850 H   0  0  0  0  0
   -0.4713    6.1991   -4.2059 H   0  0  0  0  0
   -0.8052    8.4751   -2.7426 H   0  0  0  0  0
    0.6774    7.7482   -2.0644 H   0  0  0  0  0
   -1.1210    5.6751   -2.6510 H   0  0  0  0  0
   -1.9710    7.0305   -1.6372 H   0  0  0  0  0
   -0.4536    4.7904   -0.9093 H   0  0  0  0  0
   -1.3029    6.1476    0.1052 H   0  0  0  0  0
    1.5660    6.1802   -0.7843 H   0  0  0  0  0
    1.0516    5.5420    0.7629 H   0  0  0  0  0
    0.3860    7.5211    1.5570 H   0  0  0  0  0
   -0.0940    8.1228   -0.1706 H   0  0  0  0  0
    2.0010    8.8156    1.5582 H   0  0  0  0  0
    1.5229    9.4149   -0.1705 H   0  0  0  0  0
    3.4679    7.2258    0.4661 H   0  0  0  0  0
    3.9231    8.9224    0.1627 H   0  0  0  0  0
    2.3575    7.1157   -1.7275 H   0  0  0  0  0
    4.0634    7.6158   -1.9160 H   0  0  0  0  0
    3.3792    9.9648   -2.1279 H   0  0  0  0  0
    1.6894    9.5329   -1.8277 H   0  0  0  0  0
    1.6486    8.1347   -3.8469 H   0  0  0  0  0
    3.3852    8.4843   -4.1356 H   0  0  0  0  0
    1.1280   10.5285   -4.1232 H   0  0  0  0  0
    2.8510   10.8754   -4.4096 H   0  0  0  0  0
    1.9380    9.8809   -5.5708 H   0  0  0  0  0
   -1.0840   12.0984  -10.7796 H   0  0  0  0  0
  1  2  1  0  0  0
  1 21  1  0  0  0
  1 22  2  0  0  0
  2  3  1  0  0  0
  3  4  1  0  0  0
  4  5  1  0  0  0
  5  6  1  0  0  0
  6  7  1  0  0  0
  7  8  1  0  0  0
  8  9  1  0  0  0
  9 10  1  0  0  0
 10 11  1  0  0  0
 11 12  1  0  0  0
 12 13  1  0  0  0
 13 14  1  0  0  0
 14 15  1  0  0  0
 15 16  1  0  0  0
 16 17  1  0  0  0
 17 18  1  0  0  0
 18 19  1  0  0  0
 19 20  1  0  0  0
  2 23  1  0  0  0
  2 24  1  0  0  0
  3 25  1  0  0  0
  3 26  1  0  0  0
  4 27  1  0  0  0
  4 28  1  0  0  0
  5 29  1  0  0  0
  5 30  1  0  0  0
  6 31  1  0  0  0
  6 32  1  0  0  0
  7 33  1  0  0  0
  7 34  1  0  0  0
  8 35  1  0  0  0
  8 36  1  0  0  0
  9 37  1  0  0  0
  9 38  1  0  0  0
 10 39  1  0  0  0
 10 40  1  0  0  0
 11 41  1  0  0  0
 11 42  1  0  0  0
 12 43  1  0  0  0
 12 44  1  0  0  0
 13 45  1  0  0  0
 13 46  1  0  0  0
 14 47  1  0  0  0
 14 48  1  0  0  0
 15 49  1  0  0  0
 15 50  1  0  0  0
 16 51  1  0  0  0
 16 52  1  0  0  0
 17 53  1  0  0  0
 17 54  1  0  0  0
 18 55  1  0  0  0
 18 56  1  0  0  0
 19 57  1  0  0  0
 19 58  1  0  0  0
 20 59  1  0  0  0
 20 60  1  0  0  0
 20 61  1  0  0  0
 21 62  1  0  0  0
M  END
$$$$
