5fa7_ligand
  -I-interpret- 

 41 41  0  0  0  0  0  0  0  0999 V2000
   26.0250   -1.2270   20.3510 O   0  0  0  0  0
   25.4520   -1.1480   21.5160 S   0  0  0  0  0
   24.1130   -1.5560   21.5210 O   0  0  0  0  0
   25.7040    0.0450   22.1630 O   0  0  0  0  0
   26.1690   -2.3580   22.5230 O   0  0  0  0  0
   26.0380   -3.5240   22.2520 N   0  3  0  0  0
   27.0660   -4.4510   22.6510 C   0  0  0  0  0
   28.3740   -4.1720   21.9450 C   0  0  0  0  0
   28.2330   -4.2840   20.4480 C   0  0  0  0  0
   26.7000   -5.8760   22.2820 C   0  0  0  0  0
   26.5180   -5.8590   20.8410 N   0  3  0  0  0
   25.2110   -5.7900   20.1780 C   0  0  0  0  0
   25.2380   -5.3100   19.1080 O   0  0  0  0  0
   27.7280   -5.6050   20.0740 C   0  0  0  0  0
   28.8520   -6.6260   20.2250 C   0  0  0  0  0
   28.8090   -7.5480   20.9920 O   0  0  0  0  0
   29.8740   -6.3870   19.4130 N   0  0  0  0  0
   31.0370   -7.1330   19.3950 N   0  0  0  0  0
   31.1070   -8.3350   18.8300 C   0  0  0  0  0
   30.1700   -8.8560   18.3130 O   0  0  0  0  0
   32.4480   -9.0060   18.9030 C   0  0  0  0  0
   23.7571   -1.4712   22.4086 H   0  0  0  0  0
   26.0329   -3.5588   21.2326 H   0  0  0  0  0
   25.2043   -3.8205   22.7593 H   0  0  0  0  0
   27.1644   -4.3292   23.7297 H   0  0  0  0  0
   29.1077   -4.9064   22.2773 H   0  0  0  0  0
   28.6850   -3.1555   22.1861 H   0  0  0  0  0
   29.2112   -4.1379   19.9899 H   0  0  0  0  0
   27.5292   -3.5268   20.1026 H   0  0  0  0  0
   25.7989   -6.2071   22.7981 H   0  0  0  0  0
   27.4747   -6.5816   22.5820 H   0  0  0  0  0
   26.2121   -6.8302   20.7809 H   0  0  0  0  0
   24.5703   -5.1609   20.7960 H   0  0  0  0  0
   24.8556   -6.8138   20.0617 H   0  0  0  0  0
   24.3511   -5.2998   18.7406 H   0  0  0  0  0
   27.4311   -5.6755   19.0276 H   0  0  0  0  0
   29.7964   -5.6051   18.7626 H   0  0  0  0  0
   31.8740   -6.7470   19.8318 H   0  0  0  0  0
   32.3547   -9.9428   19.4523 H   0  0  0  0  0
   32.8066   -9.2092   17.8939 H   0  0  0  0  0
   33.1529   -8.3515   19.4156 H   0  0  0  0  0
  1  2  2  0  0  0
  2  3  1  0  0  0
  2  4  2  0  0  0
  2  5  1  0  0  0
  5  6  1  0  0  0
  6  7  1  0  0  0
  7  8  1  0  0  0
  7 10  1  0  0  0
  8  9  1  0  0  0
  9 14  1  0  0  0
 10 11  1  0  0  0
 11 12  1  0  0  0
 11 14  1  0  0  0
 12 13  1  0  0  0
 14 15  1  0  0  0
 15 16  2  0  0  0
 15 17  1  0  0  0
 17 18  1  0  0  0
 18 19  1  0  0  0
 19 20  2  0  0  0
 19 21  1  0  0  0
  3 22  1  0  0  0
  6 23  1  0  0  0
  6 24  1  0  0  0
  7 25  1  0  0  0
  8 26  1  0  0  0
  8 27  1  0  0  0
  9 28  1  0  0  0
  9 29  1  0  0  0
 10 30  1  0  0  0
 10 31  1  0  0  0
 11 32  1  0  0  0
 12 33  1  0  0  0
 12 34  1  0  0  0
 13 35  1  0  0  0
 14 36  1  0  0  0
 17 37  1  0  0  0
 18 38  1  0  0  0
 21 39  1  0  0  0
 21 40  1  0  0  0
 21 41  1  0  0  0
M  END
$$$$
