### 
### Created by X-TOOL on Mon Sep 10 21:13:19 2018
### 

@<TRIPOS>MOLECULE
4utr_ligand
  137   138     1     0     0
SMALL
GAST_HUCK


@<TRIPOS>ATOM
      1 C          32.9800   25.9770   12.7470 C.2       1 BEZ         0.2070
      2 O1         32.3870   27.0540   12.7670 O.2       1 BEZ        -0.3845
      3 C1         33.8940   25.6840   13.7690 C.ar      1 BEZ         0.0500
      4 C2         34.9480   24.7720   13.5920 C.ar      1 BEZ        -0.0419
      5 C3         35.8210   24.5180   14.6440 C.ar      1 BEZ        -0.0562
      6 C4         35.6240   25.1790   15.8640 C.ar      1 BEZ        -0.0575
      7 C5         34.5730   26.0820   16.0490 C.ar      1 BEZ        -0.0562
      8 C6         33.7070   26.3270   14.9970 C.ar      1 BEZ        -0.0419
      9 N          32.7570   25.0430   11.7880 N.am      1 GLY        -0.2676
     10 CA         31.7390   25.2750   10.7210 C.3       1 GLY         0.1197
     11 C          31.9770   24.1950    9.7050 C.2       1 GLY         0.2007
     12 O          33.0910   23.6550    9.5690 O.2       1 GLY        -0.3947
     13 N          30.9090   23.8620    8.9910 N.am      1 VAL        -0.2637
     14 CA         30.9710   22.7500    8.0620 C.3       1 VAL         0.1332
     15 C          31.8180   23.1220    6.8440 C.2       1 VAL         0.2041
     16 O          31.4890   24.0280    6.1110 O.2       1 VAL        -0.3944
     17 CB         29.5760   22.2830    7.5910 C.3       1 VAL        -0.0063
     18 CG1        29.7270   21.0130    6.7520 C.3       1 VAL        -0.0584
     19 CG2        28.6340   22.0580    8.7720 C.3       1 VAL        -0.0584
     20 N          32.9270   22.4280    6.6570 N.am      1 LEU        -0.2637
     21 CA         33.7130   22.5660    5.4500 C.3       1 LEU         0.1312
     22 C          32.9120   22.1130    4.2540 C.2       1 LEU         0.2039
     23 O          32.3640   21.0170    4.2270 O.2       1 LEU        -0.3944
     24 CB         34.9890   21.7440    5.5270 C.3       1 LEU        -0.0101
     25 CG         36.3030   22.5020    5.7130 C.3       1 LEU        -0.0425
     26 CD1        36.2030   23.7000    6.6470 C.3       1 LEU        -0.0625
     27 CD2        37.3540   21.5190    6.2100 C.3       1 LEU        -0.0625
     28 N          32.8420   22.9880    3.2680 N.am      1 LYS        -0.2637
     29 CA         32.2660   22.6690    1.9690 C.3       1 LYS         0.1310
     30 C          32.7270   21.2710    1.5380 C.2       1 LYS         0.2039
     31 O          33.9130   21.0230    1.3600 O.2       1 LYS        -0.3944
     32 CB         32.7890   23.7490    0.9890 C.3       1 LYS        -0.0122
     33 CG         32.5930   23.3370   -0.4430 C.3       1 LYS        -0.0440
     34 CD         31.2340   23.7880   -0.9620 C.3       1 LYS        -0.0124
     35 CE         31.7920   24.6880   -2.0300 C.3       1 LYS        -0.0354
     36 NZ         30.8230   24.9690   -3.0270 N.4       1 LYS         0.2185
     37 N          31.7810   20.3690    1.3610 N.am      1 GLU        -0.2636
     38 CA         32.0830   19.0180    0.8750 C.3       1 GLU         0.1325
     39 C          32.9960   18.2400    1.8220 C.2       1 GLU         0.2041
     40 O          33.8140   17.4120    1.3970 O.2       1 GLU        -0.3944
     41 CB         32.6850   19.0770   -0.5200 C.3       1 GLU        -0.0008
     42 CG         31.6730   18.7770   -1.5850 C.3       1 GLU         0.0044
     43 CD         32.3480   18.5640   -2.9030 C.2       1 GLU         0.0350
     44 OE1        33.1630   17.6090   -3.0240 O.co2     1 GLU        -0.5690
     45 OE2        32.0690   19.3710   -3.8060 O.co2     1 GLU        -0.5690
     46 N          32.8350   18.5320    3.1120 N.am      1 TYR        -0.2621
     47 CA         33.6270   17.9350    4.1670 C.3       1 TYR         0.1390
     48 C          35.1600   18.1490    4.0110 C.2       1 TYR         0.2055
     49 O          35.9460   17.4510    4.6560 O.2       1 TYR        -0.3942
     50 CB         33.2720   16.4530    4.2610 C.3       1 TYR         0.0163
     51 CG         31.7800   16.1640    4.4090 C.ar      1 TYR        -0.0493
     52 CD1        31.0120   16.7910    5.3820 C.ar      1 TYR        -0.0685
     53 CD2        31.1540   15.2180    3.6160 C.ar      1 TYR        -0.0685
     54 CE1        29.6650   16.5030    5.5350 C.ar      1 TYR        -0.0398
     55 CE2        29.8040   14.9130    3.7670 C.ar      1 TYR        -0.0398
     56 CZ         29.0550   15.5650    4.7170 C.ar      1 TYR         0.0805
     57 OH         27.7040   15.2480    4.8610 O.3       1 TYR        -0.3376
     58 N          35.5680   19.1380    3.2100 N.am      1 GLY        -0.2663
     59 CA         36.9600   19.3210    2.8460 C.3       1 GLY         0.1201
     60 C          37.5820   18.2600    1.9280 C.2       1 GLY         0.2003
     61 O          38.7810   18.2980    1.6990 O.2       1 GLY        -0.3947
     62 N          36.7900   17.3260    1.3890 N.am      1 VAL        -0.2670
     63 CA         37.3290   16.1530    0.6300 C.3       1 VAL         0.1248
     64 C          38.2520   16.5530   -0.5240 C.2       1 VAL         0.2152
     65 O          38.1360   17.6570   -1.0580 O.co2     1 VAL        -0.4120
     66 CB         36.1870   15.1860    0.1350 C.3       1 VAL        -0.0094
     67 CG1        36.0290   15.1560   -1.3940 C.3       1 VAL        -0.0589
     68 CG2        36.3910   13.7800    0.7060 C.3       1 VAL        -0.0589
     69 H          35.0799   24.2692   12.6407 H         1 BEZ         0.0669
     70 H          36.6411   23.8197   14.5224 H         1 BEZ         0.0629
     71 H          36.3042   24.9850   16.6854 H         1 BEZ         0.0653
     72 H          34.4382   26.5825   17.0011 H         1 BEZ         0.0629
     73 H          32.8822   27.0186   15.1253 H         1 BEZ         0.0669
     74 H          33.2799   24.1907   11.7962 H         1 GLY         0.1874
     75 H          31.8757   26.2677   10.2673 H         1 GLY         0.0763
     76 H          30.7227   25.1976   11.1347 H         1 GLY         0.0763
     77 H          30.0593   24.3792    9.0938 H         1 VAL         0.1883
     78 H          31.4543   21.9076    8.5785 H         1 VAL         0.0802
     79 H          29.1427   23.0698    6.9560 H         1 VAL         0.0343
     80 H          28.7356   20.6767    6.4143 H         1 VAL         0.0234
     81 H          30.1939   20.2247    7.3608 H         1 VAL         0.0234
     82 H          30.3600   21.2243    5.8776 H         1 VAL         0.0234
     83 H          28.5470   22.9875    9.3538 H         1 VAL         0.0234
     84 H          29.0349   21.2598    9.4140 H         1 VAL         0.0234
     85 H          27.6417   21.7648    8.3988 H         1 VAL         0.0234
     86 H          33.2303   21.7922    7.3668 H         1 LEU         0.1883
     87 H          33.9797   23.6257    5.3239 H         1 LEU         0.0800
     88 H          35.0687   21.1698    4.5921 H         1 LEU         0.0315
     89 H          34.8847   21.0513    6.3751 H         1 LEU         0.0315
     90 H          36.6160   22.8793    4.7283 H         1 LEU         0.0298
     91 H          37.1863   24.1868    6.7255 H         1 LEU         0.0232
     92 H          35.8805   23.3625    7.6430 H         1 LEU         0.0232
     93 H          35.4701   24.4163    6.2474 H         1 LEU         0.0232
     94 H          37.4097   20.6627    5.5218 H         1 LEU         0.0232
     95 H          37.0789   21.1648    7.2144 H         1 LEU         0.0232
     96 H          38.3328   22.0192    6.2528 H         1 LEU         0.0232
     97 H          33.1998   23.9094    3.4196 H         1 LYS         0.1883
     98 H          31.1674   22.6975    2.0160 H         1 LYS         0.0800
     99 H          33.8622   23.9071    1.1714 H         1 LYS         0.0312
    100 H          32.2443   24.6877    1.1682 H         1 LYS         0.0312
    101 H          32.6591   22.2413   -0.5139 H         1 LYS         0.0269
    102 H          33.3821   23.7926   -1.0592 H         1 LYS         0.0269
    103 H          30.6456   24.3312   -0.2078 H         1 LYS         0.0317
    104 H          30.6342   22.9606   -1.3689 H         1 LYS         0.0317
    105 H          32.6556   24.1941   -2.4992 H         1 LYS         0.0813
    106 H          32.1157   25.6328   -1.5690 H         1 LYS         0.0813
    107 H          31.2260   25.5726   -3.7265 H         1 LYS         0.1994
    108 H          30.0298   25.4263   -2.6053 H         1 LYS         0.1994
    109 H          30.5246   24.1079   -3.4577 H         1 LYS         0.1994
    110 H          30.8325   20.6125    1.5635 H         1 GLU         0.1883
    111 H          31.1315   18.4700    0.8097 H         1 GLU         0.0801
    112 H          33.4987   18.3399   -0.5865 H         1 GLU         0.0330
    113 H          33.0894   20.0859   -0.6893 H         1 GLU         0.0330
    114 H          30.9739   19.6221   -1.6686 H         1 GLU         0.0433
    115 H          31.1179   17.8676   -1.3113 H         1 GLU         0.0433
    116 H          32.1319   19.1968    3.3643 H         1 TYR         0.1885
    117 H          33.3327   18.4147    5.1121 H         1 TYR         0.0821
    118 H          33.7913   16.0307    5.1339 H         1 TYR         0.0453
    119 H          33.6284   15.9563    3.3465 H         1 TYR         0.0453
    120 H          31.4760   17.5209    6.0354 H         1 TYR         0.0530
    121 H          31.7301   14.7009    2.8572 H         1 TYR         0.0530
    122 H          29.0866   17.0130    6.2969 H         1 TYR         0.0525
    123 H          29.3439   14.1616    3.1355 H         1 TYR         0.0525
    124 H          27.3272   15.7792    5.5525 H         1 TYR         0.2458
    125 H          34.8881   19.7757    2.8481 H         1 GLY         0.1881
    126 H          37.5470   19.3413    3.7761 H         1 GLY         0.0763
    127 H          37.0457   20.2924    2.3371 H         1 GLY         0.0763
    128 H          35.7998   17.4147    1.4972 H         1 VAL         0.1876
    129 H          37.9440   15.5806    1.3400 H         1 VAL         0.0754
    130 O2         39.1340   15.7496   -0.9293 O.co2     1 VAL        -0.4120
    131 H          35.2413   15.5715    0.5436 H         1 VAL         0.0336
    132 H          35.2183   14.4638   -1.6653 H         1 VAL         0.0234
    133 H          36.9694   14.8172   -1.8532 H         1 VAL         0.0234
    134 H          35.7862   16.1654   -1.7574 H         1 VAL         0.0234
    135 H          36.5000   13.8404    1.7989 H         1 VAL         0.0234
    136 H          37.2984   13.3357    0.2711 H         1 VAL         0.0234
    137 H          35.5212   13.1539    0.4583 H         1 VAL         0.0234
@<TRIPOS>BOND
     1    1    2 2  
     2    1    3 1  
     3    1    9 am 
     4    3    4 ar 
     5    3    8 ar 
     6    4    5 ar 
     7    5    6 ar 
     8    6    7 ar 
     9    7    8 ar 
    10    9   10 1  
    11   10   11 1  
    12   11   12 2  
    13   11   13 am 
    14   13   14 1  
    15   14   15 1  
    16   14   17 1  
    17   15   16 2  
    18   15   20 am 
    19   17   18 1  
    20   17   19 1  
    21   20   21 1  
    22   21   22 1  
    23   21   24 1  
    24   22   23 2  
    25   22   28 am 
    26   24   25 1  
    27   25   26 1  
    28   25   27 1  
    29   28   29 1  
    30   29   30 1  
    31   29   32 1  
    32   30   31 2  
    33   30   37 am 
    34   32   33 1  
    35   33   34 1  
    36   34   35 1  
    37   35   36 1  
    38   37   38 1  
    39   38   39 1  
    40   38   41 1  
    41   39   40 2  
    42   39   46 am 
    43   41   42 1  
    44   42   43 1  
    45   43   44 ar 
    46   43   45 ar 
    47   46   47 1  
    48   47   48 1  
    49   47   50 1  
    50   48   49 2  
    51   48   58 am 
    52   50   51 1  
    53   51   52 ar 
    54   51   53 ar 
    55   52   54 ar 
    56   53   55 ar 
    57   54   56 ar 
    58   55   56 ar 
    59   56   57 1  
    60   58   59 1  
    61   59   60 1  
    62   60   61 2  
    63   60   62 am 
    64   62   63 1  
    65   63   64 1  
    66   63   66 1  
    67   64   65 ar 
    68   66   67 1  
    69   66   68 1  
    70    4   69 1  
    71    5   70 1  
    72    6   71 1  
    73    7   72 1  
    74    8   73 1  
    75    9   74 1  
    76   10   75 1  
    77   10   76 1  
    78   13   77 1  
    79   14   78 1  
    80   17   79 1  
    81   18   80 1  
    82   18   81 1  
    83   18   82 1  
    84   19   83 1  
    85   19   84 1  
    86   19   85 1  
    87   20   86 1  
    88   21   87 1  
    89   24   88 1  
    90   24   89 1  
    91   25   90 1  
    92   26   91 1  
    93   26   92 1  
    94   26   93 1  
    95   27   94 1  
    96   27   95 1  
    97   27   96 1  
    98   28   97 1  
    99   29   98 1  
   100   32   99 1  
   101   32  100 1  
   102   33  101 1  
   103   33  102 1  
   104   34  103 1  
   105   34  104 1  
   106   35  105 1  
   107   35  106 1  
   108   36  107 1  
   109   36  108 1  
   110   36  109 1  
   111   37  110 1  
   112   38  111 1  
   113   41  112 1  
   114   41  113 1  
   115   42  114 1  
   116   42  115 1  
   117   46  116 1  
   118   47  117 1  
   119   50  118 1  
   120   50  119 1  
   121   52  120 1  
   122   53  121 1  
   123   54  122 1  
   124   55  123 1  
   125   57  124 1  
   126   58  125 1  
   127   59  126 1  
   128   59  127 1  
   129   62  128 1  
   130   63  129 1  
   131   64  130 ar 
   132   66  131 1  
   133   67  132 1  
   134   67  133 1  
   135   67  134 1  
   136   68  135 1  
   137   68  136 1  
   138   68  137 1  
@<TRIPOS>SUBSTRUCTURE
     1 BEZ         1

