4utr_ligand
  -I-interpret- 

139140  0  0  0  0  0  0  0  0999 V2000
   32.9800   25.9770   12.7470 C   0  0  0  0  0
   32.3870   27.0540   12.7670 O   0  0  0  0  0
   33.8940   25.6840   13.7690 C   0  0  0  0  0
   34.9480   24.7720   13.5920 C   0  0  0  0  0
   35.8210   24.5180   14.6440 C   0  0  0  0  0
   35.6240   25.1790   15.8640 C   0  0  0  0  0
   34.5730   26.0820   16.0490 C   0  0  0  0  0
   33.7070   26.3270   14.9970 C   0  0  0  0  0
   32.7570   25.0430   11.7880 N   0  0  0  0  0
   31.7390   25.2750   10.7210 C   0  0  0  0  0
   31.9770   24.1950    9.7050 C   0  0  0  0  0
   33.0910   23.6550    9.5690 O   0  0  0  0  0
   30.9090   23.8620    8.9910 N   0  0  0  0  0
   30.9710   22.7500    8.0620 C   0  0  0  0  0
   31.8180   23.1220    6.8440 C   0  0  0  0  0
   31.4890   24.0280    6.1110 O   0  0  0  0  0
   29.5760   22.2830    7.5910 C   0  0  0  0  0
   29.7270   21.0130    6.7520 C   0  0  0  0  0
   28.6340   22.0580    8.7720 C   0  0  0  0  0
   32.9270   22.4280    6.6570 N   0  0  0  0  0
   33.7130   22.5660    5.4500 C   0  0  0  0  0
   32.9120   22.1130    4.2540 C   0  0  0  0  0
   32.3640   21.0170    4.2270 O   0  0  0  0  0
   34.9890   21.7440    5.5270 C   0  0  0  0  0
   36.3030   22.5020    5.7130 C   0  0  0  0  0
   36.2030   23.7000    6.6470 C   0  0  0  0  0
   37.3540   21.5190    6.2100 C   0  0  0  0  0
   32.8420   22.9880    3.2680 N   0  0  0  0  0
   32.2660   22.6690    1.9690 C   0  0  0  0  0
   32.7270   21.2710    1.5380 C   0  0  0  0  0
   33.9130   21.0230    1.3600 O   0  0  0  0  0
   32.7890   23.7490    0.9890 C   0  0  0  0  0
   32.5930   23.3370   -0.4430 C   0  0  0  0  0
   31.2340   23.7880   -0.9620 C   0  0  0  0  0
   31.7920   24.6880   -2.0300 C   0  0  0  0  0
   30.8230   24.9690   -3.0270 N   0  3  0  0  0
   31.7810   20.3690    1.3610 N   0  0  0  0  0
   32.0830   19.0180    0.8750 C   0  0  0  0  0
   32.9960   18.2400    1.8220 C   0  0  0  0  0
   33.8140   17.4120    1.3970 O   0  0  0  0  0
   32.6850   19.0770   -0.5200 C   0  0  0  0  0
   31.6730   18.7770   -1.5850 C   0  0  0  0  0
   32.3480   18.5640   -2.9030 C   0  0  0  0  0
   33.1630   17.6090   -3.0240 O   0  0  0  0  0
   32.0690   19.3710   -3.8060 O   0  0  0  0  0
   32.8350   18.5320    3.1120 N   0  0  0  0  0
   33.6270   17.9350    4.1670 C   0  0  0  0  0
   35.1600   18.1490    4.0110 C   0  0  0  0  0
   35.9460   17.4510    4.6560 O   0  0  0  0  0
   33.2720   16.4530    4.2610 C   0  0  0  0  0
   31.7800   16.1640    4.4090 C   0  0  0  0  0
   31.0120   16.7910    5.3820 C   0  0  0  0  0
   31.1540   15.2180    3.6160 C   0  0  0  0  0
   29.6650   16.5030    5.5350 C   0  0  0  0  0
   29.8040   14.9130    3.7670 C   0  0  0  0  0
   29.0550   15.5650    4.7170 C   0  0  0  0  0
   27.7040   15.2480    4.8610 O   0  0  0  0  0
   35.5680   19.1380    3.2100 N   0  0  0  0  0
   36.9600   19.3210    2.8460 C   0  0  0  0  0
   37.5820   18.2600    1.9280 C   0  0  0  0  0
   38.7810   18.2980    1.6990 O   0  0  0  0  0
   36.7900   17.3260    1.3890 N   0  0  0  0  0
   37.3290   16.1530    0.6300 C   0  0  0  0  0
   38.2520   16.5530   -0.5240 C   0  0  0  0  0
   38.1360   17.6570   -1.0580 O   0  0  0  0  0
   36.1870   15.1860    0.1350 C   0  0  0  0  0
   36.0290   15.1560   -1.3940 C   0  0  0  0  0
   36.3910   13.7800    0.7060 C   0  0  0  0  0
   39.1340   15.7496   -0.9293 O   0  0  0  0  0
   35.0806   24.2665   12.6355 H   0  0  0  0  0
   36.6457   23.8158   14.5217 H   0  0  0  0  0
   36.3080   24.9840   16.6900 H   0  0  0  0  0
   34.4375   26.5852   17.0063 H   0  0  0  0  0
   32.8777   27.0225   15.1260 H   0  0  0  0  0
   33.2904   24.1736   11.7963 H   0  0  0  0  0
   31.8371   26.2678   10.2818 H   0  0  0  0  0
   30.7249   25.2355   11.1186 H   0  0  0  0  0
   30.0423   24.3895    9.0959 H   0  0  0  0  0
   31.4301   21.9215    8.6014 H   0  0  0  0  0
   29.1298   23.0655    6.9773 H   0  0  0  0  0
   30.3544   21.2237    5.8859 H   0  0  0  0  0
   30.1897   20.2327    7.3563 H   0  0  0  0  0
   28.7441   20.6807    6.4180 H   0  0  0  0  0
   29.0515   21.2939    9.4277 H   0  0  0  0  0
   28.5183   22.9899    9.3255 H   0  0  0  0  0
   27.6623   21.7302    8.4027 H   0  0  0  0  0
   33.2363   21.7795    7.3810 H   0  0  0  0  0
   33.9765   23.6186    5.3463 H   0  0  0  0  0
   35.0734   21.2404    4.5640 H   0  0  0  0  0
   34.8826   21.1175    6.4126 H   0  0  0  0  0
   36.5809   22.9212    4.7460 H   0  0  0  0  0
   35.4765   24.4090    6.2500 H   0  0  0  0  0
   35.8833   23.3643    7.6335 H   0  0  0  0  0
   37.1779   24.1815    6.7239 H   0  0  0  0  0
   37.0301   21.0918    7.1590 H   0  0  0  0  0
   37.4810   20.7230    5.4762 H   0  0  0  0  0
   38.3007   22.0409    6.3493 H   0  0  0  0  0
   33.2070   23.9278    3.4226 H   0  0  0  0  0
   31.1762   22.6640    1.9917 H   0  0  0  0  0
   33.8558   23.8866    1.1651 H   0  0  0  0  0
   32.2323   24.6700    1.1620 H   0  0  0  0  0
   32.6464   22.2500   -0.5037 H   0  0  0  0  0
   33.3700   23.8024   -1.0494 H   0  0  0  0  0
   30.5506   24.2367   -0.2411 H   0  0  0  0  0
   30.5404   23.0098   -1.2804 H   0  0  0  0  0
   32.6371   24.1852   -2.5001 H   0  0  0  0  0
   32.0959   25.6272   -1.5677 H   0  0  0  0  0
   31.2319   25.5798   -3.7343 H   0  0  0  0  0
   30.5218   24.0970   -3.4621 H   0  0  0  0  0
   30.0209   25.4316   -2.5991 H   0  0  0  0  0
   30.8135   20.6174    1.5676 H   0  0  0  0  0
   31.1375   18.4771    0.8349 H   0  0  0  0  0
   33.4747   18.3282   -0.5812 H   0  0  0  0  0
   33.0625   20.0862   -0.6847 H   0  0  0  0  0
   30.9875   19.6201   -1.6701 H   0  0  0  0  0
   31.1311   17.8710   -1.3138 H   0  0  0  0  0
   33.2131   17.1257   -2.1961 H   0  0  0  0  0
   32.1178   19.2101    3.3693 H   0  0  0  0  0
   33.3773   18.4452    5.0973 H   0  0  0  0  0
   33.7610   16.0651    5.1546 H   0  0  0  0  0
   33.5946   15.9892    3.3289 H   0  0  0  0  0
   31.4786   17.5250    6.0390 H   0  0  0  0  0
   31.7333   14.6980    2.8530 H   0  0  0  0  0
   29.0834   17.0158    6.3011 H   0  0  0  0  0
   29.3414   14.1574    3.1320 H   0  0  0  0  0
   27.4614   14.5836    4.2119 H   0  0  0  0  0
   34.8745   19.7885    2.8408 H   0  0  0  0  0
   37.5214   19.2748    3.7792 H   0  0  0  0  0
   37.0030   20.2583    2.2913 H   0  0  0  0  0
   35.7800   17.4164    1.4993 H   0  0  0  0  0
   37.9423   15.6040    1.3445 H   0  0  0  0  0
   35.2490   15.5888    0.5171 H   0  0  0  0  0
   35.7885   16.1568   -1.7528 H   0  0  0  0  0
   36.9614   14.8202   -1.8478 H   0  0  0  0  0
   35.2254   14.4698   -1.6616 H   0  0  0  0  0
   37.3539   13.3910    0.3749 H   0  0  0  0  0
   36.3709   13.8250    1.7949 H   0  0  0  0  0
   35.5930   13.1267    0.3533 H   0  0  0  0  0
   39.0916   14.9420   -0.4120 H   0  0  0  0  0
  1  2  2  0  0  0
  1  3  1  0  0  0
  1  9  1  0  0  0
  3  4  4  0  0  0
  3  8  4  0  0  0
  4  5  4  0  0  0
  5  6  4  0  0  0
  6  7  4  0  0  0
  7  8  4  0  0  0
  9 10  1  0  0  0
 10 11  1  0  0  0
 11 12  2  0  0  0
 11 13  1  0  0  0
 13 14  1  0  0  0
 14 15  1  0  0  0
 14 17  1  0  0  0
 15 16  2  0  0  0
 15 20  1  0  0  0
 17 18  1  0  0  0
 17 19  1  0  0  0
 20 21  1  0  0  0
 21 22  1  0  0  0
 21 24  1  0  0  0
 22 23  2  0  0  0
 22 28  1  0  0  0
 24 25  1  0  0  0
 25 26  1  0  0  0
 25 27  1  0  0  0
 28 29  1  0  0  0
 29 30  1  0  0  0
 29 32  1  0  0  0
 30 31  2  0  0  0
 30 37  1  0  0  0
 32 33  1  0  0  0
 33 34  1  0  0  0
 34 35  1  0  0  0
 35 36  1  0  0  0
 37 38  1  0  0  0
 38 39  1  0  0  0
 38 41  1  0  0  0
 39 40  2  0  0  0
 39 46  1  0  0  0
 41 42  1  0  0  0
 42 43  1  0  0  0
 43 44  1  0  0  0
 43 45  2  0  0  0
 46 47  1  0  0  0
 47 48  1  0  0  0
 47 50  1  0  0  0
 48 49  2  0  0  0
 48 58  1  0  0  0
 50 51  1  0  0  0
 51 52  4  0  0  0
 51 53  4  0  0  0
 52 54  4  0  0  0
 53 55  4  0  0  0
 54 56  4  0  0  0
 55 56  4  0  0  0
 56 57  1  0  0  0
 58 59  1  0  0  0
 59 60  1  0  0  0
 60 61  2  0  0  0
 60 62  1  0  0  0
 62 63  1  0  0  0
 63 64  1  0  0  0
 63 66  1  0  0  0
 64 65  2  0  0  0
 66 67  1  0  0  0
 66 68  1  0  0  0
 64 69  1  0  0  0
  4 70  1  0  0  0
  5 71  1  0  0  0
  6 72  1  0  0  0
  7 73  1  0  0  0
  8 74  1  0  0  0
  9 75  1  0  0  0
 10 76  1  0  0  0
 10 77  1  0  0  0
 13 78  1  0  0  0
 14 79  1  0  0  0
 17 80  1  0  0  0
 18 81  1  0  0  0
 18 82  1  0  0  0
 18 83  1  0  0  0
 19 84  1  0  0  0
 19 85  1  0  0  0
 19 86  1  0  0  0
 20 87  1  0  0  0
 21 88  1  0  0  0
 24 89  1  0  0  0
 24 90  1  0  0  0
 25 91  1  0  0  0
 26 92  1  0  0  0
 26 93  1  0  0  0
 26 94  1  0  0  0
 27 95  1  0  0  0
 27 96  1  0  0  0
 27 97  1  0  0  0
 28 98  1  0  0  0
 29 99  1  0  0  0
 32100  1  0  0  0
 32101  1  0  0  0
 33102  1  0  0  0
 33103  1  0  0  0
 34104  1  0  0  0
 34105  1  0  0  0
 35106  1  0  0  0
 35107  1  0  0  0
 36108  1  0  0  0
 36109  1  0  0  0
 36110  1  0  0  0
 37111  1  0  0  0
 38112  1  0  0  0
 41113  1  0  0  0
 41114  1  0  0  0
 42115  1  0  0  0
 42116  1  0  0  0
 44117  1  0  0  0
 46118  1  0  0  0
 47119  1  0  0  0
 50120  1  0  0  0
 50121  1  0  0  0
 52122  1  0  0  0
 53123  1  0  0  0
 54124  1  0  0  0
 55125  1  0  0  0
 57126  1  0  0  0
 58127  1  0  0  0
 59128  1  0  0  0
 59129  1  0  0  0
 62130  1  0  0  0
 63131  1  0  0  0
 66132  1  0  0  0
 67133  1  0  0  0
 67134  1  0  0  0
 67135  1  0  0  0
 68136  1  0  0  0
 68137  1  0  0  0
 68138  1  0  0  0
 69139  1  0  0  0
M  END
$$$$
