5jna_ligand
  -I-interpret- 

 43 45  0  0  0  0  0  0  0  0999 V2000
   39.7870   10.5550   20.8730 C   0  0  0  0  0
   38.4970   10.6980   20.0720 C   0  0  0  0  0
   37.7980   11.9950   20.4640 C   0  0  0  0  0
   37.6660    9.5360   20.2210 O   0  0  0  0  0
   38.7700   10.7540   18.6670 O   0  0  0  0  0
   37.7400   10.0340   17.9800 C   0  0  0  0  0
   38.2750    9.5610   16.6390 C   0  0  0  0  0
   37.2080    9.0560   15.8550 O   0  0  0  0  0
   37.7000    8.0400   15.0150 C   0  0  0  0  0
   38.0310    8.6280   13.6430 C   0  0  0  0  0
   36.6170    6.9670   14.8990 C   0  0  0  0  0
   38.8850    7.5460   15.6620 O   0  0  0  0  0
   39.2920    8.4370   16.7100 C   0  0  0  0  0
   39.3190    7.7790   18.0900 C   0  0  0  0  0
   38.0180    7.7140   18.6980 O   0  0  0  0  0
   37.3150    8.9400   18.9560 C   0  0  0  0  0
   35.8220    8.6070   18.8990 C   0  0  0  0  0
   34.9830    9.7540   19.0170 O   0  0  0  0  0
   33.4510    9.6040   19.1680 S   0  0  0  0  0
   33.1370    9.1430   20.5260 O   0  0  0  0  0
   32.8400   10.8940   18.8210 O   0  0  0  0  0
   32.9150    8.5070   18.2600 N   0  0  0  0  0
   40.2965    9.6377   20.5780 H   0  0  0  0  0
   40.4327   11.4106   20.6752 H   0  0  0  0  0
   39.5504   10.5149   21.9363 H   0  0  0  0  0
   38.4490   12.8396   20.2383 H   0  0  0  0  0
   36.8692   12.0900   19.9015 H   0  0  0  0  0
   37.5778   11.9793   21.5314 H   0  0  0  0  0
   36.8582   10.6182   17.7171 H   0  0  0  0  0
   38.7618   10.4406   16.2179 H   0  0  0  0  0
   38.7347    9.4518   13.7624 H   0  0  0  0  0
   38.4767    7.8557   13.0161 H   0  0  0  0  0
   37.1168    8.9941   13.1759 H   0  0  0  0  0
   36.9985    6.1291   14.3154 H   0  0  0  0  0
   36.3412    6.6218   15.8954 H   0  0  0  0  0
   35.7419    7.3878   14.4038 H   0  0  0  0  0
   40.3183    8.7776   16.5728 H   0  0  0  0  0
   39.9607    8.3793   18.7350 H   0  0  0  0  0
   39.6831    6.7589   17.9678 H   0  0  0  0  0
   35.5992    7.9483   19.7384 H   0  0  0  0  0
   35.6229    8.1518   17.9288 H   0  0  0  0  0
   32.4598    7.6882   18.6634 H   0  0  0  0  0
   33.0109    8.5904   17.2480 H   0  0  0  0  0
  1  2  1  0  0  0
  2  3  1  0  0  0
  2  4  1  0  0  0
  2  5  1  0  0  0
  4 16  1  0  0  0
  5  6  1  0  0  0
  6  7  1  0  0  0
  6 16  1  0  0  0
  7  8  1  0  0  0
  7 13  1  0  0  0
  8  9  1  0  0  0
  9 10  1  0  0  0
  9 11  1  0  0  0
  9 12  1  0  0  0
 12 13  1  0  0  0
 13 14  1  0  0  0
 14 15  1  0  0  0
 15 16  1  0  0  0
 16 17  1  0  0  0
 17 18  1  0  0  0
 18 19  1  0  0  0
 19 20  2  0  0  0
 19 21  2  0  0  0
 19 22  1  0  0  0
  1 23  1  0  0  0
  1 24  1  0  0  0
  1 25  1  0  0  0
  3 26  1  0  0  0
  3 27  1  0  0  0
  3 28  1  0  0  0
  6 29  1  0  0  0
  7 30  1  0  0  0
 10 31  1  0  0  0
 10 32  1  0  0  0
 10 33  1  0  0  0
 11 34  1  0  0  0
 11 35  1  0  0  0
 11 36  1  0  0  0
 13 37  1  0  0  0
 14 38  1  0  0  0
 14 39  1  0  0  0
 17 40  1  0  0  0
 17 41  1  0  0  0
 22 42  1  0  0  0
 22 43  1  0  0  0
M  END
$$$$
