3piz_ligand
  -I-interpret- 

 57 60  0  0  0  0  0  0  0  0999 V2000
  -19.7270    5.2440  -14.8630 N   0  0  0  0  0
  -20.2550    5.1980  -13.6320 C   0  0  0  0  0
  -20.3860    5.2290  -16.0840 C   0  0  0  0  0
  -18.3610    5.3140  -15.1180 N   0  0  0  0  0
  -20.1330    4.0370  -12.8620 C   0  0  0  0  0
  -20.8980    6.3280  -13.1080 C   0  0  0  0  0
  -19.4220    5.2900  -17.0940 C   0  0  0  0  0
  -21.7300    5.1590  -16.2510 N   0  0  0  0  0
  -18.1730    5.3390  -16.4900 C   0  0  0  0  0
  -20.6610    3.9980  -11.5730 C   0  0  0  0  0
  -19.4430    2.8120  -13.4130 C   0  0  0  0  0
  -21.4320    6.2930  -11.8160 C   0  0  0  0  0
  -19.6680    5.2980  -18.5650 C   0  0  0  0  0
  -21.3100    5.1280  -11.0540 C   0  0  0  0  0
  -18.5810    5.6310  -19.5520 C   0  0  0  0  0
  -20.7760    5.0230  -18.9910 O   0  0  0  0  0
  -17.5360    6.5230  -19.2710 C   0  0  0  0  0
  -18.6420    5.0160  -20.8030 C   0  0  0  0  0
  -16.5640    6.7880  -20.2500 C   0  0  0  0  0
  -17.6830    5.2740  -21.7710 C   0  0  0  0  0
  -15.4160    7.7130  -20.0280 C   0  0  0  0  0
  -16.6500    6.1580  -21.4890 C   0  0  0  0  0
  -15.7660    8.8380  -19.0430 C   0  0  0  0  0
  -14.2150    6.8720  -19.5640 C   0  0  0  0  0
  -14.5410    9.5450  -18.4600 C   0  0  0  0  0
  -13.0840    7.7140  -18.9730 C   0  0  0  0  0
  -13.6430    8.5250  -17.8740 N   0  0  0  0  0
  -12.4590    9.1470  -16.9530 S   0  0  0  0  0
  -11.3860    8.1800  -16.8700 O   0  0  0  0  0
  -11.9620   10.3850  -17.5040 O   0  0  0  0  0
  -13.0300    9.4410  -15.4170 C   0  0  0  0  0
  -20.9818    7.2343  -13.7078 H   0  0  0  0  0
  -22.3433    5.1120  -15.4373 H   0  0  0  0  0
  -22.1276    5.1534  -17.1903 H   0  0  0  0  0
  -17.2135    5.3884  -17.0048 H   0  0  0  0  0
  -20.5701    3.0939  -10.9710 H   0  0  0  0  0
  -19.9668    2.4726  -14.3066 H   0  0  0  0  0
  -18.4124    3.0603  -13.6667 H   0  0  0  0  0
  -19.4534    2.0220  -12.6620 H   0  0  0  0  0
  -21.9390    7.1669  -11.4069 H   0  0  0  0  0
  -21.7234    5.0971  -10.0459 H   0  0  0  0  0
  -17.4782    7.0087  -18.2969 H   0  0  0  0  0
  -19.4545    4.3233  -21.0224 H   0  0  0  0  0
  -17.7397    4.7871  -22.7446 H   0  0  0  0  0
  -15.1620    8.2219  -20.9578 H   0  0  0  0  0
  -15.8953    6.3618  -22.2486 H   0  0  0  0  0
  -16.3094    8.3877  -18.2124 H   0  0  0  0  0
  -16.3438    9.5831  -19.5899 H   0  0  0  0  0
  -13.8190    6.3517  -20.4361 H   0  0  0  0  0
  -14.5661    6.1959  -18.7844 H   0  0  0  0  0
  -14.8513   10.2526  -17.6912 H   0  0  0  0  0
  -14.0193   10.0924  -19.2450 H   0  0  0  0  0
  -12.6579    8.3618  -19.7391 H   0  0  0  0  0
  -12.2909    7.0675  -18.5973 H   0  0  0  0  0
  -13.4002    8.5116  -14.9843 H   0  0  0  0  0
  -12.2224    9.8343  -14.7996 H   0  0  0  0  0
  -13.8399   10.1689  -15.4650 H   0  0  0  0  0
  1  2  1  0  0  0
  1  3  4  0  0  0
  1  4  4  0  0  0
  2  5  4  0  0  0
  2  6  4  0  0  0
  3  7  4  0  0  0
  3  8  1  0  0  0
  4  9  4  0  0  0
  5 10  4  0  0  0
  5 11  1  0  0  0
  6 12  4  0  0  0
  7  9  4  0  0  0
  7 13  1  0  0  0
 10 14  4  0  0  0
 12 14  4  0  0  0
 13 15  1  0  0  0
 13 16  2  0  0  0
 15 17  4  0  0  0
 15 18  4  0  0  0
 17 19  4  0  0  0
 18 20  4  0  0  0
 19 21  1  0  0  0
 19 22  4  0  0  0
 20 22  4  0  0  0
 21 23  1  0  0  0
 21 24  1  0  0  0
 23 25  1  0  0  0
 24 26  1  0  0  0
 25 27  1  0  0  0
 26 27  1  0  0  0
 27 28  1  0  0  0
 28 29  2  0  0  0
 28 30  2  0  0  0
 28 31  1  0  0  0
  6 32  1  0  0  0
  8 33  1  0  0  0
  8 34  1  0  0  0
  9 35  1  0  0  0
 10 36  1  0  0  0
 11 37  1  0  0  0
 11 38  1  0  0  0
 11 39  1  0  0  0
 12 40  1  0  0  0
 14 41  1  0  0  0
 17 42  1  0  0  0
 18 43  1  0  0  0
 20 44  1  0  0  0
 21 45  1  0  0  0
 22 46  1  0  0  0
 23 47  1  0  0  0
 23 48  1  0  0  0
 24 49  1  0  0  0
 24 50  1  0  0  0
 25 51  1  0  0  0
 25 52  1  0  0  0
 26 53  1  0  0  0
 26 54  1  0  0  0
 31 55  1  0  0  0
 31 56  1  0  0  0
 31 57  1  0  0  0
M  END
$$$$
