1kti_ligand
  -I-interpret- 

 34 34  0  0  0  0  0  0  0  0999 V2000
   33.4160   22.8210   27.8210 C   0  0  0  0  0
   33.7160   23.0440   26.3300 C   0  0  0  0  0
   33.8450   24.4240   26.0560 O   0  0  0  0  0
   32.6040   22.4320   25.4650 C   0  0  0  0  0
   32.9470   22.5150   24.0980 O   0  0  0  0  0
   32.3730   20.9670   25.8430 C   0  0  0  0  0
   31.2540   20.4710   25.1430 O   0  0  0  0  0
   32.1520   20.8170   27.3540 C   0  0  0  0  0
   33.2490   21.4160   28.0610 O   0  0  0  0  0
   32.0780   19.3360   27.7240 C   0  0  0  0  0
   33.2250   18.6610   27.2630 O   0  0  0  0  0
   34.5040   23.3140   28.6550 N   0  0  0  0  0
   34.2360   23.8900   29.8270 C   0  0  0  0  0
   33.0670   24.0450   30.1890 O   0  0  0  0  0
   35.2460   24.3260   30.5900 N   0  0  0  0  0
   36.5280   24.1600   30.2510 C   0  0  0  0  0
   37.5490   24.3450   31.3640 C   0  0  0  0  0
   36.8910   23.8660   29.1140 O   0  0  0  0  0
   32.5070   23.3666   28.0745 H   0  0  0  0  0
   34.6576   22.5512   26.0878 H   0  0  0  0  0
   34.5423   24.7938   26.6024 H   0  0  0  0  0
   31.6870   22.9939   25.6427 H   0  0  0  0  0
   33.0919   23.4339   23.8608 H   0  0  0  0  0
   33.2599   20.3947   25.5710 H   0  0  0  0  0
   31.3996   20.5682   24.1991 H   0  0  0  0  0
   31.2187   21.3101   27.6258 H   0  0  0  0  0
   31.1950   18.8963   27.2602 H   0  0  0  0  0
   32.0206   19.2418   28.8084 H   0  0  0  0  0
   33.1663   17.7329   27.5015 H   0  0  0  0  0
   35.4702   23.2185   28.3424 H   0  0  0  0  0
   35.0284   24.8037   31.4646 H   0  0  0  0  0
   38.1067   23.4186   31.5014 H   0  0  0  0  0
   38.2358   25.1477   31.0955 H   0  0  0  0  0
   37.0333   24.6008   32.2896 H   0  0  0  0  0
  1  2  1  0  0  0
  1  9  1  0  0  0
  1 12  1  0  0  0
  2  3  1  0  0  0
  2  4  1  0  0  0
  4  5  1  0  0  0
  4  6  1  0  0  0
  6  7  1  0  0  0
  6  8  1  0  0  0
  8  9  1  0  0  0
  8 10  1  0  0  0
 10 11  1  0  0  0
 12 13  1  0  0  0
 13 14  2  0  0  0
 13 15  1  0  0  0
 15 16  1  0  0  0
 16 17  1  0  0  0
 16 18  2  0  0  0
  1 19  1  0  0  0
  2 20  1  0  0  0
  3 21  1  0  0  0
  4 22  1  0  0  0
  5 23  1  0  0  0
  6 24  1  0  0  0
  7 25  1  0  0  0
  8 26  1  0  0  0
 10 27  1  0  0  0
 10 28  1  0  0  0
 11 29  1  0  0  0
 12 30  1  0  0  0
 15 31  1  0  0  0
 17 32  1  0  0  0
 17 33  1  0  0  0
 17 34  1  0  0  0
M  END
$$$$
