### 
### Created by X-TOOL on Mon Sep 10 21:13:07 2018
### 

@<TRIPOS>MOLECULE
3loo_ligand
   77    82     1     0     0
SMALL
GAST_HUCK


@<TRIPOS>ATOM
      1 PA         11.1900   -4.8910    7.8360 P.3       1 B4P         0.2978
      2 O1A         9.7650   -4.3990    8.0370 O.co2     1 B4P        -0.6127
      3 O2A        11.3940   -6.3890    7.6160 O.co2     1 B4P        -0.6127
      4 O3A        11.9460   -4.5960    9.2210 O.3       1 B4P        -0.1265
      5 PB         13.2510   -3.6820    9.2790 P.3       1 B4P         0.3361
      6 O1B        12.9210   -2.2170    8.9840 O.co2     1 B4P        -0.6079
      7 O2B        14.4520   -4.3320    8.6130 O.co2     1 B4P        -0.6079
      8 O3B        13.1740   -3.9340   10.9210 O.3       1 B4P        -0.1211
      9 PG         14.2770   -4.6270   11.8680 P.3       1 B4P         0.3361
     10 O1G        14.0150   -6.0800   12.0730 O.co2     1 B4P        -0.6079
     11 O2G        15.6300   -4.2950   11.2700 O.co2     1 B4P        -0.6079
     12 O3G        14.1440   -3.8470   13.2600 O.3       1 B4P        -0.1265
     13 PD         13.5800   -4.3270   14.6930 P.3       1 B4P         0.2978
     14 O1D        12.4020   -5.1980   14.4560 O.co2     1 B4P        -0.6127
     15 O2D        14.6810   -4.7720   15.6140 O.co2     1 B4P        -0.6127
     16 O5E        11.9320   -4.0240    6.6790 O.3       1 B4P        -0.2476
     17 C5E        11.0820   -3.8040    5.5750 C.3       1 B4P         0.1128
     18 C4E        11.7530   -3.1730    4.3890 C.3       1 B4P         0.1189
     19 O4E        12.8470   -3.9430    3.8900 O.3       1 B4P        -0.3364
     20 C3E        10.7610   -3.1510    3.2590 C.3       1 B4P         0.1149
     21 O3E        10.3250   -1.7800    3.1750 O.3       1 B4P        -0.3864
     22 C2E        11.5630   -3.5370    2.0210 C.3       1 B4P         0.1385
     23 O2E        11.4330   -2.6410    0.9100 O.3       1 B4P        -0.3836
     24 C1E        13.0130   -3.6210    2.5340 C.3       1 B4P         0.2010
     25 N9A        13.7280   -4.7040    1.8350 N.pl3     1 B4P        -0.1919
     26 C8A        13.4960   -6.0480    1.8920 C.2       1 B4P         0.1123
     27 N7A        14.3950   -6.6660    1.0710 N.2       1 B4P        -0.2958
     28 C5A        15.1720   -5.7180    0.4680 C.ar      1 B4P         0.1045
     29 C6A        16.2420   -5.7370   -0.4420 C.ar      1 B4P         0.1298
     30 N6A        16.7290   -6.8890   -0.9990 N.pl3     1 B4P        -0.3152
     31 N1A        16.7880   -4.5590   -0.8360 N.ar      1 B4P        -0.2698
     32 C2A        16.3560   -3.3780   -0.3270 C.ar      1 B4P         0.0533
     33 N3A        15.3440   -3.3360    0.5550 N.ar      1 B4P        -0.2714
     34 C4A        14.7490   -4.4840    0.9710 C.ar      1 B4P         0.1613
     35 O5F        13.0080   -2.9160   15.1940 O.3       1 B4P        -0.2476
     36 C5F        13.7640   -1.7150   15.0890 C.3       1 B4P         0.1128
     37 C4F        13.1440   -0.7260   16.0750 C.3       1 B4P         0.1189
     38 O4F        11.7130   -0.6570   15.9390 O.3       1 B4P        -0.3364
     39 C3F        13.3270   -1.1970   17.5070 C.3       1 B4P         0.1149
     40 O3F        14.6390   -0.8760   17.9510 O.3       1 B4P        -0.3864
     41 C2F        12.2310   -0.4430   18.2350 C.3       1 B4P         0.1385
     42 O2F        12.6590    0.8990   18.5410 O.3       1 B4P        -0.3836
     43 C1F        11.0830   -0.4450   17.2090 C.3       1 B4P         0.2010
     44 N9B        10.2150   -1.6270   17.5120 N.pl3     1 B4P        -0.1919
     45 C8B        10.2170   -2.8020   16.8510 C.2       1 B4P         0.1123
     46 N7B         9.3210   -3.6640   17.3890 N.2       1 B4P        -0.2958
     47 C5B         8.7140   -3.0520   18.4270 C.ar      1 B4P         0.1045
     48 C6B         7.7440   -3.4060   19.3610 C.ar      1 B4P         0.1298
     49 N6B         7.1910   -4.6440   19.3010 N.pl3     1 B4P        -0.3152
     50 N1B         7.3480   -2.4990   20.3070 N.ar      1 B4P        -0.2698
     51 C2B         7.8960   -1.2600   20.3680 C.ar      1 B4P         0.0533
     52 N3B         8.8590   -0.8620   19.4890 N.ar      1 B4P        -0.2714
     53 C4B         9.3090   -1.7090   18.5110 C.ar      1 B4P         0.1613
     54 H          10.3029   -3.1164    5.9041 H         1 B4P         0.0648
     55 H          10.7172   -4.7796    5.2537 H         1 B4P         0.0648
     56 H          12.1058   -2.1934    4.7116 H         1 B4P         0.0651
     57 H           9.9039   -3.8144    3.3743 H         1 B4P         0.0648
     58 H           9.6833   -1.6923    2.4664 H         1 B4P         0.2100
     59 H          11.1942   -4.4728    1.6010 H         1 B4P         0.0676
     60 H          10.5127   -2.5995    0.6398 H         1 B4P         0.2101
     61 H          13.5888   -2.7093    2.3748 H         1 B4P         0.0996
     62 H          12.7281   -6.5411    2.4881 H         1 B4P         0.1349
     63 H          16.3121   -7.7881   -0.7577 H         1 B4P         0.1820
     64 H          17.5087   -6.8482   -1.6553 H         1 B4P         0.1820
     65 H          16.8368   -2.4505   -0.6381 H         1 B4P         0.0996
     66 H          13.7354   -1.3230   14.0723 H         1 B4P         0.0648
     67 H          14.8139   -1.8926   15.3219 H         1 B4P         0.0648
     68 H          13.6333    0.2246   15.8626 H         1 B4P         0.0651
     69 H          13.2442   -2.2725   17.6638 H         1 B4P         0.0648
     70 H          14.7514   -1.1750   18.8563 H         1 B4P         0.2100
     71 H          11.9506   -0.8855   19.1908 H         1 B4P         0.0676
     72 H          13.4391    0.8654   19.0995 H         1 B4P         0.2101
     73 H          10.4910    0.4701   17.2259 H         1 B4P         0.0996
     74 H          10.8551   -3.0285   15.9968 H         1 B4P         0.1349
     75 H           7.4872   -5.3004   18.5787 H         1 B4P         0.1820
     76 H           6.4792   -4.9180   19.9783 H         1 B4P         0.1820
     77 H           7.5586   -0.5661   21.1379 H         1 B4P         0.0996
@<TRIPOS>BOND
     1    1    2 ar 
     2    1    3 ar 
     3    1    4 1  
     4    1   16 1  
     5    4    5 1  
     6    5    6 ar 
     7    5    7 ar 
     8    5    8 1  
     9    8    9 1  
    10    9   10 ar 
    11    9   11 ar 
    12    9   12 1  
    13   12   13 1  
    14   13   14 ar 
    15   13   15 ar 
    16   13   35 1  
    17   16   17 1  
    18   17   18 1  
    19   18   19 1  
    20   18   20 1  
    21   19   24 1  
    22   20   21 1  
    23   20   22 1  
    24   22   23 1  
    25   22   24 1  
    26   24   25 1  
    27   25   26 1  
    28   25   34 1  
    29   26   27 2  
    30   27   28 1  
    31   28   29 ar 
    32   28   34 ar 
    33   29   30 1  
    34   29   31 ar 
    35   31   32 ar 
    36   32   33 ar 
    37   33   34 ar 
    38   35   36 1  
    39   36   37 1  
    40   37   38 1  
    41   37   39 1  
    42   38   43 1  
    43   39   40 1  
    44   39   41 1  
    45   41   42 1  
    46   41   43 1  
    47   43   44 1  
    48   44   45 1  
    49   44   53 1  
    50   45   46 2  
    51   46   47 1  
    52   47   48 ar 
    53   47   53 ar 
    54   48   49 1  
    55   48   50 ar 
    56   50   51 ar 
    57   51   52 ar 
    58   52   53 ar 
    59   17   54 1  
    60   17   55 1  
    61   18   56 1  
    62   20   57 1  
    63   21   58 1  
    64   22   59 1  
    65   23   60 1  
    66   24   61 1  
    67   26   62 1  
    68   30   63 1  
    69   30   64 1  
    70   32   65 1  
    71   36   66 1  
    72   36   67 1  
    73   37   68 1  
    74   39   69 1  
    75   40   70 1  
    76   41   71 1  
    77   42   72 1  
    78   43   73 1  
    79   45   74 1  
    80   49   75 1  
    81   49   76 1  
    82   51   77 1  
@<TRIPOS>SUBSTRUCTURE
     1 B4P         1

