3loo_ligand
  -I-interpret- 

 81 86  0  0  0  0  0  0  0  0999 V2000
   11.1900   -4.8910    7.8360 P   0  0  0  0  0
    9.7650   -4.3990    8.0370 O   0  0  0  0  0
   11.3940   -6.3890    7.6160 O   0  0  0  0  0
   11.9460   -4.5960    9.2210 O   0  0  0  0  0
   13.2510   -3.6820    9.2790 P   0  0  0  0  0
   12.9210   -2.2170    8.9840 O   0  0  0  0  0
   14.4520   -4.3320    8.6130 O   0  0  0  0  0
   13.1740   -3.9340   10.9210 O   0  0  0  0  0
   14.2770   -4.6270   11.8680 P   0  0  0  0  0
   14.0150   -6.0800   12.0730 O   0  0  0  0  0
   15.6300   -4.2950   11.2700 O   0  0  0  0  0
   14.1440   -3.8470   13.2600 O   0  0  0  0  0
   13.5800   -4.3270   14.6930 P   0  0  0  0  0
   12.4020   -5.1980   14.4560 O   0  0  0  0  0
   14.6810   -4.7720   15.6140 O   0  0  0  0  0
   11.9320   -4.0240    6.6790 O   0  0  0  0  0
   11.0820   -3.8040    5.5750 C   0  0  0  0  0
   11.7530   -3.1730    4.3890 C   0  0  0  0  0
   12.8470   -3.9430    3.8900 O   0  0  0  0  0
   10.7610   -3.1510    3.2590 C   0  0  0  0  0
   10.3250   -1.7800    3.1750 O   0  0  0  0  0
   11.5630   -3.5370    2.0210 C   0  0  0  0  0
   11.4330   -2.6410    0.9100 O   0  0  0  0  0
   13.0130   -3.6210    2.5340 C   0  0  0  0  0
   13.7280   -4.7040    1.8350 N   0  0  0  0  0
   13.4960   -6.0480    1.8920 C   0  0  0  0  0
   14.3950   -6.6660    1.0710 N   0  0  0  0  0
   15.1720   -5.7180    0.4680 C   0  0  0  0  0
   16.2420   -5.7370   -0.4420 C   0  0  0  0  0
   16.7290   -6.8890   -0.9990 N   0  0  0  0  0
   16.7880   -4.5590   -0.8360 N   0  0  0  0  0
   16.3560   -3.3780   -0.3270 C   0  0  0  0  0
   15.3440   -3.3360    0.5550 N   0  0  0  0  0
   14.7490   -4.4840    0.9710 C   0  0  0  0  0
   13.0080   -2.9160   15.1940 O   0  0  0  0  0
   13.7640   -1.7150   15.0890 C   0  0  0  0  0
   13.1440   -0.7260   16.0750 C   0  0  0  0  0
   11.7130   -0.6570   15.9390 O   0  0  0  0  0
   13.3270   -1.1970   17.5070 C   0  0  0  0  0
   14.6390   -0.8760   17.9510 O   0  0  0  0  0
   12.2310   -0.4430   18.2350 C   0  0  0  0  0
   12.6590    0.8990   18.5410 O   0  0  0  0  0
   11.0830   -0.4450   17.2090 C   0  0  0  0  0
   10.2150   -1.6270   17.5120 N   0  0  0  0  0
   10.2170   -2.8020   16.8510 C   0  0  0  0  0
    9.3210   -3.6640   17.3890 N   0  0  0  0  0
    8.7140   -3.0520   18.4270 C   0  0  0  0  0
    7.7440   -3.4060   19.3610 C   0  0  0  0  0
    7.1910   -4.6440   19.3010 N   0  0  0  0  0
    7.3480   -2.4990   20.3070 N   0  0  0  0  0
    7.8960   -1.2600   20.3680 C   0  0  0  0  0
    8.8590   -0.8620   19.4890 N   0  0  0  0  0
    9.3090   -1.7090   18.5110 C   0  0  0  0  0
   12.3300   -6.5702    7.5030 H   0  0  0  0  0
   12.1396   -1.9602    9.4790 H   0  0  0  0  0
   15.7114   -3.3433   11.1742 H   0  0  0  0  0
   15.3589   -4.0933   15.6518 H   0  0  0  0  0
   10.3029   -3.1164    5.9041 H   0  0  0  0  0
   10.7172   -4.7796    5.2537 H   0  0  0  0  0
   12.1058   -2.1934    4.7116 H   0  0  0  0  0
    9.9039   -3.8144    3.3743 H   0  0  0  0  0
    9.6833   -1.6923    2.4664 H   0  0  0  0  0
   11.1942   -4.4728    1.6010 H   0  0  0  0  0
   11.9682   -2.9593    0.1793 H   0  0  0  0  0
   13.5888   -2.7093    2.3748 H   0  0  0  0  0
   12.7281   -6.5411    2.4881 H   0  0  0  0  0
   16.3121   -7.7881   -0.7577 H   0  0  0  0  0
   17.5087   -6.8482   -1.6553 H   0  0  0  0  0
   16.8368   -2.4505   -0.6381 H   0  0  0  0  0
   13.7354   -1.3230   14.0723 H   0  0  0  0  0
   14.8139   -1.8926   15.3219 H   0  0  0  0  0
   13.6333    0.2246   15.8626 H   0  0  0  0  0
   13.2442   -2.2725   17.6638 H   0  0  0  0  0
   14.7514   -1.1750   18.8563 H   0  0  0  0  0
   11.9506   -0.8855   19.1908 H   0  0  0  0  0
   11.9545    1.3613   19.0009 H   0  0  0  0  0
   10.4910    0.4701   17.2259 H   0  0  0  0  0
   10.8551   -3.0285   15.9968 H   0  0  0  0  0
    7.4872   -5.3004   18.5787 H   0  0  0  0  0
    6.4792   -4.9180   19.9783 H   0  0  0  0  0
    7.5586   -0.5661   21.1379 H   0  0  0  0  0
  1  2  2  0  0  0
  1  3  1  0  0  0
  1  4  1  0  0  0
  1 16  1  0  0  0
  4  5  1  0  0  0
  5  6  1  0  0  0
  5  7  2  0  0  0
  5  8  1  0  0  0
  8  9  1  0  0  0
  9 10  2  0  0  0
  9 11  1  0  0  0
  9 12  1  0  0  0
 12 13  1  0  0  0
 13 14  2  0  0  0
 13 15  1  0  0  0
 13 35  1  0  0  0
 16 17  1  0  0  0
 17 18  1  0  0  0
 18 19  1  0  0  0
 18 20  1  0  0  0
 19 24  1  0  0  0
 20 21  1  0  0  0
 20 22  1  0  0  0
 22 23  1  0  0  0
 22 24  1  0  0  0
 24 25  1  0  0  0
 25 26  4  0  0  0
 25 34  4  0  0  0
 26 27  4  0  0  0
 27 28  4  0  0  0
 28 29  4  0  0  0
 28 34  4  0  0  0
 29 30  1  0  0  0
 29 31  4  0  0  0
 31 32  4  0  0  0
 32 33  4  0  0  0
 33 34  4  0  0  0
 35 36  1  0  0  0
 36 37  1  0  0  0
 37 38  1  0  0  0
 37 39  1  0  0  0
 38 43  1  0  0  0
 39 40  1  0  0  0
 39 41  1  0  0  0
 41 42  1  0  0  0
 41 43  1  0  0  0
 43 44  1  0  0  0
 44 45  4  0  0  0
 44 53  4  0  0  0
 45 46  4  0  0  0
 46 47  4  0  0  0
 47 48  4  0  0  0
 47 53  4  0  0  0
 48 49  1  0  0  0
 48 50  4  0  0  0
 50 51  4  0  0  0
 51 52  4  0  0  0
 52 53  4  0  0  0
  3 54  1  0  0  0
  6 55  1  0  0  0
 11 56  1  0  0  0
 15 57  1  0  0  0
 17 58  1  0  0  0
 17 59  1  0  0  0
 18 60  1  0  0  0
 20 61  1  0  0  0
 21 62  1  0  0  0
 22 63  1  0  0  0
 23 64  1  0  0  0
 24 65  1  0  0  0
 26 66  1  0  0  0
 30 67  1  0  0  0
 30 68  1  0  0  0
 32 69  1  0  0  0
 36 70  1  0  0  0
 36 71  1  0  0  0
 37 72  1  0  0  0
 39 73  1  0  0  0
 40 74  1  0  0  0
 41 75  1  0  0  0
 42 76  1  0  0  0
 43 77  1  0  0  0
 45 78  1  0  0  0
 49 79  1  0  0  0
 49 80  1  0  0  0
 51 81  1  0  0  0
M  END
$$$$
