### 
### Created by X-TOOL on Mon Sep 10 21:13:03 2018
### 

@<TRIPOS>MOLECULE
3k05_ligand
   72    72     1     0     0
SMALL
GAST_HUCK


@<TRIPOS>ATOM
      1 N           8.6600  -15.6940  -30.6370 N.4       1 SEP         0.2398
      2 CA          8.7300  -14.3420  -30.0070 C.3       1 SEP         0.0932
      3 CB          8.7880  -14.4390  -28.4870 C.3       1 SEP         0.1380
      4 OG          7.5530  -14.9800  -28.0550 O.3       1 SEP        -0.2680
      5 C           9.9110  -13.5510  -30.5040 C.2       1 SEP         0.2293
      6 O          10.9190  -14.1170  -30.9210 O.2       1 SEP        -0.3906
      7 P           7.4610  -15.4760  -26.5380 P.3       1 SEP         0.2012
      8 O1P         8.0890  -14.3840  -25.5990 O.co2     1 SEP        -0.5537
      9 O2P         8.1980  -16.8710  -26.4330 O.co2     1 SEP        -0.5537
     10 O3P         5.8840  -15.6660  -26.3260 O.co2     1 SEP        -0.5537
     11 N           9.7520  -12.2350  -30.4920 N.am      1 GLN        -0.2608
     12 CA         10.7830  -11.3280  -30.9340 C.3       1 GLN         0.1331
     13 C          11.7040  -10.9140  -29.7920 C.2       1 GLN         0.2040
     14 O          11.2500  -10.7040  -28.6670 O.2       1 GLN        -0.3944
     15 CB         10.1430  -10.0870  -31.5510 C.3       1 GLN         0.0045
     16 CG          9.2880  -10.4120  -32.7670 C.3       1 GLN         0.0412
     17 CD         10.1060  -11.0230  -33.8810 C.2       1 GLN         0.1737
     18 OE1        10.3340  -12.2440  -33.9410 O.2       1 GLN        -0.3973
     19 NE2        10.5800  -10.1710  -34.7720 N.am      1 GLN        -0.3009
     20 N          12.9880  -10.7900  -30.1120 N.am      1 GLU        -0.2636
     21 CA         13.9940  -10.2280  -29.2210 C.3       1 GLU         0.1325
     22 C          14.4580   -8.8860  -29.7690 C.2       1 GLU         0.2041
     23 O          14.4270   -8.6510  -30.9760 O.2       1 GLU        -0.3944
     24 CB         15.1780  -11.1960  -29.0700 C.3       1 GLU        -0.0008
     25 CG         14.7890  -12.4510  -28.3240 C.3       1 GLU         0.0044
     26 CD         15.8900  -13.4900  -28.2680 C.2       1 GLU         0.0350
     27 OE1        17.0620  -13.1410  -28.0440 O.co2     1 GLU        -0.5690
     28 OE2        15.5610  -14.6780  -28.4260 O.co2     1 GLU        -0.5690
     29 N          14.8800   -8.0190  -28.8550 N.am      1 TYR        -0.2621
     30 CA         15.1960   -6.6220  -29.1410 C.3       1 TYR         0.1387
     31 C          16.5690   -6.2360  -28.5710 C.2       1 TYR         0.2010
     32 O          17.1120   -6.9090  -27.7080 O.2       1 TYR        -0.3946
     33 CB         14.1130   -5.6940  -28.5330 C.3       1 TYR         0.0163
     34 CG         12.7610   -5.9740  -29.1080 C.ar      1 TYR        -0.0493
     35 CD1        11.9280   -6.9290  -28.5320 C.ar      1 TYR        -0.0685
     36 CD2        12.3210   -5.3170  -30.2510 C.ar      1 TYR        -0.0685
     37 CE1        10.7090   -7.2180  -29.0760 C.ar      1 TYR        -0.0398
     38 CE2        11.1010   -5.6080  -30.8200 C.ar      1 TYR        -0.0398
     39 CZ         10.2810   -6.5480  -30.2120 C.ar      1 TYR         0.0805
     40 OH          9.0570   -6.8310  -30.7620 O.3       1 TYR        -0.3376
     41 N          17.1080   -5.1170  -29.0240 N.am      1 NH2        -0.2988
     42 H           7.8490  -16.1951  -30.2744 H         1 SEP         0.2016
     43 H           8.5743  -15.5925  -31.6483 H         1 SEP         0.2016
     44 H           9.5091  -16.2146  -30.4171 H         1 SEP         0.2016
     45 H           7.8177  -13.8199  -30.2956 H         1 SEP         0.1125
     46 H           8.9521  -13.4560  -28.0455 H         1 SEP         0.0696
     47 H           9.6162  -15.0748  -28.1741 H         1 SEP         0.0696
     48 H           8.8686  -11.8497  -30.1581 H         1 GLN         0.1885
     49 H          11.3874  -11.8480  -31.6772 H         1 GLN         0.0801
     50 H          10.9441   -9.4215  -31.8727 H         1 GLN         0.0337
     51 H           9.4974   -9.6336  -30.7988 H         1 GLN         0.0337
     52 H           8.8478   -9.4848  -33.1340 H         1 GLN         0.0504
     53 H           8.5257  -11.1312  -32.4675 H         1 GLN         0.0504
     54 H          11.1555  -10.5078  -35.5439 H         1 GLN         0.1814
     55 H          10.3706   -9.1763  -34.6882 H         1 GLN         0.1814
     56 H          13.2861  -11.1066  -31.0346 H         1 GLU         0.1883
     57 H          13.5590  -10.0765  -28.2331 H         1 GLU         0.0801
     58 H          15.9615  -10.6916  -28.5046 H         1 GLU         0.0330
     59 H          15.5149  -11.4816  -30.0665 H         1 GLU         0.0330
     60 H          13.9460  -12.8967  -28.8520 H         1 GLU         0.0433
     61 H          14.5592  -12.1631  -27.2981 H         1 GLU         0.0433
     62 H          14.9899   -8.3488  -27.8961 H         1 TYR         0.1885
     63 H          15.2197   -6.5016  -30.2241 H         1 TYR         0.0821
     64 H          14.3770   -4.6614  -28.7614 H         1 TYR         0.0453
     65 H          14.0730   -5.8701  -27.4581 H         1 TYR         0.0453
     66 H          12.2533   -7.4538  -27.6337 H         1 TYR         0.0530
     67 H          12.9545   -4.5558  -30.7064 H         1 TYR         0.0530
     68 H          10.0729   -7.9750  -28.6173 H         1 TYR         0.0525
     69 H          10.7841   -5.1071  -31.7348 H         1 TYR         0.0525
     70 H           8.6141   -7.4956  -30.2294 H         1 TYR         0.2458
     71 H          18.0013   -4.7942  -28.6522 H         1 NH2         0.1815
     72 H          16.6305   -4.5765  -29.7453 H         1 NH2         0.1815
@<TRIPOS>BOND
     1    1    2 1  
     2    2    3 1  
     3    2    5 1  
     4    3    4 1  
     5    4    7 1  
     6    5    6 2  
     7    5   11 am 
     8    7    8 ar 
     9    7    9 ar 
    10    7   10 ar 
    11   11   12 1  
    12   12   13 1  
    13   12   15 1  
    14   13   14 2  
    15   13   20 am 
    16   15   16 1  
    17   16   17 1  
    18   17   18 2  
    19   17   19 am 
    20   20   21 1  
    21   21   22 1  
    22   21   24 1  
    23   22   23 2  
    24   22   29 am 
    25   24   25 1  
    26   25   26 1  
    27   26   27 ar 
    28   26   28 ar 
    29   29   30 1  
    30   30   31 1  
    31   30   33 1  
    32   31   32 2  
    33   31   41 am 
    34   33   34 1  
    35   34   35 ar 
    36   34   36 ar 
    37   35   37 ar 
    38   36   38 ar 
    39   37   39 ar 
    40   38   39 ar 
    41   39   40 1  
    42    1   42 1  
    43    1   43 1  
    44    1   44 1  
    45    2   45 1  
    46    3   46 1  
    47    3   47 1  
    48   11   48 1  
    49   12   49 1  
    50   15   50 1  
    51   15   51 1  
    52   16   52 1  
    53   16   53 1  
    54   19   54 1  
    55   19   55 1  
    56   20   56 1  
    57   21   57 1  
    58   24   58 1  
    59   24   59 1  
    60   25   60 1  
    61   25   61 1  
    62   29   62 1  
    63   30   63 1  
    64   33   64 1  
    65   33   65 1  
    66   35   66 1  
    67   36   67 1  
    68   37   68 1  
    69   38   69 1  
    70   40   70 1  
    71   41   71 1  
    72   41   72 1  
@<TRIPOS>SUBSTRUCTURE
     1 SEP         1

