3k05_ligand
  -I-interpret- 

 75 75  0  0  0  0  0  0  0  0999 V2000
    8.6600  -15.6940  -30.6370 N   0  3  0  0  0
    8.7300  -14.3420  -30.0070 C   0  0  0  0  0
    8.7880  -14.4390  -28.4870 C   0  0  0  0  0
    7.5530  -14.9800  -28.0550 O   0  0  0  0  0
    9.9110  -13.5510  -30.5040 C   0  0  0  0  0
   10.9190  -14.1170  -30.9210 O   0  0  0  0  0
    7.4610  -15.4760  -26.5380 P   0  0  0  0  0
    8.0890  -14.3840  -25.5990 O   0  0  0  0  0
    8.1980  -16.8710  -26.4330 O   0  0  0  0  0
    5.8840  -15.6660  -26.3260 O   0  0  0  0  0
    9.7520  -12.2350  -30.4920 N   0  0  0  0  0
   10.7830  -11.3280  -30.9340 C   0  0  0  0  0
   11.7040  -10.9140  -29.7920 C   0  0  0  0  0
   11.2500  -10.7040  -28.6670 O   0  0  0  0  0
   10.1430  -10.0870  -31.5510 C   0  0  0  0  0
    9.2880  -10.4120  -32.7670 C   0  0  0  0  0
   10.1060  -11.0230  -33.8810 C   0  0  0  0  0
   10.3340  -12.2440  -33.9410 O   0  0  0  0  0
   10.5800  -10.1710  -34.7720 N   0  0  0  0  0
   12.9880  -10.7900  -30.1120 N   0  0  0  0  0
   13.9940  -10.2280  -29.2210 C   0  0  0  0  0
   14.4580   -8.8860  -29.7690 C   0  0  0  0  0
   14.4270   -8.6510  -30.9760 O   0  0  0  0  0
   15.1780  -11.1960  -29.0700 C   0  0  0  0  0
   14.7890  -12.4510  -28.3240 C   0  0  0  0  0
   15.8900  -13.4900  -28.2680 C   0  0  0  0  0
   17.0620  -13.1410  -28.0440 O   0  0  0  0  0
   15.5610  -14.6780  -28.4260 O   0  0  0  0  0
   14.8800   -8.0190  -28.8550 N   0  0  0  0  0
   15.1960   -6.6220  -29.1410 C   0  0  0  0  0
   16.5690   -6.2360  -28.5710 C   0  0  0  0  0
   17.1120   -6.9090  -27.7080 O   0  0  0  0  0
   14.1130   -5.6940  -28.5330 C   0  0  0  0  0
   12.7610   -5.9740  -29.1080 C   0  0  0  0  0
   11.9280   -6.9290  -28.5320 C   0  0  0  0  0
   12.3210   -5.3170  -30.2510 C   0  0  0  0  0
   10.7090   -7.2180  -29.0760 C   0  0  0  0  0
   11.1010   -5.6080  -30.8200 C   0  0  0  0  0
   10.2810   -6.5480  -30.2120 C   0  0  0  0  0
    9.0570   -6.8310  -30.7620 O   0  0  0  0  0
   17.1080   -5.1170  -29.0240 N   0  0  0  0  0
    7.8490  -16.1951  -30.2744 H   0  0  0  0  0
    8.5743  -15.5925  -31.6483 H   0  0  0  0  0
    9.5091  -16.2146  -30.4171 H   0  0  0  0  0
    7.8177  -13.8199  -30.2956 H   0  0  0  0  0
    8.9521  -13.4560  -28.0455 H   0  0  0  0  0
    9.6162  -15.0748  -28.1741 H   0  0  0  0  0
    7.7768  -17.4994  -27.0240 H   0  0  0  0  0
    5.5610  -16.3430  -26.9251 H   0  0  0  0  0
    8.8686  -11.8497  -30.1581 H   0  0  0  0  0
   11.3874  -11.8480  -31.6772 H   0  0  0  0  0
   10.9441   -9.4215  -31.8727 H   0  0  0  0  0
    9.4974   -9.6336  -30.7988 H   0  0  0  0  0
    8.8478   -9.4848  -33.1340 H   0  0  0  0  0
    8.5257  -11.1312  -32.4675 H   0  0  0  0  0
   11.1555  -10.5078  -35.5439 H   0  0  0  0  0
   10.3706   -9.1763  -34.6882 H   0  0  0  0  0
   13.2861  -11.1066  -31.0346 H   0  0  0  0  0
   13.5590  -10.0765  -28.2331 H   0  0  0  0  0
   15.9615  -10.6916  -28.5046 H   0  0  0  0  0
   15.5149  -11.4816  -30.0665 H   0  0  0  0  0
   13.9460  -12.8967  -28.8520 H   0  0  0  0  0
   14.5592  -12.1631  -27.2981 H   0  0  0  0  0
   17.0987  -12.1859  -27.9546 H   0  0  0  0  0
   14.9899   -8.3488  -27.8961 H   0  0  0  0  0
   15.2197   -6.5016  -30.2241 H   0  0  0  0  0
   14.3770   -4.6614  -28.7614 H   0  0  0  0  0
   14.0730   -5.8701  -27.4581 H   0  0  0  0  0
   12.2533   -7.4538  -27.6337 H   0  0  0  0  0
   12.9545   -4.5558  -30.7064 H   0  0  0  0  0
   10.0729   -7.9750  -28.6173 H   0  0  0  0  0
   10.7841   -5.1071  -31.7348 H   0  0  0  0  0
    8.9207   -6.2810  -31.5369 H   0  0  0  0  0
   18.0013   -4.7942  -28.6522 H   0  0  0  0  0
   16.6305   -4.5765  -29.7453 H   0  0  0  0  0
  1  2  1  0  0  0
  2  3  1  0  0  0
  2  5  1  0  0  0
  3  4  1  0  0  0
  4  7  1  0  0  0
  5  6  2  0  0  0
  5 11  1  0  0  0
  7  8  2  0  0  0
  7  9  1  0  0  0
  7 10  1  0  0  0
 11 12  1  0  0  0
 12 13  1  0  0  0
 12 15  1  0  0  0
 13 14  2  0  0  0
 13 20  1  0  0  0
 15 16  1  0  0  0
 16 17  1  0  0  0
 17 18  2  0  0  0
 17 19  1  0  0  0
 20 21  1  0  0  0
 21 22  1  0  0  0
 21 24  1  0  0  0
 22 23  2  0  0  0
 22 29  1  0  0  0
 24 25  1  0  0  0
 25 26  1  0  0  0
 26 27  1  0  0  0
 26 28  2  0  0  0
 29 30  1  0  0  0
 30 31  1  0  0  0
 30 33  1  0  0  0
 31 32  2  0  0  0
 31 41  1  0  0  0
 33 34  1  0  0  0
 34 35  4  0  0  0
 34 36  4  0  0  0
 35 37  4  0  0  0
 36 38  4  0  0  0
 37 39  4  0  0  0
 38 39  4  0  0  0
 39 40  1  0  0  0
  1 42  1  0  0  0
  1 43  1  0  0  0
  1 44  1  0  0  0
  2 45  1  0  0  0
  3 46  1  0  0  0
  3 47  1  0  0  0
  9 48  1  0  0  0
 10 49  1  0  0  0
 11 50  1  0  0  0
 12 51  1  0  0  0
 15 52  1  0  0  0
 15 53  1  0  0  0
 16 54  1  0  0  0
 16 55  1  0  0  0
 19 56  1  0  0  0
 19 57  1  0  0  0
 20 58  1  0  0  0
 21 59  1  0  0  0
 24 60  1  0  0  0
 24 61  1  0  0  0
 25 62  1  0  0  0
 25 63  1  0  0  0
 27 64  1  0  0  0
 29 65  1  0  0  0
 30 66  1  0  0  0
 33 67  1  0  0  0
 33 68  1  0  0  0
 35 69  1  0  0  0
 36 70  1  0  0  0
 37 71  1  0  0  0
 38 72  1  0  0  0
 40 73  1  0  0  0
 41 74  1  0  0  0
 41 75  1  0  0  0
M  END
$$$$
