### 
### Created by X-TOOL on Mon Sep 10 21:13:11 2018
### 

@<TRIPOS>MOLECULE
4dk5_ligand
   61    64     1     0     0
SMALL
GAST_HUCK


@<TRIPOS>ATOM
      1 C31        28.8560   11.6840   20.6950 C.3       1 0KO         0.0605
      2 O30        27.9590   12.3380   19.7860 O.3       1 0KO        -0.3097
      3 C27        26.8160   12.7730   20.3880 C.ar      1 0KO         0.1524
      4 C28        25.8730   13.4540   19.6180 C.ar      1 0KO        -0.0133
      5 C29        24.6990   13.8920   20.2200 C.ar      1 0KO        -0.0266
      6 N26        26.5930   12.5470   21.6990 N.ar      1 0KO        -0.2855
      7 C25        25.4880   12.9610   22.2990 C.ar      1 0KO         0.0223
      8 C24        24.5090   13.6480   21.5850 C.ar      1 0KO         0.0789
      9 N7         23.4060   14.0430   22.2200 N.pl3     1 0KO        -0.2581
     10 C2         22.8560   15.2520   22.0660 C.ar      1 0KO         0.1448
     11 N1         23.4940   16.2190   21.3690 N.ar      1 0KO        -0.2811
     12 C6         22.9770   17.4220   21.1890 C.ar      1 0KO         0.0020
     13 C5         21.7360   17.7290   21.7440 C.ar      1 0KO        -0.0422
     14 C9         21.1430   19.1230   21.5430 C.3       1 0KO        -0.0748
     15 N10        20.4110   19.1080   20.2730 N.4       1 0KO         0.4099
     16 C15        20.8160   20.2310   19.4090 C.3       1 0KO        -0.0930
     17 C14        20.1100   20.0580   18.0590 C.3       1 0KO         0.0109
     18 C11        18.9620   19.1440   20.5410 C.3       1 0KO        -0.0930
     19 C12        18.2580   18.8820   19.2120 C.3       1 0KO         0.0109
     20 N13        18.6450   19.9420   18.2570 N.am      1 0KO        -0.2426
     21 S16        17.9230   19.6880   16.8060 S.o2      1 0KO         0.0384
     22 C32        16.9950   21.1470   16.3680 C.3       1 0KO         0.0734
     23 O34        16.9860   18.5030   16.8520 O.2       1 0KO        -0.1556
     24 O33        18.9830   19.4420   15.7710 O.2       1 0KO        -0.1556
     25 C4         21.0410   16.7620   22.4750 C.ar      1 0KO        -0.0350
     26 C3         21.6070   15.5010   22.6310 C.ar      1 0KO         0.0664
     27 C8         20.9620   14.5150   23.3740 C.ar      1 0KO         0.1140
     28 N21        19.6700   14.6190   23.7270 N.ar      1 0KO        -0.2363
     29 N17        21.6660   13.4480   23.7830 N.ar      1 0KO        -0.2567
     30 C18        21.0850   12.4900   24.5150 C.ar      1 0KO         0.0930
     31 C22        21.9120   11.2920   24.9580 C.3       1 0KO         0.0047
     32 N19        19.7920   12.5920   24.8550 N.ar      1 0KO        -0.2329
     33 C20        19.0870   13.6600   24.4660 C.ar      1 0KO         0.1879
     34 N23        17.8080   13.7610   24.8110 N.pl3     1 0KO        -0.2993
     35 H          29.1405   12.3785   21.4855 H         1 0KO         0.0579
     36 H          28.3602   10.8173   21.1322 H         1 0KO         0.0579
     37 H          29.7464   11.3611   20.1555 H         1 0KO         0.0579
     38 H          26.0541   13.6400   18.5594 H         1 0KO         0.0611
     39 H          23.9400   14.4161   19.6393 H         1 0KO         0.0631
     40 H          25.3430   12.7626   23.3609 H         1 0KO         0.0701
     41 H          22.9565   13.3869   22.8587 H         1 0KO         0.2130
     42 H          23.5183   18.1700   20.6096 H         1 0KO         0.0765
     43 H          21.9321   19.8746   21.5207 H         1 0KO         0.0174
     44 H          20.4752   19.3768   22.3663 H         1 0KO         0.0174
     45 H          21.8976   20.2349   19.2739 H         1 0KO         0.0036
     46 H          20.5359   21.1807   19.8648 H         1 0KO         0.0036
     47 H          20.4775   19.1514   17.5783 H         1 0KO         0.0458
     48 H          20.3175   20.9269   17.4344 H         1 0KO         0.0458
     49 H          18.6685   20.1109   20.9498 H         1 0KO         0.0036
     50 H          18.6867   18.3908   21.2793 H         1 0KO         0.0036
     51 H          17.1776   18.8886   19.3564 H         1 0KO         0.0458
     52 H          18.5504   17.9067   18.8228 H         1 0KO         0.0458
     53 H          16.5351   21.0036   15.3902 H         1 0KO         0.0482
     54 H          16.2193   21.3202   17.1139 H         1 0KO         0.0482
     55 H          17.6655   22.0057   16.3331 H         1 0KO         0.0482
     56 H          20.0710   16.9921   22.9158 H         1 0KO         0.0695
     57 H          22.2935   10.7708   24.0800 H         1 0KO         0.0484
     58 H          22.7465   11.6345   25.5699 H         1 0KO         0.0484
     59 H          21.2864   10.6156   25.5403 H         1 0KO         0.0484
     60 H          17.3707   13.0273   25.3685 H         1 0KO         0.1862
     61 H          17.2634   14.5723   24.5184 H         1 0KO         0.1862
@<TRIPOS>BOND
     1    1    2 1  
     2    2    3 1  
     3    3    4 ar 
     4    3    6 ar 
     5    4    5 ar 
     6    5    8 ar 
     7    6    7 ar 
     8    7    8 ar 
     9    8    9 1  
    10    9   10 1  
    11   10   11 ar 
    12   10   26 ar 
    13   11   12 ar 
    14   12   13 ar 
    15   13   14 1  
    16   13   25 ar 
    17   14   15 1  
    18   15   16 1  
    19   15   18 1  
    20   16   17 1  
    21   17   20 1  
    22   18   19 1  
    23   19   20 1  
    24   20   21 am 
    25   21   22 1  
    26   21   23 2  
    27   21   24 2  
    28   25   26 ar 
    29   26   27 1  
    30   27   28 ar 
    31   27   29 ar 
    32   28   33 ar 
    33   29   30 ar 
    34   30   31 1  
    35   30   32 ar 
    36   32   33 ar 
    37   33   34 1  
    38    1   35 1  
    39    1   36 1  
    40    1   37 1  
    41    4   38 1  
    42    5   39 1  
    43    7   40 1  
    44    9   41 1  
    45   12   42 1  
    46   14   43 1  
    47   14   44 1  
    48   16   45 1  
    49   16   46 1  
    50   17   47 1  
    51   17   48 1  
    52   18   49 1  
    53   18   50 1  
    54   19   51 1  
    55   19   52 1  
    56   22   53 1  
    57   22   54 1  
    58   22   55 1  
    59   25   56 1  
    60   31   57 1  
    61   31   58 1  
    62   31   59 1  
    63   34   60 1  
    64   34   61 1  
@<TRIPOS>SUBSTRUCTURE
     1 0KO         1

