4dk5_ligand
  -I-interpret- 

 62 65  0  0  0  0  0  0  0  0999 V2000
   28.8560   11.6840   20.6950 C   0  0  0  0  0
   27.9590   12.3380   19.7860 O   0  0  0  0  0
   26.8160   12.7730   20.3880 C   0  0  0  0  0
   25.8730   13.4540   19.6180 C   0  0  0  0  0
   24.6990   13.8920   20.2200 C   0  0  0  0  0
   26.5930   12.5470   21.6990 N   0  0  0  0  0
   25.4880   12.9610   22.2990 C   0  0  0  0  0
   24.5090   13.6480   21.5850 C   0  0  0  0  0
   23.4060   14.0430   22.2200 N   0  0  0  0  0
   22.8560   15.2520   22.0660 C   0  0  0  0  0
   23.4940   16.2190   21.3690 N   0  0  0  0  0
   22.9770   17.4220   21.1890 C   0  0  0  0  0
   21.7360   17.7290   21.7440 C   0  0  0  0  0
   21.1430   19.1230   21.5430 C   0  0  0  0  0
   20.4110   19.1080   20.2730 N   0  3  0  0  0
   20.8160   20.2310   19.4090 C   0  0  0  0  0
   20.1100   20.0580   18.0590 C   0  0  0  0  0
   18.9620   19.1440   20.5410 C   0  0  0  0  0
   18.2580   18.8820   19.2120 C   0  0  0  0  0
   18.6450   19.9420   18.2570 N   0  0  0  0  0
   17.9230   19.6880   16.8060 S   0  0  0  0  0
   16.9950   21.1470   16.3680 C   0  0  0  0  0
   16.9860   18.5030   16.8520 O   0  0  0  0  0
   18.9830   19.4420   15.7710 O   0  0  0  0  0
   21.0410   16.7620   22.4750 C   0  0  0  0  0
   21.6070   15.5010   22.6310 C   0  0  0  0  0
   20.9620   14.5150   23.3740 C   0  0  0  0  0
   19.6700   14.6190   23.7270 N   0  0  0  0  0
   21.6660   13.4480   23.7830 N   0  0  0  0  0
   21.0850   12.4900   24.5150 C   0  0  0  0  0
   21.9120   11.2920   24.9580 C   0  0  0  0  0
   19.7920   12.5920   24.8550 N   0  0  0  0  0
   19.0870   13.6600   24.4660 C   0  0  0  0  0
   17.8080   13.7610   24.8110 N   0  0  0  0  0
   29.1405   12.3785   21.4855 H   0  0  0  0  0
   28.3602   10.8173   21.1322 H   0  0  0  0  0
   29.7464   11.3611   20.1555 H   0  0  0  0  0
   26.0541   13.6400   18.5594 H   0  0  0  0  0
   23.9400   14.4161   19.6393 H   0  0  0  0  0
   25.3430   12.7626   23.3609 H   0  0  0  0  0
   22.9565   13.3869   22.8587 H   0  0  0  0  0
   23.5183   18.1700   20.6096 H   0  0  0  0  0
   21.9321   19.8746   21.5207 H   0  0  0  0  0
   20.4752   19.3768   22.3663 H   0  0  0  0  0
   20.6366   18.2474   19.7741 H   0  0  0  0  0
   21.8976   20.2349   19.2739 H   0  0  0  0  0
   20.5359   21.1807   19.8648 H   0  0  0  0  0
   20.4775   19.1514   17.5783 H   0  0  0  0  0
   20.3175   20.9269   17.4344 H   0  0  0  0  0
   18.6685   20.1109   20.9498 H   0  0  0  0  0
   18.6867   18.3908   21.2793 H   0  0  0  0  0
   17.1776   18.8886   19.3564 H   0  0  0  0  0
   18.5504   17.9067   18.8228 H   0  0  0  0  0
   16.5351   21.0036   15.3902 H   0  0  0  0  0
   16.2193   21.3202   17.1139 H   0  0  0  0  0
   17.6655   22.0057   16.3331 H   0  0  0  0  0
   20.0710   16.9921   22.9158 H   0  0  0  0  0
   22.2935   10.7708   24.0800 H   0  0  0  0  0
   22.7465   11.6345   25.5699 H   0  0  0  0  0
   21.2864   10.6156   25.5403 H   0  0  0  0  0
   17.2622   14.5702   24.5148 H   0  0  0  0  0
   17.3718   13.0293   25.3721 H   0  0  0  0  0
  1  2  1  0  0  0
  2  3  1  0  0  0
  3  4  4  0  0  0
  3  6  4  0  0  0
  4  5  4  0  0  0
  5  8  4  0  0  0
  6  7  4  0  0  0
  7  8  4  0  0  0
  8  9  1  0  0  0
  9 10  1  0  0  0
 10 11  4  0  0  0
 10 26  4  0  0  0
 11 12  4  0  0  0
 12 13  4  0  0  0
 13 14  1  0  0  0
 13 25  4  0  0  0
 14 15  1  0  0  0
 15 16  1  0  0  0
 15 18  1  0  0  0
 16 17  1  0  0  0
 17 20  1  0  0  0
 18 19  1  0  0  0
 19 20  1  0  0  0
 20 21  1  0  0  0
 21 22  1  0  0  0
 21 23  2  0  0  0
 21 24  2  0  0  0
 25 26  4  0  0  0
 26 27  1  0  0  0
 27 28  4  0  0  0
 27 29  4  0  0  0
 28 33  4  0  0  0
 29 30  4  0  0  0
 30 31  1  0  0  0
 30 32  4  0  0  0
 32 33  4  0  0  0
 33 34  1  0  0  0
  1 35  1  0  0  0
  1 36  1  0  0  0
  1 37  1  0  0  0
  4 38  1  0  0  0
  5 39  1  0  0  0
  7 40  1  0  0  0
  9 41  1  0  0  0
 12 42  1  0  0  0
 14 43  1  0  0  0
 14 44  1  0  0  0
 15 45  1  0  0  0
 16 46  1  0  0  0
 16 47  1  0  0  0
 17 48  1  0  0  0
 17 49  1  0  0  0
 18 50  1  0  0  0
 18 51  1  0  0  0
 19 52  1  0  0  0
 19 53  1  0  0  0
 22 54  1  0  0  0
 22 55  1  0  0  0
 22 56  1  0  0  0
 25 57  1  0  0  0
 31 58  1  0  0  0
 31 59  1  0  0  0
 31 60  1  0  0  0
 34 61  1  0  0  0
 34 62  1  0  0  0
M  END
$$$$
