1g35_ligand
  -I-interpret- 

 85 89  0  0  0  0  0  0  0  0999 V2000
   11.5940   23.9220    6.1630 N   0  0  0  0  0
   11.9410   22.2880    6.4770 S   0  0  0  0  0
   13.6100   22.4220    6.2590 N   0  0  0  0  0
   14.0230   22.3010    4.8410 C   0  0  0  0  0
   14.1580   23.7760    4.2980 C   0  0  0  0  0
   13.1870   24.8630    4.8690 C   0  0  0  0  0
   11.6810   24.6340    4.8560 C   0  0  0  0  0
   10.3120   24.2390    6.7270 C   0  0  0  0  0
    9.7360   25.4500    7.3510 C   0  0  0  0  0
    8.3410   25.7480    7.1780 C   0  0  0  0  0
    7.7670   26.9120    7.7710 C   0  0  0  0  0
    8.6140   27.8160    8.5670 C   0  0  0  0  0
   10.0490   27.5180    8.7510 C   0  0  0  0  0
   10.6010   26.3260    8.1350 C   0  0  0  0  0
   11.3080   21.4690    5.4610 O   0  0  0  0  0
   15.0160   20.4680    3.5760 O   0  0  0  0  0
   15.9550   19.4950    3.2610 C   0  0  0  0  0
   16.1570   19.1200    1.8770 C   0  0  0  0  0
   17.1490   18.0940    1.5230 C   0  0  0  0  0
   17.9430   17.4410    2.5640 C   0  0  0  0  0
   17.7530   17.8010    3.9510 C   0  0  0  0  0
   16.7620   18.8250    4.3050 C   0  0  0  0  0
   14.5080   22.8020    7.4110 C   0  0  0  0  0
   15.4130   21.9020    8.1780 C   0  0  0  0  0
   14.8810   20.9530    9.1430 C   0  0  0  0  0
   15.8050   20.0760    9.9020 C   0  0  0  0  0
   17.2700   20.1600    9.6870 C   0  0  0  0  0
   17.7940   21.1320    8.6980 C   0  0  0  0  0
   16.8630   21.9900    7.9570 C   0  0  0  0  0
   15.4240   24.3250    4.5120 O   0  0  0  0  0
   13.4210   26.0160    4.1760 O   0  0  0  0  0
   11.1270   23.8230    3.6070 C   0  0  0  0  0
    9.7070   23.7250    3.7470 O   0  0  0  0  0
    8.7690   24.4600    3.1760 C   0  0  0  0  0
    9.0910   25.5560    2.2410 C   0  0  0  0  0
    8.0400   26.3370    1.6340 C   0  0  0  0  0
    6.6590   26.0340    1.9530 C   0  0  0  0  0
    6.3380   24.9610    2.8700 C   0  0  0  0  0
    7.3950   24.1770    3.4790 C   0  0  0  0  0
   11.7370   22.0060    7.8330 O   0  0  0  0  0
   15.3360   21.4790    4.6100 C   0  0  0  0  0
   18.1060   19.3720   10.3740 C   0  0  0  0  0
   17.7020   18.8050   11.5520 O   0  0  0  0  0
   19.3410   19.1480    9.9160 O   0  0  0  0  0
   18.5400   18.0000   12.2860 C   0  0  0  0  0
    8.1470   28.8530    9.1110 C   0  0  0  0  0
    7.6480   29.6750    8.1760 O   0  0  0  0  0
   13.2710   21.7278    4.2988 H   0  0  0  0  0
   13.9144   23.5909    3.2518 H   0  0  0  0  0
   13.4248   24.8634    5.9327 H   0  0  0  0  0
   11.0623   25.5252    4.7506 H   0  0  0  0  0
   10.3560   23.6014    7.6099 H   0  0  0  0  0
    9.7193   24.2248    5.8123 H   0  0  0  0  0
    7.7152   25.0784    6.5880 H   0  0  0  0  0
    6.7078   27.1307    7.6356 H   0  0  0  0  0
   10.6822   28.1821    9.3393 H   0  0  0  0  0
   11.6571   26.0857    8.2572 H   0  0  0  0  0
   15.5708   19.6007    1.0938 H   0  0  0  0  0
   17.2937   17.8182    0.4785 H   0  0  0  0  0
   18.6780   16.6829    2.2936 H   0  0  0  0  0
   18.3417   17.3153    4.7292 H   0  0  0  0  0
   16.6187   19.0954    5.3512 H   0  0  0  0  0
   13.7784   23.0761    8.1730 H   0  0  0  0  0
   15.2236   23.4611    6.9195 H   0  0  0  0  0
   13.8056   20.8865    9.3080 H   0  0  0  0  0
   15.4043   19.3640   10.6236 H   0  0  0  0  0
   18.8670   21.2089    8.5220 H   0  0  0  0  0
   17.2529   22.7038    7.2313 H   0  0  0  0  0
   16.0936   23.7183    4.1879 H   0  0  0  0  0
   14.3642   26.1941    4.1626 H   0  0  0  0  0
   11.5740   22.8295    3.5714 H   0  0  0  0  0
   11.3821   24.3348    2.6791 H   0  0  0  0  0
   10.1323   25.7775    2.0068 H   0  0  0  0  0
    8.2820   27.1452    0.9438 H   0  0  0  0  0
    5.8576   26.6175    1.4998 H   0  0  0  0  0
    5.2963   24.7412    3.1040 H   0  0  0  0  0
    7.1454   23.3707    4.1687 H   0  0  0  0  0
   15.6693   21.0044    5.5329 H   0  0  0  0  0
   16.1520   22.1256    4.2873 H   0  0  0  0  0
   18.8353   17.1405   11.6842 H   0  0  0  0  0
   19.4262   18.5660   12.5729 H   0  0  0  0  0
   18.0207   17.6573   13.1810 H   0  0  0  0  0
    8.9435   29.3649    9.6511 H   0  0  0  0  0
    7.3523   28.5696    9.8011 H   0  0  0  0  0
    7.2948   30.4614    8.5984 H   0  0  0  0  0
  1  8  1  0  0  0
  1  7  1  0  0  0
  1  2  1  0  0  0
  2 40  2  0  0  0
  2 15  2  0  0  0
  2  3  1  0  0  0
  3 23  1  0  0  0
  3  4  1  0  0  0
  4 41  1  0  0  0
  4  5  1  0  0  0
  5 30  1  0  0  0
  5  6  1  0  0  0
  6 31  1  0  0  0
  6  7  1  0  0  0
  7 32  1  0  0  0
 32 33  1  0  0  0
 33 34  1  0  0  0
 34 39  4  0  0  0
 34 35  4  0  0  0
 35 36  4  0  0  0
 36 37  4  0  0  0
 37 38  4  0  0  0
 38 39  4  0  0  0
 41 16  1  0  0  0
 16 17  1  0  0  0
 17 22  4  0  0  0
 17 18  4  0  0  0
 18 19  4  0  0  0
 19 20  4  0  0  0
 20 21  4  0  0  0
 21 22  4  0  0  0
 23 24  1  0  0  0
 24 29  4  0  0  0
 24 25  4  0  0  0
 25 26  4  0  0  0
 26 27  4  0  0  0
 27 42  1  0  0  0
 27 28  4  0  0  0
 28 29  4  0  0  0
 42 44  2  0  0  0
 42 43  1  0  0  0
 43 45  1  0  0  0
  8  9  1  0  0  0
  9 14  4  0  0  0
  9 10  4  0  0  0
 10 11  4  0  0  0
 11 12  4  0  0  0
 12 46  1  0  0  0
 12 13  4  0  0  0
 13 14  4  0  0  0
 46 47  1  0  0  0
  4 48  1  0  0  0
  5 49  1  0  0  0
  6 50  1  0  0  0
  7 51  1  0  0  0
  8 52  1  0  0  0
  8 53  1  0  0  0
 10 54  1  0  0  0
 11 55  1  0  0  0
 13 56  1  0  0  0
 14 57  1  0  0  0
 18 58  1  0  0  0
 19 59  1  0  0  0
 20 60  1  0  0  0
 21 61  1  0  0  0
 22 62  1  0  0  0
 23 63  1  0  0  0
 23 64  1  0  0  0
 25 65  1  0  0  0
 26 66  1  0  0  0
 28 67  1  0  0  0
 29 68  1  0  0  0
 30 69  1  0  0  0
 31 70  1  0  0  0
 32 71  1  0  0  0
 32 72  1  0  0  0
 35 73  1  0  0  0
 36 74  1  0  0  0
 37 75  1  0  0  0
 38 76  1  0  0  0
 39 77  1  0  0  0
 41 78  1  0  0  0
 41 79  1  0  0  0
 45 80  1  0  0  0
 45 81  1  0  0  0
 45 82  1  0  0  0
 46 83  1  0  0  0
 46 84  1  0  0  0
 47 85  1  0  0  0
M  END
$$$$
