### 
### Created by X-TOOL on Mon Sep 10 21:12:58 2018
### 

@<TRIPOS>MOLECULE
3bgm_ligand
  144   143     1     0     0
SMALL
GAST_HUCK


@<TRIPOS>ATOM
      1 N          26.1850  -37.9470   -5.3770 N.4       1 ARG         0.2379
      2 CA         27.6220  -37.9690   -5.0050 C.3       1 ARG         0.0651
      3 C          28.5630  -37.6530   -6.1740 C.2       1 ARG         0.2267
      4 O          28.5110  -38.3240   -7.2100 O.2       1 ARG        -0.3907
      5 CB         27.9770  -39.3430   -4.4180 C.3       1 ARG         0.0110
      6 CG         29.3850  -39.3940   -3.8800 C.3       1 ARG        -0.0125
      7 CD         29.7720  -40.7720   -3.3110 C.3       1 ARG         0.0629
      8 NE         31.1880  -40.8020   -2.9310 N.pl3     1 ARG        -0.2723
      9 CZ         31.6400  -41.1870   -1.7370 C.cat     1 ARG         0.2882
     10 NH1        30.7740  -41.6070   -0.8120 N.pl3     1 ARG        -0.2849
     11 NH2        32.9570  -41.1740   -1.4790 N.pl3     1 ARG        -0.2849
     12 N          29.4300  -36.6460   -6.0060 N.am      1 GLN        -0.2609
     13 CA         30.3840  -36.2210   -7.0420 C.3       1 GLN         0.1331
     14 C          31.5130  -37.2350   -7.2540 C.2       1 GLN         0.2040
     15 O          31.8850  -37.9750   -6.3350 O.2       1 GLN        -0.3944
     16 CB         31.0360  -34.8850   -6.6560 C.3       1 GLN         0.0045
     17 CG         30.1110  -33.7270   -6.6680 C.3       1 GLN         0.0412
     18 CD         30.7300  -32.5580   -5.9630 C.2       1 GLN         0.1737
     19 OE1        31.3380  -31.6770   -6.6100 O.2       1 GLN        -0.3973
     20 NE2        30.6630  -32.5550   -4.6360 N.am      1 GLN        -0.3009
     21 N          32.0810  -37.2110   -8.4540 N.am      1 ALA        -0.2640
     22 CA         33.3100  -37.9770   -8.7620 C.3       1 ALA         0.1282
     23 C          34.5060  -37.4930   -7.9510 C.2       1 ALA         0.2037
     24 O          34.6250  -36.2930   -7.6720 O.2       1 ALA        -0.3944
     25 CB         33.6360  -37.8720  -10.2510 C.3       1 ALA        -0.0244
     26 N          35.3920  -38.4290   -7.6020 N.am      1 SEP        -0.2613
     27 CA         36.5500  -38.1350   -6.7610 C.3       1 SEP         0.1586
     28 CB         36.7250  -39.1870   -5.6570 C.3       1 SEP         0.1184
     29 OG         35.5790  -39.2020   -4.8190 O.3       1 SEP        -0.2714
     30 C          37.8280  -38.0160   -7.5830 C.2       1 SEP         0.2065
     31 O          38.7830  -38.7960   -7.4130 O.2       1 SEP        -0.3943
     32 P          35.8380  -39.3120   -3.2420 P.3       1 SEP         0.2010
     33 O1P        34.4240  -39.1200   -2.5330 O.co2     1 SEP        -0.5537
     34 O2P        36.8930  -38.2000   -2.7540 O.co2     1 SEP        -0.5537
     35 O3P        36.4390  -40.7680   -2.9390 O.co2     1 SEP        -0.5537
     36 N          37.8430  -37.0420   -8.4790 N.am      1 LEU        -0.2636
     37 CA         39.0390  -36.7680   -9.2840 C.3       1 LEU         0.1312
     38 C          39.1720  -35.2930   -9.5870 C.2       1 LEU         0.2040
     39 O          38.1780  -34.5810   -9.6710 O.2       1 LEU        -0.3944
     40 CB         39.0360  -37.5910  -10.5770 C.3       1 LEU        -0.0101
     41 CG         37.7130  -37.8880  -11.2940 C.3       1 LEU        -0.0425
     42 CD1        37.1950  -36.7160  -12.1230 C.3       1 LEU        -0.0625
     43 CD2        37.8600  -39.1330  -12.1740 C.3       1 LEU        -0.0625
     44 N          40.4060  -34.8340   -9.7420 N.am      1 SER        -0.2616
     45 CA         40.6280  -33.4590  -10.1380 C.3       1 SER         0.1539
     46 C          41.2390  -33.4890  -11.5190 C.2       1 SER         0.2062
     47 O          42.2270  -34.1900  -11.7480 O.2       1 SER        -0.3943
     48 CB         41.5580  -32.7450   -9.1600 C.3       1 SER         0.0843
     49 OG         42.4080  -31.8470   -9.8690 O.3       1 SER        -0.3903
     50 N          40.6390  -32.7610  -12.4500 N.am      1 ILE        -0.2634
     51 CA         41.2010  -32.6830  -13.7960 C.3       1 ILE         0.1335
     52 C          41.1950  -31.2580  -14.3230 C.2       1 ILE         0.2042
     53 O          40.2710  -30.4900  -14.0510 O.2       1 ILE        -0.3944
     54 CB         40.5430  -33.6690  -14.8040 C.3       1 ILE        -0.0037
     55 CG1        39.0350  -33.4520  -14.8900 C.3       1 ILE        -0.0491
     56 CG2        40.8970  -35.1350  -14.4610 C.3       1 ILE        -0.0582
     57 CD1        38.2830  -34.5460  -15.6660 C.3       1 ILE        -0.0648
     58 N          42.2560  -30.9110  -15.0520 N.am      1 SER        -0.2616
     59 CA         42.4160  -29.5970  -15.6510 C.3       1 SER         0.1539
     60 C          42.6400  -29.8000  -17.1430 C.2       1 SER         0.2056
     61 O          43.2730  -30.7850  -17.5410 O.2       1 SER        -0.3943
     62 CB         43.6320  -28.8780  -15.0670 C.3       1 SER         0.0843
     63 OG         43.6370  -28.8790  -13.6520 O.3       1 SER        -0.3903
     64 N          42.1480  -28.8640  -17.9490 N.am      1 VAL        -0.2692
     65 CA         42.2710  -28.9540  -19.4110 C.3       1 VAL         0.0967
     66 C          43.7090  -28.6790  -19.8520 C.2       1 VAL         0.0603
     67 O          44.0650  -28.9490  -21.0180 O.co2     1 VAL        -0.5666
     68 CB         41.2930  -27.9770  -20.1540 C.3       1 VAL        -0.0118
     69 CG1        39.8350  -28.2600  -19.7260 C.3       1 VAL        -0.0590
     70 CG2        41.6730  -26.5020  -19.9270 C.3       1 VAL        -0.0590
     71 OXT        44.5220  -28.1540  -19.0680 O.co2     1 VAL        -0.5666
     72 H1         25.6249  -38.1618   -4.5669 H         1 ARG         0.2015
     73 H2         26.0134  -38.6328   -6.0956 H         1 ARG         0.2015
     74 H3         25.9409  -37.0315   -5.7210 H         1 ARG         0.2015
     75 H4         27.7805  -37.2046   -4.2300 H         1 ARG         0.1098
     76 H5         27.8733  -40.1017   -5.2077 H         1 ARG         0.0347
     77 H6         27.2780  -39.5682   -3.5991 H         1 ARG         0.0347
     78 H7         29.4795  -38.6466   -3.0784 H         1 ARG         0.0302
     79 H8         30.0795  -39.1461   -4.6962 H         1 ARG         0.0302
     80 H9         29.5877  -41.5418   -4.0748 H         1 ARG         0.0689
     81 H10        29.1565  -40.9811   -2.4237 H         1 ARG         0.0689
     82 H11        31.8802  -40.5057   -3.6338 H         1 ARG         0.2642
     83 H12        31.1136  -41.9064    0.1132 H         1 ARG         0.2615
     84 H13        29.7662  -41.6317   -1.0235 H         1 ARG         0.2615
     85 H14        33.6194  -40.8486   -2.1975 H         1 ARG         0.2615
     86 H15        33.3054  -41.4894   -0.5625 H         1 ARG         0.2615
     87 H16        29.4287  -36.1588   -5.1327 H         1 GLN         0.1885
     88 H17        29.8344  -36.0977   -7.9868 H         1 GLN         0.0801
     89 H18        31.8510  -34.6818   -7.3663 H         1 GLN         0.0337
     90 H19        31.4499  -34.9843   -5.6417 H         1 GLN         0.0337
     91 H20        29.1763  -34.0042   -6.1587 H         1 GLN         0.0504
     92 H21        29.8924  -33.4482   -7.7094 H         1 GLN         0.0504
     93 H22        31.0605  -31.7983   -4.1170 H         1 GLN         0.1814
     94 H23        30.2151  -33.3095   -4.1563 H         1 GLN         0.1814
     95 H24        31.6644  -36.6565   -9.1744 H         1 ALA         0.1883
     96 H25        33.1275  -39.0329   -8.5136 H         1 ALA         0.0797
     97 H26        34.5500  -38.4444  -10.4675 H         1 ALA         0.0277
     98 H27        33.7924  -36.8166  -10.5186 H         1 ALA         0.0277
     99 H28        32.8004  -38.2794  -10.8390 H         1 ALA         0.0277
    100 H29        35.2582  -39.3649   -7.9280 H         1 SEP         0.1884
    101 H30        36.3702  -37.1641   -6.2762 H         1 SEP         0.0827
    102 H31        37.6131  -38.9413   -5.0563 H         1 SEP         0.0662
    103 H32        36.8550  -40.1786   -6.1151 H         1 SEP         0.0662
    104 H33        37.0245  -36.4826   -8.6098 H         1 LEU         0.1883
    105 H34        39.9166  -37.0707   -8.6940 H         1 LEU         0.0800
    106 H35        39.4916  -38.5628  -10.3360 H         1 LEU         0.0315
    107 H36        39.6734  -37.0554  -11.2959 H         1 LEU         0.0315
    108 H37        36.9603  -38.1029  -10.5212 H         1 LEU         0.0298
    109 H38        36.2482  -36.9989  -12.6062 H         1 LEU         0.0232
    110 H39        37.9361  -36.4556  -12.8930 H         1 LEU         0.0232
    111 H40        37.0273  -35.8489  -11.4673 H         1 LEU         0.0232
    112 H41        38.2336  -39.9699  -11.5657 H         1 LEU         0.0232
    113 H42        38.5706  -38.9252  -12.9875 H         1 LEU         0.0232
    114 H43        36.8814  -39.3981  -12.6006 H         1 LEU         0.0232
    115 H44        41.1862  -35.4394   -9.5849 H         1 SER         0.1884
    116 H45        39.6667  -32.9253  -10.1691 H         1 SER         0.0823
    117 H46        42.1725  -33.4887   -8.6315 H         1 SER         0.0606
    118 H47        40.9577  -32.1807   -8.4312 H         1 SER         0.0606
    119 H48        42.9273  -32.3342  -10.4980 H         1 SER         0.2097
    120 H49        39.7995  -32.2639  -12.2304 H         1 ILE         0.1883
    121 H50        42.2552  -32.9851  -13.7099 H         1 ILE         0.0803
    122 H51        40.9620  -33.4540  -15.7981 H         1 ILE         0.0345
    123 H52        38.8532  -32.4886  -15.3888 H         1 ILE         0.0267
    124 H53        38.6328  -33.4168  -13.8668 H         1 ILE         0.0267
    125 H54        41.9902  -35.2457  -14.4093 H         1 ILE         0.0235
    126 H55        40.4975  -35.8007  -15.2403 H         1 ILE         0.0235
    127 H56        40.4552  -35.4013  -13.4895 H         1 ILE         0.0235
    128 H57        37.2081  -34.3129  -15.6795 H         1 ILE         0.0230
    129 H58        38.4413  -35.5179  -15.1758 H         1 ILE         0.0230
    130 H59        38.6616  -34.5898  -16.6978 H         1 ILE         0.0230
    131 H60        42.9775  -31.5888  -15.1935 H         1 SER         0.1884
    132 H61        41.5120  -28.9944  -15.4787 H         1 SER         0.0823
    133 H62        43.6274  -27.8357  -15.4185 H         1 SER         0.0606
    134 H63        44.5432  -29.3810  -15.4228 H         1 SER         0.0606
    135 H64        43.6483  -29.7751  -13.3371 H         1 SER         0.2097
    136 H65        41.6806  -28.0757  -17.5489 H         1 VAL         0.1875
    137 H66        42.0112  -29.9814  -19.7059 H         1 VAL         0.0729
    138 H67        41.3730  -28.1770  -21.2327 H         1 VAL         0.0336
    139 H68        39.1581  -27.5706  -20.2519 H         1 VAL         0.0234
    140 H69        39.7365  -28.1134  -18.6403 H         1 VAL         0.0234
    141 H70        39.5727  -29.2973  -19.9813 H         1 VAL         0.0234
    142 H71        42.7142  -26.3390  -20.2421 H         1 VAL         0.0234
    143 H72        41.5703  -26.2570  -18.8596 H         1 VAL         0.0234
    144 H73        41.0060  -25.8565  -20.5172 H         1 VAL         0.0234
@<TRIPOS>BOND
     1    1    2 1  
     2    2    3 1  
     3    2    5 1  
     4    3    4 2  
     5    3   12 am 
     6    5    6 1  
     7    6    7 1  
     8    7    8 1  
     9    8    9 ar 
    10    9   10 ar 
    11    9   11 ar 
    12   12   13 1  
    13   13   14 1  
    14   13   16 1  
    15   14   15 2  
    16   14   21 am 
    17   16   17 1  
    18   17   18 1  
    19   18   19 2  
    20   18   20 am 
    21   21   22 1  
    22   22   23 1  
    23   22   25 1  
    24   23   24 2  
    25   23   26 am 
    26   26   27 1  
    27   27   28 1  
    28   27   30 1  
    29   28   29 1  
    30   29   32 1  
    31   30   31 2  
    32   30   36 am 
    33   32   33 ar 
    34   32   34 ar 
    35   32   35 ar 
    36   36   37 1  
    37   37   38 1  
    38   37   40 1  
    39   38   39 2  
    40   38   44 am 
    41   40   41 1  
    42   41   42 1  
    43   41   43 1  
    44   44   45 1  
    45   45   46 1  
    46   45   48 1  
    47   46   47 2  
    48   46   50 am 
    49   48   49 1  
    50   50   51 1  
    51   51   52 1  
    52   51   54 1  
    53   52   53 2  
    54   52   58 am 
    55   54   55 1  
    56   54   56 1  
    57   55   57 1  
    58   58   59 1  
    59   59   60 1  
    60   59   62 1  
    61   60   61 2  
    62   60   64 am 
    63   62   63 1  
    64   64   65 1  
    65   65   66 1  
    66   65   68 1  
    67   66   67 ar 
    68   66   71 ar 
    69   68   69 1  
    70   68   70 1  
    71    1   72 1  
    72    1   73 1  
    73    1   74 1  
    74    2   75 1  
    75    5   76 1  
    76    5   77 1  
    77    6   78 1  
    78    6   79 1  
    79    7   80 1  
    80    7   81 1  
    81    8   82 1  
    82   10   83 1  
    83   10   84 1  
    84   11   85 1  
    85   11   86 1  
    86   12   87 1  
    87   13   88 1  
    88   16   89 1  
    89   16   90 1  
    90   17   91 1  
    91   17   92 1  
    92   20   93 1  
    93   20   94 1  
    94   21   95 1  
    95   22   96 1  
    96   25   97 1  
    97   25   98 1  
    98   25   99 1  
    99   26  100 1  
   100   27  101 1  
   101   28  102 1  
   102   28  103 1  
   103   36  104 1  
   104   37  105 1  
   105   40  106 1  
   106   40  107 1  
   107   41  108 1  
   108   42  109 1  
   109   42  110 1  
   110   42  111 1  
   111   43  112 1  
   112   43  113 1  
   113   43  114 1  
   114   44  115 1  
   115   45  116 1  
   116   48  117 1  
   117   48  118 1  
   118   49  119 1  
   119   50  120 1  
   120   51  121 1  
   121   54  122 1  
   122   55  123 1  
   123   55  124 1  
   124   56  125 1  
   125   56  126 1  
   126   56  127 1  
   127   57  128 1  
   128   57  129 1  
   129   57  130 1  
   130   58  131 1  
   131   59  132 1  
   132   62  133 1  
   133   62  134 1  
   134   63  135 1  
   135   64  136 1  
   136   65  137 1  
   137   68  138 1  
   138   69  139 1  
   139   69  140 1  
   140   69  141 1  
   141   70  142 1  
   142   70  143 1  
   143   70  144 1  
@<TRIPOS>SUBSTRUCTURE
     1 ARG         1

