3bgm_ligand
  -I-interpret- 

146145  0  0  0  0  0  0  0  0999 V2000
   26.1850  -37.9470   -5.3770 N   0  3  0  0  0
   27.6220  -37.9690   -5.0050 C   0  0  0  0  0
   28.5630  -37.6530   -6.1740 C   0  0  0  0  0
   28.5110  -38.3240   -7.2100 O   0  0  0  0  0
   27.9770  -39.3430   -4.4180 C   0  0  0  0  0
   29.3850  -39.3940   -3.8800 C   0  0  0  0  0
   29.7720  -40.7720   -3.3110 C   0  0  0  0  0
   31.1880  -40.8020   -2.9310 N   0  0  0  0  0
   31.6400  -41.1870   -1.7370 C   0  0  0  0  0
   30.7740  -41.6070   -0.8120 N   0  0  0  0  0
   32.9570  -41.1740   -1.4790 N   0  0  0  0  0
   29.4300  -36.6460   -6.0060 N   0  0  0  0  0
   30.3840  -36.2210   -7.0420 C   0  0  0  0  0
   31.5130  -37.2350   -7.2540 C   0  0  0  0  0
   31.8850  -37.9750   -6.3350 O   0  0  0  0  0
   31.0360  -34.8850   -6.6560 C   0  0  0  0  0
   30.1110  -33.7270   -6.6680 C   0  0  0  0  0
   30.7300  -32.5580   -5.9630 C   0  0  0  0  0
   31.3380  -31.6770   -6.6100 O   0  0  0  0  0
   30.6630  -32.5550   -4.6360 N   0  0  0  0  0
   32.0810  -37.2110   -8.4540 N   0  0  0  0  0
   33.3100  -37.9770   -8.7620 C   0  0  0  0  0
   34.5060  -37.4930   -7.9510 C   0  0  0  0  0
   34.6250  -36.2930   -7.6720 O   0  0  0  0  0
   33.6360  -37.8720  -10.2510 C   0  0  0  0  0
   35.3920  -38.4290   -7.6020 N   0  0  0  0  0
   36.5500  -38.1350   -6.7610 C   0  0  0  0  0
   36.7250  -39.1870   -5.6570 C   0  0  0  0  0
   35.5790  -39.2020   -4.8190 O   0  0  0  0  0
   37.8280  -38.0160   -7.5830 C   0  0  0  0  0
   38.7830  -38.7960   -7.4130 O   0  0  0  0  0
   35.8380  -39.3120   -3.2420 P   0  0  0  0  0
   34.4240  -39.1200   -2.5330 O   0  0  0  0  0
   36.8930  -38.2000   -2.7540 O   0  0  0  0  0
   36.4390  -40.7680   -2.9390 O   0  0  0  0  0
   37.8430  -37.0420   -8.4790 N   0  0  0  0  0
   39.0390  -36.7680   -9.2840 C   0  0  0  0  0
   39.1720  -35.2930   -9.5870 C   0  0  0  0  0
   38.1780  -34.5810   -9.6710 O   0  0  0  0  0
   39.0360  -37.5910  -10.5770 C   0  0  0  0  0
   37.7130  -37.8880  -11.2940 C   0  0  0  0  0
   37.1950  -36.7160  -12.1230 C   0  0  0  0  0
   37.8600  -39.1330  -12.1740 C   0  0  0  0  0
   40.4060  -34.8340   -9.7420 N   0  0  0  0  0
   40.6280  -33.4590  -10.1380 C   0  0  0  0  0
   41.2390  -33.4890  -11.5190 C   0  0  0  0  0
   42.2270  -34.1900  -11.7480 O   0  0  0  0  0
   41.5580  -32.7450   -9.1600 C   0  0  0  0  0
   42.4080  -31.8470   -9.8690 O   0  0  0  0  0
   40.6390  -32.7610  -12.4500 N   0  0  0  0  0
   41.2010  -32.6830  -13.7960 C   0  0  0  0  0
   41.1950  -31.2580  -14.3230 C   0  0  0  0  0
   40.2710  -30.4900  -14.0510 O   0  0  0  0  0
   40.5430  -33.6690  -14.8040 C   0  0  0  0  0
   39.0350  -33.4520  -14.8900 C   0  0  0  0  0
   40.8970  -35.1350  -14.4610 C   0  0  0  0  0
   38.2830  -34.5460  -15.6660 C   0  0  0  0  0
   42.2560  -30.9110  -15.0520 N   0  0  0  0  0
   42.4160  -29.5970  -15.6510 C   0  0  0  0  0
   42.6400  -29.8000  -17.1430 C   0  0  0  0  0
   43.2730  -30.7850  -17.5410 O   0  0  0  0  0
   43.6320  -28.8780  -15.0670 C   0  0  0  0  0
   43.6370  -28.8790  -13.6520 O   0  0  0  0  0
   42.1480  -28.8640  -17.9490 N   0  0  0  0  0
   42.2710  -28.9540  -19.4110 C   0  0  0  0  0
   43.7090  -28.6790  -19.8520 C   0  0  0  0  0
   44.0650  -28.9490  -21.0180 O   0  0  0  0  0
   41.2930  -27.9770  -20.1540 C   0  0  0  0  0
   39.8350  -28.2600  -19.7260 C   0  0  0  0  0
   41.6730  -26.5020  -19.9270 C   0  0  0  0  0
   44.5220  -28.1540  -19.0680 O   0  0  0  0  0
   25.9499  -37.0342   -5.7668 H   0  0  0  0  0
   26.0037  -38.6716   -6.0716 H   0  0  0  0  0
   25.6175  -38.1201   -4.5473 H   0  0  0  0  0
   27.7663  -37.1802   -4.2667 H   0  0  0  0  0
   27.8945  -40.0813   -5.2156 H   0  0  0  0  0
   27.2938  -39.5431   -3.5926 H   0  0  0  0  0
   29.4526  -38.6716   -3.0666 H   0  0  0  0  0
   30.0611  -39.1781   -4.7072 H   0  0  0  0  0
   29.5982  -41.5286   -4.0761 H   0  0  0  0  0
   29.1672  -40.9682   -2.4257 H   0  0  0  0  0
   31.8735  -40.5086   -3.6270 H   0  0  0  0  0
   29.7760  -41.6314   -1.0214 H   0  0  0  0  0
   33.3020  -41.4864   -0.5714 H   0  0  0  0  0
   33.6129  -40.8518   -2.1906 H   0  0  0  0  0
   29.4287  -36.1490   -5.1153 H   0  0  0  0  0
   29.8066  -36.1300   -7.9620 H   0  0  0  0  0
   31.8120  -34.6825   -7.3941 H   0  0  0  0  0
   31.4029  -34.9910   -5.6351 H   0  0  0  0  0
   29.1891  -34.0032   -6.1563 H   0  0  0  0  0
   29.9025  -33.4493   -7.7012 H   0  0  0  0  0
   31.1187  -31.8136   -4.1040 H   0  0  0  0  0
   30.1558  -33.2941   -4.1493 H   0  0  0  0  0
   31.6560  -36.6454   -9.1888 H   0  0  0  0  0
   33.1169  -39.0154   -8.4927 H   0  0  0  0  0
   32.8073  -38.2760  -10.8324 H   0  0  0  0  0
   33.7907  -36.8258  -10.5149 H   0  0  0  0  0
   34.5418  -38.4396  -10.4642 H   0  0  0  0  0
   35.2555  -39.3836   -7.9345 H   0  0  0  0  0
   36.3593  -37.1711   -6.2892 H   0  0  0  0  0
   37.6035  -38.9403   -5.0608 H   0  0  0  0  0
   36.8506  -40.1692   -6.1126 H   0  0  0  0  0
   37.7329  -38.3411   -3.1971 H   0  0  0  0  0
   37.2890  -40.8593   -3.3758 H   0  0  0  0  0
   37.0081  -36.4714   -8.6124 H   0  0  0  0  0
   39.9057  -37.0677   -8.6949 H   0  0  0  0  0
   39.4095  -38.5703  -10.2776 H   0  0  0  0  0
   39.6006  -36.9860  -11.2864 H   0  0  0  0  0
   36.9715  -38.0661  -10.5152 H   0  0  0  0  0
   37.0293  -35.8575  -11.4722 H   0  0  0  0  0
   37.9302  -36.4589  -12.8855 H   0  0  0  0  0
   36.2568  -36.9975  -12.6013 H   0  0  0  0  0
   38.6396  -38.9617  -12.9163 H   0  0  0  0  0
   38.1301  -39.9863  -11.5519 H   0  0  0  0  0
   36.9146  -39.3339  -12.6779 H   0  0  0  0  0
   41.2018  -35.4516   -9.5818 H   0  0  0  0  0
   39.6865  -32.9098  -10.1377 H   0  0  0  0  0
   42.1682  -33.4830   -8.6392 H   0  0  0  0  0
   40.9617  -32.1840   -8.4404 H   0  0  0  0  0
   42.9897  -31.4017   -9.2486 H   0  0  0  0  0
   39.7827  -32.2540  -12.2260 H   0  0  0  0  0
   42.2385  -33.0037  -13.7024 H   0  0  0  0  0
   40.9520  -33.4599  -15.7925 H   0  0  0  0  0
   38.8752  -32.5138  -15.4213 H   0  0  0  0  0
   38.6506  -33.4597  -13.8700 H   0  0  0  0  0
   41.9785  -35.2651  -14.5007 H   0  0  0  0  0
   40.5381  -35.3691  -13.4587 H   0  0  0  0  0
   40.4230  -35.8003  -15.1827 H   0  0  0  0  0
   38.6591  -34.5884  -16.6882 H   0  0  0  0  0
   38.4406  -35.5085  -15.1793 H   0  0  0  0  0
   37.2181  -34.3139  -15.6786 H   0  0  0  0  0
   42.9919  -31.6023  -15.1964 H   0  0  0  0  0
   41.5302  -28.9933  -15.4533 H   0  0  0  0  0
   43.6013  -27.8411  -15.4016 H   0  0  0  0  0
   44.5260  -29.4015  -15.4060 H   0  0  0  0  0
   44.4171  -28.4176  -13.3356 H   0  0  0  0  0
   41.6712  -28.0599  -17.5409 H   0  0  0  0  0
   41.9955  -29.9723  -19.6855 H   0  0  0  0  0
   43.3304  -29.3457  -21.4919 H   0  0  0  0  0
   41.3806  -28.1586  -21.2252 H   0  0  0  0  0
   39.5763  -29.2881  -19.9794 H   0  0  0  0  0
   39.7388  -28.1145  -18.6501 H   0  0  0  0  0
   39.1653  -27.5763  -20.2477 H   0  0  0  0  0
   41.6354  -26.2784  -18.8608 H   0  0  0  0  0
   42.6816  -26.3263  -20.3010 H   0  0  0  0  0
   40.9700  -25.8610  -20.4590 H   0  0  0  0  0
  1  2  1  0  0  0
  2  3  1  0  0  0
  2  5  1  0  0  0
  3  4  2  0  0  0
  3 12  1  0  0  0
  5  6  1  0  0  0
  6  7  1  0  0  0
  7  8  1  0  0  0
  8  9  1  0  0  0
  9 10  2  0  0  0
  9 11  1  0  0  0
 12 13  1  0  0  0
 13 14  1  0  0  0
 13 16  1  0  0  0
 14 15  2  0  0  0
 14 21  1  0  0  0
 16 17  1  0  0  0
 17 18  1  0  0  0
 18 19  2  0  0  0
 18 20  1  0  0  0
 21 22  1  0  0  0
 22 23  1  0  0  0
 22 25  1  0  0  0
 23 24  2  0  0  0
 23 26  1  0  0  0
 26 27  1  0  0  0
 27 28  1  0  0  0
 27 30  1  0  0  0
 28 29  1  0  0  0
 29 32  1  0  0  0
 30 31  2  0  0  0
 30 36  1  0  0  0
 32 33  2  0  0  0
 32 34  1  0  0  0
 32 35  1  0  0  0
 36 37  1  0  0  0
 37 38  1  0  0  0
 37 40  1  0  0  0
 38 39  2  0  0  0
 38 44  1  0  0  0
 40 41  1  0  0  0
 41 42  1  0  0  0
 41 43  1  0  0  0
 44 45  1  0  0  0
 45 46  1  0  0  0
 45 48  1  0  0  0
 46 47  2  0  0  0
 46 50  1  0  0  0
 48 49  1  0  0  0
 50 51  1  0  0  0
 51 52  1  0  0  0
 51 54  1  0  0  0
 52 53  2  0  0  0
 52 58  1  0  0  0
 54 55  1  0  0  0
 54 56  1  0  0  0
 55 57  1  0  0  0
 58 59  1  0  0  0
 59 60  1  0  0  0
 59 62  1  0  0  0
 60 61  2  0  0  0
 60 64  1  0  0  0
 62 63  1  0  0  0
 64 65  1  0  0  0
 65 66  1  0  0  0
 65 68  1  0  0  0
 66 67  1  0  0  0
 66 71  2  0  0  0
 68 69  1  0  0  0
 68 70  1  0  0  0
  1 72  1  0  0  0
  1 73  1  0  0  0
  1 74  1  0  0  0
  2 75  1  0  0  0
  5 76  1  0  0  0
  5 77  1  0  0  0
  6 78  1  0  0  0
  6 79  1  0  0  0
  7 80  1  0  0  0
  7 81  1  0  0  0
  8 82  1  0  0  0
 10 83  1  0  0  0
 11 84  1  0  0  0
 11 85  1  0  0  0
 12 86  1  0  0  0
 13 87  1  0  0  0
 16 88  1  0  0  0
 16 89  1  0  0  0
 17 90  1  0  0  0
 17 91  1  0  0  0
 20 92  1  0  0  0
 20 93  1  0  0  0
 21 94  1  0  0  0
 22 95  1  0  0  0
 25 96  1  0  0  0
 25 97  1  0  0  0
 25 98  1  0  0  0
 26 99  1  0  0  0
 27100  1  0  0  0
 28101  1  0  0  0
 28102  1  0  0  0
 34103  1  0  0  0
 35104  1  0  0  0
 36105  1  0  0  0
 37106  1  0  0  0
 40107  1  0  0  0
 40108  1  0  0  0
 41109  1  0  0  0
 42110  1  0  0  0
 42111  1  0  0  0
 42112  1  0  0  0
 43113  1  0  0  0
 43114  1  0  0  0
 43115  1  0  0  0
 44116  1  0  0  0
 45117  1  0  0  0
 48118  1  0  0  0
 48119  1  0  0  0
 49120  1  0  0  0
 50121  1  0  0  0
 51122  1  0  0  0
 54123  1  0  0  0
 55124  1  0  0  0
 55125  1  0  0  0
 56126  1  0  0  0
 56127  1  0  0  0
 56128  1  0  0  0
 57129  1  0  0  0
 57130  1  0  0  0
 57131  1  0  0  0
 58132  1  0  0  0
 59133  1  0  0  0
 62134  1  0  0  0
 62135  1  0  0  0
 63136  1  0  0  0
 64137  1  0  0  0
 65138  1  0  0  0
 67139  1  0  0  0
 68140  1  0  0  0
 69141  1  0  0  0
 69142  1  0  0  0
 69143  1  0  0  0
 70144  1  0  0  0
 70145  1  0  0  0
 70146  1  0  0  0
M  END
$$$$
