2r2w_ligand
  -I-interpret- 

 34 35  0  0  0  0  0  0  0  0999 V2000
   33.8740    4.6450   27.8850 C   0  0  0  0  0
   31.9330    5.9770   28.4410 C   0  0  0  0  0
   31.3210    5.1850   29.4660 C   0  0  0  0  0
   31.1760    6.9990   27.8130 C   0  0  0  0  0
   27.7360    6.6410   29.7020 C   0  0  0  0  0
   27.0800    7.9250   29.2180 C   0  0  0  0  0
   27.1470    9.2390   30.0010 C   0  0  0  0  0
   26.5040   10.4070   29.4820 C   0  0  0  0  0
   26.5540   11.6400   30.1920 C   0  0  0  0  0
   27.2480   11.7220   31.4370 C   0  0  0  0  0
   27.8900   10.5710   31.9660 C   0  0  0  0  0
   27.8410    9.3350   31.2560 C   0  0  0  0  0
   33.2440    5.7690   28.0740 N   0  0  0  0  0
   35.1060    4.7490   27.5640 N   0  0  0  0  0
   33.3760    3.4690   28.0040 N   0  0  0  0  0
   29.9760    5.4160   29.8510 C   0  0  0  0  0
   29.2020    6.4390   29.2310 C   0  0  0  0  0
   29.8190    7.2340   28.1990 C   0  0  0  0  0
   26.4770    7.8860   28.1520 O   0  0  0  0  0
   31.8947    4.3974   29.9545 H   0  0  0  0  0
   31.6308    7.6085   27.0321 H   0  0  0  0  0
   27.1555    5.8152   29.2907 H   0  0  0  0  0
   27.7577    6.6884   30.7908 H   0  0  0  0  0
   25.9703   10.3523   28.5332 H   0  0  0  0  0
   26.0616   12.5229   29.7844 H   0  0  0  0  0
   27.2850   12.6662   31.9804 H   0  0  0  0  0
   28.4209   10.6323   32.9160 H   0  0  0  0  0
   28.3344    8.4551   31.6689 H   0  0  0  0  0
   33.7988    6.6128   27.9302 H   0  0  0  0  0
   35.5329    5.6708   27.4715 H   0  0  0  0  0
   33.9608    2.6489   27.8434 H   0  0  0  0  0
   32.3952    3.3539   28.2592 H   0  0  0  0  0
   29.5279    4.8022   30.6324 H   0  0  0  0  0
   29.2464    8.0212   27.7085 H   0  0  0  0  0
 13  1  1  0  0  0
  1 14  2  0  0  0
  1 15  1  0  0  0
  3  2  4  0  0  0
  2  4  4  0  0  0
  2 13  1  0  0  0
 16  3  4  0  0  0
  4 18  4  0  0  0
  5  6  1  0  0  0
 17  5  1  0  0  0
  6  7  1  0  0  0
  6 19  2  0  0  0
  7  8  4  0  0  0
  7 12  4  0  0  0
  8  9  4  0  0  0
  9 10  4  0  0  0
 11 10  4  0  0  0
 12 11  4  0  0  0
 16 17  4  0  0  0
 17 18  4  0  0  0
  3 20  1  0  0  0
  4 21  1  0  0  0
  5 22  1  0  0  0
  5 23  1  0  0  0
  8 24  1  0  0  0
  9 25  1  0  0  0
 10 26  1  0  0  0
 11 27  1  0  0  0
 12 28  1  0  0  0
 13 29  1  0  0  0
 14 30  1  0  0  0
 15 31  1  0  0  0
 15 32  1  0  0  0
 16 33  1  0  0  0
 18 34  1  0  0  0
M  END
$$$$
