6cdm_ligand
  -I-interpret- 

 73 72  0  0  0  0  0  0  0  0999 V2000
   31.9980  -49.3740  126.2240 N   0  3  0  0  0
   32.8940  -48.2630  126.5420 C   0  0  0  0  0
   34.3220  -48.7190  126.8700 C   0  0  0  0  0
   34.5720  -49.8880  127.1700 O   0  0  0  0  0
   32.3330  -47.4440  127.7060 C   0  0  0  0  0
   35.2560  -47.7690  126.7940 N   0  0  0  0  0
   36.6310  -48.0320  127.2020 C   0  0  0  0  0
   36.6980  -48.3170  128.6990 C   0  0  0  0  0
   37.3050  -49.3030  129.1350 O   0  0  0  0  0
   37.5320  -46.8410  126.8260 C   0  0  0  0  0
   38.9300  -47.0420  127.3750 C   0  0  0  0  0
   37.5580  -46.6440  125.3240 C   0  0  0  0  0
   36.0510  -47.4810  129.4960 N   0  0  0  0  0
   36.0950  -47.5330  130.9480 C   0  0  0  0  0
   36.9120  -46.3760  131.4970 C   0  0  0  0  0
   37.9270  -45.9730  130.9190 O   0  0  0  0  0
   36.4760  -45.8460  132.6420 N   0  0  0  0  0
   37.1530  -44.7050  133.2460 C   0  0  0  0  0
   38.5240  -45.0780  133.8070 C   0  0  0  0  0
   39.3400  -44.1870  134.0780 O   0  0  0  0  0
   36.2590  -44.0750  134.3330 C   0  0  0  0  0
   36.1930  -44.9770  135.5680 C   0  0  0  0  0
   34.8660  -43.8080  133.7820 C   0  0  0  0  0
   35.7400  -44.2730  136.8350 C   0  0  0  0  0
   38.8020  -46.3670  133.9980 N   0  0  0  0  0
   40.0840  -46.7720  134.5240 C   0  0  0  0  0
   41.2050  -46.9200  133.5180 C   0  0  0  0  0
   42.3490  -47.1660  133.9130 O   0  0  0  0  0
   40.9360  -46.7660  132.2280 N   0  0  0  0  0
   41.9980  -46.9660  131.2510 C   0  0  0  0  0
   42.9390  -45.7640  131.2080 C   0  0  0  0  0
   42.5080  -44.6210  131.3740 O   0  0  0  0  0
   41.4190  -47.2400  129.8920 C   0  0  0  0  0
   44.1460  -45.9160  131.0070 O   0  0  0  0  0
   32.3851  -49.9098  125.4472 H   0  0  0  0  0
   31.9033  -49.9774  127.0409 H   0  0  0  0  0
   31.0828  -49.0071  125.9628 H   0  0  0  0  0
   32.9518  -47.6455  125.6456 H   0  0  0  0  0
   32.3187  -48.0577  128.6067 H   0  0  0  0  0
   32.9630  -46.5698  127.8704 H   0  0  0  0  0
   31.3190  -47.1231  127.4673 H   0  0  0  0  0
   35.0041  -46.8443  126.4450 H   0  0  0  0  0
   36.9926  -48.9151  126.6752 H   0  0  0  0  0
   37.1190  -45.9373  127.2742 H   0  0  0  0  0
   38.8842  -47.1242  128.4609 H   0  0  0  0  0
   39.3550  -47.9549  126.9578 H   0  0  0  0  0
   39.5529  -46.1909  127.0998 H   0  0  0  0  0
   37.9454  -47.5445  124.8474 H   0  0  0  0  0
   36.5468  -46.4487  124.9669 H   0  0  0  0  0
   38.2004  -45.7976  125.0809 H   0  0  0  0  0
   35.4841  -46.7522  129.0625 H   0  0  0  0  0
   36.5581  -48.4708  131.2550 H   0  0  0  0  0
   35.0787  -47.4644  131.3359 H   0  0  0  0  0
   35.6572  -46.2452  133.1009 H   0  0  0  0  0
   37.3278  -43.9681  132.4620 H   0  0  0  0  0
   36.6973  -43.1235  134.6341 H   0  0  0  0  0
   37.2028  -45.3449  135.7499 H   0  0  0  0  0
   35.4614  -45.7567  135.3561 H   0  0  0  0  0
   34.9360  -43.1230  132.9370 H   0  0  0  0  0
   34.4202  -44.7471  133.4541 H   0  0  0  0  0
   34.2474  -43.3633  134.5616 H   0  0  0  0  0
   36.4331  -43.4645  137.0675 H   0  0  0  0  0
   34.7406  -43.8647  136.6847 H   0  0  0  0  0
   35.7223  -44.9863  137.6590 H   0  0  0  0  0
   38.1028  -47.0740  133.7706 H   0  0  0  0  0
   39.9349  -47.7598  134.9599 H   0  0  0  0  0
   40.3937  -45.9833  135.2097 H   0  0  0  0  0
   39.9965  -46.5105  131.9238 H   0  0  0  0  0
   42.5810  -47.8344  131.5577 H   0  0  0  0  0
   40.8033  -48.1384  129.9352 H   0  0  0  0  0
   40.8069  -46.3931  129.5818 H   0  0  0  0  0
   42.2282  -47.3865  129.1765 H   0  0  0  0  0
   44.3357  -46.8506  130.8966 H   0  0  0  0  0
  1  2  1  0  0  0
  2  3  1  0  0  0
  2  5  1  0  0  0
  3  4  2  0  0  0
  3  6  1  0  0  0
  6  7  1  0  0  0
  7  8  1  0  0  0
  7 10  1  0  0  0
  8  9  2  0  0  0
  8 13  1  0  0  0
 10 11  1  0  0  0
 10 12  1  0  0  0
 13 14  1  0  0  0
 14 15  1  0  0  0
 15 16  2  0  0  0
 15 17  1  0  0  0
 17 18  1  0  0  0
 18 19  1  0  0  0
 18 21  1  0  0  0
 19 20  2  0  0  0
 19 25  1  0  0  0
 21 22  1  0  0  0
 21 23  1  0  0  0
 22 24  1  0  0  0
 25 26  1  0  0  0
 26 27  1  0  0  0
 27 28  2  0  0  0
 27 29  1  0  0  0
 29 30  1  0  0  0
 30 31  1  0  0  0
 30 33  1  0  0  0
 31 32  2  0  0  0
 31 34  1  0  0  0
  1 35  1  0  0  0
  1 36  1  0  0  0
  1 37  1  0  0  0
  2 38  1  0  0  0
  5 39  1  0  0  0
  5 40  1  0  0  0
  5 41  1  0  0  0
  6 42  1  0  0  0
  7 43  1  0  0  0
 10 44  1  0  0  0
 11 45  1  0  0  0
 11 46  1  0  0  0
 11 47  1  0  0  0
 12 48  1  0  0  0
 12 49  1  0  0  0
 12 50  1  0  0  0
 13 51  1  0  0  0
 14 52  1  0  0  0
 14 53  1  0  0  0
 17 54  1  0  0  0
 18 55  1  0  0  0
 21 56  1  0  0  0
 22 57  1  0  0  0
 22 58  1  0  0  0
 23 59  1  0  0  0
 23 60  1  0  0  0
 23 61  1  0  0  0
 24 62  1  0  0  0
 24 63  1  0  0  0
 24 64  1  0  0  0
 25 65  1  0  0  0
 26 66  1  0  0  0
 26 67  1  0  0  0
 29 68  1  0  0  0
 30 69  1  0  0  0
 33 70  1  0  0  0
 33 71  1  0  0  0
 33 72  1  0  0  0
 34 73  1  0  0  0
M  END
$$$$
