4yhm_ligand
  -I-interpret- 

 60 63  0  0  0  0  0  0  0  0999 V2000
   -4.5730   20.9890    9.6090 N   0  0  0  0  0
   -3.8580   23.1460   10.6400 C   0  0  0  0  0
   -1.2470   22.0530   10.4080 C   0  0  0  0  0
   -3.8670   19.9270    9.1480 C   0  0  0  0  0
   -6.0320   21.1420    9.6560 C   0  0  0  0  0
   -1.4680   23.3440   10.9340 C   0  0  0  0  0
    0.0180   22.8150   13.4430 C   0  0  0  0  0
   -5.0360   17.5170    5.9930 C   0  0  0  0  0
    1.0120   21.9150   13.0570 C   0  0  0  0  0
   -3.0100   16.0490    4.7750 C   0  0  0  0  0
    1.1120   20.7040   13.7240 C   0  0  0  0  0
   -0.0320   26.3100   15.7330 C   0  0  0  0  0
   -3.6680   21.9010   10.0660 C   0  0  0  0  0
   -2.3750   21.3360    9.9380 C   0  0  0  0  0
   -2.5840   20.1090    9.3730 N   0  0  0  0  0
   -2.7780   23.8430   11.0600 C   0  0  0  0  0
   -4.5480   18.7090    8.5590 C   0  0  0  0  0
   -0.5310   24.2840   11.5770 C   0  0  0  0  0
   -3.5970   17.7720    7.9590 N   0  0  0  0  0
    0.0090   24.0500   12.8090 N   0  0  0  0  0
   -0.5150   25.4220   11.1330 O   0  0  0  0  0
   -3.8190   17.2750    6.6680 C   0  0  0  0  0
    0.7120   25.1170   13.5400 C   0  0  0  0  0
   -2.8050   16.5390    6.0450 C   0  0  0  0  0
   -0.7690   22.5590   14.4840 N   0  0  0  0  0
   -0.4260   25.7320   14.3870 C   0  0  0  0  0
   -5.2410   17.0240    4.7140 C   0  0  0  0  0
   -0.6950   21.4080   15.1370 C   0  0  0  0  0
   -4.2310   16.2620    4.1020 C   0  0  0  0  0
    0.2370   20.4470   14.7770 C   0  0  0  0  0
    0.1810   25.5950   16.7080 O   0  0  0  0  0
    0.0310   27.5230   15.8560 O   0  0  0  0  0
   -4.4130   15.7220    2.7300 C   0  0  0  0  0
   -4.6670   16.5510    1.7160 N   0  0  0  0  0
   -4.3200   14.4050    2.5010 N   0  0  0  0  0
   -4.8611   23.5577   10.7516 H   0  0  0  0  0
   -0.2460   21.6237   10.3650 H   0  0  0  0  0
   -6.4359   21.0739    8.6459 H   0  0  0  0  0
   -6.4592   20.3519   10.2735 H   0  0  0  0  0
   -6.2806   22.1134   10.0834 H   0  0  0  0  0
   -5.8198   18.0958    6.4817 H   0  0  0  0  0
    1.6975   22.1598   12.2456 H   0  0  0  0  0
   -2.2164   15.4877    4.2819 H   0  0  0  0  0
    1.8602   19.9677   13.4305 H   0  0  0  0  0
   -2.9269   24.8240   11.5112 H   0  0  0  0  0
   -5.2263   19.0481    7.7760 H   0  0  0  0  0
   -5.0680   18.1912    9.3650 H   0  0  0  0  0
   -2.7711   17.4803    8.4817 H   0  0  0  0  0
    1.2005   25.8386   12.8852 H   0  0  0  0  0
    1.5463   24.7519   14.1389 H   0  0  0  0  0
   -1.8621   16.3555    6.5602 H   0  0  0  0  0
   -0.8193   26.5651   13.8044 H   0  0  0  0  0
   -1.1181   24.9172   14.5995 H   0  0  0  0  0
   -6.1748   17.2249    4.1888 H   0  0  0  0  0
   -1.3749   21.2148   15.9668 H   0  0  0  0  0
    0.2847   19.4991   15.3129 H   0  0  0  0  0
    0.0945   24.6736   16.4527 H   0  0  0  0  0
   -4.7361   17.5549    1.8830 H   0  0  0  0  0
   -4.4432   14.0417    1.5559 H   0  0  0  0  0
   -4.1260   13.7658    3.2718 H   0  0  0  0  0
  1  4  4  0  0  0
  1  5  1  0  0  0
 13  1  4  0  0  0
  2 13  4  0  0  0
 16  2  4  0  0  0
  6  3  4  0  0  0
  3 14  4  0  0  0
 15  4  4  0  0  0
  4 17  1  0  0  0
  6 16  4  0  0  0
 18  6  1  0  0  0
  7  9  4  0  0  0
 20  7  1  0  0  0
  7 25  4  0  0  0
 22  8  4  0  0  0
  8 27  4  0  0  0
  9 11  4  0  0  0
 24 10  4  0  0  0
 10 29  4  0  0  0
 11 30  4  0  0  0
 26 12  1  0  0  0
 12 31  1  0  0  0
 12 32  2  0  0  0
 14 13  4  0  0  0
 14 15  4  0  0  0
 17 19  1  0  0  0
 20 18  1  0  0  0
 18 21  2  0  0  0
 19 22  1  0  0  0
 23 20  1  0  0  0
 22 24  4  0  0  0
 23 26  1  0  0  0
 25 28  4  0  0  0
 27 29  4  0  0  0
 28 30  4  0  0  0
 29 33  1  0  0  0
 33 34  2  0  0  0
 33 35  1  0  0  0
  2 36  1  0  0  0
  3 37  1  0  0  0
  5 38  1  0  0  0
  5 39  1  0  0  0
  5 40  1  0  0  0
  8 41  1  0  0  0
  9 42  1  0  0  0
 10 43  1  0  0  0
 11 44  1  0  0  0
 16 45  1  0  0  0
 17 46  1  0  0  0
 17 47  1  0  0  0
 19 48  1  0  0  0
 23 49  1  0  0  0
 23 50  1  0  0  0
 24 51  1  0  0  0
 26 52  1  0  0  0
 26 53  1  0  0  0
 27 54  1  0  0  0
 28 55  1  0  0  0
 30 56  1  0  0  0
 31 57  1  0  0  0
 34 58  1  0  0  0
 35 59  1  0  0  0
 35 60  1  0  0  0
M  END
$$$$
