### 
### Created by X-TOOL on Mon Sep 10 21:13:16 2018
### 

@<TRIPOS>MOLECULE
4o75_ligand
   64    67     1     0     0
SMALL
GAST_HUCK


@<TRIPOS>ATOM
      1 F01        14.9300   -1.9280   13.2400 F         1 2RC        -0.1858
      2 C02        14.7840   -0.9250   12.3370 C.ar      1 2RC         0.1903
      3 C03        13.8650    0.0890   12.5410 C.ar      1 2RC         0.0345
      4 N04        13.7220    1.0940   11.6100 N.ar      1 2RC        -0.2721
      5 C05        14.5210    1.0700   10.5240 C.ar      1 2RC         0.1889
      6 N06        15.4350    0.0770   10.3230 N.ar      1 2RC        -0.2368
      7 C07        15.5980   -0.9190   11.1880 C.ar      1 2RC         0.1700
      8 N08        16.5660   -1.9620   10.9520 N.pl3     1 2RC        -0.2503
      9 C09        17.7790   -1.6740   10.2600 C.ar      1 2RC         0.1071
     10 N10        18.9140   -2.2490   10.7170 N.ar      1 2RC        -0.2756
     11 C11        20.1080   -2.0220   10.0950 C.ar      1 2RC         0.1639
     12 N12        21.2610   -2.6270   10.5690 N.am      1 2RC        -0.1768
     13 C13        22.4570   -2.3440   10.1700 C.2       1 2RC         0.2627
     14 O14        23.3880   -2.9170   10.6300 O.2       1 2RC        -0.3319
     15 C15        22.7150   -1.3040    9.1200 C.3       1 2RC         0.1661
     16 O16        21.5640   -0.8980    8.3210 O.3       1 2RC        -0.3117
     17 C17        20.1880   -1.1700    8.9820 C.ar      1 2RC         0.1282
     18 C18        19.0400   -0.5570    8.4830 C.ar      1 2RC        -0.0361
     19 C19        17.8170   -0.8150    9.1440 C.ar      1 2RC        -0.0355
     20 C20        23.7180   -1.8180    8.1580 C.3       1 2RC        -0.0252
     21 C21        23.4610   -0.0980    9.7800 C.3       1 2RC        -0.0252
     22 C22        21.0700   -3.6820   11.5070 C.3       1 2RC         0.1864
     23 O23        21.1360   -3.2760   12.8390 O.3       1 2RC        -0.2456
     24 P24        21.2800   -4.5680   13.7300 P.3       1 2RC         0.2045
     25 O25        22.7190   -5.0320   13.6780 O.co2     1 2RC        -0.5536
     26 O26        20.3890   -5.6590   13.1610 O.co2     1 2RC        -0.5536
     27 O27        20.8830   -4.2310   15.1540 O.co2     1 2RC        -0.5536
     28 N28        14.5280    2.0490    9.4550 N.pl3     1 2RC        -0.2568
     29 C29        14.0280    3.3650    9.5770 C.ar      1 2RC         0.0369
     30 C30        13.0860    3.7610   10.5560 C.ar      1 2RC        -0.0289
     31 C31        12.6520    5.0930   10.5450 C.ar      1 2RC         0.1025
     32 O32        11.6800    5.6810   11.4580 O.3       1 2RC        -0.3307
     33 C33        11.0620    4.9220   12.5090 C.3       1 2RC         0.0562
     34 C34        13.1840    5.9360    9.5830 C.ar      1 2RC         0.1350
     35 O35        12.8000    7.2860    9.5540 O.3       1 2RC        -0.3368
     36 C36        13.5560    8.0230   10.4970 C.3       1 2RC         0.0517
     37 C37        14.1240    5.5220    8.6260 C.ar      1 2RC         0.1025
     38 O38        14.6020    6.4360    7.6600 O.3       1 2RC        -0.3307
     39 C39        13.9820    6.1710    6.4350 C.3       1 2RC         0.0562
     40 C40        14.5540    4.2270    8.6190 C.ar      1 2RC        -0.0289
     41 H          13.2551    0.0925   13.4371 H         1 2RC         0.0829
     42 H          16.3802   -2.9189   11.2848 H         1 2RC         0.2162
     43 H          19.0833    0.0950    7.6181 H         1 2RC         0.0576
     44 H          16.9041   -0.3496    8.7903 H         1 2RC         0.0473
     45 H          23.9095   -1.0576    7.3866 H         1 2RC         0.0246
     46 H          23.3353   -2.7335    7.6833 H         1 2RC         0.0246
     47 H          24.6539   -2.0444    8.6899 H         1 2RC         0.0246
     48 H          23.6564    0.6727    9.0198 H         1 2RC         0.0246
     49 H          24.4148   -0.4446   10.2043 H         1 2RC         0.0246
     50 H          22.8364    0.3262   10.5799 H         1 2RC         0.0246
     51 H          21.8486   -4.4404   11.3377 H         1 2RC         0.0959
     52 H          20.0798   -4.1271   11.3299 H         1 2RC         0.0959
     53 H          14.9234    1.7668    8.5468 H         1 2RC         0.2136
     54 H          12.7124    3.0567   11.2905 H         1 2RC         0.0345
     55 H          10.3678    5.5670   13.0676 H         1 2RC         0.0572
     56 H          11.8368    4.5407   13.1903 H         1 2RC         0.0572
     57 H          10.5080    4.0771   12.0741 H         1 2RC         0.0572
     58 H          13.2493    9.0790   10.4680 H         1 2RC         0.0564
     59 H          14.6253    7.9449   10.2512 H         1 2RC         0.0564
     60 H          13.3808    7.6179   11.5046 H         1 2RC         0.0564
     61 H          14.3493    6.8790    5.6775 H         1 2RC         0.0572
     62 H          12.8931    6.2824    6.5435 H         1 2RC         0.0572
     63 H          14.2160    5.1433    6.1203 H         1 2RC         0.0572
     64 H          15.2803    3.8814    7.8923 H         1 2RC         0.0345
@<TRIPOS>BOND
     1    1    2 1  
     2    2    3 ar 
     3    2    7 ar 
     4    3    4 ar 
     5    4    5 ar 
     6    5    6 ar 
     7    5   28 1  
     8    6    7 ar 
     9    7    8 1  
    10    8    9 1  
    11    9   10 ar 
    12    9   19 ar 
    13   10   11 ar 
    14   11   12 1  
    15   11   17 ar 
    16   12   13 am 
    17   12   22 1  
    18   13   14 2  
    19   13   15 1  
    20   15   16 1  
    21   15   20 1  
    22   15   21 1  
    23   16   17 1  
    24   17   18 ar 
    25   18   19 ar 
    26   22   23 1  
    27   23   24 1  
    28   24   25 ar 
    29   24   26 ar 
    30   24   27 ar 
    31   28   29 1  
    32   29   30 ar 
    33   29   40 ar 
    34   30   31 ar 
    35   31   32 1  
    36   31   34 ar 
    37   32   33 1  
    38   34   35 1  
    39   34   37 ar 
    40   35   36 1  
    41   37   38 1  
    42   37   40 ar 
    43   38   39 1  
    44    3   41 1  
    45    8   42 1  
    46   18   43 1  
    47   19   44 1  
    48   20   45 1  
    49   20   46 1  
    50   20   47 1  
    51   21   48 1  
    52   21   49 1  
    53   21   50 1  
    54   22   51 1  
    55   22   52 1  
    56   28   53 1  
    57   30   54 1  
    58   33   55 1  
    59   33   56 1  
    60   33   57 1  
    61   36   58 1  
    62   36   59 1  
    63   36   60 1  
    64   39   61 1  
    65   39   62 1  
    66   39   63 1  
    67   40   64 1  
@<TRIPOS>SUBSTRUCTURE
     1 2RC         1

