4o75_ligand
  -I-interpret- 

 66 69  0  0  0  0  0  0  0  0999 V2000
   14.9300   -1.9280   13.2400 F   0  0  0  0  0
   14.7840   -0.9250   12.3370 C   0  0  0  0  0
   13.8650    0.0890   12.5410 C   0  0  0  0  0
   13.7220    1.0940   11.6100 N   0  0  0  0  0
   14.5210    1.0700   10.5240 C   0  0  0  0  0
   15.4350    0.0770   10.3230 N   0  0  0  0  0
   15.5980   -0.9190   11.1880 C   0  0  0  0  0
   16.5660   -1.9620   10.9520 N   0  0  0  0  0
   17.7790   -1.6740   10.2600 C   0  0  0  0  0
   18.9140   -2.2490   10.7170 N   0  0  0  0  0
   20.1080   -2.0220   10.0950 C   0  0  0  0  0
   21.2610   -2.6270   10.5690 N   0  0  0  0  0
   22.4570   -2.3440   10.1700 C   0  0  0  0  0
   23.3880   -2.9170   10.6300 O   0  0  0  0  0
   22.7150   -1.3040    9.1200 C   0  0  0  0  0
   21.5640   -0.8980    8.3210 O   0  0  0  0  0
   20.1880   -1.1700    8.9820 C   0  0  0  0  0
   19.0400   -0.5570    8.4830 C   0  0  0  0  0
   17.8170   -0.8150    9.1440 C   0  0  0  0  0
   23.7180   -1.8180    8.1580 C   0  0  0  0  0
   23.4610   -0.0980    9.7800 C   0  0  0  0  0
   21.0700   -3.6820   11.5070 C   0  0  0  0  0
   21.1360   -3.2760   12.8390 O   0  0  0  0  0
   21.2800   -4.5680   13.7300 P   0  0  0  0  0
   22.7190   -5.0320   13.6780 O   0  0  0  0  0
   20.3890   -5.6590   13.1610 O   0  0  0  0  0
   20.8830   -4.2310   15.1540 O   0  0  0  0  0
   14.5280    2.0490    9.4550 N   0  0  0  0  0
   14.0280    3.3650    9.5770 C   0  0  0  0  0
   13.0860    3.7610   10.5560 C   0  0  0  0  0
   12.6520    5.0930   10.5450 C   0  0  0  0  0
   11.6800    5.6810   11.4580 O   0  0  0  0  0
   11.0620    4.9220   12.5090 C   0  0  0  0  0
   13.1840    5.9360    9.5830 C   0  0  0  0  0
   12.8000    7.2860    9.5540 O   0  0  0  0  0
   13.5560    8.0230   10.4970 C   0  0  0  0  0
   14.1240    5.5220    8.6260 C   0  0  0  0  0
   14.6020    6.4360    7.6600 O   0  0  0  0  0
   13.9820    6.1710    6.4350 C   0  0  0  0  0
   14.5540    4.2270    8.6190 C   0  0  0  0  0
   13.2517    0.0925   13.4421 H   0  0  0  0  0
   16.3820   -2.9096   11.2815 H   0  0  0  0  0
   19.0835    0.0986    7.6133 H   0  0  0  0  0
   16.8991   -0.3470    8.7884 H   0  0  0  0  0
   24.6448   -2.0420    8.6863 H   0  0  0  0  0
   23.3376   -2.7251    7.6884 H   0  0  0  0  0
   23.9068   -1.0637    7.3942 H   0  0  0  0  0
   22.8411    0.3214   10.5724 H   0  0  0  0  0
   24.4059   -0.4428   10.2001 H   0  0  0  0  0
   23.6541    0.6649    9.0258 H   0  0  0  0  0
   21.8714   -4.4038   11.3491 H   0  0  0  0  0
   20.0709   -4.0849   11.3411 H   0  0  0  0  0
   19.4737   -5.3711   13.1909 H   0  0  0  0  0
   19.9687   -3.9388   15.1695 H   0  0  0  0  0
   14.9196    1.7696    8.5556 H   0  0  0  0  0
   12.7104    3.0528   11.2945 H   0  0  0  0  0
   10.5134    4.0851   12.0768 H   0  0  0  0  0
   11.8308    4.5447   13.1833 H   0  0  0  0  0
   10.3744    5.5622   13.0617 H   0  0  0  0  0
   13.3816    7.6206   11.4949 H   0  0  0  0  0
   14.6153    7.9448   10.2524 H   0  0  0  0  0
   13.2512    9.0691   10.4673 H   0  0  0  0  0
   14.2146    5.1524    6.1244 H   0  0  0  0  0
   12.9031    6.2816    6.5438 H   0  0  0  0  0
   14.3467    6.8731    5.6852 H   0  0  0  0  0
   15.2843    3.8795    7.8883 H   0  0  0  0  0
  1  2  1  0  0  0
  2  3  4  0  0  0
  2  7  4  0  0  0
  3  4  4  0  0  0
  4  5  4  0  0  0
  5  6  4  0  0  0
  5 28  1  0  0  0
  6  7  4  0  0  0
  7  8  1  0  0  0
  8  9  1  0  0  0
  9 10  4  0  0  0
  9 19  4  0  0  0
 10 11  4  0  0  0
 11 12  1  0  0  0
 11 17  4  0  0  0
 12 13  1  0  0  0
 12 22  1  0  0  0
 13 14  2  0  0  0
 13 15  1  0  0  0
 15 16  1  0  0  0
 15 20  1  0  0  0
 15 21  1  0  0  0
 16 17  1  0  0  0
 17 18  4  0  0  0
 18 19  4  0  0  0
 22 23  1  0  0  0
 23 24  1  0  0  0
 24 25  2  0  0  0
 24 26  1  0  0  0
 24 27  1  0  0  0
 28 29  1  0  0  0
 29 30  4  0  0  0
 29 40  4  0  0  0
 30 31  4  0  0  0
 31 32  1  0  0  0
 31 34  4  0  0  0
 32 33  1  0  0  0
 34 35  1  0  0  0
 34 37  4  0  0  0
 35 36  1  0  0  0
 37 38  1  0  0  0
 37 40  4  0  0  0
 38 39  1  0  0  0
  3 41  1  0  0  0
  8 42  1  0  0  0
 18 43  1  0  0  0
 19 44  1  0  0  0
 20 45  1  0  0  0
 20 46  1  0  0  0
 20 47  1  0  0  0
 21 48  1  0  0  0
 21 49  1  0  0  0
 21 50  1  0  0  0
 22 51  1  0  0  0
 22 52  1  0  0  0
 26 53  1  0  0  0
 27 54  1  0  0  0
 28 55  1  0  0  0
 30 56  1  0  0  0
 33 57  1  0  0  0
 33 58  1  0  0  0
 33 59  1  0  0  0
 36 60  1  0  0  0
 36 61  1  0  0  0
 36 62  1  0  0  0
 39 63  1  0  0  0
 39 64  1  0  0  0
 39 65  1  0  0  0
 40 66  1  0  0  0
M  END
$$$$
