### 
### Created by X-TOOL on Mon Sep 10 21:12:56 2018
### 

@<TRIPOS>MOLECULE
2p9a_ligand
   23    24     1     0     0
SMALL
GAST_HUCK


@<TRIPOS>ATOM
      1 CLAP       -7.4670   -2.7750    7.0940 Cl        1 YE6        -0.0703
      2 CAG        -5.9300   -2.8600    6.3070 C.ar      1 YE6         0.0495
      3 CAH        -5.8090   -3.6840    5.1920 C.ar      1 YE6        -0.0487
      4 CAI        -4.5980   -3.7910    4.5180 C.ar      1 YE6        -0.0627
      5 CAJ        -3.4950   -3.0690    4.9600 C.ar      1 YE6        -0.0625
      6 CAK        -3.6150   -2.2460    6.0740 C.ar      1 YE6        -0.0523
      7 CAF        -4.8240   -2.1360    6.7510 C.ar      1 YE6         0.0282
      8 CAD        -4.8520   -1.2810    7.8490 C.2       1 YE6         0.1292
      9 OAN        -3.7120   -0.6670    8.2820 O.3       1 YE6        -0.2424
     10 CAC        -5.8570   -0.9080    8.6380 C.2       1 YE6        -0.0433
     11 CAB        -5.3970   -0.0730    9.5670 C.2       1 YE6        -0.0365
     12 CAA        -4.0920    0.0790    9.3580 C.2       1 YE6         0.1939
     13 CAE        -3.1430    0.9600   10.1760 C.2       1 YE6         0.2941
     14 OAO        -1.9430    1.0060    9.9170 O.2       1 YE6        -0.3404
     15 NAL        -3.7010    1.6560   11.1630 N.2       1 YE6        -0.0977
     16 NAM        -3.0270    2.4760   11.7830 N.2       1 YE6        -0.1900
     17 H1         -6.6676   -4.2479    4.8457 H         1 YE6         0.0620
     18 H2         -4.5138   -4.4354    3.6504 H         1 YE6         0.0606
     19 H3         -2.5475   -3.1473    4.4393 H         1 YE6         0.0615
     20 H4         -2.7552   -1.6832    6.4189 H         1 YE6         0.0613
     21 H5         -6.8913   -1.2342    8.5392 H         1 YE6         0.0414
     22 H6         -5.9822    0.3995   10.3545 H         1 YE6         0.0464
     23 H7         -3.4429    3.0070   12.5321 H         1 YE6         0.2187
@<TRIPOS>BOND
     1    1    2 1  
     2    2    3 ar 
     3    2    7 ar 
     4    3    4 ar 
     5    4    5 ar 
     6    5    6 ar 
     7    6    7 ar 
     8    7    8 1  
     9    8    9 1  
    10    8   10 2  
    11    9   12 1  
    12   10   11 1  
    13   11   12 2  
    14   12   13 1  
    15   13   14 2  
    16   13   15 1  
    17   15   16 2  
    18    3   17 1  
    19    4   18 1  
    20    5   19 1  
    21    6   20 1  
    22   10   21 1  
    23   11   22 1  
    24   16   23 1  
@<TRIPOS>SUBSTRUCTURE
     1 YE6         1

