2p9a_ligand
  -I-interpret- 

 23 24  0  0  0  0  0  0  0  0999 V2000
   -7.4670   -2.7750    7.0940 Cl  0  0  0  0  0
   -5.9300   -2.8600    6.3070 C   0  0  0  0  0
   -5.8090   -3.6840    5.1920 C   0  0  0  0  0
   -4.5980   -3.7910    4.5180 C   0  0  0  0  0
   -3.4950   -3.0690    4.9600 C   0  0  0  0  0
   -3.6150   -2.2460    6.0740 C   0  0  0  0  0
   -4.8240   -2.1360    6.7510 C   0  0  0  0  0
   -4.8520   -1.2810    7.8490 C   0  0  0  0  0
   -3.7120   -0.6670    8.2820 O   0  0  0  0  0
   -5.8570   -0.9080    8.6380 C   0  0  0  0  0
   -5.3970   -0.0730    9.5670 C   0  0  0  0  0
   -4.0920    0.0790    9.3580 C   0  0  0  0  0
   -3.1430    0.9600   10.1760 C   0  0  0  0  0
   -1.9430    1.0060    9.9170 O   0  0  0  0  0
   -3.7010    1.6560   11.1630 N   0  0  0  0  0
   -3.0270    2.4760   11.7830 N   0  0  0  0  0
   -6.6723   -4.2510    4.8438 H   0  0  0  0  0
   -4.5133   -4.4390    3.6456 H   0  0  0  0  0
   -2.5423   -3.1478    4.4364 H   0  0  0  0  0
   -2.7504   -1.6800    6.4208 H   0  0  0  0  0
   -6.8923   -1.2344    8.5391 H   0  0  0  0  0
   -5.9827    0.4000   10.3552 H   0  0  0  0  0
   -2.0469    2.6190   11.5395 H   0  0  0  0  0
  1  2  1  0  0  0
  2  3  4  0  0  0
  2  7  4  0  0  0
  3  4  4  0  0  0
  4  5  4  0  0  0
  5  6  4  0  0  0
  6  7  4  0  0  0
  7  8  1  0  0  0
  8  9  4  0  0  0
  8 10  4  0  0  0
  9 12  4  0  0  0
 10 11  4  0  0  0
 11 12  4  0  0  0
 12 13  1  0  0  0
 13 14  2  0  0  0
 13 15  1  0  0  0
 15 16  2  0  0  0
  3 17  1  0  0  0
  4 18  1  0  0  0
  5 19  1  0  0  0
  6 20  1  0  0  0
 10 21  1  0  0  0
 11 22  1  0  0  0
 16 23  1  0  0  0
M  END
$$$$
