3vv6_ligand
  -I-interpret- 

 33 35  0  0  0  0  0  0  0  0999 V2000
   16.6850   42.3020  -10.1490 O   0  0  0  0  0
   16.4250   41.2790   -9.4800 C   0  0  0  0  0
   15.8070   41.3830   -8.2080 N   0  0  0  0  0
   15.4900   42.7190   -7.6850 C   0  0  0  0  0
   15.5480   40.1920   -7.4660 C   0  0  0  0  0
   14.9690   40.2420   -6.2300 N   0  0  0  0  0
   15.8720   38.9850   -8.0040 N   0  0  0  0  0
   16.4690   38.8640   -9.2310 C   0  0  0  0  0
   16.7390   40.0160   -9.9850 C   0  0  0  0  0
   16.7880   37.5080   -9.7750 C   0  0  0  0  0
   17.7090   37.5820  -11.0010 C   0  0  0  0  0
   18.2420   37.0070   -9.6860 C   0  0  0  0  0
   19.2070   37.8890   -8.9650 C   0  0  0  0  0
   19.1080   38.0600   -7.5740 C   0  0  0  0  0
   20.0090   38.8750   -6.8840 C   0  0  0  0  0
   21.0330   39.5140   -7.5870 C   0  0  0  0  0
   21.1460   39.3420   -8.9660 C   0  0  0  0  0
   20.2450   38.5250   -9.6580 C   0  0  0  0  0
   14.4201   42.7861   -7.4877 H   0  0  0  0  0
   16.0425   42.8863   -6.7604 H   0  0  0  0  0
   15.7731   43.4722   -8.4203 H   0  0  0  0  0
   14.7140   41.1415   -5.8223 H   0  0  0  0  0
   15.6626   38.1390   -7.4741 H   0  0  0  0  0
   17.1963   39.9243  -10.9702 H   0  0  0  0  0
   15.8336   37.0563   -9.5045 H   0  0  0  0  0
   18.0092   38.3130  -11.7517 H   0  0  0  0  0
   17.6833   37.3129  -12.0569 H   0  0  0  0  0
   18.7088   36.0733   -9.3724 H   0  0  0  0  0
   18.3167   37.5494   -7.0251 H   0  0  0  0  0
   19.9137   39.0110   -5.8067 H   0  0  0  0  0
   21.7443   40.1476   -7.0571 H   0  0  0  0  0
   21.9433   39.8485   -9.5099 H   0  0  0  0  0
   20.3506   38.3838  -10.7336 H   0  0  0  0  0
  1  2  2  0  0  0
  2  3  1  0  0  0
  2  9  1  0  0  0
  3  4  1  0  0  0
  3  5  4  0  0  0
  5  6  2  0  0  0
  5  7  1  0  0  0
  7  8  1  0  0  0
  8  9  2  0  0  0
  8 10  1  0  0  0
 10 11  1  0  0  0
 10 12  1  0  0  0
 11 12  1  0  0  0
 12 13  1  0  0  0
 13 14  4  0  0  0
 13 18  4  0  0  0
 14 15  4  0  0  0
 15 16  4  0  0  0
 16 17  4  0  0  0
 17 18  4  0  0  0
  4 19  1  0  0  0
  4 20  1  0  0  0
  4 21  1  0  0  0
  6 22  1  0  0  0
  7 23  1  0  0  0
  9 24  1  0  0  0
 10 25  1  0  0  0
 11 26  1  0  0  0
 11 27  1  0  0  0
 12 28  1  0  0  0
 14 29  1  0  0  0
 15 30  1  0  0  0
 16 31  1  0  0  0
 17 32  1  0  0  0
 18 33  1  0  0  0
M  END
$$$$
