6dpx_ligand
  -I-interpret- 

 34 35  0  0  0  0  0  0  0  0999 V2000
   19.7690    8.8190  -23.6910 C   0  0  0  0  0
   17.5110    8.6940  -22.8470 C   0  0  0  0  0
   18.8110    6.6870  -23.1520 C   0  0  0  0  0
   21.9770    5.6110  -27.5470 C   0  0  0  0  0
   22.7600    4.7670  -31.0020 C   0  0  0  0  0
   23.0430    5.7290  -29.8280 C   0  0  0  0  0
   21.8760    5.9980  -28.8750 C   0  0  0  0  0
   20.7320    6.6380  -29.3200 C   0  0  0  0  0
   19.6740    6.8770  -28.4480 C   0  0  0  0  0
   19.7760    6.4840  -27.1160 C   0  0  0  0  0
   20.9260    5.8470  -26.6730 C   0  0  0  0  0
   19.8790    7.4410  -23.6130 C   0  0  0  0  0
   18.5890    9.4390  -23.3130 C   0  0  0  0  0
   17.6320    7.3100  -22.7670 C   0  0  0  0  0
   21.0380    5.4080  -25.2860 N   0  0  0  0  0
   23.6520    4.6050  -31.8760 O   0  0  0  0  0
   21.6700    4.1320  -31.1260 O   0  0  0  0  0
   21.9830    5.9520  -22.9120 O   0  0  0  0  0
   22.4470    7.4660  -24.6160 O   0  0  0  0  0
   18.9180    5.2830  -23.0810 O   0  0  0  0  0
   21.4090    6.5810  -24.0980 S   0  0  0  0  0
   16.2720    6.3150  -22.1730 Cl  0  0  0  0  0
   20.6087    9.4147  -24.0489 H   0  0  0  0  0
   16.5855    9.1867  -22.5490 H   0  0  0  0  0
   22.8828    5.1211  -27.1899 H   0  0  0  0  0
   23.2958    6.6896  -30.2770 H   0  0  0  0  0
   23.8212    5.2560  -29.2289 H   0  0  0  0  0
   20.6594    6.9567  -30.3598 H   0  0  0  0  0
   18.7699    7.3694  -28.8060 H   0  0  0  0  0
   18.9557    6.6761  -26.4244 H   0  0  0  0  0
   18.5045   10.5236  -23.3817 H   0  0  0  0  0
   20.8991    4.4299  -25.0323 H   0  0  0  0  0
   21.0885    4.3508  -30.3942 H   0  0  0  0  0
   18.0970    4.9173  -22.7436 H   0  0  0  0  0
 12  1  4  0  0  0
  1 13  4  0  0  0
 13  2  4  0  0  0
 14  2  4  0  0  0
 12  3  4  0  0  0
  3 14  4  0  0  0
  3 20  1  0  0  0
  4  7  4  0  0  0
 11  4  4  0  0  0
  6  5  1  0  0  0
  5 16  2  0  0  0
  5 17  1  0  0  0
  7  6  1  0  0  0
  7  8  4  0  0  0
  9  8  4  0  0  0
 10  9  4  0  0  0
 11 10  4  0  0  0
 15 11  1  0  0  0
 21 12  1  0  0  0
 14 22  1  0  0  0
 15 21  1  0  0  0
 21 18  2  0  0  0
 21 19  2  0  0  0
  1 23  1  0  0  0
  2 24  1  0  0  0
  4 25  1  0  0  0
  6 26  1  0  0  0
  6 27  1  0  0  0
  8 28  1  0  0  0
  9 29  1  0  0  0
 10 30  1  0  0  0
 13 31  1  0  0  0
 15 32  1  0  0  0
 17 33  1  0  0  0
 20 34  1  0  0  0
M  END
$$$$
