1z6s_ligand
  -I-interpret- 

 37 39  0  0  0  0  0  0  0  0999 V2000
   36.5640    3.2770   13.5170 P   0  0  0  0  0
   35.0570    3.4010   13.6430 O   0  0  0  0  0
   37.2200    4.1520   12.4810 O   0  0  0  0  0
   37.1240    1.8710   13.6030 O   0  0  0  0  0
   37.0790    3.8790   14.9080 O   0  0  0  0  0
   37.0180    5.2730   15.1930 C   0  0  0  0  0
   38.1040    5.5720   16.2110 C   0  0  0  0  0
   37.5740    5.4310   17.5400 O   0  0  0  0  0
   39.2660    4.5790   16.0950 C   0  0  0  0  0
   40.5090    5.2760   15.9320 O   0  0  0  0  0
   39.2570    3.7880   17.3970 C   0  0  0  0  0
   40.5890    3.4810   17.8430 O   0  0  0  0  0
   38.5330    4.7340   18.3470 C   0  0  0  0  0
   37.8970    4.0440   19.5010 N   0  0  0  0  0
   38.1490    2.7820   19.9340 C   0  0  0  0  0
   37.4050    2.4750   21.0100 N   0  0  0  0  0
   36.6710    3.5590   21.2820 C   0  0  0  0  0
   35.6800    3.8930   22.2950 C   0  0  0  0  0
   35.3730    2.9460   23.2290 N   0  0  0  0  0
   35.1250    5.1490   22.2450 N   0  0  0  0  0
   35.4600    6.0580   21.3070 C   0  0  0  0  0
   36.3690    5.8070   20.3380 N   0  0  0  0  0
   36.9900    4.5930   20.2930 C   0  0  0  0  0
   34.7440    2.8042   14.3267 H   0  0  0  0  0
   36.6546    1.3818   14.2826 H   0  0  0  0  0
   36.0380    5.5412   15.5877 H   0  0  0  0  0
   37.1716    5.8570   14.2856 H   0  0  0  0  0
   38.4545    6.5861   16.0193 H   0  0  0  0  0
   39.1571    3.9269   15.2284 H   0  0  0  0  0
   41.2244    4.6398   15.8611 H   0  0  0  0  0
   38.7761    2.8133   17.3138 H   0  0  0  0  0
   40.5441    2.9839   18.6630 H   0  0  0  0  0
   39.2417    5.4172   18.8152 H   0  0  0  0  0
   38.8640    2.1040   19.4679 H   0  0  0  0  0
   35.8337    2.0363   23.2035 H   0  0  0  0  0
   34.6829    3.1481   23.9524 H   0  0  0  0  0
   34.9781    7.0354   21.3309 H   0  0  0  0  0
  1  2  1  0  0  0
  1  3  2  0  0  0
  1  4  1  0  0  0
  1  5  1  0  0  0
  5  6  1  0  0  0
  6  7  1  0  0  0
  7  8  1  0  0  0
  7  9  1  0  0  0
  8 13  1  0  0  0
  9 10  1  0  0  0
  9 11  1  0  0  0
 11 12  1  0  0  0
 11 13  1  0  0  0
 13 14  1  0  0  0
 14 15  4  0  0  0
 14 23  4  0  0  0
 15 16  4  0  0  0
 16 17  4  0  0  0
 17 18  4  0  0  0
 17 23  4  0  0  0
 18 19  1  0  0  0
 18 20  4  0  0  0
 20 21  4  0  0  0
 21 22  4  0  0  0
 22 23  4  0  0  0
  2 24  1  0  0  0
  4 25  1  0  0  0
  6 26  1  0  0  0
  6 27  1  0  0  0
  7 28  1  0  0  0
  9 29  1  0  0  0
 10 30  1  0  0  0
 11 31  1  0  0  0
 12 32  1  0  0  0
 13 33  1  0  0  0
 15 34  1  0  0  0
 19 35  1  0  0  0
 19 36  1  0  0  0
 21 37  1  0  0  0
M  END
$$$$
