### 
### Created by X-TOOL on Mon Sep 10 21:13:29 2018
### 

@<TRIPOS>MOLECULE
5d2a_ligand
  183   189     1     0     0
SMALL
GAST_HUCK


@<TRIPOS>ATOM
      1 N         -65.5790   34.1820   23.8750 N.am      1 ALA        -0.2668
      2 CA        -64.9250   33.3830   22.8820 C.3       1 ALA         0.1277
      3 C         -64.0700   32.4390   23.7320 C.2       1 ALA         0.2061
      4 O         -62.9040   32.7010   23.9730 O.2       1 ALA        -0.3942
      5 CB        -64.1050   34.1370   21.8390 C.3       1 ALA        -0.0245
      6 N         -64.7170   31.2520   24.2730 N.am      1 PRO        -0.2498
      7 CA        -64.1070   30.2440   25.1200 C.3       1 PRO         0.1338
      8 C         -62.8920   29.6170   24.4700 C.2       1 PRO         0.2041
      9 O         -63.0190   28.9590   23.4650 O.2       1 PRO        -0.3944
     10 CB        -65.2010   29.2490   25.4240 C.3       1 PRO        -0.0104
     11 CG        -66.4890   29.9200   25.0470 C.3       1 PRO        -0.0281
     12 CD        -66.0860   30.9090   24.0390 C.3       1 PRO         0.0369
     13 N         -61.5590   29.8050   25.0670 N.am      1 ALA        -0.2640
     14 CA        -60.4060   29.2030   24.4780 C.3       1 ALA         0.1282
     15 C         -59.9790   28.0780   25.4220 C.2       1 ALA         0.2036
     16 O         -60.0090   28.2570   26.6240 O.2       1 ALA        -0.3944
     17 CB        -59.2620   30.1810   24.3780 C.3       1 ALA        -0.0244
     18 N         -59.5350   26.7770   24.9060 N.am      1 LYS        -0.2637
     19 CA        -59.1710   25.8140   25.8970 C.3       1 LYS         0.1310
     20 C         -57.9830   24.9830   25.4580 C.2       1 LYS         0.2040
     21 O         -57.5820   24.9800   24.3030 O.2       1 LYS        -0.3944
     22 CB        -60.3700   24.9170   26.2170 C.3       1 LYS        -0.0122
     23 CG        -60.6990   23.9670   25.0350 C.3       1 LYS        -0.0440
     24 CD        -60.6080   22.4830   25.5360 C.3       1 LYS        -0.0110
     25 CE        -61.7010   22.2200   26.6150 C.3       1 LYS         0.0067
     26 NZ        -62.5570   21.1240   26.1550 N.4       1 LYS         0.4477
     27 N         -57.3130   24.1820   26.4670 N.am      1 PHE        -0.2619
     28 CA        -56.1970   23.3680   26.1120 C.3       1 PHE         0.1404
     29 C         -56.3950   22.0410   26.8340 C.2       1 PHE         0.2054
     30 O         -56.9160   22.0550   27.9380 O.2       1 PHE        -0.3942
     31 CB        -54.9090   24.0470   26.5140 C.3       1 PHE         0.0214
     32 CG        -53.8490   23.7360   25.4370 C.ar      1 PHE        -0.0386
     33 CD1       -53.9790   24.2660   24.1550 C.ar      1 PHE        -0.0601
     34 CD2       -52.7600   22.9160   25.7370 C.ar      1 PHE        -0.0601
     35 CE1       -53.0130   23.9640   23.1880 C.ar      1 PHE        -0.0686
     36 CE2       -51.8020   22.6120   24.7810 C.ar      1 PHE        -0.0686
     37 CZ        -51.9260   23.1340   23.5000 C.ar      1 PHE        -0.0687
     38 N         -55.9920   20.7890   26.1940 N.am      1 CYS        -0.2685
     39 CA        -56.1430   19.5010   26.8220 C.3       1 CYS         0.1031
     40 C         -57.5870   19.2130   27.2270 C.2       1 CYS         0.0609
     41 O         -57.9010   18.0690   27.5070 O.co2     1 CYS        -0.5666
     42 CB        -55.2510   19.4210   28.0330 C.3       1 CYS         0.0256
     43 SG        -53.6090   19.9140   27.5700 S.3       1 CYS        -0.1742
     44 OXT       -58.3830   20.1360   27.2580 O.co2     1 CYS        -0.5666
     45 N         -68.2110   18.7690   18.8690 N.am      1 ALA        -0.2658
     46 CA        -68.0660   19.9960   19.5800 C.3       1 ALA         0.1283
     47 C         -66.9330   19.7440   20.5710 C.2       1 ALA         0.2061
     48 O         -66.9100   18.7350   21.2480 O.2       1 ALA        -0.3942
     49 CB        -69.3280   20.4150   20.3050 C.3       1 ALA        -0.0244
     50 N         -65.8440   20.6810   20.6540 N.am      1 PRO        -0.2498
     51 CA        -64.7130   20.5200   21.5320 C.3       1 PRO         0.1336
     52 C         -65.1420   20.7180   22.9670 C.2       1 PRO         0.2024
     53 O         -66.0700   21.4660   23.2380 O.2       1 PRO        -0.3945
     54 CB        -63.7200   21.5330   21.0300 C.3       1 PRO        -0.0104
     55 CG        -64.5550   22.6300   20.4210 C.3       1 PRO        -0.0281
     56 CD        -65.7310   21.9030   19.9160 C.3       1 PRO         0.0369
     57 N         -64.4250   19.9970   24.0250 N.am      1 ALA        -0.2713
     58 CA        -64.8170   20.2040   25.3880 C.3       1 ALA         0.1447
     59 C         -63.9610   21.3650   25.8830 C.3       1 ALA         0.2979
     60 O         -64.4320   22.4920   26.0280 O.3       1 ALA        -0.3203
     61 CB        -64.5540   18.9590   26.2030 C.3       1 ALA        -0.0309
     62 OXT       -62.7710   21.2130   26.1540 O.3       1 ALA        -0.2311
     63 C1'       -65.1300   35.4310   24.4770 C.2       1 PHB         0.1990
     64 O1'       -64.1180   36.0020   24.1730 O.2       1 PHB        -0.3896
     65 C1        -66.0370   36.0380   25.5790 C.ar      1 PHB         0.0386
     66 C2        -66.6390   37.2620   25.4520 C.ar      1 PHB        -0.0504
     67 C3        -67.4680   37.7590   26.4660 C.ar      1 PHB        -0.0268
     68 C4        -67.6860   36.9930   27.6360 C.ar      1 PHB         0.1001
     69 C5        -67.0450   35.7530   27.7650 C.ar      1 PHB        -0.0268
     70 C6        -66.2320   35.2690   26.7200 C.ar      1 PHB        -0.0504
     71 O4        -68.5400   37.4870   28.7110 O.3       1 PHB        -0.2814
     72 C1        -69.9220   37.1820   28.5740 C.3       1 GAL         0.2107
     73 C2        -70.2340   35.7210   28.1700 C.3       1 GAL         0.1387
     74 C3        -71.6340   35.2590   28.5470 C.3       1 GAL         0.1145
     75 C4        -72.0070   35.6650   29.9560 C.3       1 GAL         0.1119
     76 C5        -71.7990   37.1460   30.0880 C.3       1 GAL         0.1134
     77 C6        -72.1040   37.6340   31.5070 C.3       1 GAL         0.0730
     78 O2        -70.0970   35.5760   26.7790 O.3       1 GAL        -0.3837
     79 O3        -71.6900   33.8580   28.4440 O.3       1 GAL        -0.3864
     80 O4        -71.2340   34.9400   30.8960 O.3       1 GAL        -0.3865
     81 O5        -70.4610   37.4670   29.8360 O.3       1 GAL        -0.3367
     82 O6        -71.0970   38.5660   31.8800 O.3       1 GAL        -0.3924
     83 C1        -68.2700   17.5970   14.7700 C.3       1 ZDC         0.0849
     84 C1M       -68.9780   18.6990   14.0050 C.3       1 ZDC        -0.0361
     85 C2        -68.0320   16.3950   13.8850 C.3       1 ZDC         0.1093
     86 C3        -67.2490   15.3230   14.6490 C.3       1 ZDC         0.1118
     87 C4        -66.0050   15.8770   15.3330 C.3       1 ZDC         0.1117
     88 C5        -66.3020   17.1980   16.0520 C.3       1 ZDC         0.1040
     89 C6        -67.1400   16.9460   17.3070 C.3       1 ZDC         0.0661
     90 C7        -67.0660   18.2640   18.0910 C.2       1 ZDC         0.1808
     91 O2        -67.3140   16.8010   12.7320 O.3       1 ZDC        -0.3866
     92 O3        -66.8060   14.2810   13.8110 O.3       1 ZDC        -0.3865
     93 O4        -65.5690   14.9190   16.2400 O.3       1 ZDC        -0.3864
     94 O5        -67.0200   18.0650   15.2270 O.3       1 ZDC        -0.3660
     95 O7A       -66.0120   18.8900   18.0250 O.2       1 ZDC        -0.3968
     96 H1        -66.4603   33.8371   24.1979 H         1 ALA         0.1873
     97 H2        -65.6836   32.8038   22.3352 H         1 ALA         0.0796
     98 H3        -63.6555   33.4192   21.1371 H         1 ALA         0.0277
     99 H4        -63.3090   34.7070   22.3404 H         1 ALA         0.0277
    100 H5        -64.7594   34.8282   21.2876 H         1 ALA         0.0277
    101 H6        -63.7793   30.7119   26.0600 H         1 PRO         0.0802
    102 H7        -65.2010   28.9966   26.4946 H         1 PRO         0.0313
    103 H8        -65.0598   28.3331   24.8313 H         1 PRO         0.0313
    104 H9        -66.9444   30.4123   25.9189 H         1 PRO         0.0287
    105 H10       -67.1992   29.1950   24.6227 H         1 PRO         0.0287
    106 H11       -66.1958   30.4804   23.0319 H         1 PRO         0.0524
    107 H12       -66.7152   31.8071   24.1259 H         1 PRO         0.0524
    108 H13       -61.4603   30.3598   25.8931 H         1 ALA         0.1883
    109 H14       -60.6504   28.8087   23.4806 H         1 ALA         0.0797
    110 H15       -58.3936   29.6840   23.9210 H         1 ALA         0.0277
    111 H16       -58.9939   30.5358   25.3841 H         1 ALA         0.0277
    112 H17       -59.5642   31.0364   23.7560 H         1 ALA         0.0277
    113 H18       -59.4904   26.5782   23.9270 H         1 LYS         0.1883
    114 H19       -58.8885   26.3541   26.8126 H         1 LYS         0.0800
    115 H20       -61.2460   25.5501   26.4215 H         1 LYS         0.0312
    116 H21       -60.1379   24.3136   27.1069 H         1 LYS         0.0312
    117 H22       -59.9770   24.1268   24.2207 H         1 LYS         0.0269
    118 H23       -61.7159   24.1715   24.6688 H         1 LYS         0.0269
    119 H24       -59.6141   22.3057   25.9728 H         1 LYS         0.0317
    120 H25       -60.7623   21.8011   24.6868 H         1 LYS         0.0317
    121 H26       -62.3059   23.1274   26.7587 H         1 LYS         0.0827
    122 H27       -61.2235   21.9430   27.5665 H         1 LYS         0.0827
    123 H28       -62.1552   20.2052   26.2573 H         1 LYS         0.2461
    124 H29       -57.6350   24.2012   27.4135 H         1 PHE         0.1885
    125 H30       -56.1848   23.1989   25.0252 H         1 PHE         0.0823
    126 H31       -54.5737   23.6639   27.4891 H         1 PHE         0.0474
    127 H32       -55.0652   25.1338   26.5810 H         1 PHE         0.0474
    128 H33       -54.8192   24.9053   23.9091 H         1 PHE         0.0557
    129 H34       -52.6610   22.5088   26.7367 H         1 PHE         0.0557
    130 H35       -53.1057   24.3751   22.1893 H         1 PHE         0.0599
    131 H36       -50.9635   21.9723   25.0317 H         1 PHE         0.0599
    132 H37       -51.1852   22.9008   22.7437 H         1 PHE         0.0559
    133 H38       -55.5931   20.8288   25.2779 H         1 CYS         0.1876
    134 H39       -55.8297   18.7306   26.1021 H         1 CYS         0.0734
    135 H40       -55.2337   18.3883   28.4116 H         1 CYS         0.0415
    136 H41       -55.6311   20.0926   28.8169 H         1 CYS         0.0415
    137 H42       -53.2646   19.2975   26.8507 H         1 CYS         0.1018
    138 H43       -69.0721   18.2614   18.8976 H         1 LYS         0.1882
    139 H44       -67.7844   20.7966   18.8802 H         1 LYS         0.0797
    140 H45       -69.1505   21.3645   20.8312 H         1 LYS         0.0277
    141 H46       -69.6075   19.6391   21.0329 H         1 LYS         0.0277
    142 H47       -70.1426   20.5458   19.5775 H         1 LYS         0.0277
    143 H48       -64.2894   19.5096   21.4333 H         1 LYS         0.0802
    144 H49       -63.0595   21.0847   20.2732 H         1 LYS         0.0313
    145 H50       -63.1138   21.9244   21.8603 H         1 LYS         0.0313
    146 H51       -64.0165   23.1297   19.6022 H         1 LYS         0.0287
    147 H52       -64.8442   23.3742   21.1776 H         1 LYS         0.0287
    148 H53       -66.6362   22.5112   20.0595 H         1 LYS         0.0524
    149 H54       -65.6030   21.6828   18.8459 H         1 LYS         0.0524
    150 H55       -63.6769   19.3729   23.7993 H         1 LYS         0.1859
    151 H56       -65.8847   20.4618   25.4473 H         1 LYS         0.0671
    152 H57       -64.3425   22.7570   26.9359 H         1 LYS         0.2185
    153 H58       -64.8592   19.1320   27.2456 H         1 LYS         0.0256
    154 H59       -63.4810   18.7190   26.1701 H         1 LYS         0.0256
    155 H60       -65.1304   18.1197   25.7867 H         1 LYS         0.0256
    156 H61       -66.4722   37.8518   24.5579 H         1 ALA         0.0642
    157 H62       -67.9413   38.7278   26.3548 H         1 ALA         0.0556
    158 H63       -67.1744   35.1668   28.6676 H         1 ALA         0.0556
    159 H64       -65.7591   34.2974   26.8064 H         1 ALA         0.0642
    160 H65       -70.3643   37.8447   27.8156 H         1 ALA         0.0995
    161 H66       -69.5071   35.0677   28.6748 H         1 ALA         0.0675
    162 H67       -72.3555   35.7063   27.8474 H         1 ALA         0.0648
    163 H68       -73.0693   35.4378   30.1287 H         1 ALA         0.0647
    164 H69       -72.4516   37.6642   29.3700 H         1 ALA         0.0647
    165 H70       -72.0999   36.7823   32.2031 H         1 ALA         0.0584
    166 H71       -73.0898   38.1214   31.5298 H         1 ALA         0.0584
    167 H72       -70.2193   34.6639   26.5432 H         1 ALA         0.2101
    168 H73       -71.0800   33.4716   29.0613 H         1 ALA         0.2100
    169 H74       -71.3908   34.0098   30.7831 H         1 ALA         0.2100
    170 H75       -70.2481   38.1402   31.8553 H         1 ALA         0.2095
    171 H76       -68.8894   17.3002   15.6292 H         1 LYS         0.0620
    172 H77       -69.1395   19.5609   14.6691 H         1 LYS         0.0255
    173 H78       -69.9482   18.3287   13.6424 H         1 LYS         0.0255
    174 H79       -68.3597   19.0066   13.1488 H         1 LYS         0.0255
    175 H80       -69.0014   15.9765   13.5767 H         1 LYS         0.0646
    176 H81       -67.9184   14.9041   15.4147 H         1 LYS         0.0647
    177 H82       -65.2231   16.0530   14.5796 H         1 LYS         0.0648
    178 H83       -65.3497   17.6698   16.3357 H         1 LYS         0.0648
    179 H84       -66.7178   16.1189   17.8966 H         1 LYS         0.0529
    180 H85       -68.1807   16.7113   17.0388 H         1 LYS         0.0529
    181 H86       -67.1788   16.0514   12.1643 H         1 LYS         0.2100
    182 H87       -67.5505   13.9011   13.3594 H         1 LYS         0.2100
    183 H88       -64.7768   15.2250   16.6657 H         1 LYS         0.2100
@<TRIPOS>BOND
     1    2    1 1  
     2    1   63 am 
     3    3    2 1  
     4    2    5 1  
     5    3    4 2  
     6    6    3 am 
     7    7    6 1  
     8    6   12 1  
     9    8    7 1  
    10    7   10 1  
    11    8    9 2  
    12   13    8 am 
    13   10   11 1  
    14   11   12 1  
    15   14   13 1  
    16   15   14 1  
    17   14   17 1  
    18   15   16 2  
    19   18   15 am 
    20   19   18 1  
    21   19   20 1  
    22   22   19 1  
    23   20   21 2  
    24   20   27 am 
    25   23   22 1  
    26   24   23 1  
    27   25   24 1  
    28   26   25 1  
    29   59   26 1  
    30   62   26 1  
    31   27   28 1  
    32   28   29 1  
    33   28   31 1  
    34   29   30 2  
    35   29   38 am 
    36   31   32 1  
    37   32   33 ar 
    38   32   34 ar 
    39   33   35 ar 
    40   34   36 ar 
    41   35   37 ar 
    42   36   37 ar 
    43   38   39 1  
    44   39   40 1  
    45   39   42 1  
    46   40   41 ar 
    47   40   44 ar 
    48   42   43 1  
    49   45   46 1  
    50   90   45 am 
    51   46   47 1  
    52   46   49 1  
    53   47   48 2  
    54   47   50 am 
    55   50   51 1  
    56   50   56 1  
    57   51   52 1  
    58   51   54 1  
    59   52   53 2  
    60   52   57 am 
    61   55   54 1  
    62   56   55 1  
    63   57   58 1  
    64   58   59 1  
    65   58   61 1  
    66   59   60 1  
    67   59   62 1  
    68   63   64 2  
    69   63   65 1  
    70   65   66 ar 
    71   65   70 ar 
    72   66   67 ar 
    73   67   68 ar 
    74   69   68 ar 
    75   68   71 1  
    76   70   69 ar 
    77   71   72 1  
    78   72   73 1  
    79   72   81 1  
    80   73   74 1  
    81   73   78 1  
    82   74   75 1  
    83   74   79 1  
    84   76   75 1  
    85   75   80 1  
    86   76   77 1  
    87   81   76 1  
    88   77   82 1  
    89   83   84 1  
    90   83   85 1  
    91   94   83 1  
    92   86   85 1  
    93   85   91 1  
    94   87   86 1  
    95   86   92 1  
    96   88   87 1  
    97   87   93 1  
    98   89   88 1  
    99   88   94 1  
   100   89   90 1  
   101   90   95 2  
   102    1   96 1  
   103    2   97 1  
   104    5   98 1  
   105    5   99 1  
   106    5  100 1  
   107    7  101 1  
   108   10  102 1  
   109   10  103 1  
   110   11  104 1  
   111   11  105 1  
   112   12  106 1  
   113   12  107 1  
   114   13  108 1  
   115   14  109 1  
   116   17  110 1  
   117   17  111 1  
   118   17  112 1  
   119   18  113 1  
   120   19  114 1  
   121   22  115 1  
   122   22  116 1  
   123   23  117 1  
   124   23  118 1  
   125   24  119 1  
   126   24  120 1  
   127   25  121 1  
   128   25  122 1  
   129   26  123 1  
   130   27  124 1  
   131   28  125 1  
   132   31  126 1  
   133   31  127 1  
   134   33  128 1  
   135   34  129 1  
   136   35  130 1  
   137   36  131 1  
   138   37  132 1  
   139   38  133 1  
   140   39  134 1  
   141   42  135 1  
   142   42  136 1  
   143   43  137 1  
   144   45  138 1  
   145   46  139 1  
   146   49  140 1  
   147   49  141 1  
   148   49  142 1  
   149   51  143 1  
   150   54  144 1  
   151   54  145 1  
   152   55  146 1  
   153   55  147 1  
   154   56  148 1  
   155   56  149 1  
   156   57  150 1  
   157   58  151 1  
   158   60  152 1  
   159   61  153 1  
   160   61  154 1  
   161   61  155 1  
   162   66  156 1  
   163   67  157 1  
   164   69  158 1  
   165   70  159 1  
   166   72  160 1  
   167   73  161 1  
   168   74  162 1  
   169   75  163 1  
   170   76  164 1  
   171   77  165 1  
   172   77  166 1  
   173   78  167 1  
   174   79  168 1  
   175   80  169 1  
   176   82  170 1  
   177   83  171 1  
   178   84  172 1  
   179   84  173 1  
   180   84  174 1  
   181   85  175 1  
   182   86  176 1  
   183   87  177 1  
   184   88  178 1  
   185   89  179 1  
   186   89  180 1  
   187   91  181 1  
   188   92  182 1  
   189   93  183 1  
@<TRIPOS>SUBSTRUCTURE
     1 ALA         1

