5d2a_ligand
  -I-interpret- 

184190  0  0  0  0  0  0  0  0999 V2000
  -65.5790   34.1820   23.8750 N   0  0  0  0  0
  -64.9250   33.3830   22.8820 C   0  0  0  0  0
  -64.0700   32.4390   23.7320 C   0  0  0  0  0
  -62.9040   32.7010   23.9730 O   0  0  0  0  0
  -64.1050   34.1370   21.8390 C   0  0  0  0  0
  -64.7170   31.2520   24.2730 N   0  0  0  0  0
  -64.1070   30.2440   25.1200 C   0  0  0  0  0
  -62.8920   29.6170   24.4700 C   0  0  0  0  0
  -63.0190   28.9590   23.4650 O   0  0  0  0  0
  -65.2010   29.2490   25.4240 C   0  0  0  0  0
  -66.4890   29.9200   25.0470 C   0  0  0  0  0
  -66.0860   30.9090   24.0390 C   0  0  0  0  0
  -61.5590   29.8050   25.0670 N   0  0  0  0  0
  -60.4060   29.2030   24.4780 C   0  0  0  0  0
  -59.9790   28.0780   25.4220 C   0  0  0  0  0
  -60.0090   28.2570   26.6240 O   0  0  0  0  0
  -59.2620   30.1810   24.3780 C   0  0  0  0  0
  -59.5350   26.7770   24.9060 N   0  0  0  0  0
  -59.1710   25.8140   25.8970 C   0  0  0  0  0
  -57.9830   24.9830   25.4580 C   0  0  0  0  0
  -57.5820   24.9800   24.3030 O   0  0  0  0  0
  -60.3700   24.9170   26.2170 C   0  0  0  0  0
  -60.6990   23.9670   25.0350 C   0  0  0  0  0
  -60.6080   22.4830   25.5360 C   0  0  0  0  0
  -61.7010   22.2200   26.6150 C   0  0  0  0  0
  -62.5570   21.1240   26.1550 N   0  3  0  0  0
  -57.3130   24.1820   26.4670 N   0  0  0  0  0
  -56.1970   23.3680   26.1120 C   0  0  0  0  0
  -56.3950   22.0410   26.8340 C   0  0  0  0  0
  -56.9160   22.0550   27.9380 O   0  0  0  0  0
  -54.9090   24.0470   26.5140 C   0  0  0  0  0
  -53.8490   23.7360   25.4370 C   0  0  0  0  0
  -53.9790   24.2660   24.1550 C   0  0  0  0  0
  -52.7600   22.9160   25.7370 C   0  0  0  0  0
  -53.0130   23.9640   23.1880 C   0  0  0  0  0
  -51.8020   22.6120   24.7810 C   0  0  0  0  0
  -51.9260   23.1340   23.5000 C   0  0  0  0  0
  -55.9920   20.7890   26.1940 N   0  0  0  0  0
  -56.1430   19.5010   26.8220 C   0  0  0  0  0
  -57.5870   19.2130   27.2270 C   0  0  0  0  0
  -57.9010   18.0690   27.5070 O   0  0  0  0  0
  -55.2510   19.4210   28.0330 C   0  0  0  0  0
  -53.6090   19.9140   27.5700 S   0  0  0  0  0
  -58.3830   20.1360   27.2580 O   0  0  0  0  0
  -68.2110   18.7690   18.8690 N   0  0  0  0  0
  -68.0660   19.9960   19.5800 C   0  0  0  0  0
  -66.9330   19.7440   20.5710 C   0  0  0  0  0
  -66.9100   18.7350   21.2480 O   0  0  0  0  0
  -69.3280   20.4150   20.3050 C   0  0  0  0  0
  -65.8440   20.6810   20.6540 N   0  0  0  0  0
  -64.7130   20.5200   21.5320 C   0  0  0  0  0
  -65.1420   20.7180   22.9670 C   0  0  0  0  0
  -66.0700   21.4660   23.2380 O   0  0  0  0  0
  -63.7200   21.5330   21.0300 C   0  0  0  0  0
  -64.5550   22.6300   20.4210 C   0  0  0  0  0
  -65.7310   21.9030   19.9160 C   0  0  0  0  0
  -64.4250   19.9970   24.0250 N   0  0  0  0  0
  -64.8170   20.2040   25.3880 C   0  0  0  0  0
  -63.9610   21.3650   25.8830 C   0  0  0  0  0
  -64.4320   22.4920   26.0280 O   0  0  0  0  0
  -64.5540   18.9590   26.2030 C   0  0  0  0  0
  -62.7710   21.2130   26.1540 O   0  0  0  0  0
  -65.1300   35.4310   24.4770 C   0  0  0  0  0
  -64.1180   36.0020   24.1730 O   0  0  0  0  0
  -66.0370   36.0380   25.5790 C   0  0  0  0  0
  -66.6390   37.2620   25.4520 C   0  0  0  0  0
  -67.4680   37.7590   26.4660 C   0  0  0  0  0
  -67.6860   36.9930   27.6360 C   0  0  0  0  0
  -67.0450   35.7530   27.7650 C   0  0  0  0  0
  -66.2320   35.2690   26.7200 C   0  0  0  0  0
  -68.5400   37.4870   28.7110 O   0  0  0  0  0
  -69.9220   37.1820   28.5740 C   0  0  0  0  0
  -70.2340   35.7210   28.1700 C   0  0  0  0  0
  -71.6340   35.2590   28.5470 C   0  0  0  0  0
  -72.0070   35.6650   29.9560 C   0  0  0  0  0
  -71.7990   37.1460   30.0880 C   0  0  0  0  0
  -72.1040   37.6340   31.5070 C   0  0  0  0  0
  -70.0970   35.5760   26.7790 O   0  0  0  0  0
  -71.6900   33.8580   28.4440 O   0  0  0  0  0
  -71.2340   34.9400   30.8960 O   0  0  0  0  0
  -70.4610   37.4670   29.8360 O   0  0  0  0  0
  -71.0970   38.5660   31.8800 O   0  0  0  0  0
  -68.2700   17.5970   14.7700 C   0  0  0  0  0
  -68.9780   18.6990   14.0050 C   0  0  0  0  0
  -68.0320   16.3950   13.8850 C   0  0  0  0  0
  -67.2490   15.3230   14.6490 C   0  0  0  0  0
  -66.0050   15.8770   15.3330 C   0  0  0  0  0
  -66.3020   17.1980   16.0520 C   0  0  0  0  0
  -67.1400   16.9460   17.3070 C   0  0  0  0  0
  -67.0660   18.2640   18.0910 C   0  0  0  0  0
  -67.3140   16.8010   12.7320 O   0  0  0  0  0
  -66.8060   14.2810   13.8110 O   0  0  0  0  0
  -65.5690   14.9190   16.2400 O   0  0  0  0  0
  -67.0200   18.0650   15.2270 O   0  0  0  0  0
  -66.0120   18.8900   18.0250 O   0  0  0  0  0
  -66.4780   33.8302   24.2043 H   0  0  0  0  0
  -65.6525   32.8875   22.2391 H   0  0  0  0  0
  -63.3429   34.7339   22.3400 H   0  0  0  0  0
  -63.6266   33.4226   21.1690 H   0  0  0  0  0
  -64.7619   34.7911   21.2657 H   0  0  0  0  0
  -63.7177   30.6743   26.0427 H   0  0  0  0  0
  -65.1966   28.9677   26.4771 H   0  0  0  0  0
  -65.0596   28.3244   24.8643 H   0  0  0  0  0
  -66.9848   30.3778   25.9030 H   0  0  0  0  0
  -67.2280   29.2155   24.6653 H   0  0  0  0  0
  -66.2027   30.4934   23.0381 H   0  0  0  0  0
  -66.7132   31.7973   24.1134 H   0  0  0  0  0
  -61.4584   30.3709   25.9096 H   0  0  0  0  0
  -60.6459   28.8543   23.4735 H   0  0  0  0  0
  -59.5627   31.0281   23.7615 H   0  0  0  0  0
  -58.9973   30.5318   25.3755 H   0  0  0  0  0
  -58.4022   29.6874   23.9250 H   0  0  0  0  0
  -59.4895   26.5743   23.9074 H   0  0  0  0  0
  -58.8757   26.3503   26.7988 H   0  0  0  0  0
  -61.2368   25.5514   26.4024 H   0  0  0  0  0
  -60.1256   24.3114   27.0897 H   0  0  0  0  0
  -59.9878   24.1268   24.2246 H   0  0  0  0  0
  -61.7046   24.1709   24.6670 H   0  0  0  0  0
  -59.6238   22.3101   25.9714 H   0  0  0  0  0
  -60.7644   21.8089   24.6939 H   0  0  0  0  0
  -62.2981   23.1194   26.7655 H   0  0  0  0  0
  -61.2315   21.9522   27.5615 H   0  0  0  0  0
  -61.8350   20.4067   26.0875 H   0  0  0  0  0
  -57.6415   24.2016   27.4325 H   0  0  0  0  0
  -56.1320   23.2056   25.0361 H   0  0  0  0  0
  -54.5774   23.6802   27.4854 H   0  0  0  0  0
  -55.0600   25.1235   26.5936 H   0  0  0  0  0
  -54.8238   24.9089   23.9077 H   0  0  0  0  0
  -52.6604   22.5065   26.7422 H   0  0  0  0  0
  -53.1062   24.3774   22.1838 H   0  0  0  0  0
  -50.9589   21.9688   25.0331 H   0  0  0  0  0
  -51.1811   22.8995   22.7395 H   0  0  0  0  0
  -55.5851   20.8296   25.2596 H   0  0  0  0  0
  -55.8556   18.7467   26.0895 H   0  0  0  0  0
  -55.2360   18.3996   28.4132 H   0  0  0  0  0
  -55.6283   20.0819   28.8133 H   0  0  0  0  0
  -52.8116   19.8473   28.6324 H   0  0  0  0  0
  -57.9390   20.9487   27.0050 H   0  0  0  0  0
  -69.0893   18.2512   18.8982 H   0  0  0  0  0
  -67.8555   20.8149   18.8922 H   0  0  0  0  0
  -70.1344   20.5442   19.5831 H   0  0  0  0  0
  -69.6039   19.6454   21.0259 H   0  0  0  0  0
  -69.1508   21.3559   20.8260 H   0  0  0  0  0
  -64.2686   19.5247   21.5246 H   0  0  0  0  0
  -63.0323   21.0989   20.3043 H   0  0  0  0  0
  -63.0846   21.9075   21.8325 H   0  0  0  0  0
  -64.0290   23.1799   19.6406 H   0  0  0  0  0
  -64.8141   23.4119   21.1349 H   0  0  0  0  0
  -66.6304   22.5054   20.0436 H   0  0  0  0  0
  -65.6164   21.6924   18.8527 H   0  0  0  0  0
  -63.6620   19.3605   23.7948 H   0  0  0  0  0
  -65.8810   20.4223   25.4798 H   0  0  0  0  0
  -65.3663   22.4779   25.8076 H   0  0  0  0  0
  -65.1256   18.1281   25.7895 H   0  0  0  0  0
  -63.4905   18.7223   26.1695 H   0  0  0  0  0
  -64.8568   19.1317   27.2358 H   0  0  0  0  0
  -66.4713   37.8551   24.5530 H   0  0  0  0  0
  -67.9440   38.7332   26.3542 H   0  0  0  0  0
  -67.1751   35.1635   28.6726 H   0  0  0  0  0
  -65.7565   34.2920   26.8069 H   0  0  0  0  0
  -70.3496   37.7653   27.7585 H   0  0  0  0  0
  -69.5228   35.1056   28.7210 H   0  0  0  0  0
  -72.3411   35.7328   27.8661 H   0  0  0  0  0
  -73.0527   35.4332   30.1580 H   0  0  0  0  0
  -72.4705   37.6216   29.3732 H   0  0  0  0  0
  -72.1122   36.7926   32.1999 H   0  0  0  0  0
  -73.0849   38.1083   31.5383 H   0  0  0  0  0
  -70.2913   34.6688   26.5323 H   0  0  0  0  0
  -72.5701   33.5558   28.6800 H   0  0  0  0  0
  -71.4802   35.2067   31.7847 H   0  0  0  0  0
  -71.2707   38.8845   32.7688 H   0  0  0  0  0
  -68.9023   17.3087   15.6097 H   0  0  0  0  0
  -68.3644   19.0029   13.1569 H   0  0  0  0  0
  -69.9392   18.3308   13.6462 H   0  0  0  0  0
  -69.1374   19.5524   14.6640 H   0  0  0  0  0
  -68.9894   15.9702   13.5834 H   0  0  0  0  0
  -67.9591   14.9520   15.3881 H   0  0  0  0  0
  -65.2361   16.0883   14.5899 H   0  0  0  0  0
  -65.3438   17.6451   16.3166 H   0  0  0  0  0
  -66.7627   16.1041   17.8874 H   0  0  0  0  0
  -68.1668   16.6727   17.0641 H   0  0  0  0  0
  -67.1609   16.0399   12.1673 H   0  0  0  0  0
  -66.3225   13.6361   14.3325 H   0  0  0  0  0
  -64.7833   15.2393   16.6891 H   0  0  0  0  0
  2  1  1  0  0  0
  1 63  1  0  0  0
  3  2  1  0  0  0
  2  5  1  0  0  0
  3  4  2  0  0  0
  6  3  1  0  0  0
  7  6  1  0  0  0
  6 12  1  0  0  0
  8  7  1  0  0  0
  7 10  1  0  0  0
  8  9  2  0  0  0
 13  8  1  0  0  0
 10 11  1  0  0  0
 11 12  1  0  0  0
 14 13  1  0  0  0
 15 14  1  0  0  0
 14 17  1  0  0  0
 15 16  2  0  0  0
 18 15  1  0  0  0
 19 18  1  0  0  0
 19 20  1  0  0  0
 22 19  1  0  0  0
 20 21  2  0  0  0
 20 27  1  0  0  0
 23 22  1  0  0  0
 24 23  1  0  0  0
 25 24  1  0  0  0
 26 25  1  0  0  0
 59 26  1  0  0  0
 62 26  1  0  0  0
 27 28  1  0  0  0
 28 29  1  0  0  0
 28 31  1  0  0  0
 29 30  2  0  0  0
 29 38  1  0  0  0
 31 32  1  0  0  0
 32 33  4  0  0  0
 32 34  4  0  0  0
 33 35  4  0  0  0
 34 36  4  0  0  0
 35 37  4  0  0  0
 36 37  4  0  0  0
 38 39  1  0  0  0
 39 40  1  0  0  0
 39 42  1  0  0  0
 40 41  2  0  0  0
 40 44  1  0  0  0
 42 43  1  0  0  0
 45 46  1  0  0  0
 90 45  1  0  0  0
 46 47  1  0  0  0
 46 49  1  0  0  0
 47 48  2  0  0  0
 47 50  1  0  0  0
 50 51  1  0  0  0
 50 56  1  0  0  0
 51 52  1  0  0  0
 51 54  1  0  0  0
 52 53  2  0  0  0
 52 57  1  0  0  0
 55 54  1  0  0  0
 56 55  1  0  0  0
 57 58  1  0  0  0
 58 59  1  0  0  0
 58 61  1  0  0  0
 59 60  1  0  0  0
 59 62  1  0  0  0
 63 64  2  0  0  0
 63 65  1  0  0  0
 65 66  4  0  0  0
 65 70  4  0  0  0
 66 67  4  0  0  0
 67 68  4  0  0  0
 69 68  4  0  0  0
 68 71  1  0  0  0
 70 69  4  0  0  0
 71 72  1  0  0  0
 72 73  1  0  0  0
 72 81  1  0  0  0
 73 74  1  0  0  0
 73 78  1  0  0  0
 74 75  1  0  0  0
 74 79  1  0  0  0
 76 75  1  0  0  0
 75 80  1  0  0  0
 76 77  1  0  0  0
 81 76  1  0  0  0
 77 82  1  0  0  0
 83 84  1  0  0  0
 83 85  1  0  0  0
 94 83  1  0  0  0
 86 85  1  0  0  0
 85 91  1  0  0  0
 87 86  1  0  0  0
 86 92  1  0  0  0
 88 87  1  0  0  0
 87 93  1  0  0  0
 89 88  1  0  0  0
 88 94  1  0  0  0
 89 90  1  0  0  0
 90 95  2  0  0  0
  1 96  1  0  0  0
  2 97  1  0  0  0
  5 98  1  0  0  0
  5 99  1  0  0  0
  5100  1  0  0  0
  7101  1  0  0  0
 10102  1  0  0  0
 10103  1  0  0  0
 11104  1  0  0  0
 11105  1  0  0  0
 12106  1  0  0  0
 12107  1  0  0  0
 13108  1  0  0  0
 14109  1  0  0  0
 17110  1  0  0  0
 17111  1  0  0  0
 17112  1  0  0  0
 18113  1  0  0  0
 19114  1  0  0  0
 22115  1  0  0  0
 22116  1  0  0  0
 23117  1  0  0  0
 23118  1  0  0  0
 24119  1  0  0  0
 24120  1  0  0  0
 25121  1  0  0  0
 25122  1  0  0  0
 26123  1  0  0  0
 27124  1  0  0  0
 28125  1  0  0  0
 31126  1  0  0  0
 31127  1  0  0  0
 33128  1  0  0  0
 34129  1  0  0  0
 35130  1  0  0  0
 36131  1  0  0  0
 37132  1  0  0  0
 38133  1  0  0  0
 39134  1  0  0  0
 42135  1  0  0  0
 42136  1  0  0  0
 43137  1  0  0  0
 44138  1  0  0  0
 45139  1  0  0  0
 46140  1  0  0  0
 49141  1  0  0  0
 49142  1  0  0  0
 49143  1  0  0  0
 51144  1  0  0  0
 54145  1  0  0  0
 54146  1  0  0  0
 55147  1  0  0  0
 55148  1  0  0  0
 56149  1  0  0  0
 56150  1  0  0  0
 57151  1  0  0  0
 58152  1  0  0  0
 60153  1  0  0  0
 61154  1  0  0  0
 61155  1  0  0  0
 61156  1  0  0  0
 66157  1  0  0  0
 67158  1  0  0  0
 69159  1  0  0  0
 70160  1  0  0  0
 72161  1  0  0  0
 73162  1  0  0  0
 74163  1  0  0  0
 75164  1  0  0  0
 76165  1  0  0  0
 77166  1  0  0  0
 77167  1  0  0  0
 78168  1  0  0  0
 79169  1  0  0  0
 80170  1  0  0  0
 82171  1  0  0  0
 83172  1  0  0  0
 84173  1  0  0  0
 84174  1  0  0  0
 84175  1  0  0  0
 85176  1  0  0  0
 86177  1  0  0  0
 87178  1  0  0  0
 88179  1  0  0  0
 89180  1  0  0  0
 89181  1  0  0  0
 91182  1  0  0  0
 92183  1  0  0  0
 93184  1  0  0  0
M  END
$$$$
