#	Name:			6rtn_ligand
#	Creating user name:	wangrx
#	Creation time:		Thu Aug  5 18:18:49 2021

#	Modifying user name:	wangrx
#	Modification time:	Thu Aug  5 18:19:18 2021

@<TRIPOS>MOLECULE
6rtn_ligand
   58    60     1     0     0
SMALL
GAST_HUCK


@<TRIPOS>ATOM
      1 B07        19.5580  -14.7180    0.6590 B         1 KJK         3.0000 
      2 C10        21.6680  -13.9590    1.5720 C.ar      1 KJK         0.0514 
      3 C11        22.5780  -12.9310    1.4450 C.ar      1 KJK        -0.0834 
      4 C12        22.0740  -11.5580    0.9810 C.2       1 KJK        -0.0182 
      5 C15        23.9330  -13.1660    1.7330 C.ar      1 KJK        -0.1625 
      6 C16        24.3540  -14.4440    2.1570 C.ar      1 KJK        -0.1672 
      7 C17        23.4240  -15.4830    2.2950 C.ar      1 KJK        -0.1745 
      8 C18        22.0910  -15.2380    2.0130 C.ar      1 KJK        -0.1337 
      9 C19        20.9900  -16.3380    2.1260 C.3       1 KJK        -0.1581 
     10 C20        20.0680  -16.1990    0.9350 C.3       1 KJK        -0.2225 
     11 C22        21.2710  -18.0750   -0.3940 C.2       1 KJK         0.1481 
     12 C23        22.1240  -18.5210   -1.6150 C.3       1 KJK         0.0376 
     13 C24        23.5880  -18.7240   -1.2220 C.3       1 KJK        -0.0239 
     14 C25        24.1970  -17.3490   -0.8310 C.3       1 KJK        -0.0430 
     15 C26        25.6810  -17.4760   -0.4740 C.3       1 KJK        -0.0093 
     16 C27        26.5000  -18.1180   -1.6050 C.3       1 KJK        -0.0224 
     17 C29        28.6560  -17.2130   -0.8250 C.3       1 KJK         0.0076 
     18 C30        29.9720  -17.5850   -0.1580 C.3       1 KJK         0.0057 
     19 C32        25.8760  -19.4230   -2.1720 C.3       1 KJK        -0.0093 
     20 C33        24.3450  -19.3780   -2.3780 C.3       1 KJK        -0.0430 
     21 N21        20.8720  -16.6480   -0.2420 N.am      1 KJK        -0.4370 
     22 N28        27.8390  -18.4540   -1.0900 N.4       1 KJK         0.2329 
     23 N31        30.0310  -17.0530    1.1920 N.4       1 KJK         0.2223 
     24 O08        19.6050  -14.5060   -0.6960 O.3       1 KJK        -0.4105 
     25 O09        20.2460  -13.7190    1.2760 O.3       1 KJK        -0.1792 
     26 O13        22.1040  -11.2510   -0.2430 O.co2     1 KJK        -0.5976 
     27 O14        21.6160  -10.7330    1.8030 O.co2     1 KJK        -0.5976 
     28 O34        20.9380  -18.8780    0.4230 O.2       1 KJK        -0.3996 
     29 H1         24.6555  -12.3646    1.6293 H         1 KJK         0.0065 
     30 H2         25.4003  -14.6228    2.3767 H         1 KJK         0.0254 
     31 H3         23.7444  -16.4667    2.6186 H         1 KJK        -0.0243 
     32 H4         20.4204  -16.2020    3.0571 H         1 KJK        -0.0002 
     33 H5         21.4559  -17.3344    2.1233 H         1 KJK        -0.0002 
     34 H7         19.1794  -16.8352    1.0596 H         1 KJK        -0.1809 
     35 H8         22.0658  -17.7477   -2.3951 H         1 KJK         0.0504 
     36 H9         21.7230  -19.4676   -2.0064 H         1 KJK         0.0504 
     37 H10        23.6380  -19.3922   -0.3496 H         1 KJK         0.0325 
     38 H11        23.6528  -16.9507    0.0380 H         1 KJK         0.0271 
     39 H12        24.0910  -16.6565   -1.6790 H         1 KJK         0.0271 
     40 H13        25.7758  -18.0979    0.4283 H         1 KJK         0.0320 
     41 H14        26.0833  -16.4724   -0.2717 H         1 KJK         0.0320 
     42 H15        26.5913  -17.3886   -2.4233 H         1 KJK         0.0850 
     43 H16        28.8624  -16.7032   -1.7776 H         1 KJK         0.0867 
     44 H17        28.0907  -16.5398   -0.1638 H         1 KJK         0.0867 
     45 H18        30.8046  -17.1713   -0.7459 H         1 KJK         0.0866 
     46 H19        30.0599  -18.6808   -0.1185 H         1 KJK         0.0866 
     47 H20        26.1024  -20.2415   -1.4729 H         1 KJK         0.0320 
     48 H21        26.3453  -19.6312   -3.1448 H         1 KJK         0.0320 
     49 H22        24.1348  -18.8100   -3.2962 H         1 KJK         0.0271 
     50 H23        23.9797  -20.4092   -2.4930 H         1 KJK         0.0271 
     51 H24        21.1455  -15.9822   -0.9362 H         1 KJK         0.1460 
     52 H25        28.3185  -19.0229   -1.7701 H         1 KJK         0.2018 
     53 H26        27.7393  -18.9705   -0.2301 H         1 KJK         0.2018 
     54 H27        30.9086  -17.3097    1.6162 H         1 KJK         0.1996 
     55 H28        29.2715  -17.4317    1.7359 H         1 KJK         0.1996 
     56 H29        29.9539  -16.0484    1.1610 H         1 KJK         0.1996 
     57 H30        20.5102  -14.5085   -0.9846 H         1 KJK         0.2052 
     58 H31        20.5101  -14.5085   -0.9846 H         1 KJK         0.2052 
@<TRIPOS>BOND
     1   10    1 1    
     2    1   24 1    
     3    1   25 1    
     4    2    3 ar   
     5    8    2 ar   
     6   25    2 1    
     7    3    4 1    
     8    3    5 ar   
     9    4   26 ar   
    10    4   27 ar   
    11    6    5 ar   
    12    7    6 ar   
    13    8    7 ar   
    14    9    8 1    
    15   10    9 1    
    16   21   10 1    
    17   12   11 1    
    18   11   21 am   
    19   11   28 2    
    20   13   12 1    
    21   14   13 1    
    22   13   20 1    
    23   15   14 1    
    24   16   15 1    
    25   16   19 1    
    26   22   16 1    
    27   17   18 1    
    28   17   22 1    
    29   18   23 1    
    30   19   20 1    
    31    5   29 1    
    32    6   30 1    
    33    7   31 1    
    34    9   32 1    
    35    9   33 1    
    36   10   34 1    
    37   12   35 1    
    38   12   36 1    
    39   13   37 1    
    40   14   38 1    
    41   14   39 1    
    42   15   40 1    
    43   15   41 1    
    44   16   42 1    
    45   17   43 1    
    46   17   44 1    
    47   18   45 1    
    48   18   46 1    
    49   19   47 1    
    50   19   48 1    
    51   20   49 1    
    52   20   50 1    
    53   21   51 1    
    54   22   52 1    
    55   22   53 1    
    56   23   54 1    
    57   23   55 1    
    58   23   56 1    
    59   24   57 1    
    60   24   58 1    
@<TRIPOS>SUBSTRUCTURE
     1 KJK         1 PERM              0 ****  ****    0 ROOT 
