6rtn_ligand

Created by X-TOOL on Mon Aug  2 16:10:24 2021
 60 62  0  0  0  0  0  0  0  0999 V2000
   19.5580  -14.7180    0.6590  B 0  0  0  1  0  3
   21.6680  -13.9590    1.5720  C 0  0  0  1  0  3
   22.5780  -12.9310    1.4450  C 0  0  0  1  0  3
   22.0740  -11.5580    0.9810  C 0  5  0  1  0  3
   23.9330  -13.1660    1.7330  C 0  0  0  2  0  3
   24.3540  -14.4440    2.1570  C 0  0  0  2  0  3
   23.4240  -15.4830    2.2950  C 0  0  0  2  0  3
   22.0910  -15.2380    2.0130  C 0  0  0  1  0  3
   20.9900  -16.3380    2.1260  C 0  0  0  3  0  4
   20.0680  -16.1990    0.9350  C 0  0  0  3  0  5
   21.2710  -18.0750   -0.3940  C 0  0  0  1  0  3
   22.1240  -18.5210   -1.6150  C 0  0  0  3  0  4
   23.5880  -18.7240   -1.2220  C 0  0  0  2  0  4
   24.1970  -17.3490   -0.8310  C 0  0  0  3  0  4
   25.6810  -17.4760   -0.4740  C 0  0  0  3  0  4
   26.5000  -18.1180   -1.6050  C 0  0  0  2  0  4
   28.6560  -17.2130   -0.8250  C 0  0  0  3  0  4
   29.9720  -17.5850   -0.1580  C 0  0  0  3  0  4
   25.8760  -19.4230   -2.1720  C 0  0  0  3  0  4
   24.3450  -19.3780   -2.3780  C 0  0  0  3  0  4
   20.8720  -16.6480   -0.2420  N 0  0  0  2  0  3
   27.8390  -18.4540   -1.0900  N 0  3  0  3  0  4
   30.0310  -17.0530    1.1920  N 0  3  0  4  0  4
   19.6050  -14.5060   -0.6960  O 0  0  0  3  0  3
   20.2460  -13.7190    1.2760  O 0  0  0  2  0  3
   22.1040  -11.2510   -0.2430  O 0  0  0  1  0  1
   21.6160  -10.7330    1.8030  O 0  0  0  1  0  1
   20.9380  -18.8780    0.4230  O 0  0  0  1  0  1
   24.6555  -12.3646    1.6293  H 0  0  0  1  0  1
   25.4003  -14.6228    2.3767  H 0  0  0  1  0  1
   23.7444  -16.4667    2.6186  H 0  0  0  1  0  1
   20.4204  -16.2020    3.0571  H 0  0  0  1  0  1
   21.4559  -17.3344    2.1233  H 0  0  0  1  0  1
   19.7548  -15.1519    0.8105  H 0  0  0  1  0  1
   19.1794  -16.8352    1.0596  H 0  0  0  1  0  1
   22.0658  -17.7477   -2.3951  H 0  0  0  1  0  1
   21.7230  -19.4676   -2.0064  H 0  0  0  1  0  1
   23.6380  -19.3922   -0.3496  H 0  0  0  1  0  1
   23.6528  -16.9507    0.0380  H 0  0  0  1  0  1
   24.0910  -16.6565   -1.6790  H 0  0  0  1  0  1
   25.7758  -18.0979    0.4283  H 0  0  0  1  0  1
   26.0833  -16.4724   -0.2717  H 0  0  0  1  0  1
   26.5913  -17.3886   -2.4233  H 0  0  0  1  0  1
   28.8624  -16.7032   -1.7776  H 0  0  0  1  0  1
   28.0907  -16.5398   -0.1638  H 0  0  0  1  0  1
   30.8046  -17.1713   -0.7459  H 0  0  0  1  0  1
   30.0599  -18.6808   -0.1185  H 0  0  0  1  0  1
   26.1024  -20.2415   -1.4729  H 0  0  0  1  0  1
   26.3453  -19.6312   -3.1448  H 0  0  0  1  0  1
   24.1348  -18.8100   -3.2962  H 0  0  0  1  0  1
   23.9797  -20.4092   -2.4930  H 0  0  0  1  0  1
   21.1455  -15.9822   -0.9362  H 0  0  0  1  0  1
   28.3185  -19.0229   -1.7701  H 0  0  0  1  0  1
   27.7393  -18.9705   -0.2301  H 0  0  0  1  0  1
   30.9086  -17.3097    1.6162  H 0  0  0  1  0  1
   29.2715  -17.4317    1.7359  H 0  0  0  1  0  1
   29.9539  -16.0484    1.1610  H 0  0  0  1  0  1
   20.5102  -14.5085   -0.9846  H 0  0  0  1  0  1
   20.5101  -14.5085   -0.9846  H 0  0  0  1  0  1
   19.9639  -14.3070    0.5852  H 0  0  0  1  0  1
 10  1  1  0  0  1
  1 24  1  0  0  2
  1 25  1  0  0  1
  2  3  4  0  0  1
  8  2  4  0  0  1
 25  2  1  0  0  1
  3  4  1  0  0  2
  3  5  4  0  0  1
  4 26  2  0  0  2
  4 27  2  0  0  2
  6  5  4  0  0  1
  7  6  4  0  0  1
  8  7  4  0  0  1
  9  8  1  0  0  1
 10  9  1  0  0  1
 21 10  1  0  0  2
 12 11  1  0  0  2
 11 21  1  0  0  2
 11 28  2  0  0  2
 13 12  1  0  0  2
 14 13  1  0  0  1
 13 20  1  0  0  1
 15 14  1  0  0  1
 16 15  1  0  0  1
 16 19  1  0  0  1
 22 16  1  0  0  2
 17 18  1  0  0  2
 17 22  1  0  0  2
 18 23  1  0  0  2
 19 20  1  0  0  1
  5 29  1  0  0  2
  6 30  1  0  0  2
  7 31  1  0  0  2
  9 32  1  0  0  2
  9 33  1  0  0  2
 10 34  1  0  0  2
 10 35  1  0  0  2
 12 36  1  0  0  2
 12 37  1  0  0  2
 13 38  1  0  0  2
 14 39  1  0  0  2
 14 40  1  0  0  2
 15 41  1  0  0  2
 15 42  1  0  0  2
 16 43  1  0  0  2
 17 44  1  0  0  2
 17 45  1  0  0  2
 18 46  1  0  0  2
 18 47  1  0  0  2
 19 48  1  0  0  2
 19 49  1  0  0  2
 20 50  1  0  0  2
 20 51  1  0  0  2
 21 52  1  0  0  2
 22 53  1  0  0  2
 22 54  1  0  0  2
 23 55  1  0  0  2
 23 56  1  0  0  2
 23 57  1  0  0  2
 24 58  1  0  0  2
 24 59  1  0  0  2
 25 60  1  0  0  2
M  END
> <MOLECULAR_FORMULA>
C19H32N3O5B

> <MOLECULAR_WEIGHT>
393.0

> <NUM_HB_ATOMS>
8  

> <NUM_ROTOR>
6  

> <XLOGP2>
0.49 

$$$$
