2g96_ligand
  -I-interpret- 

 39 40  0  0  0  0  0  0  0  0999 V2000
   14.5180   99.4000   11.4700 O   0  0  0  0  0
   14.2510   98.4070   10.2970 P   0  0  0  0  0
   15.4210   98.3110    9.4380 O   0  0  0  0  0
   13.0100   98.9020    9.6460 O   0  0  0  0  0
   14.0450   97.0310   11.0480 O   0  0  0  0  0
   13.0620   96.9400   12.1440 C   0  0  0  0  0
   12.0460   95.8660   11.8040 C   0  0  0  0  0
   11.2480   95.5480   12.9670 O   0  0  0  0  0
   11.0130   96.2210   10.6560 C   0  0  0  0  0
   10.9520   95.1730    9.6790 O   0  0  0  0  0
    9.7070   96.4340   11.3630 C   0  0  0  0  0
    8.5570   96.0420   10.5990 O   0  0  0  0  0
    9.8320   95.6680   12.6310 C   0  0  0  0  0
    9.1390   96.3150   13.7680 N   0  0  0  0  0
    7.7300   96.2240   13.8300 C   0  0  0  0  0
    7.0720   96.8220   14.8830 C   0  0  0  0  0
    5.5500   96.7040   14.9150 C   0  0  0  0  0
    4.9960   97.2310   15.8380 O   0  0  0  0  0
    4.8990   96.0580   13.9700 N   0  0  0  0  0
    7.8260   97.5600   15.9430 C   0  0  0  0  0
    9.2640   97.6350   15.8490 C   0  0  0  0  0
    9.9500   97.0160   14.7620 C   0  0  0  0  0
   13.7380   99.4525   12.0272 H   0  0  0  0  0
   12.3001   98.9289   10.2917 H   0  0  0  0  0
   12.5579   97.8985   12.2677 H   0  0  0  0  0
   13.5697   96.6860   13.0745 H   0  0  0  0  0
   12.6649   95.0408   11.4517 H   0  0  0  0  0
   11.2986   97.1099   10.0935 H   0  0  0  0  0
   10.3211   95.4106    8.9955 H   0  0  0  0  0
    9.5320   97.4960   11.5350 H   0  0  0  0  0
    7.7623   96.2062   11.1119 H   0  0  0  0  0
    9.3657   94.6962   12.4688 H   0  0  0  0  0
    7.1739   95.6906   13.0591 H   0  0  0  0  0
    3.8818   95.9913   14.0056 H   0  0  0  0  0
    5.4120   95.6243   13.2024 H   0  0  0  0  0
    7.2988   98.0327   16.7717 H   0  0  0  0  0
    9.8296   98.1679   16.6133 H   0  0  0  0  0
   10.4407   97.8267   14.2233 H   0  0  0  0  0
   10.5881   96.2551   15.2113 H   0  0  0  0  0
  1  2  1  0  0  0
  2  3  2  0  0  0
  2  4  1  0  0  0
  2  5  1  0  0  0
  5  6  1  0  0  0
  6  7  1  0  0  0
  7  8  1  0  0  0
  7  9  1  0  0  0
  8 13  1  0  0  0
  9 10  1  0  0  0
  9 11  1  0  0  0
 11 12  1  0  0  0
 11 13  1  0  0  0
 13 14  1  0  0  0
 14 15  1  0  0  0
 14 22  1  0  0  0
 15 16  2  0  0  0
 16 17  1  0  0  0
 16 20  1  0  0  0
 17 18  2  0  0  0
 17 19  1  0  0  0
 20 21  2  0  0  0
 21 22  1  0  0  0
  1 23  1  0  0  0
  4 24  1  0  0  0
  6 25  1  0  0  0
  6 26  1  0  0  0
  7 27  1  0  0  0
  9 28  1  0  0  0
 10 29  1  0  0  0
 11 30  1  0  0  0
 12 31  1  0  0  0
 13 32  1  0  0  0
 15 33  1  0  0  0
 19 34  1  0  0  0
 19 35  1  0  0  0
 20 36  1  0  0  0
 21 37  1  0  0  0
 22 38  1  0  0  0
 22 39  1  0  0  0
M  END
$$$$
