### 
### Created by X-TOOL on Mon Sep 10 21:12:55 2018
### 

@<TRIPOS>MOLECULE
2g96_ligand
   37    38     1     0     0
SMALL
GAST_HUCK


@<TRIPOS>ATOM
      1 O3P        14.5180   99.4000   11.4700 O.co2     1 NMN        -0.5537
      2 P          14.2510   98.4070   10.2970 P.3       1 NMN         0.2008
      3 O1P        15.4210   98.3110    9.4380 O.co2     1 NMN        -0.5537
      4 O2P        13.0100   98.9020    9.6460 O.co2     1 NMN        -0.5537
      5 O5R        14.0450   97.0310   11.0480 O.3       1 NMN        -0.2734
      6 C5R        13.0620   96.9400   12.1440 C.3       1 NMN         0.1071
      7 C4R        12.0460   95.8660   11.8040 C.3       1 NMN         0.1176
      8 O4R        11.2480   95.5480   12.9670 O.3       1 NMN        -0.3417
      9 C3R        11.0130   96.2210   10.6560 C.3       1 NMN         0.1143
     10 O3R        10.9520   95.1730    9.6790 O.3       1 NMN        -0.3864
     11 C2R         9.7070   96.4340   11.3630 C.3       1 NMN         0.1325
     12 O2R         8.5570   96.0420   10.5990 O.3       1 NMN        -0.3842
     13 C1R         9.8320   95.6680   12.6310 C.3       1 NMN         0.1777
     14 N1          9.1390   96.3150   13.7680 N.pl3     1 NMN        -0.2611
     15 C2          7.7300   96.2240   13.8300 C.2       1 NMN         0.0379
     16 C3          7.0720   96.8220   14.8830 C.2       1 NMN         0.0352
     17 C7          5.5500   96.7040   14.9150 C.2       1 NMN         0.1728
     18 O7          4.9960   97.2310   15.8380 O.2       1 NMN        -0.4055
     19 N7          4.8990   96.0580   13.9700 N.am      1 NMN        -0.3066
     20 C4          7.8260   97.5600   15.9430 C.2       1 NMN        -0.0855
     21 C5          9.2640   97.6350   15.8490 C.2       1 NMN        -0.0766
     22 C6          9.9500   97.0160   14.7620 C.3       1 NMN         0.0555
     23 H1         12.5513   97.9069   12.2634 H         1 NMN         0.0639
     24 H2         13.5762   96.6787   13.0806 H         1 NMN         0.0639
     25 H3         12.6076   94.9727   11.4933 H         1 NMN         0.0650
     26 H4         11.3157   97.1503   10.1513 H         1 NMN         0.0648
     27 H5         10.3277   95.4081    9.0026 H         1 NMN         0.2100
     28 H6          9.5986   97.5037   11.5954 H         1 NMN         0.0670
     29 H7          8.5258   96.5463    9.7945 H         1 NMN         0.2101
     30 H8          9.4028   94.6665   12.4801 H         1 NMN         0.0918
     31 H9          7.1744   95.6911   13.0598 H         1 NMN         0.1119
     32 H10         3.9020   95.9903   14.0064 H         1 NMN         0.1794
     33 H11         5.4017   95.6352   13.2160 H         1 NMN         0.1794
     34 H12         7.2993   98.0323   16.7709 H         1 NMN         0.0384
     35 H13         9.8291   98.1674   16.6126 H         1 NMN         0.0492
     36 H14        10.5113   97.8019   14.2354 H         1 NMN         0.0680
     37 H15        10.6536   96.2859   15.1885 H         1 NMN         0.0680
@<TRIPOS>BOND
     1    1    2 ar 
     2    2    3 ar 
     3    2    4 ar 
     4    2    5 1  
     5    5    6 1  
     6    6    7 1  
     7    7    8 1  
     8    7    9 1  
     9    8   13 1  
    10    9   10 1  
    11    9   11 1  
    12   11   12 1  
    13   11   13 1  
    14   13   14 1  
    15   14   15 1  
    16   14   22 1  
    17   15   16 2  
    18   16   17 1  
    19   16   20 1  
    20   17   18 2  
    21   17   19 am 
    22   20   21 2  
    23   21   22 1  
    24    6   23 1  
    25    6   24 1  
    26    7   25 1  
    27    9   26 1  
    28   10   27 1  
    29   11   28 1  
    30   12   29 1  
    31   13   30 1  
    32   15   31 1  
    33   19   32 1  
    34   19   33 1  
    35   20   34 1  
    36   21   35 1  
    37   22   36 1  
    38   22   37 1  
@<TRIPOS>SUBSTRUCTURE
     1 NMN         1

