1atr_ligand
  -I-interpret- 

 42 44  0  0  0  0  0  0  0  0999 V2000
   17.6640   29.5160   16.4650 P   0  0  0  0  0
   17.3040   29.9120   17.8520 O   0  0  0  0  0
   18.7360   28.5200   16.4050 O   0  0  0  0  0
   16.4940   29.1230   15.6610 O   0  0  0  0  0
   19.5220   31.4600   15.1380 P   0  0  0  0  0
   20.5160   30.3580   15.2030 O   0  0  0  0  0
   19.3000   32.1620   13.8450 O   0  0  0  0  0
   18.1510   30.9090   15.8280 O   0  0  0  0  0
   19.7630   32.5300   16.2290 O   0  0  0  0  0
   18.9980   33.6940   16.2380 C   0  0  0  0  0
   19.3640   34.5520   17.4210 C   0  0  0  0  0
   20.5810   35.1190   16.9730 O   0  0  0  0  0
   18.4780   35.7970   17.7970 C   0  0  0  0  0
   18.6370   35.9420   19.1990 O   0  0  0  0  0
   19.1400   36.9210   17.0330 C   0  0  0  0  0
   18.9060   38.1850   17.6830 O   0  0  0  0  0
   20.5930   36.4980   17.2240 C   0  0  0  0  0
   21.4930   37.1880   16.2800 N   0  0  0  0  0
   21.5360   37.3100   14.9100 C   0  0  0  0  0
   22.4270   38.1730   14.4750 N   0  0  0  0  0
   23.0070   38.6320   15.6660 C   0  0  0  0  0
   24.0140   39.5520   15.8950 C   0  0  0  0  0
   24.5300   40.1990   14.8540 N   0  0  0  0  0
   24.3810   39.7860   17.1730 N   0  0  0  0  0
   23.7640   39.1250   18.1310 C   0  0  0  0  0
   22.7920   38.2290   18.0420 N   0  0  0  0  0
   22.4540   38.0330   16.7390 C   0  0  0  0  0
   16.5995   30.5636   17.8249 H   0  0  0  0  0
   15.8182   29.8015   15.7286 H   0  0  0  0  0
   18.6338   32.8432   13.9623 H   0  0  0  0  0
   17.9436   33.4260   16.3057 H   0  0  0  0  0
   19.1889   34.2521   15.3214 H   0  0  0  0  0
   19.3089   33.9153   18.3040 H   0  0  0  0  0
   17.4145   35.7448   17.5638 H   0  0  0  0  0
   18.1190   36.6910   19.5029 H   0  0  0  0  0
   18.8052   37.0573   16.0047 H   0  0  0  0  0
   19.3336   38.8844   17.1835 H   0  0  0  0  0
   20.9628   36.7495   18.2180 H   0  0  0  0  0
   20.8878   36.7407   14.2437 H   0  0  0  0  0
   24.1821   40.0117   13.9136 H   0  0  0  0  0
   25.2737   40.8825   14.9959 H   0  0  0  0  0
   24.1019   39.3473   19.1432 H   0  0  0  0  0
  1  2  1  0  0  0
  1  3  2  0  0  0
  1  4  1  0  0  0
  8  1  1  0  0  0
  5  6  2  0  0  0
  5  7  1  0  0  0
  5  8  1  0  0  0
  5  9  1  0  0  0
  9 10  1  0  0  0
 10 11  1  0  0  0
 11 12  1  0  0  0
 11 13  1  0  0  0
 12 17  1  0  0  0
 13 14  1  0  0  0
 13 15  1  0  0  0
 15 16  1  0  0  0
 15 17  1  0  0  0
 17 18  1  0  0  0
 18 19  4  0  0  0
 18 27  4  0  0  0
 19 20  4  0  0  0
 20 21  4  0  0  0
 21 22  4  0  0  0
 21 27  4  0  0  0
 22 23  1  0  0  0
 22 24  4  0  0  0
 24 25  4  0  0  0
 25 26  4  0  0  0
 26 27  4  0  0  0
  2 28  1  0  0  0
  4 29  1  0  0  0
  7 30  1  0  0  0
 10 31  1  0  0  0
 10 32  1  0  0  0
 11 33  1  0  0  0
 13 34  1  0  0  0
 14 35  1  0  0  0
 15 36  1  0  0  0
 16 37  1  0  0  0
 17 38  1  0  0  0
 19 39  1  0  0  0
 23 40  1  0  0  0
 23 41  1  0  0  0
 25 42  1  0  0  0
M  END
$$$$
