4xy2_ligand
  -I-interpret- 

 57 61  0  0  0  0  0  0  0  0999 V2000
   15.2960    1.9310   62.2860 C   0  0  0  0  0
   15.7030    2.2380   64.7150 C   0  0  0  0  0
   15.4510    2.1800   59.8260 C   0  0  0  0  0
   14.4350    1.7330   57.2550 C   0  0  0  0  0
   20.3310    2.9980   58.5470 C   0  0  0  0  0
   21.0820    3.5140   57.5000 C   0  0  0  0  0
   19.4920    5.2000   58.9650 C   0  0  0  0  0
   21.9050    5.3440   55.9950 C   0  0  0  0  0
   22.1730    6.5220   53.8830 C   0  0  0  0  0
   24.0300    5.4720   54.8200 C   0  0  0  0  0
   21.3990    6.0950   54.9580 C   0  0  0  0  0
   20.2620    5.6890   57.9060 C   0  0  0  0  0
   23.5220    6.2130   53.7700 C   0  0  0  0  0
   25.2680    4.2770   56.2400 C   0  0  0  0  0
   21.0810    4.8590   57.1390 C   0  0  0  0  0
   15.8570    2.4630   61.1640 C   0  0  0  0  0
   23.2620    5.0480   55.8950 C   0  0  0  0  0
   19.5160    3.8520   59.2770 C   0  0  0  0  0
   16.8560    3.3650   61.6360 C   0  0  0  0  0
   14.0940    1.7710   59.6000 C   0  0  0  0  0
   13.5360    1.5530   58.4130 C   0  0  0  0  0
   16.2430    2.3430   58.7630 C   0  0  0  0  0
   26.4820    5.1470   54.2340 C   0  0  0  0  0
   16.6500    2.3190   56.4030 C   0  0  0  0  0
   17.7470    4.1890   60.8000 C   0  0  0  0  0
   24.0590    4.3320   56.7570 N   0  0  0  0  0
   16.9400    3.3900   62.9730 N   0  0  0  0  0
   15.9780    2.5110   63.3160 N   0  0  0  0  0
   25.2890    4.9620   55.0610 N   0  0  0  0  0
   15.7640    2.1050   57.5040 N   0  0  0  0  0
   13.9560    1.5360   56.1640 O   0  0  0  0  0
   18.7620    3.2900   60.3230 O   0  0  0  0  0
   14.4849    1.2054   62.3471 H   0  0  0  0  0
   14.6723    2.5110   64.9413 H   0  0  0  0  0
   15.8508    1.1763   64.9126 H   0  0  0  0  0
   16.3801    2.8225   65.3379 H   0  0  0  0  0
   20.3806    1.9372   58.7925 H   0  0  0  0  0
   21.7074    2.8282   56.9285 H   0  0  0  0  0
   18.8713    5.8818   59.5463 H   0  0  0  0  0
   21.7036    7.1202   53.1021 H   0  0  0  0  0
   20.3439    6.3677   54.9799 H   0  0  0  0  0
   20.2216    6.7527   57.6716 H   0  0  0  0  0
   24.1304    6.5290   52.9226 H   0  0  0  0  0
   26.1203    3.7636   56.6851 H   0  0  0  0  0
   13.4655    1.6264   60.4788 H   0  0  0  0  0
   13.2167    0.5109   58.4032 H   0  0  0  0  0
   12.7344    2.2836   58.3043 H   0  0  0  0  0
   17.0314    1.6023   58.8970 H   0  0  0  0  0
   16.4826    3.4063   58.7647 H   0  0  0  0  0
   26.2970    4.7470   53.2370 H   0  0  0  0  0
   26.7123    6.2100   54.1634 H   0  0  0  0  0
   27.3221    4.6212   54.6877 H   0  0  0  0  0
   16.9721    3.3603   56.3946 H   0  0  0  0  0
   17.5191    1.6693   56.5061 H   0  0  0  0  0
   16.1321    2.0900   55.4717 H   0  0  0  0  0
   18.1776    5.0144   61.3669 H   0  0  0  0  0
   17.2057    4.6548   59.9765 H   0  0  0  0  0
 16  1  4  0  0  0
  1 28  4  0  0  0
 28  2  1  0  0  0
 16  3  1  0  0  0
  3 20  2  0  0  0
  3 22  1  0  0  0
 21  4  1  0  0  0
 30  4  1  0  0  0
  4 31  2  0  0  0
  5  6  4  0  0  0
 18  5  4  0  0  0
  6 15  4  0  0  0
  7 12  4  0  0  0
 18  7  4  0  0  0
  8 11  4  0  0  0
 15  8  1  0  0  0
  8 17  4  0  0  0
 11  9  4  0  0  0
  9 13  4  0  0  0
 10 13  4  0  0  0
 17 10  4  0  0  0
 10 29  4  0  0  0
 12 15  4  0  0  0
 26 14  4  0  0  0
 14 29  4  0  0  0
 19 16  4  0  0  0
 17 26  4  0  0  0
 32 18  1  0  0  0
 25 19  1  0  0  0
 19 27  4  0  0  0
 20 21  1  0  0  0
 22 30  1  0  0  0
 29 23  1  0  0  0
 30 24  1  0  0  0
 25 32  1  0  0  0
 27 28  4  0  0  0
  1 33  1  0  0  0
  2 34  1  0  0  0
  2 35  1  0  0  0
  2 36  1  0  0  0
  5 37  1  0  0  0
  6 38  1  0  0  0
  7 39  1  0  0  0
  9 40  1  0  0  0
 11 41  1  0  0  0
 12 42  1  0  0  0
 13 43  1  0  0  0
 14 44  1  0  0  0
 20 45  1  0  0  0
 21 46  1  0  0  0
 21 47  1  0  0  0
 22 48  1  0  0  0
 22 49  1  0  0  0
 23 50  1  0  0  0
 23 51  1  0  0  0
 23 52  1  0  0  0
 24 53  1  0  0  0
 24 54  1  0  0  0
 24 55  1  0  0  0
 25 56  1  0  0  0
 25 57  1  0  0  0
M  END
$$$$
