5e2n_ligand
  -I-interpret- 

 51 52  0  0  0  0  0  0  0  0999 V2000
    9.1770   -7.4640  -25.6930 F   0  0  0  0  0
    9.1120   -7.2440  -24.3660 C   0  0  0  0  0
    8.0100   -7.5510  -23.6220 C   0  0  0  0  0
    6.7160   -8.3150  -24.4230 S   0  0  0  0  0
    5.6710   -7.4640  -24.1580 O   0  0  0  0  0
    6.8070   -8.3760  -26.2300 N   0  0  0  0  0
    6.1910   -9.4420  -23.7980 O   0  0  0  0  0
    7.8520   -7.3510  -22.2780 C   0  0  0  0  0
    6.6510   -7.7150  -21.7270 F   0  0  0  0  0
    8.9000   -6.8370  -21.5920 C   0  0  0  0  0
    8.7520   -6.6140  -20.2360 F   0  0  0  0  0
   10.1860   -6.6770  -23.6550 C   0  0  0  0  0
   10.0200   -6.4980  -22.2900 C   0  0  0  0  0
   11.3720   -5.8350  -21.3100 S   0  0  0  0  0
   10.7530   -4.5590  -20.7540 O   0  0  0  0  0
   12.1690   -5.4370  -22.5690 O   0  0  0  0  0
   12.3120   -6.7360  -20.0880 C   0  0  0  0  0
   11.4530   -7.7410  -19.3660 C   0  0  0  0  0
   12.2250   -8.1850  -18.2930 O   0  0  0  0  0
   11.3270   -6.3360  -24.4420 N   0  0  0  0  0
   11.9150   -6.8970  -25.6700 C   0  0  0  0  0
   11.5650   -6.2590  -27.0140 C   0  0  0  0  0
   11.6020   -4.7340  -27.0800 C   0  0  0  0  0
   12.9830   -4.0820  -26.8020 C   0  0  0  0  0
   13.4190   -3.9480  -25.2990 C   0  0  0  0  0
   13.3770   -5.1050  -24.3380 C   0  0  0  0  0
   14.3400   -6.1560  -24.8670 C   0  0  0  0  0
   13.4710   -7.2100  -25.5110 C   0  0  0  0  0
    6.1497   -7.8354  -26.7923 H   0  0  0  0  0
    7.5155   -8.9510  -26.6858 H   0  0  0  0  0
   12.7021   -6.0262  -19.3585 H   0  0  0  0  0
   13.1173   -7.2686  -20.5940 H   0  0  0  0  0
   11.1649   -8.5643  -20.0196 H   0  0  0  0  0
   10.5160   -7.2978  -19.0287 H   0  0  0  0  0
   11.7279   -8.8337  -17.7894 H   0  0  0  0  0
   11.8435   -5.5357  -24.0772 H   0  0  0  0  0
   11.3722   -7.8384  -25.7548 H   0  0  0  0  0
   10.5334   -6.5434  -27.2216 H   0  0  0  0  0
   12.3205   -6.6082  -27.7178 H   0  0  0  0  0
   10.9286   -4.3748  -26.3018 H   0  0  0  0  0
   11.3321   -4.4624  -28.1005 H   0  0  0  0  0
   12.9132   -3.0633  -27.1835 H   0  0  0  0  0
   13.7199   -4.7358  -27.2684 H   0  0  0  0  0
   12.6895   -3.2511  -24.8863 H   0  0  0  0  0
   14.4815   -3.7137  -25.3649 H   0  0  0  0  0
   12.3673   -5.5089  -24.2640 H   0  0  0  0  0
   13.6659   -4.7858  -23.3366 H   0  0  0  0  0
   14.9520   -6.5755  -24.0686 H   0  0  0  0  0
   15.0455   -5.7292  -25.5799 H   0  0  0  0  0
   13.8508   -7.3188  -26.5269 H   0  0  0  0  0
   13.5273   -8.0758  -24.8513 H   0  0  0  0  0
  1  2  1  0  0  0
  2  3  4  0  0  0
  2 12  4  0  0  0
  3  4  1  0  0  0
  3  8  4  0  0  0
  4  5  2  0  0  0
  4  6  1  0  0  0
  4  7  2  0  0  0
  8  9  1  0  0  0
  8 10  4  0  0  0
 10 11  1  0  0  0
 10 13  4  0  0  0
 12 13  4  0  0  0
 12 20  1  0  0  0
 13 14  1  0  0  0
 14 15  2  0  0  0
 14 16  2  0  0  0
 14 17  1  0  0  0
 17 18  1  0  0  0
 18 19  1  0  0  0
 20 21  1  0  0  0
 21 22  1  0  0  0
 21 28  1  0  0  0
 22 23  1  0  0  0
 23 24  1  0  0  0
 24 25  1  0  0  0
 25 26  1  0  0  0
 26 27  1  0  0  0
 27 28  1  0  0  0
  6 29  1  0  0  0
  6 30  1  0  0  0
 17 31  1  0  0  0
 17 32  1  0  0  0
 18 33  1  0  0  0
 18 34  1  0  0  0
 19 35  1  0  0  0
 20 36  1  0  0  0
 21 37  1  0  0  0
 22 38  1  0  0  0
 22 39  1  0  0  0
 23 40  1  0  0  0
 23 41  1  0  0  0
 24 42  1  0  0  0
 24 43  1  0  0  0
 25 44  1  0  0  0
 25 45  1  0  0  0
 26 46  1  0  0  0
 26 47  1  0  0  0
 27 48  1  0  0  0
 27 49  1  0  0  0
 28 50  1  0  0  0
 28 51  1  0  0  0
M  END
$$$$
