3cth_ligand
  -I-interpret- 

 45 47  0  0  0  0  0  0  0  0999 V2000
    0.1140    1.0530   52.6750 C   0  0  0  0  0
   -2.0300    1.6690   53.6840 C   0  0  0  0  0
    0.9190    8.0660   54.9990 C   0  0  0  0  0
    1.0350    9.2860   55.6690 C   0  0  0  0  0
    0.2130   -0.0130   53.5530 C   0  0  0  0  0
   -1.9210    0.5980   54.5720 C   0  0  0  0  0
   -1.4920   11.5640   56.3840 C   0  0  0  0  0
    0.2920    9.2470   52.9840 C   0  0  0  0  0
    0.1040   12.9810   57.4910 C   0  0  0  0  0
   -2.4360   12.0230   57.2860 C   0  0  0  0  0
   -1.0100    1.8910   52.7320 C   0  0  0  0  0
    0.5520    8.0480   53.6440 C   0  0  0  0  0
    0.7640   10.4830   55.0040 C   0  0  0  0  0
   -0.1910   12.0540   56.4900 C   0  0  0  0  0
   -0.7980   -0.2310   54.4880 C   0  0  0  0  0
    0.3910   10.4570   53.6600 C   0  0  0  0  0
   -0.9090   13.4030   58.3630 C   0  0  0  0  0
   -0.6440    4.3080   52.4610 C   0  0  0  0  0
   -0.1050    6.6130   51.7410 C   0  0  0  0  0
   -1.1030    3.0380   51.7840 C   0  0  0  0  0
   -2.1750   12.9280   58.2640 N   0  0  0  0  0
   -0.6020   14.3450   59.3770 N   0  0  0  0  0
    0.4490    6.8030   52.9920 N   0  0  0  0  0
   -0.6480    5.3560   51.5520 N   0  0  0  0  0
    0.0100    4.3220   53.4880 O   0  0  0  0  0
   -0.1580    7.4260   50.8290 O   0  0  0  0  0
    0.8600   11.6920   55.6570 O   0  0  0  0  0
   -0.6810   -1.2650   55.3250 F   0  0  0  0  0
    0.1170   11.5940   52.9890 F   0  0  0  0  0
    0.9024    1.2396   51.9458 H   0  0  0  0  0
   -2.8960    2.3296   53.7246 H   0  0  0  0  0
    1.1126    7.1317   55.5260 H   0  0  0  0  0
    1.3385    9.3035   56.7158 H   0  0  0  0  0
    1.0760   -0.6777   53.5135 H   0  0  0  0  0
   -2.6955    0.4115   55.3160 H   0  0  0  0  0
   -1.7579   10.8406   55.6132 H   0  0  0  0  0
    0.0093    9.2359   51.9314 H   0  0  0  0  0
    1.1154   13.3741   57.5939 H   0  0  0  0  0
   -3.4512   11.6342   57.2064 H   0  0  0  0  0
   -2.1387    3.1562   51.4653 H   0  0  0  0  0
   -0.4665    2.8420   50.9211 H   0  0  0  0  0
    0.3472   14.7077   59.4657 H   0  0  0  0  0
   -1.3303   14.6601   60.0179 H   0  0  0  0  0
    0.8097    5.9826   53.4792 H   0  0  0  0  0
   -1.0972    5.1812   50.6531 H   0  0  0  0  0
  1  5  4  0  0  0
 11  1  4  0  0  0
  2  6  4  0  0  0
 11  2  4  0  0  0
  3  4  4  0  0  0
 12  3  4  0  0  0
  4 13  4  0  0  0
  5 15  4  0  0  0
  6 15  4  0  0  0
  7 10  4  0  0  0
 14  7  4  0  0  0
 12  8  4  0  0  0
  8 16  4  0  0  0
 14  9  4  0  0  0
  9 17  4  0  0  0
 10 21  4  0  0  0
 20 11  1  0  0  0
 23 12  1  0  0  0
 16 13  4  0  0  0
 13 27  1  0  0  0
 27 14  1  0  0  0
 15 28  1  0  0  0
 16 29  1  0  0  0
 17 21  4  0  0  0
 17 22  1  0  0  0
 18 20  1  0  0  0
 24 18  1  0  0  0
 18 25  2  0  0  0
 19 23  1  0  0  0
 19 24  1  0  0  0
 19 26  2  0  0  0
  1 30  1  0  0  0
  2 31  1  0  0  0
  3 32  1  0  0  0
  4 33  1  0  0  0
  5 34  1  0  0  0
  6 35  1  0  0  0
  7 36  1  0  0  0
  8 37  1  0  0  0
  9 38  1  0  0  0
 10 39  1  0  0  0
 20 40  1  0  0  0
 20 41  1  0  0  0
 22 42  1  0  0  0
 22 43  1  0  0  0
 23 44  1  0  0  0
 24 45  1  0  0  0
M  END
$$$$
