### 
### Created by X-TOOL on Mon Sep 10 21:13:10 2018
### 

@<TRIPOS>MOLECULE
3rsr_ligand
   45    47     1     0     0
SMALL
GAST_HUCK


@<TRIPOS>ATOM
      1 OR2       -13.5820   52.8600   19.4180 O.2       1 N5P        -0.4903
      2 NRO       -13.1080   51.9510   20.3590 N.2       1 N5P        -0.1991
      3 OR1       -13.6590   51.7890   21.4440 O.2       1 N5P        -0.4903
      4 CZ3       -11.9930   51.1770   20.0720 C.ar      1 N5P         0.1768
      5 CE3       -11.3160   51.3320   18.8630 C.ar      1 N5P         0.0835
      6 CD2       -10.2230   50.5130   18.6400 C.ar      1 N5P         0.1808
      7 CH2       -11.6200   50.2540   21.0440 C.ar      1 N5P         0.0639
      8 CZ2       -10.5360   49.4270   20.8480 C.ar      1 N5P         0.0737
      9 CE2        -9.8320   49.5420   19.6640 C.ar      1 N5P         0.2147
     10 NE1        -8.7650   48.9150   19.1510 N.pl3     1 N5P        -0.1029
     11 CD1        -8.4630   49.4170   17.9190 C.2       1 N5P         0.2363
     12 CG         -9.3360   50.4300   17.5250 C.2       1 N5P         0.1643
     13 C1'        -8.0350   47.8360   19.8700 C.3       1 N5P         0.2062
     14 O4'        -8.9440   46.9990   20.5890 O.3       1 N5P        -0.3334
     15 C4'        -8.2660   46.4070   21.7040 C.3       1 N5P         0.1169
     16 C3'        -6.8870   47.0620   21.7380 C.3       1 N5P         0.0896
     17 O3'        -5.9470   46.1790   21.0960 O.3       1 N5P        -0.3889
     18 C2'        -7.0530   48.3350   20.9210 C.3       1 N5P         0.0378
     19 C5'        -9.0350   46.5980   23.0120 C.3       1 N5P         0.1130
     20 O5'        -8.9650   47.9590   23.4280 O.3       1 N5P        -0.2441
     21 PA         -9.7380   48.4710   24.7570 P.3       1 N5P         0.3266
     22 O1A        -9.6180   47.4490   25.8670 O.co2     1 N5P        -0.5692
     23 O2A        -9.3290   49.8810   25.0770 O.co2     1 N5P        -0.5692
     24 O3A       -11.2150   48.5140   24.1070 O.3       1 N5P        -0.1171
     25 PB        -12.5920   48.4900   24.9490 P.3       1 N5P         0.3553
     26 O1B       -12.3650   49.3280   26.1810 O.co2     1 N5P        -0.5652
     27 O2B       -13.6010   49.0380   23.9760 O.co2     1 N5P        -0.5652
     28 O3B       -12.8900   46.8550   25.1150 O.3       1 N5P        -0.1546
     29 PG        -12.3170   45.7640   26.2130 P.3       1 N5P         0.1879
     30 O3G       -12.6710   44.2690   25.9630 O.co2     1 N5P        -0.6091
     31 O2G       -12.8960   46.6180   27.3350 O.co2     1 N5P        -0.6091
     32 O1G       -10.8050   45.6250   26.0380 O.co2     1 N5P        -0.6091
     33 H1        -11.6326   52.0635   18.1284 H         1 N5P         0.1550
     34 H2        -12.1881   50.1850   21.9646 H         1 N5P         0.1403
     35 H3        -10.2429   48.7054   21.6020 H         1 N5P         0.1137
     36 H4         -7.6314   49.0651   17.3102 H         1 N5P         0.2498
     37 H5         -9.3401   51.0094   16.6029 H         1 N5P         0.1896
     38 H6         -7.4904   47.2399   19.1230 H         1 N5P         0.1047
     39 H7         -8.1518   45.3268   21.5306 H         1 N5P         0.0650
     40 H8         -6.5673   47.2848   22.7666 H         1 N5P         0.0622
     41 H9         -5.0831   46.5739   21.1096 H         1 N5P         0.2099
     42 H10        -7.4757   49.1546   21.5206 H         1 N5P         0.0351
     43 H11        -6.1030   48.6609   20.4724 H         1 N5P         0.0351
     44 H12        -8.5945   45.9570   23.7898 H         1 N5P         0.0648
     45 H13       -10.0878   46.3182   22.8591 H         1 N5P         0.0648
@<TRIPOS>BOND
     1    1    2 2  
     2    2    3 2  
     3    2    4 1  
     4    4    5 ar 
     5    4    7 ar 
     6    5    6 ar 
     7    6    9 ar 
     8    6   12 1  
     9    7    8 ar 
    10    8    9 ar 
    11    9   10 1  
    12   10   11 1  
    13   10   13 1  
    14   11   12 2  
    15   13   14 1  
    16   13   18 1  
    17   14   15 1  
    18   15   16 1  
    19   15   19 1  
    20   16   17 1  
    21   16   18 1  
    22   19   20 1  
    23   20   21 1  
    24   21   22 ar 
    25   21   23 ar 
    26   21   24 1  
    27   24   25 1  
    28   25   26 ar 
    29   25   27 ar 
    30   25   28 1  
    31   28   29 1  
    32   29   30 ar 
    33   29   31 ar 
    34   29   32 ar 
    35    5   33 1  
    36    7   34 1  
    37    8   35 1  
    38   11   36 1  
    39   12   37 1  
    40   13   38 1  
    41   15   39 1  
    42   16   40 1  
    43   17   41 1  
    44   18   42 1  
    45   18   43 1  
    46   19   44 1  
    47   19   45 1  
@<TRIPOS>SUBSTRUCTURE
     1 N5P         1

