3rsr_ligand
  -I-interpret- 

 49 51  0  0  0  0  0  0  0  0999 V2000
  -13.5820   52.8600   19.4180 O   0  0  0  0  0
  -13.1080   51.9510   20.3590 N   0  0  0  0  0
  -13.6590   51.7890   21.4440 O   0  0  0  0  0
  -11.9930   51.1770   20.0720 C   0  0  0  0  0
  -11.3160   51.3320   18.8630 C   0  0  0  0  0
  -10.2230   50.5130   18.6400 C   0  0  0  0  0
  -11.6200   50.2540   21.0440 C   0  0  0  0  0
  -10.5360   49.4270   20.8480 C   0  0  0  0  0
   -9.8320   49.5420   19.6640 C   0  0  0  0  0
   -8.7650   48.9150   19.1510 N   0  0  0  0  0
   -8.4630   49.4170   17.9190 C   0  0  0  0  0
   -9.3360   50.4300   17.5250 C   0  0  0  0  0
   -8.0350   47.8360   19.8700 C   0  0  0  0  0
   -8.9440   46.9990   20.5890 O   0  0  0  0  0
   -8.2660   46.4070   21.7040 C   0  0  0  0  0
   -6.8870   47.0620   21.7380 C   0  0  0  0  0
   -5.9470   46.1790   21.0960 O   0  0  0  0  0
   -7.0530   48.3350   20.9210 C   0  0  0  0  0
   -9.0350   46.5980   23.0120 C   0  0  0  0  0
   -8.9650   47.9590   23.4280 O   0  0  0  0  0
   -9.7380   48.4710   24.7570 P   0  0  0  0  0
   -9.6180   47.4490   25.8670 O   0  0  0  0  0
   -9.3290   49.8810   25.0770 O   0  0  0  0  0
  -11.2150   48.5140   24.1070 O   0  0  0  0  0
  -12.5920   48.4900   24.9490 P   0  0  0  0  0
  -12.3650   49.3280   26.1810 O   0  0  0  0  0
  -13.6010   49.0380   23.9760 O   0  0  0  0  0
  -12.8900   46.8550   25.1150 O   0  0  0  0  0
  -12.3170   45.7640   26.2130 P   0  0  0  0  0
  -12.6710   44.2690   25.9630 O   0  0  0  0  0
  -12.8960   46.6180   27.3350 O   0  0  0  0  0
  -10.8050   45.6250   26.0380 O   0  0  0  0  0
  -11.6344   52.0676   18.1243 H   0  0  0  0  0
  -12.1912   50.1846   21.9697 H   0  0  0  0  0
  -10.2413   48.7014   21.6061 H   0  0  0  0  0
   -7.6307   49.0648   17.3097 H   0  0  0  0  0
   -9.3401   51.0099   16.6021 H   0  0  0  0  0
   -7.4979   47.3145   19.0778 H   0  0  0  0  0
   -8.1844   45.3258   21.5928 H   0  0  0  0  0
   -6.5263   47.2679   22.7458 H   0  0  0  0  0
   -5.0740   46.5781   21.1097 H   0  0  0  0  0
   -7.3971   49.1984   21.4904 H   0  0  0  0  0
   -6.1247   48.7407   20.5188 H   0  0  0  0  0
   -8.5929   45.9658   23.7820 H   0  0  0  0  0
  -10.0787   46.3252   22.8560 H   0  0  0  0  0
   -9.9064   46.5922   25.5441 H   0  0  0  0  0
  -11.7100   48.9030   26.7395 H   0  0  0  0  0
  -12.1821   43.9486   25.2015 H   0  0  0  0  0
  -10.6219   45.0548   25.2877 H   0  0  0  0  0
  1  2  2  0  0  0
  2  3  2  0  0  0
  2  4  1  0  0  0
  4  5  4  0  0  0
  4  7  4  0  0  0
  5  6  4  0  0  0
  6  9  4  0  0  0
  6 12  4  0  0  0
  7  8  4  0  0  0
  8  9  4  0  0  0
  9 10  4  0  0  0
 10 11  4  0  0  0
 10 13  1  0  0  0
 11 12  4  0  0  0
 13 14  1  0  0  0
 13 18  1  0  0  0
 14 15  1  0  0  0
 15 16  1  0  0  0
 15 19  1  0  0  0
 16 17  1  0  0  0
 16 18  1  0  0  0
 19 20  1  0  0  0
 20 21  1  0  0  0
 21 22  1  0  0  0
 21 23  2  0  0  0
 21 24  1  0  0  0
 24 25  1  0  0  0
 25 26  1  0  0  0
 25 27  2  0  0  0
 25 28  1  0  0  0
 28 29  1  0  0  0
 29 30  1  0  0  0
 29 31  2  0  0  0
 29 32  1  0  0  0
  5 33  1  0  0  0
  7 34  1  0  0  0
  8 35  1  0  0  0
 11 36  1  0  0  0
 12 37  1  0  0  0
 13 38  1  0  0  0
 15 39  1  0  0  0
 16 40  1  0  0  0
 17 41  1  0  0  0
 18 42  1  0  0  0
 18 43  1  0  0  0
 19 44  1  0  0  0
 19 45  1  0  0  0
 22 46  1  0  0  0
 26 47  1  0  0  0
 30 48  1  0  0  0
 32 49  1  0  0  0
M  END
$$$$
