5k5n_ligand
  -I-interpret- 

 41 43  0  0  0  0  0  0  0  0999 V2000
    0.5760    5.2470   23.8610 C   0  0  0  0  0
   -0.7030    4.0190   25.5070 C   0  0  0  0  0
    0.0920   10.8590   31.2730 C   0  0  0  0  0
   -2.6600    4.0510   29.0800 C   0  0  0  0  0
   -1.6960    9.2490   30.3800 C   0  0  0  0  0
   -1.3040    8.1460   27.8250 O   0  0  0  0  0
   -0.2580    9.4440   30.8330 C   0  0  0  0  0
   -0.3510    6.3800   25.7740 C   0  0  0  0  0
    0.3760    6.4150   24.5940 C   0  0  0  0  0
   -1.4960   13.4510   29.5770 C   0  0  0  0  0
    0.1550   12.2630   29.1670 C   0  0  0  0  0
   -0.8940    5.1850   26.2440 C   0  0  0  0  0
    0.0310    4.0540   24.3380 C   0  0  0  0  0
   -1.6230    5.1300   27.5180 C   0  0  0  0  0
   -1.9420    5.9720   28.5380 C   0  0  0  0  0
   -1.6700    7.4190   28.7490 C   0  0  0  0  0
    1.8870    6.3740   22.1990 C   0  0  0  0  0
   -0.5420   13.2470   28.6430 N   0  0  0  0  0
   -1.4350   12.6590   30.6250 N   0  0  0  0  0
   -2.5910    5.2530   29.5300 N   0  0  0  0  0
   -0.3520   11.8930   30.3390 N   0  0  0  0  0
   -1.9510    7.8730   29.9730 N   0  0  0  0  0
   -2.0940    3.8940   27.8560 O   0  0  0  0  0
    1.2860    5.1760   22.6920 O   0  0  0  0  0
    0.3330    2.5670   23.4910 Cl  0  0  0  0  0
   -1.1328    3.0789   25.8529 H   0  0  0  0  0
    1.1784   10.9212   31.3351 H   0  0  0  0  0
   -0.4130   11.0391   32.2220 H   0  0  0  0  0
   -3.1288    3.2346   29.6294 H   0  0  0  0  0
   -1.8778    9.8995   29.5245 H   0  0  0  0  0
   -2.3545    9.4878   31.2151 H   0  0  0  0  0
   -0.1111    8.7996   31.6998 H   0  0  0  0  0
    0.3756    9.2152   29.9761 H   0  0  0  0  0
   -0.5000    7.2986   26.3416 H   0  0  0  0  0
    0.7919    7.3579   24.2390 H   0  0  0  0  0
   -2.2627   14.2183   29.4697 H   0  0  0  0  0
    1.0314   11.8110   28.7026 H   0  0  0  0  0
    1.1125    7.1189   22.0161 H   0  0  0  0  0
    2.5926    6.7554   22.9371 H   0  0  0  0  0
    2.4130    6.1589   21.2688 H   0  0  0  0  0
   -2.3609    7.2304   30.6508 H   0  0  0  0  0
  9  1  4  0  0  0
 13  1  4  0  0  0
  1 24  1  0  0  0
 12  2  4  0  0  0
  2 13  4  0  0  0
  7  3  1  0  0  0
  3 21  1  0  0  0
 20  4  4  0  0  0
  4 23  4  0  0  0
  5  7  1  0  0  0
 22  5  1  0  0  0
 16  6  2  0  0  0
  8  9  4  0  0  0
 12  8  4  0  0  0
 18 10  4  0  0  0
 10 19  4  0  0  0
 11 18  4  0  0  0
 21 11  4  0  0  0
 14 12  1  0  0  0
 13 25  1  0  0  0
 15 14  4  0  0  0
 14 23  4  0  0  0
 16 15  1  0  0  0
 15 20  4  0  0  0
 16 22  1  0  0  0
 24 17  1  0  0  0
 19 21  4  0  0  0
  2 26  1  0  0  0
  3 27  1  0  0  0
  3 28  1  0  0  0
  4 29  1  0  0  0
  5 30  1  0  0  0
  5 31  1  0  0  0
  7 32  1  0  0  0
  7 33  1  0  0  0
  8 34  1  0  0  0
  9 35  1  0  0  0
 10 36  1  0  0  0
 11 37  1  0  0  0
 17 38  1  0  0  0
 17 39  1  0  0  0
 17 40  1  0  0  0
 22 41  1  0  0  0
M  END
$$$$
