5akl_ligand
  -I-interpret- 

 43 45  0  0  0  0  0  0  0  0999 V2000
   15.5840   -9.7550   -8.8510 C   0  0  0  0  0
   21.0310   -8.1120  -13.0100 C   0  0  0  0  0
   16.9530   -9.9140   -8.8680 C   0  0  0  0  0
   14.8580   -9.8910  -10.0200 C   0  0  0  0  0
   19.7680   -7.5720  -13.1030 C   0  0  0  0  0
   21.1920   -9.4600  -12.7640 C   0  0  0  0  0
   17.5880  -10.2060  -10.0560 C   0  0  0  0  0
   15.5130  -10.1750  -11.2040 C   0  0  0  0  0
   18.6680   -8.3880  -12.9490 C   0  0  0  0  0
   20.0980  -10.2770  -12.6030 C   0  0  0  0  0
   16.8890  -10.3430  -11.2400 C   0  0  0  0  0
   18.8280   -9.7430  -12.7030 C   0  0  0  0  0
   16.3070  -10.7940  -17.0670 C   0  0  0  0  0
   14.1170  -12.9740  -19.0950 C   0  0  0  0  0
   14.1950  -11.7230  -19.9410 C   0  0  0  0  0
   14.9590  -12.7290  -17.8670 C   0  0  0  0  0
   15.0730  -10.7430  -19.2090 C   0  0  0  0  0
   16.7880  -10.7460  -13.7460 C   0  0  0  0  0
   17.5440  -11.2120  -14.9710 C   0  0  0  0  0
   17.6540  -10.6540  -12.5050 C   0  0  0  0  0
   15.4420  -11.3840  -17.9720 N   0  0  0  0  0
   16.5870  -11.5780  -15.9790 N   0  0  0  0  0
   16.8040   -9.6910  -17.2400 O   0  0  0  0  0
   15.0738   -9.5221   -7.9164 H   0  0  0  0  0
   21.9058   -7.4731  -13.1310 H   0  0  0  0  0
   17.5293   -9.8096   -7.9487 H   0  0  0  0  0
   13.7743   -9.7748  -10.0081 H   0  0  0  0  0
   19.6390   -6.5072  -13.2970 H   0  0  0  0  0
   22.1952   -9.8809  -12.6967 H   0  0  0  0  0
   18.6707  -10.3322  -10.0616 H   0  0  0  0  0
   14.9378  -10.2685  -12.1251 H   0  0  0  0  0
   17.6659   -7.9653  -13.0211 H   0  0  0  0  0
   20.2319  -11.3391  -12.3978 H   0  0  0  0  0
   13.5586  -13.8806  -19.3280 H   0  0  0  0  0
   13.7065  -11.5609  -20.9018 H   0  0  0  0  0
   15.1598  -13.4345  -17.0608 H   0  0  0  0  0
   15.3695   -9.7498  -19.5463 H   0  0  0  0  0
   16.0031  -11.4755  -13.5463 H   0  0  0  0  0
   16.4057   -9.7470  -13.9554 H   0  0  0  0  0
   18.1700  -12.0685  -14.7209 H   0  0  0  0  0
   18.1883  -10.4136  -15.3392 H   0  0  0  0  0
   18.0472  -11.6593  -12.3538 H   0  0  0  0  0
   16.0923  -12.4645  -15.8794 H   0  0  0  0  0
  3  1  4  0  0  0
  4  1  4  0  0  0
  5  2  4  0  0  0
  6  2  4  0  0  0
  7  3  4  0  0  0
  8  4  4  0  0  0
  9  5  4  0  0  0
 10  6  4  0  0  0
 11  7  4  0  0  0
 11  8  4  0  0  0
 12  9  4  0  0  0
 12 10  4  0  0  0
 20 11  1  0  0  0
 20 12  1  0  0  0
 13 21  1  0  0  0
 22 13  1  0  0  0
 13 23  2  0  0  0
 15 14  4  0  0  0
 16 14  4  0  0  0
 17 15  4  0  0  0
 21 16  4  0  0  0
 21 17  4  0  0  0
 19 18  1  0  0  0
 18 20  1  0  0  0
 19 22  1  0  0  0
  1 24  1  0  0  0
  2 25  1  0  0  0
  3 26  1  0  0  0
  4 27  1  0  0  0
  5 28  1  0  0  0
  6 29  1  0  0  0
  7 30  1  0  0  0
  8 31  1  0  0  0
  9 32  1  0  0  0
 10 33  1  0  0  0
 14 34  1  0  0  0
 15 35  1  0  0  0
 16 36  1  0  0  0
 17 37  1  0  0  0
 18 38  1  0  0  0
 18 39  1  0  0  0
 19 40  1  0  0  0
 19 41  1  0  0  0
 20 42  1  0  0  0
 22 43  1  0  0  0
M  END
$$$$
