### 
### Created by X-TOOL on Mon Sep 10 21:13:24 2018
### 

@<TRIPOS>MOLECULE
5e0m_ligand
  140   139     1     0     0
SMALL
GAST_HUCK


@<TRIPOS>ATOM
      1 N         -23.3450   25.7060  -19.3900 N.4       1 ARG         0.2379
      2 CA        -22.2500   25.7320  -20.3460 C.3       1 ARG         0.0651
      3 C         -21.6900   24.3350  -20.5610 C.2       1 ARG         0.2268
      4 O         -21.8170   23.4550  -19.7100 O.2       1 ARG        -0.3907
      5 CB        -21.1390   26.6750  -19.8690 C.3       1 ARG         0.0110
      6 CG        -20.4830   26.2300  -18.5880 C.3       1 ARG        -0.0125
      7 CD        -19.4950   27.2510  -18.0460 C.3       1 ARG         0.0629
      8 NE        -18.5660   26.6400  -17.0870 N.pl3     1 ARG        -0.2723
      9 CZ        -17.2650   26.4370  -17.2990 C.cat     1 ARG         0.2882
     10 NH1       -16.6940   26.8180  -18.4360 N.pl3     1 ARG        -0.2849
     11 NH2       -16.5210   25.8650  -16.3560 N.pl3     1 ARG        -0.2849
     12 N         -21.0710   24.1380  -21.7150 N.am      1 SER        -0.2589
     13 CA        -20.4390   22.8700  -22.0320 C.3       1 SER         0.1540
     14 C         -18.9400   22.9990  -21.8460 C.2       1 SER         0.2063
     15 O         -18.3420   23.9660  -22.2880 O.2       1 SER        -0.3943
     16 CB        -20.7700   22.4420  -23.4620 C.3       1 SER         0.0843
     17 OG        -22.1710   22.3140  -23.6360 O.3       1 SER        -0.3903
     18 N         -18.3340   22.0260  -21.1790 N.am      1 THR        -0.2613
     19 CA        -16.8900   22.0320  -21.0060 C.3       1 THR         0.1565
     20 C         -16.3310   20.6380  -21.1480 C.2       1 THR         0.2065
     21 O         -17.0540   19.6510  -20.9980 O.2       1 THR        -0.3943
     22 CB        -16.4770   22.5960  -19.6400 C.3       1 THR         0.0924
     23 OG1       -17.3430   22.0840  -18.6200 O.3       1 THR        -0.3874
     24 CG2       -16.5510   24.1010  -19.6520 C.3       1 THR        -0.0346
     25 N         -15.0450   20.5690  -21.4710 N.am      1 THR        -0.2613
     26 CA        -14.3520   19.3030  -21.5560 C.3       1 THR         0.1565
     27 C         -13.5670   19.0800  -20.2830 C.2       1 THR         0.2065
     28 O         -13.1590   20.0400  -19.6030 O.2       1 THR        -0.3943
     29 CB        -13.3680   19.2410  -22.7290 C.3       1 THR         0.0924
     30 OG1       -12.4180   20.3040  -22.5990 O.3       1 THR        -0.3874
     31 CG2       -14.0900   19.3550  -24.0550 C.3       1 THR        -0.0346
     32 N         -13.3700   17.8080  -19.9620 N.am      1 THR        -0.2613
     33 CA        -12.3920   17.4150  -18.9670 C.3       1 THR         0.1565
     34 C         -11.5580   16.3280  -19.6080 C.2       1 THR         0.2065
     35 O         -12.0340   15.5870  -20.4660 O.2       1 THR        -0.3943
     36 CB        -13.0370   16.9010  -17.6580 C.3       1 THR         0.0924
     37 OG1       -13.5990   15.6030  -17.8770 O.3       1 THR        -0.3874
     38 CG2       -14.1280   17.8520  -17.1700 C.3       1 THR        -0.0346
     39 N         -10.3000   16.2470  -19.2130 N.am      1 GLN        -0.2635
     40 CA         -9.4310   15.1800  -19.6550 C.3       1 GLN         0.1330
     41 C          -8.4660   14.8040  -18.5360 C.2       1 GLN         0.2041
     42 O          -7.7610   15.6550  -18.0170 O.2       1 GLN        -0.3944
     43 CB         -8.6620   15.6080  -20.9040 C.3       1 GLN         0.0045
     44 CG         -7.6720   14.5800  -21.3940 C.3       1 GLN         0.0412
     45 CD         -8.3550   13.3190  -21.8450 C.2       1 GLN         0.1737
     46 OE1        -9.2920   13.3700  -22.6340 O.2       1 GLN        -0.3973
     47 NE2        -7.9140   12.1780  -21.3200 N.am      1 GLN        -0.3009
     48 N          -8.4330   13.5280  -18.1740 N.am      1 THR        -0.2613
     49 CA         -7.5130   13.0580  -17.1550 C.3       1 THR         0.1565
     50 C          -6.0740   13.1980  -17.6270 C.2       1 THR         0.2066
     51 O          -5.7770   13.0400  -18.8140 O.2       1 THR        -0.3943
     52 CB         -7.7650   11.5910  -16.7810 C.3       1 THR         0.0924
     53 OG1        -7.8240   10.7880  -17.9660 O.3       1 THR        -0.3874
     54 CG2        -9.0560   11.4480  -16.0190 C.3       1 THR        -0.0346
     55 N          -5.1920   13.4960  -16.6780 N.am      1 ASP        -0.2621
     56 CA         -3.7600   13.6200  -16.9340 C.3       1 ASP         0.1423
     57 C          -3.1790   12.2820  -17.3720 C.2       1 ASP         0.2050
     58 O          -2.3090   12.2190  -18.2420 O.2       1 ASP        -0.3943
     59 CB         -3.0420   14.1260  -15.6730 C.3       1 ASP         0.0406
     60 CG         -3.5900   15.4640  -15.1810 C.2       1 ASP         0.0393
     61 OD1        -4.0310   16.2750  -16.0230 O.co2     1 ASP        -0.5688
     62 OD2        -3.5710   15.7090  -13.9540 O.co2     1 ASP        -0.5688
     63 N          -3.6640   11.2130  -16.7490 N.am      1 MET        -0.2694
     64 CA         -3.2710    9.8530  -17.1030 C.3       1 MET         0.0951
     65 C          -4.3840    9.1720  -17.9200 C.2       1 MET         0.0601
     66 O          -4.3540    7.9680  -18.1830 O.co2     1 MET        -0.5666
     67 CB         -2.9640    9.0350  -15.8420 C.3       1 MET        -0.0089
     68 CG         -1.4790    8.8580  -15.5260 C.3       1 MET        -0.0030
     69 SD         -0.5570   10.4000  -15.3330 S.3       1 MET        -0.1639
     70 CE         -1.2860   11.0810  -13.8360 C.3       1 MET        -0.0181
     71 OXT        -5.3630    9.7980  -18.3300 O.co2     1 MET        -0.5666
     72 H1        -23.7014   26.6401  -19.2619 H         1 ARG         0.2015
     73 H2        -23.0125   25.3494  -18.5078 H         1 ARG         0.2015
     74 H3        -24.0804   25.1106  -19.7375 H         1 ARG         0.2015
     75 H4        -22.6364   26.1048  -21.3060 H         1 ARG         0.1098
     76 H5        -21.5737   27.6728  -19.7093 H         1 ARG         0.0347
     77 H6        -20.3695   26.7314  -20.6530 H         1 ARG         0.0347
     78 H7        -19.9470   25.2881  -18.7764 H         1 ARG         0.0302
     79 H8        -21.2648   26.0623  -17.8326 H         1 ARG         0.0302
     80 H9        -20.0514   28.0554  -17.5426 H         1 ARG         0.0689
     81 H10       -18.9194   27.6718  -18.8836 H         1 ARG         0.0689
     82 H11       -18.9497   26.3446  -16.1779 H         1 ARG         0.2642
     83 H12       -15.6882   26.6553  -18.5870 H         1 ARG         0.2615
     84 H13       -17.2570   27.2762  -19.1668 H         1 ARG         0.2615
     85 H14       -16.9530   25.5655  -15.4702 H         1 ARG         0.2615
     86 H15       -15.5130   25.7217  -16.5117 H         1 ARG         0.2615
     87 H16       -21.0381   24.8804  -22.3841 H         1 SER         0.1885
     88 H17       -20.8177   22.1025  -21.3410 H         1 SER         0.0823
     89 H18       -20.2907   21.4738  -23.6691 H         1 SER         0.0606
     90 H19       -20.3869   23.1982  -24.1629 H         1 SER         0.0606
     91 H20       -22.5052   21.6593  -23.0341 H         1 SER         0.2097
     92 H21       -18.8757   21.2803  -20.7909 H         1 THR         0.1884
     93 H22       -16.4548   22.6681  -21.7908 H         1 THR         0.0826
     94 H23       -15.4432   22.2887  -19.4236 H         1 THR         0.0639
     95 H24       -17.0817   22.4371  -17.7777 H         1 THR         0.2101
     96 H25       -16.2526   24.4906  -18.6675 H         1 THR         0.0257
     97 H26       -17.5814   24.4157  -19.8739 H         1 THR         0.0257
     98 H27       -15.8730   24.4953  -20.4232 H         1 THR         0.0257
     99 H28       -14.5435   21.4133  -21.6601 H         1 THR         0.1884
    100 H29       -15.0973   18.5028  -21.6747 H         1 THR         0.0826
    101 H30       -12.8376   18.2778  -22.6979 H         1 THR         0.0639
    102 H31       -11.9466   20.2075  -21.7799 H         1 THR         0.2101
    103 H32       -13.3591   19.3074  -24.8757 H         1 THR         0.0257
    104 H33       -14.6280   20.3135  -24.0984 H         1 THR         0.0257
    105 H34       -14.8073   18.5270  -24.1543 H         1 THR         0.0257
    106 H35       -13.9106   17.1015  -20.4186 H         1 THR         0.1884
    107 H36       -11.7548   18.2781  -18.7241 H         1 THR         0.0826
    108 H37       -12.2580   16.8297  -16.8846 H         1 THR         0.0639
    109 H38       -12.9134   15.0039  -18.1481 H         1 THR         0.2101
    110 H39       -14.5666   17.4606  -16.2402 H         1 THR         0.0257
    111 H40       -14.9113   17.9363  -17.9377 H         1 THR         0.0257
    112 H41       -13.6920   18.8439  -16.9805 H         1 THR         0.0257
    113 H42        -9.9393   16.9425  -18.5916 H         1 GLN         0.1883
    114 H43       -10.0450   14.3017  -19.9030 H         1 GLN         0.0801
    115 H44        -8.1146   16.5338  -20.6735 H         1 GLN         0.0337
    116 H45        -9.3872   15.8013  -21.7081 H         1 GLN         0.0337
    117 H46        -6.9776   14.3361  -20.5765 H         1 GLN         0.0504
    118 H47        -7.1091   15.0022  -22.2395 H         1 GLN         0.0504
    119 H48        -8.3336   11.3101  -21.5859 H         1 GLN         0.1814
    120 H49        -7.1631   12.1887  -20.6597 H         1 GLN         0.1814
    121 H50        -9.0540   12.8778  -18.6117 H         1 THR         0.1884
    122 H51        -7.6532   13.6764  -16.2562 H         1 THR         0.0826
    123 H52        -6.9366   11.2391  -16.1486 H         1 THR         0.0639
    124 H53        -7.0001   10.8552  -18.4341 H         1 THR         0.2101
    125 H54        -9.2150   10.3902  -15.7623 H         1 THR         0.0257
    126 H55        -9.8904   11.8037  -16.6412 H         1 THR         0.0257
    127 H56        -9.0056   12.0455  -15.0968 H         1 THR         0.0257
    128 H57        -5.5246   13.6419  -15.7463 H         1 ASP         0.1884
    129 H58        -3.6088   14.3500  -17.7428 H         1 ASP         0.0819
    130 H59        -1.9726   14.2459  -15.9009 H         1 ASP         0.0478
    131 H60        -3.1653   13.3799  -14.8742 H         1 ASP         0.0478
    132 H61        -4.3236   11.3457  -16.0092 H         1 MET         0.1875
    133 H62        -2.3614    9.9007  -17.7197 H         1 MET         0.0726
    134 H63        -3.4063    8.0358  -15.9686 H         1 MET         0.0313
    135 H64        -3.4362    9.5393  -14.9860 H         1 MET         0.0313
    136 H65        -1.0205    8.2854  -16.3456 H         1 MET         0.0378
    137 H66        -1.3940    8.2888  -14.5886 H         1 MET         0.0378
    138 H67        -0.8058   12.0418  -13.5986 H         1 MET         0.0340
    139 H68        -1.1344   10.3795  -13.0024 H         1 MET         0.0340
    140 H69        -2.3635   11.2382  -13.9916 H         1 MET         0.0340
@<TRIPOS>BOND
     1    1    2 1  
     2    2    3 1  
     3    2    5 1  
     4    3    4 2  
     5    3   12 am 
     6    5    6 1  
     7    6    7 1  
     8    7    8 1  
     9    8    9 ar 
    10    9   10 ar 
    11    9   11 ar 
    12   12   13 1  
    13   13   14 1  
    14   13   16 1  
    15   14   15 2  
    16   14   18 am 
    17   16   17 1  
    18   18   19 1  
    19   19   20 1  
    20   19   22 1  
    21   20   21 2  
    22   20   25 am 
    23   22   23 1  
    24   22   24 1  
    25   25   26 1  
    26   26   27 1  
    27   26   29 1  
    28   27   28 2  
    29   27   32 am 
    30   29   30 1  
    31   29   31 1  
    32   32   33 1  
    33   33   34 1  
    34   33   36 1  
    35   34   35 2  
    36   34   39 am 
    37   36   37 1  
    38   36   38 1  
    39   39   40 1  
    40   40   41 1  
    41   40   43 1  
    42   41   42 2  
    43   41   48 am 
    44   43   44 1  
    45   44   45 1  
    46   45   46 2  
    47   45   47 am 
    48   48   49 1  
    49   49   50 1  
    50   49   52 1  
    51   50   51 2  
    52   50   55 am 
    53   52   53 1  
    54   52   54 1  
    55   55   56 1  
    56   56   57 1  
    57   56   59 1  
    58   57   58 2  
    59   57   63 am 
    60   59   60 1  
    61   60   61 ar 
    62   60   62 ar 
    63   63   64 1  
    64   64   65 1  
    65   64   67 1  
    66   65   66 ar 
    67   65   71 ar 
    68   67   68 1  
    69   68   69 1  
    70   69   70 1  
    71    1   72 1  
    72    1   73 1  
    73    1   74 1  
    74    2   75 1  
    75    5   76 1  
    76    5   77 1  
    77    6   78 1  
    78    6   79 1  
    79    7   80 1  
    80    7   81 1  
    81    8   82 1  
    82   10   83 1  
    83   10   84 1  
    84   11   85 1  
    85   11   86 1  
    86   12   87 1  
    87   13   88 1  
    88   16   89 1  
    89   16   90 1  
    90   17   91 1  
    91   18   92 1  
    92   19   93 1  
    93   22   94 1  
    94   23   95 1  
    95   24   96 1  
    96   24   97 1  
    97   24   98 1  
    98   25   99 1  
    99   26  100 1  
   100   29  101 1  
   101   30  102 1  
   102   31  103 1  
   103   31  104 1  
   104   31  105 1  
   105   32  106 1  
   106   33  107 1  
   107   36  108 1  
   108   37  109 1  
   109   38  110 1  
   110   38  111 1  
   111   38  112 1  
   112   39  113 1  
   113   40  114 1  
   114   43  115 1  
   115   43  116 1  
   116   44  117 1  
   117   44  118 1  
   118   47  119 1  
   119   47  120 1  
   120   48  121 1  
   121   49  122 1  
   122   52  123 1  
   123   53  124 1  
   124   54  125 1  
   125   54  126 1  
   126   54  127 1  
   127   55  128 1  
   128   56  129 1  
   129   59  130 1  
   130   59  131 1  
   131   63  132 1  
   132   64  133 1  
   133   67  134 1  
   134   67  135 1  
   135   68  136 1  
   136   68  137 1  
   137   70  138 1  
   138   70  139 1  
   139   70  140 1  
@<TRIPOS>SUBSTRUCTURE
     1 ARG         1

