5e0m_ligand
  -I-interpret- 

141140  0  0  0  0  0  0  0  0999 V2000
  -23.3450   25.7060  -19.3900 N   0  3  0  0  0
  -22.2500   25.7320  -20.3460 C   0  0  0  0  0
  -21.6900   24.3350  -20.5610 C   0  0  0  0  0
  -21.8170   23.4550  -19.7100 O   0  0  0  0  0
  -21.1390   26.6750  -19.8690 C   0  0  0  0  0
  -20.4830   26.2300  -18.5880 C   0  0  0  0  0
  -19.4950   27.2510  -18.0460 C   0  0  0  0  0
  -18.5660   26.6400  -17.0870 N   0  0  0  0  0
  -17.2650   26.4370  -17.2990 C   0  0  0  0  0
  -16.6940   26.8180  -18.4360 N   0  0  0  0  0
  -16.5210   25.8650  -16.3560 N   0  0  0  0  0
  -21.0710   24.1380  -21.7150 N   0  0  0  0  0
  -20.4390   22.8700  -22.0320 C   0  0  0  0  0
  -18.9400   22.9990  -21.8460 C   0  0  0  0  0
  -18.3420   23.9660  -22.2880 O   0  0  0  0  0
  -20.7700   22.4420  -23.4620 C   0  0  0  0  0
  -22.1710   22.3140  -23.6360 O   0  0  0  0  0
  -18.3340   22.0260  -21.1790 N   0  0  0  0  0
  -16.8900   22.0320  -21.0060 C   0  0  0  0  0
  -16.3310   20.6380  -21.1480 C   0  0  0  0  0
  -17.0540   19.6510  -20.9980 O   0  0  0  0  0
  -16.4770   22.5960  -19.6400 C   0  0  0  0  0
  -17.3430   22.0840  -18.6200 O   0  0  0  0  0
  -16.5510   24.1010  -19.6520 C   0  0  0  0  0
  -15.0450   20.5690  -21.4710 N   0  0  0  0  0
  -14.3520   19.3030  -21.5560 C   0  0  0  0  0
  -13.5670   19.0800  -20.2830 C   0  0  0  0  0
  -13.1590   20.0400  -19.6030 O   0  0  0  0  0
  -13.3680   19.2410  -22.7290 C   0  0  0  0  0
  -12.4180   20.3040  -22.5990 O   0  0  0  0  0
  -14.0900   19.3550  -24.0550 C   0  0  0  0  0
  -13.3700   17.8080  -19.9620 N   0  0  0  0  0
  -12.3920   17.4150  -18.9670 C   0  0  0  0  0
  -11.5580   16.3280  -19.6080 C   0  0  0  0  0
  -12.0340   15.5870  -20.4660 O   0  0  0  0  0
  -13.0370   16.9010  -17.6580 C   0  0  0  0  0
  -13.5990   15.6030  -17.8770 O   0  0  0  0  0
  -14.1280   17.8520  -17.1700 C   0  0  0  0  0
  -10.3000   16.2470  -19.2130 N   0  0  0  0  0
   -9.4310   15.1800  -19.6550 C   0  0  0  0  0
   -8.4660   14.8040  -18.5360 C   0  0  0  0  0
   -7.7610   15.6550  -18.0170 O   0  0  0  0  0
   -8.6620   15.6080  -20.9040 C   0  0  0  0  0
   -7.6720   14.5800  -21.3940 C   0  0  0  0  0
   -8.3550   13.3190  -21.8450 C   0  0  0  0  0
   -9.2920   13.3700  -22.6340 O   0  0  0  0  0
   -7.9140   12.1780  -21.3200 N   0  0  0  0  0
   -8.4330   13.5280  -18.1740 N   0  0  0  0  0
   -7.5130   13.0580  -17.1550 C   0  0  0  0  0
   -6.0740   13.1980  -17.6270 C   0  0  0  0  0
   -5.7770   13.0400  -18.8140 O   0  0  0  0  0
   -7.7650   11.5910  -16.7810 C   0  0  0  0  0
   -7.8240   10.7880  -17.9660 O   0  0  0  0  0
   -9.0560   11.4480  -16.0190 C   0  0  0  0  0
   -5.1920   13.4960  -16.6780 N   0  0  0  0  0
   -3.7600   13.6200  -16.9340 C   0  0  0  0  0
   -3.1790   12.2820  -17.3720 C   0  0  0  0  0
   -2.3090   12.2190  -18.2420 O   0  0  0  0  0
   -3.0420   14.1260  -15.6730 C   0  0  0  0  0
   -3.5900   15.4640  -15.1810 C   0  0  0  0  0
   -4.0310   16.2750  -16.0230 O   0  0  0  0  0
   -3.5710   15.7090  -13.9540 O   0  0  0  0  0
   -3.6640   11.2130  -16.7490 N   0  0  0  0  0
   -3.2710    9.8530  -17.1030 C   0  0  0  0  0
   -4.3840    9.1720  -17.9200 C   0  0  0  0  0
   -4.3540    7.9680  -18.1830 O   0  0  0  0  0
   -2.9640    9.0350  -15.8420 C   0  0  0  0  0
   -1.4790    8.8580  -15.5260 C   0  0  0  0  0
   -0.5570   10.4000  -15.3330 S   0  0  0  0  0
   -1.2860   11.0810  -13.8360 C   0  0  0  0  0
   -5.3630    9.7980  -18.3300 O   0  0  0  0  0
  -24.0723   25.0742  -19.7250 H   0  0  0  0  0
  -22.9991   25.3801  -18.4875 H   0  0  0  0  0
  -23.7291   26.6455  -19.2891 H   0  0  0  0  0
  -22.6396   26.1010  -21.2947 H   0  0  0  0  0
  -21.5924   27.6488  -19.6841 H   0  0  0  0  0
  -20.3705   26.6935  -20.6417 H   0  0  0  0  0
  -19.9337   25.3118  -18.7958 H   0  0  0  0  0
  -21.2659   26.0944  -17.8418 H   0  0  0  0  0
  -20.0531   28.0360  -17.5356 H   0  0  0  0  0
  -18.9184   27.6515  -18.8798 H   0  0  0  0  0
  -18.9460   26.3474  -16.1868 H   0  0  0  0  0
  -17.2515   27.2718  -19.1597 H   0  0  0  0  0
  -15.5228   25.7230  -16.5102 H   0  0  0  0  0
  -16.9488   25.5684  -15.4788 H   0  0  0  0  0
  -21.0374   24.8953  -22.3975 H   0  0  0  0  0
  -20.8205   22.1019  -21.3593 H   0  0  0  0  0
  -20.3013   21.4777  -23.6583 H   0  0  0  0  0
  -20.3974   23.1996  -24.1514 H   0  0  0  0  0
  -22.3570   22.0451  -24.5386 H   0  0  0  0  0
  -18.8865   21.2654  -20.7832 H   0  0  0  0  0
  -16.4836   22.6770  -21.7851 H   0  0  0  0  0
  -15.4511   22.2915  -19.4330 H   0  0  0  0  0
  -17.0789   22.4408  -17.7688 H   0  0  0  0  0
  -15.8788   24.4905  -20.4166 H   0  0  0  0  0
  -17.5724   24.4115  -19.8720 H   0  0  0  0  0
  -16.2551   24.4858  -18.6761 H   0  0  0  0  0
  -14.5335   21.4302  -21.6639 H   0  0  0  0  0
  -15.1121   18.5364  -21.7067 H   0  0  0  0  0
  -12.8572   18.2783  -22.7072 H   0  0  0  0  0
  -11.7988   20.2697  -23.3318 H   0  0  0  0  0
  -14.8004   18.5341  -24.1522 H   0  0  0  0  0
  -14.6227   20.3050  -24.0967 H   0  0  0  0  0
  -13.3648   19.3077  -24.8674 H   0  0  0  0  0
  -13.9214   17.0873  -20.4278 H   0  0  0  0  0
  -11.7940   18.2781  -18.6746 H   0  0  0  0  0
  -12.2613   16.8471  -16.8941 H   0  0  0  0  0
  -13.9983   15.2870  -17.0632 H   0  0  0  0  0
  -13.6947   18.8345  -16.9827 H   0  0  0  0  0
  -14.9034   17.9347  -17.9316 H   0  0  0  0  0
  -14.5618   17.4631  -16.2487 H   0  0  0  0  0
   -9.9321   16.9564  -18.5791 H   0  0  0  0  0
  -10.0353   14.3083  -19.9061 H   0  0  0  0  0
   -8.0980   16.5045  -20.6464 H   0  0  0  0  0
   -9.3925   15.7594  -21.6987 H   0  0  0  0  0
   -7.0008   14.3313  -20.5720 H   0  0  0  0  0
   -7.1329   15.0005  -22.2429 H   0  0  0  0  0
   -8.3597   11.2954  -21.5706 H   0  0  0  0  0
   -7.1304   12.1863  -20.6671 H   0  0  0  0  0
   -9.0664   12.8648  -18.6205 H   0  0  0  0  0
   -7.6826   13.6768  -16.2738 H   0  0  0  0  0
   -6.9432   11.2548  -16.1488 H   0  0  0  0  0
   -7.9818    9.8727  -17.7234 H   0  0  0  0  0
   -9.0048   12.0405  -15.1055 H   0  0  0  0  0
   -9.8819   11.8008  -16.6366 H   0  0  0  0  0
   -9.2124   10.3995  -15.7653 H   0  0  0  0  0
   -5.5312   13.6448  -15.7276 H   0  0  0  0  0
   -3.6099   14.3402  -17.7383 H   0  0  0  0  0
   -1.9895   14.2653  -15.9198 H   0  0  0  0  0
   -3.1941   13.3907  -14.8829 H   0  0  0  0  0
   -3.1955   14.9602  -13.4851 H   0  0  0  0  0
   -4.3368   11.3484  -15.9944 H   0  0  0  0  0
   -2.3680    9.9027  -17.7115 H   0  0  0  0  0
   -3.5541    7.5819  -17.8188 H   0  0  0  0  0
   -3.3691    8.0371  -16.0102 H   0  0  0  0  0
   -3.3997    9.5779  -15.0032 H   0  0  0  0  0
   -1.0367    8.3281  -16.3696 H   0  0  0  0  0
   -1.4185    8.3315  -14.5735 H   0  0  0  0  0
   -2.3536   11.2363  -13.9915 H   0  0  0  0  0
   -1.1351   10.3850  -13.0108 H   0  0  0  0  0
   -0.8094   12.0329  -13.6019 H   0  0  0  0  0
  1  2  1  0  0  0
  2  3  1  0  0  0
  2  5  1  0  0  0
  3  4  2  0  0  0
  3 12  1  0  0  0
  5  6  1  0  0  0
  6  7  1  0  0  0
  7  8  1  0  0  0
  8  9  1  0  0  0
  9 10  2  0  0  0
  9 11  1  0  0  0
 12 13  1  0  0  0
 13 14  1  0  0  0
 13 16  1  0  0  0
 14 15  2  0  0  0
 14 18  1  0  0  0
 16 17  1  0  0  0
 18 19  1  0  0  0
 19 20  1  0  0  0
 19 22  1  0  0  0
 20 21  2  0  0  0
 20 25  1  0  0  0
 22 23  1  0  0  0
 22 24  1  0  0  0
 25 26  1  0  0  0
 26 27  1  0  0  0
 26 29  1  0  0  0
 27 28  2  0  0  0
 27 32  1  0  0  0
 29 30  1  0  0  0
 29 31  1  0  0  0
 32 33  1  0  0  0
 33 34  1  0  0  0
 33 36  1  0  0  0
 34 35  2  0  0  0
 34 39  1  0  0  0
 36 37  1  0  0  0
 36 38  1  0  0  0
 39 40  1  0  0  0
 40 41  1  0  0  0
 40 43  1  0  0  0
 41 42  2  0  0  0
 41 48  1  0  0  0
 43 44  1  0  0  0
 44 45  1  0  0  0
 45 46  2  0  0  0
 45 47  1  0  0  0
 48 49  1  0  0  0
 49 50  1  0  0  0
 49 52  1  0  0  0
 50 51  2  0  0  0
 50 55  1  0  0  0
 52 53  1  0  0  0
 52 54  1  0  0  0
 55 56  1  0  0  0
 56 57  1  0  0  0
 56 59  1  0  0  0
 57 58  2  0  0  0
 57 63  1  0  0  0
 59 60  1  0  0  0
 60 61  2  0  0  0
 60 62  1  0  0  0
 63 64  1  0  0  0
 64 65  1  0  0  0
 64 67  1  0  0  0
 65 66  1  0  0  0
 65 71  2  0  0  0
 67 68  1  0  0  0
 68 69  1  0  0  0
 69 70  1  0  0  0
  1 72  1  0  0  0
  1 73  1  0  0  0
  1 74  1  0  0  0
  2 75  1  0  0  0
  5 76  1  0  0  0
  5 77  1  0  0  0
  6 78  1  0  0  0
  6 79  1  0  0  0
  7 80  1  0  0  0
  7 81  1  0  0  0
  8 82  1  0  0  0
 10 83  1  0  0  0
 11 84  1  0  0  0
 11 85  1  0  0  0
 12 86  1  0  0  0
 13 87  1  0  0  0
 16 88  1  0  0  0
 16 89  1  0  0  0
 17 90  1  0  0  0
 18 91  1  0  0  0
 19 92  1  0  0  0
 22 93  1  0  0  0
 23 94  1  0  0  0
 24 95  1  0  0  0
 24 96  1  0  0  0
 24 97  1  0  0  0
 25 98  1  0  0  0
 26 99  1  0  0  0
 29100  1  0  0  0
 30101  1  0  0  0
 31102  1  0  0  0
 31103  1  0  0  0
 31104  1  0  0  0
 32105  1  0  0  0
 33106  1  0  0  0
 36107  1  0  0  0
 37108  1  0  0  0
 38109  1  0  0  0
 38110  1  0  0  0
 38111  1  0  0  0
 39112  1  0  0  0
 40113  1  0  0  0
 43114  1  0  0  0
 43115  1  0  0  0
 44116  1  0  0  0
 44117  1  0  0  0
 47118  1  0  0  0
 47119  1  0  0  0
 48120  1  0  0  0
 49121  1  0  0  0
 52122  1  0  0  0
 53123  1  0  0  0
 54124  1  0  0  0
 54125  1  0  0  0
 54126  1  0  0  0
 55127  1  0  0  0
 56128  1  0  0  0
 59129  1  0  0  0
 59130  1  0  0  0
 62131  1  0  0  0
 63132  1  0  0  0
 64133  1  0  0  0
 66134  1  0  0  0
 67135  1  0  0  0
 67136  1  0  0  0
 68137  1  0  0  0
 68138  1  0  0  0
 70139  1  0  0  0
 70140  1  0  0  0
 70141  1  0  0  0
M  END
$$$$
