2y7p_ligand
  -I-interpret- 

 16 16  0  0  0  0  0  0  0  0999 V2000
   14.8160   48.6310    3.5540 C   0  0  0  0  0
   15.5390   49.3720    2.8170 O   0  0  0  0  0
   14.9820   48.6050    4.7950 O   0  0  0  0  0
   13.7830   47.7510    2.9810 C   0  0  0  0  0
   12.9860   46.8930    3.8750 C   0  0  0  0  0
   12.0430   46.0320    3.3440 C   0  0  0  0  0
   11.8180   45.9740    1.9480 C   0  0  0  0  0
   12.5750   46.7800    1.1220 C   0  0  0  0  0
   13.5620   47.6770    1.5970 C   0  0  0  0  0
   13.1930   46.9800    5.2290 O   0  0  0  0  0
   15.2742   49.2656    1.9004 H   0  0  0  0  0
   11.4657   45.3899    4.0092 H   0  0  0  0  0
   11.0624   45.3065    1.5336 H   0  0  0  0  0
   12.4039   46.7229    0.0470 H   0  0  0  0  0
   14.1355   48.2943    0.9056 H   0  0  0  0  0
   12.6079   46.3676    5.6810 H   0  0  0  0  0
  1  2  1  0  0  0
  1  3  2  0  0  0
  1  4  1  0  0  0
  4  5  4  0  0  0
  4  9  4  0  0  0
  5  6  4  0  0  0
  5 10  1  0  0  0
  6  7  4  0  0  0
  7  8  4  0  0  0
  8  9  4  0  0  0
  2 11  1  0  0  0
  6 12  1  0  0  0
  7 13  1  0  0  0
  8 14  1  0  0  0
  9 15  1  0  0  0
 10 16  1  0  0  0
M  END
$$$$
