2qtr_ligand
  -I-interpret- 

 72 76  0  0  0  0  0  0  0  0999 V2000
   23.4390   65.0750   15.2790 O   0  0  0  0  0
   22.6820   64.3390   15.9780 C   0  0  0  0  0
   22.1890   63.2650   15.5280 O   0  0  0  0  0
   22.3620   64.7600   17.3830 C   0  0  0  0  0
   21.5070   64.0070   18.2440 C   0  0  0  0  0
   21.2370   64.4450   19.5370 C   0  0  0  0  0
   21.8270   65.6600   19.9910 C   0  0  0  0  0
   22.9270   65.9610   17.8810 C   0  0  0  0  0
   22.6520   66.3680   19.1350 N   0  0  0  0  0
   23.2760   67.6320   19.5680 C   0  0  0  0  0
   22.3120   68.8090   19.5740 C   0  0  0  0  0
   22.0350   69.3700   18.2840 O   0  0  0  0  0
   23.0180   69.7620   20.5430 C   0  0  0  0  0
   24.0250   70.4920   19.8000 O   0  0  0  0  0
   23.7680   67.5320   20.9220 O   0  0  0  0  0
   23.6350   68.8210   21.5720 C   0  0  0  0  0
   22.7830   68.6290   22.8510 C   0  0  0  0  0
   21.3730   68.7940   22.5850 O   0  0  0  0  0
   20.2630   68.8980   23.7410 P   0  0  0  0  0
   18.8950   69.0880   23.1530 O   0  0  0  0  0
   20.5610   67.7120   24.6000 O   0  0  0  0  0
   20.6390   70.2970   24.4320 O   0  0  0  0  0
   20.1880   70.9170   25.8490 P   0  0  0  0  0
   19.8530   72.3660   25.6320 O   0  0  0  0  0
   19.1080   70.0280   26.4610 O   0  0  0  0  0
   21.5510   70.8070   26.7110 O   0  0  0  0  0
   22.7770   71.2970   26.1720 C   0  0  0  0  0
   23.9710   70.4590   26.6560 C   0  0  0  0  0
   23.8190   68.9380   26.5230 C   0  0  0  0  0
   25.0780   68.4080   26.0850 O   0  0  0  0  0
   23.4590   68.4450   27.9100 C   0  0  0  0  0
   23.8620   67.0790   28.1040 O   0  0  0  0  0
   24.1900   69.4560   28.7810 C   0  0  0  0  0
   24.1830   70.6960   28.0320 O   0  0  0  0  0
   23.5820   69.7620   30.0990 N   0  0  0  0  0
   22.4180   70.4130   30.3110 C   0  0  0  0  0
   22.2020   70.5100   31.6320 N   0  0  0  0  0
   23.2560   69.9090   32.2500 C   0  0  0  0  0
   24.1210   69.4350   31.2580 C   0  0  0  0  0
   23.5950   69.7000   33.5920 C   0  0  0  0  0
   22.7700   70.1490   34.5620 N   0  0  0  0  0
   24.7810   69.0280   33.8950 N   0  0  0  0  0
   25.6050   68.5740   32.9150 C   0  0  0  0  0
   25.2970   68.7640   31.5980 N   0  0  0  0  0
   23.7074   65.8383   15.7957 H   0  0  0  0  0
   21.0612   63.0795   17.8847 H   0  0  0  0  0
   20.5845   63.8678   20.1921 H   0  0  0  0  0
   21.6311   66.0266   20.9986 H   0  0  0  0  0
   22.5101   66.7416   17.2446 H   0  0  0  0  0
   24.0009   65.7745   17.8854 H   0  0  0  0  0
   24.0743   67.8023   18.8457 H   0  0  0  0  0
   21.3005   68.5398   19.8781 H   0  0  0  0  0
   21.4220   70.1026   18.3798 H   0  0  0  0  0
   22.3745   70.5030   21.0172 H   0  0  0  0  0
   24.4808   71.0967   20.3901 H   0  0  0  0  0
   24.5804   69.2548   21.8978 H   0  0  0  0  0
   23.0847   69.3810   23.5801 H   0  0  0  0  0
   22.9457   67.6174   23.2228 H   0  0  0  0  0
   18.8807   69.8948   22.6329 H   0  0  0  0  0
   19.4432   69.1326   26.5474 H   0  0  0  0  0
   22.9165   72.3258   26.5040 H   0  0  0  0  0
   22.7277   71.2371   25.0848 H   0  0  0  0  0
   24.7904   70.7731   26.0094 H   0  0  0  0  0
   23.0576   68.6326   25.8054 H   0  0  0  0  0
   25.0084   67.4549   25.9940 H   0  0  0  0  0
   22.3927   68.4029   28.1320 H   0  0  0  0  0
   23.6204   66.7979   28.9896 H   0  0  0  0  0
   25.1658   69.0224   29.0001 H   0  0  0  0  0
   21.7589   70.7983   29.5331 H   0  0  0  0  0
   21.9085   70.6356   34.3140 H   0  0  0  0  0
   23.0082   70.0016   35.5428 H   0  0  0  0  0
   26.5233   68.0516   33.1831 H   0  0  0  0  0
  1  2  1  0  0  0
  2  3  2  0  0  0
  2  4  1  0  0  0
  4  5  2  0  0  0
  4  8  1  0  0  0
  5  6  1  0  0  0
  6  7  2  0  0  0
  7  9  1  0  0  0
  8  9  1  0  0  0
  9 10  1  0  0  0
 10 11  1  0  0  0
 10 15  1  0  0  0
 11 12  1  0  0  0
 11 13  1  0  0  0
 13 14  1  0  0  0
 13 16  1  0  0  0
 15 16  1  0  0  0
 16 17  1  0  0  0
 17 18  1  0  0  0
 18 19  1  0  0  0
 19 20  1  0  0  0
 19 21  2  0  0  0
 19 22  1  0  0  0
 22 23  1  0  0  0
 23 24  2  0  0  0
 23 25  1  0  0  0
 23 26  1  0  0  0
 26 27  1  0  0  0
 27 28  1  0  0  0
 28 29  1  0  0  0
 28 34  1  0  0  0
 29 30  1  0  0  0
 29 31  1  0  0  0
 31 32  1  0  0  0
 31 33  1  0  0  0
 33 34  1  0  0  0
 33 35  1  0  0  0
 35 36  4  0  0  0
 35 39  4  0  0  0
 36 37  4  0  0  0
 37 38  4  0  0  0
 38 39  4  0  0  0
 38 40  4  0  0  0
 39 44  4  0  0  0
 40 41  1  0  0  0
 40 42  4  0  0  0
 42 43  4  0  0  0
 43 44  4  0  0  0
  1 45  1  0  0  0
  5 46  1  0  0  0
  6 47  1  0  0  0
  7 48  1  0  0  0
  8 49  1  0  0  0
  8 50  1  0  0  0
 10 51  1  0  0  0
 11 52  1  0  0  0
 12 53  1  0  0  0
 13 54  1  0  0  0
 14 55  1  0  0  0
 16 56  1  0  0  0
 17 57  1  0  0  0
 17 58  1  0  0  0
 20 59  1  0  0  0
 25 60  1  0  0  0
 27 61  1  0  0  0
 27 62  1  0  0  0
 28 63  1  0  0  0
 29 64  1  0  0  0
 30 65  1  0  0  0
 31 66  1  0  0  0
 32 67  1  0  0  0
 33 68  1  0  0  0
 36 69  1  0  0  0
 41 70  1  0  0  0
 41 71  1  0  0  0
 43 72  1  0  0  0
M  END
$$$$
