### 
### Created by X-TOOL on Mon Sep 10 21:12:58 2018
### 

@<TRIPOS>MOLECULE
2qtr_ligand
   69    73     1     0     0
SMALL
GAST_HUCK


@<TRIPOS>ATOM
      1 O7N        23.4390   65.0750   15.2790 O.co2     1 NXX        -0.5675
      2 C7N        22.6820   64.3390   15.9780 C.2       1 NXX         0.0474
      3 O8N        22.1890   63.2650   15.5280 O.co2     1 NXX        -0.5675
      4 C3N        22.3620   64.7600   17.3830 C.2       1 NXX        -0.0099
      5 C4N        21.5070   64.0070   18.2440 C.2       1 NXX        -0.0861
      6 C5N        21.2370   64.4450   19.5370 C.2       1 NXX        -0.0693
      7 C6N        21.8270   65.6600   19.9910 C.2       1 NXX         0.0147
      8 C2N        22.9270   65.9610   17.8810 C.3       1 NXX         0.0616
      9 N1N        22.6520   66.3680   19.1350 N.pl3     1 NXX        -0.2688
     10 C1M        23.2760   67.6320   19.5680 C.3       1 NXX         0.1754
     11 C2M        22.3120   68.8090   19.5740 C.3       1 NXX         0.1320
     12 O2M        22.0350   69.3700   18.2840 O.3       1 NXX        -0.3843
     13 C3M        23.0180   69.7620   20.5430 C.3       1 NXX         0.1143
     14 O3M        24.0250   70.4920   19.8000 O.3       1 NXX        -0.3864
     15 O4M        23.7680   67.5320   20.9220 O.3       1 NXX        -0.3421
     16 C4M        23.6350   68.8210   21.5720 C.3       1 NXX         0.1183
     17 C5M        22.7830   68.6290   22.8510 C.3       1 NXX         0.1127
     18 O5M        21.3730   68.7940   22.5850 O.3       1 NXX        -0.2476
     19 PN         20.2630   68.8980   23.7410 P.3       1 NXX         0.2972
     20 O1N        18.8950   69.0880   23.1530 O.co2     1 NXX        -0.6127
     21 O2N        20.5610   67.7120   24.6000 O.co2     1 NXX        -0.6127
     22 O3A        20.6390   70.2970   24.4320 O.3       1 NXX        -0.1319
     23 PA         20.1880   70.9170   25.8490 P.3       1 NXX         0.2972
     24 O1A        19.8530   72.3660   25.6320 O.co2     1 NXX        -0.6127
     25 O2A        19.1080   70.0280   26.4610 O.co2     1 NXX        -0.6127
     26 O5B        21.5510   70.8070   26.7110 O.3       1 NXX        -0.2476
     27 C5B        22.7770   71.2970   26.1720 C.3       1 NXX         0.1128
     28 C4B        23.9710   70.4590   26.6560 C.3       1 NXX         0.1189
     29 C3B        23.8190   68.9380   26.5230 C.3       1 NXX         0.1149
     30 O3B        25.0780   68.4080   26.0850 O.3       1 NXX        -0.3864
     31 C2B        23.4590   68.4450   27.9100 C.3       1 NXX         0.1385
     32 O2P        23.8620   67.0790   28.1040 O.3       1 NXX        -0.3836
     33 C1B        24.1900   69.4560   28.7810 C.3       1 NXX         0.2010
     34 O4B        24.1830   70.6960   28.0320 O.3       1 NXX        -0.3364
     35 N9A        23.5820   69.7620   30.0990 N.pl3     1 NXX        -0.1919
     36 C8A        22.4180   70.4130   30.3110 C.2       1 NXX         0.1123
     37 N7A        22.2020   70.5100   31.6320 N.2       1 NXX        -0.2958
     38 C5A        23.2560   69.9090   32.2500 C.ar      1 NXX         0.1045
     39 C4A        24.1210   69.4350   31.2580 C.ar      1 NXX         0.1613
     40 C6A        23.5950   69.7000   33.5920 C.ar      1 NXX         0.1298
     41 N6A        22.7700   70.1490   34.5620 N.pl3     1 NXX        -0.3152
     42 N1A        24.7810   69.0280   33.8950 N.ar      1 NXX        -0.2698
     43 C2A        25.6050   68.5740   32.9150 C.ar      1 NXX         0.0533
     44 N3A        25.2970   68.7640   31.5980 N.ar      1 NXX        -0.2714
     45 H1         21.0616   63.0803   17.8850 H         1 NXX         0.0459
     46 H2         20.5851   63.8683   20.1915 H         1 NXX         0.0289
     47 H3         21.6313   66.0263   20.9977 H         1 NXX         0.1022
     48 H4         22.6016   66.7675   17.2075 H         1 NXX         0.0665
     49 H5         24.0193   65.8479   17.8168 H         1 NXX         0.0665
     50 H6         24.1109   67.8518   18.8864 H         1 NXX         0.0912
     51 H7         21.3485   68.4940   20.0010 H         1 NXX         0.0669
     52 H8         22.8439   69.6813   17.8950 H         1 NXX         0.2101
     53 H9         22.3146   70.4619   21.0176 H         1 NXX         0.0648
     54 H10        23.6079   70.9831   19.1018 H         1 NXX         0.2100
     55 H11        24.6240   69.2057   21.8617 H         1 NXX         0.0651
     56 H12        23.0933   69.3718   23.6006 H         1 NXX         0.0648
     57 H13        22.9550   67.6165   23.2450 H         1 NXX         0.0648
     58 H14        22.9179   72.3402   26.4913 H         1 NXX         0.0648
     59 H15        22.7293   71.2529   25.0739 H         1 NXX         0.0648
     60 H16        24.8556   70.7730   26.0825 H         1 NXX         0.0651
     61 H17        23.0288   68.6767   25.8038 H         1 NXX         0.0648
     62 H18        25.3073   68.7914   25.2465 H         1 NXX         0.2100
     63 H19        22.3743   68.5110   28.0806 H         1 NXX         0.0676
     64 H20        23.6229   66.8009   28.9803 H         1 NXX         0.2101
     65 H21        25.2191   69.1029   28.9433 H         1 NXX         0.0996
     66 H22        21.7595   70.7980   29.5338 H         1 NXX         0.1349
     67 H23        23.0106   70.0001   35.5524 H         1 NXX         0.1820
     68 H24        21.9001   70.6404   34.3116 H         1 NXX         0.1820
     69 H25        26.5183   68.0545   33.1816 H         1 NXX         0.0996
@<TRIPOS>BOND
     1    1    2 ar 
     2    2    3 ar 
     3    2    4 1  
     4    4    5 2  
     5    4    8 1  
     6    5    6 1  
     7    6    7 2  
     8    7    9 1  
     9    8    9 1  
    10    9   10 1  
    11   10   11 1  
    12   10   15 1  
    13   11   12 1  
    14   11   13 1  
    15   13   14 1  
    16   13   16 1  
    17   15   16 1  
    18   16   17 1  
    19   17   18 1  
    20   18   19 1  
    21   19   20 ar 
    22   19   21 ar 
    23   19   22 1  
    24   22   23 1  
    25   23   24 ar 
    26   23   25 ar 
    27   23   26 1  
    28   26   27 1  
    29   27   28 1  
    30   28   29 1  
    31   28   34 1  
    32   29   30 1  
    33   29   31 1  
    34   31   32 1  
    35   31   33 1  
    36   33   34 1  
    37   33   35 1  
    38   35   36 1  
    39   35   39 1  
    40   36   37 2  
    41   37   38 1  
    42   38   39 ar 
    43   38   40 ar 
    44   39   44 ar 
    45   40   41 1  
    46   40   42 ar 
    47   42   43 ar 
    48   43   44 ar 
    49    5   45 1  
    50    6   46 1  
    51    7   47 1  
    52    8   48 1  
    53    8   49 1  
    54   10   50 1  
    55   11   51 1  
    56   12   52 1  
    57   13   53 1  
    58   14   54 1  
    59   16   55 1  
    60   17   56 1  
    61   17   57 1  
    62   27   58 1  
    63   27   59 1  
    64   28   60 1  
    65   29   61 1  
    66   30   62 1  
    67   31   63 1  
    68   32   64 1  
    69   33   65 1  
    70   36   66 1  
    71   41   67 1  
    72   41   68 1  
    73   43   69 1  
@<TRIPOS>SUBSTRUCTURE
     1 NXX         1

