5dms_ligand
  -I-interpret- 

 89 88  0  0  0  0  0  0  0  0999 V2000
  -54.0710   -5.6270   70.8840 N   0  3  0  0  0
  -52.8830   -4.7800   70.9690 C   0  0  0  0  0
  -52.7390   -4.1660   72.3630 C   0  0  0  0  0
  -53.5500   -3.3280   72.7720 O   0  0  0  0  0
  -52.9370   -3.6790   69.9180 C   0  0  0  0  0
  -51.8570   -2.6380   70.0720 C   0  0  0  0  0
  -50.4750   -3.2480   69.8980 C   0  0  0  0  0
  -49.3810   -2.2430   70.2370 C   0  0  0  0  0
  -49.3560   -1.0750   69.2980 N   0  3  0  0  0
  -51.7040   -4.5850   73.0860 N   0  0  0  0  0
  -51.5250   -4.1760   74.4750 C   0  0  0  0  0
  -50.0790   -3.8230   74.8260 C   0  0  0  0  0
  -49.1680   -3.9270   73.9940 O   0  0  0  0  0
  -51.9790   -5.2870   75.4530 C   0  0  0  0  0
  -50.9730   -6.3050   75.5120 O   0  0  0  0  0
  -53.3150   -5.9050   75.0300 C   0  0  0  0  0
  -49.8910   -3.4070   76.0770 N   0  0  0  0  0
  -48.5700   -3.2240   76.6660 C   0  0  0  0  0
  -47.9520   -4.5850   76.9310 C   0  0  0  0  0
  -48.5820   -5.6110   76.6660 O   0  0  0  0  0
  -48.6510   -2.4160   77.9670 C   0  0  0  0  0
  -49.4940   -3.0440   78.9250 O   0  0  0  0  0
  -46.7310   -4.5840   77.4690 N   0  0  0  0  0
  -45.9210   -5.7920   77.5880 C   0  0  0  0  0
  -44.5110   -5.4450   78.1140 C   0  0  0  0  0
  -43.6710   -6.7130   78.2430 C   0  0  0  0  0
  -43.8680   -4.6190   77.1640 O   0  0  0  0  0
  -43.6700   -3.1140   77.7080 P   0  0  0  0  0
  -42.9110   -2.3520   76.5020 O   0  0  0  0  0
  -45.0700   -2.3700   77.9570 O   0  0  0  0  0
  -42.8440   -3.0940   78.9430 O   0  0  0  0  0
  -46.5250   -6.9200   78.4170 C   0  0  0  0  0
  -46.9070   -6.7290   79.5750 O   0  0  0  0  0
  -46.6000   -8.0960   77.8020 N   0  0  0  0  0
  -46.9950   -9.3180   78.4880 C   0  0  0  0  0
  -45.8660   -9.8330   79.3770 C   0  0  0  0  0
  -44.7000   -9.8570   78.9620 O   0  0  0  0  0
  -47.3920  -10.4130   77.4840 C   0  0  0  0  0
  -48.7150  -10.0480   76.8060 C   0  0  0  0  0
  -47.4810  -11.7650   78.1810 C   0  0  0  0  0
  -48.5810   -9.7770   75.3280 C   0  0  0  0  0
  -46.1020  -10.2330   80.5240 O   0  0  0  0  0
  -54.0178   -6.3575   71.5939 H   0  0  0  0  0
  -54.9038   -5.0592   71.0404 H   0  0  0  0  0
  -54.1176   -6.0534   69.9586 H   0  0  0  0  0
  -52.0126   -5.4086   70.7810 H   0  0  0  0  0
  -53.8956   -3.1718   70.0272 H   0  0  0  0  0
  -52.7977   -4.1507   68.9453 H   0  0  0  0  0
  -51.9253   -2.2118   71.0729 H   0  0  0  0  0
  -51.9987   -1.8744   69.3071 H   0  0  0  0  0
  -50.3577   -3.5516   68.8577 H   0  0  0  0  0
  -50.3843   -4.1006   70.5710 H   0  0  0  0  0
  -48.4216   -2.7545   70.1599 H   0  0  0  0  0
  -49.5760   -1.8620   71.2394 H   0  0  0  0  0
  -48.6081   -0.4372   69.5705 H   0  0  0  0  0
  -49.1916   -1.4076   68.3479 H   0  0  0  0  0
  -50.2514   -0.5882   69.3389 H   0  0  0  0  0
  -51.0184   -5.2077   72.6587 H   0  0  0  0  0
  -52.1414   -3.2832   74.5807 H   0  0  0  0  0
  -52.1188   -4.8372   76.4360 H   0  0  0  0  0
  -51.2527   -6.9950   76.1181 H   0  0  0  0  0
  -54.0820   -5.1308   75.0103 H   0  0  0  0  0
  -53.2132   -6.3427   74.0369 H   0  0  0  0  0
  -53.5973   -6.6799   75.7427 H   0  0  0  0  0
  -50.7104   -3.2068   76.6505 H   0  0  0  0  0
  -47.9472   -2.6651   75.9675 H   0  0  0  0  0
  -49.0651   -1.4345   77.7363 H   0  0  0  0  0
  -47.6484   -2.3420   78.3881 H   0  0  0  0  0
  -49.5207   -2.5120   79.7237 H   0  0  0  0  0
  -46.3480   -3.7027   77.8111 H   0  0  0  0  0
  -45.8726   -6.1871   76.5733 H   0  0  0  0  0
  -44.6072   -4.9536   79.0822 H   0  0  0  0  0
  -44.1542   -7.3981   78.9396 H   0  0  0  0  0
  -43.5815   -7.1889   77.2665 H   0  0  0  0  0
  -42.6795   -6.4542   78.6147 H   0  0  0  0  0
  -43.4596   -2.3757   75.7145 H   0  0  0  0  0
  -45.5906   -2.3919   77.1507 H   0  0  0  0  0
  -46.3715   -8.1443   76.8091 H   0  0  0  0  0
  -47.8578   -9.0771   79.1089 H   0  0  0  0  0
  -44.6742   -9.5190   78.0639 H   0  0  0  0  0
  -46.6247  -10.4860   76.7133 H   0  0  0  0  0
  -49.0812   -9.1343   77.2741 H   0  0  0  0  0
  -49.3877  -10.8976   76.9230 H   0  0  0  0  0
  -46.5121  -12.0136   78.6139 H   0  0  0  0  0
  -48.2314  -11.7168   78.9701 H   0  0  0  0  0
  -47.7630  -12.5283   77.4558 H   0  0  0  0  0
  -47.8945   -8.9446   75.1733 H   0  0  0  0  0
  -48.1938  -10.6662   74.8305 H   0  0  0  0  0
  -49.5582   -9.5251   74.9160 H   0  0  0  0  0
  1  2  1  0  0  0
  2  3  1  0  0  0
  2  5  1  0  0  0
  3  4  2  0  0  0
  3 10  1  0  0  0
  5  6  1  0  0  0
  6  7  1  0  0  0
  7  8  1  0  0  0
  8  9  1  0  0  0
 10 11  1  0  0  0
 11 12  1  0  0  0
 11 14  1  0  0  0
 12 13  2  0  0  0
 12 17  1  0  0  0
 14 15  1  0  0  0
 14 16  1  0  0  0
 17 18  1  0  0  0
 18 19  1  0  0  0
 18 21  1  0  0  0
 19 20  2  0  0  0
 19 23  1  0  0  0
 21 22  1  0  0  0
 23 24  1  0  0  0
 24 25  1  0  0  0
 24 32  1  0  0  0
 25 26  1  0  0  0
 25 27  1  0  0  0
 27 28  1  0  0  0
 28 29  1  0  0  0
 28 30  1  0  0  0
 28 31  2  0  0  0
 32 33  2  0  0  0
 32 34  1  0  0  0
 34 35  1  0  0  0
 35 36  1  0  0  0
 35 38  1  0  0  0
 36 37  1  0  0  0
 36 42  2  0  0  0
 38 39  1  0  0  0
 38 40  1  0  0  0
 39 41  1  0  0  0
  1 43  1  0  0  0
  1 44  1  0  0  0
  1 45  1  0  0  0
  2 46  1  0  0  0
  5 47  1  0  0  0
  5 48  1  0  0  0
  6 49  1  0  0  0
  6 50  1  0  0  0
  7 51  1  0  0  0
  7 52  1  0  0  0
  8 53  1  0  0  0
  8 54  1  0  0  0
  9 55  1  0  0  0
  9 56  1  0  0  0
  9 57  1  0  0  0
 10 58  1  0  0  0
 11 59  1  0  0  0
 14 60  1  0  0  0
 15 61  1  0  0  0
 16 62  1  0  0  0
 16 63  1  0  0  0
 16 64  1  0  0  0
 17 65  1  0  0  0
 18 66  1  0  0  0
 21 67  1  0  0  0
 21 68  1  0  0  0
 22 69  1  0  0  0
 23 70  1  0  0  0
 24 71  1  0  0  0
 25 72  1  0  0  0
 26 73  1  0  0  0
 26 74  1  0  0  0
 26 75  1  0  0  0
 29 76  1  0  0  0
 30 77  1  0  0  0
 34 78  1  0  0  0
 35 79  1  0  0  0
 37 80  1  0  0  0
 38 81  1  0  0  0
 39 82  1  0  0  0
 39 83  1  0  0  0
 40 84  1  0  0  0
 40 85  1  0  0  0
 40 86  1  0  0  0
 41 87  1  0  0  0
 41 88  1  0  0  0
 41 89  1  0  0  0
M  END
$$$$
