### 
### Created by X-TOOL on Mon Sep 10 21:13:24 2018
### 

@<TRIPOS>MOLECULE
5dms_ligand
   86    85     1     0     0
SMALL
GAST_HUCK


@<TRIPOS>ATOM
      1 N         -54.0710   -5.6270   70.8840 N.4       1 LYS         0.2379
      2 CA        -52.8830   -4.7800   70.9690 C.3       1 LYS         0.0650
      3 C         -52.7390   -4.1660   72.3630 C.2       1 LYS         0.2268
      4 O         -53.5500   -3.3280   72.7720 O.2       1 LYS        -0.3907
      5 CB        -52.9370   -3.6790   69.9180 C.3       1 LYS         0.0080
      6 CG        -51.8570   -2.6380   70.0720 C.3       1 LYS        -0.0410
      7 CD        -50.4750   -3.2480   69.8980 C.3       1 LYS        -0.0123
      8 CE        -49.3810   -2.2430   70.2370 C.3       1 LYS        -0.0354
      9 NZ        -49.3560   -1.0750   69.2980 N.4       1 LYS         0.2185
     10 N         -51.7040   -4.5850   73.0860 N.am      1 THR        -0.2586
     11 CA        -51.5250   -4.1760   74.4750 C.3       1 THR         0.1566
     12 C         -50.0790   -3.8230   74.8260 C.2       1 THR         0.2065
     13 O         -49.1680   -3.9270   73.9940 O.2       1 THR        -0.3943
     14 CB        -51.9790   -5.2870   75.4530 C.3       1 THR         0.0924
     15 OG1       -50.9730   -6.3050   75.5120 O.3       1 THR        -0.3874
     16 CG2       -53.3150   -5.9050   75.0300 C.3       1 THR        -0.0346
     17 N         -49.8910   -3.4070   76.0770 N.am      1 SER        -0.2615
     18 CA        -48.5700   -3.2240   76.6660 C.3       1 SER         0.1539
     19 C         -47.9520   -4.5850   76.9310 C.2       1 SER         0.2063
     20 O         -48.5820   -5.6110   76.6660 O.2       1 SER        -0.3943
     21 CB        -48.6510   -2.4160   77.9670 C.3       1 SER         0.0843
     22 OG        -49.4940   -3.0440   78.9250 O.3       1 SER        -0.3903
     23 N         -46.7310   -4.5840   77.4690 N.am      1 TPO        -0.2610
     24 CA        -45.9210   -5.7920   77.5880 C.3       1 TPO         0.1611
     25 CB        -44.5110   -5.4450   78.1140 C.3       1 TPO         0.1262
     26 CG2       -43.6710   -6.7130   78.2430 C.3       1 TPO        -0.0298
     27 OG1       -43.8680   -4.6190   77.1640 O.3       1 TPO        -0.2685
     28 P         -43.6700   -3.1140   77.7080 P.3       1 TPO         0.2014
     29 O1P       -42.9110   -2.3520   76.5020 O.co2     1 TPO        -0.5537
     30 O2P       -45.0700   -2.3700   77.9570 O.co2     1 TPO        -0.5537
     31 O3P       -42.8440   -3.0940   78.9430 O.co2     1 TPO        -0.5537
     32 C         -46.5250   -6.9200   78.4170 C.2       1 TPO         0.2063
     33 O         -46.9070   -6.7290   79.5750 O.2       1 TPO        -0.3943
     34 N         -46.6000   -8.0960   77.8020 N.am      1 ILE        -0.2691
     35 CA        -46.9950   -9.3180   78.4880 C.3       1 ILE         0.0969
     36 C         -45.8660   -9.8330   79.3770 C.2       1 ILE         0.0604
     37 O         -44.7000   -9.8570   78.9620 O.co2     1 ILE        -0.5666
     38 CB        -47.3920  -10.4130   77.4840 C.3       1 ILE        -0.0092
     39 CG1       -48.7150  -10.0480   76.8060 C.3       1 ILE        -0.0497
     40 CG2       -47.4810  -11.7650   78.1810 C.3       1 ILE        -0.0588
     41 CD1       -48.5810   -9.7770   75.3280 C.3       1 ILE        -0.0649
     42 OXT       -46.1020  -10.2330   80.5240 O.co2     1 ILE        -0.5666
     43 H1        -54.1400   -6.0169   69.9570 H         1 LYS         0.2015
     44 H2        -54.8918   -5.0751   71.0783 H         1 LYS         0.2015
     45 H3        -54.0006   -6.3732   71.5580 H         1 LYS         0.2015
     46 H4        -51.9996   -5.4055   70.7735 H         1 LYS         0.1098
     47 H5        -53.9139   -3.1785   69.9897 H         1 LYS         0.0346
     48 H6        -52.8339   -4.1416   68.9253 H         1 LYS         0.0346
     49 H7        -51.9286   -2.1926   71.0752 H         1 LYS         0.0270
     50 H8        -52.0019   -1.8558   69.3123 H         1 LYS         0.0270
     51 H9        -50.3543   -3.5705   68.8533 H         1 LYS         0.0317
     52 H10       -50.3809   -4.1186   70.5637 H         1 LYS         0.0317
     53 H11       -48.4077   -2.7532   70.1896 H         1 LYS         0.0813
     54 H12       -49.5501   -1.8699   71.2579 H         1 LYS         0.0813
     55 H13       -48.6172   -0.4439   69.5663 H         1 LYS         0.1994
     56 H14       -50.2404   -0.5930   69.3376 H         1 LYS         0.1994
     57 H15       -49.1935   -1.4025   68.3586 H         1 LYS         0.1994
     58 H16       -51.0319   -5.1955   72.6670 H         1 THR         0.1885
     59 H17       -52.1476   -3.2844   74.6401 H         1 THR         0.0826
     60 H18       -52.1002   -4.8453   76.4531 H         1 THR         0.0639
     61 H19       -50.1574   -5.9254   75.8173 H         1 THR         0.2101
     62 H20       -53.6010   -6.6872   75.7486 H         1 THR         0.0257
     63 H21       -53.2136   -6.3471   74.0279 H         1 THR         0.0257
     64 H22       -54.0900   -5.1246   75.0098 H         1 THR         0.0257
     65 H23       -50.6943   -3.2108   76.6393 H         1 SER         0.1884
     66 H24       -47.9367   -2.6763   75.9526 H         1 SER         0.0823
     67 H25       -49.0508   -1.4164   77.7414 H         1 SER         0.0606
     68 H26       -47.6403   -2.3198   78.3904 H         1 SER         0.0606
     69 H27       -49.1520   -3.9065   79.1290 H         1 SER         0.2097
     70 H28       -46.3555   -3.7200   77.8044 H         1 TPO         0.1884
     71 H29       -45.8042   -6.1864   76.5678 H         1 TPO         0.0830
     72 H30       -44.5857   -4.9347   79.0856 H         1 TPO         0.0695
     73 H31       -42.6701   -6.4532   78.6181 H         1 TPO         0.0260
     74 H32       -43.5799   -7.1943   77.2581 H         1 TPO         0.0260
     75 H33       -44.1576   -7.4053   78.9458 H         1 TPO         0.0260
     76 H34       -46.3760   -8.1434   76.8286 H         1 ILE         0.1875
     77 H35       -47.8652   -9.0916   79.1216 H         1 ILE         0.0729
     78 H36       -46.6130  -10.4756   76.7099 H         1 ILE         0.0338
     79 H37       -49.1166   -9.1456   77.2901 H         1 ILE         0.0267
     80 H38       -49.4185  -10.8822   76.9443 H         1 ILE         0.0267
     81 H39       -46.5165  -11.9965   78.6566 H         1 ILE         0.0234
     82 H40       -47.7215  -12.5434   77.4420 H         1 ILE         0.0234
     83 H41       -48.2691  -11.7311   78.9477 H         1 ILE         0.0234
     84 H42       -49.5666   -9.5226   74.9111 H         1 ILE         0.0230
     85 H43       -48.1903  -10.6737   74.8247 H         1 ILE         0.0230
     86 H44       -47.8884   -8.9370   75.1705 H         1 ILE         0.0230
@<TRIPOS>BOND
     1    1    2 1  
     2    2    3 1  
     3    2    5 1  
     4    3    4 2  
     5    3   10 am 
     6    5    6 1  
     7    6    7 1  
     8    7    8 1  
     9    8    9 1  
    10   10   11 1  
    11   11   12 1  
    12   11   14 1  
    13   12   13 2  
    14   12   17 am 
    15   14   15 1  
    16   14   16 1  
    17   17   18 1  
    18   18   19 1  
    19   18   21 1  
    20   19   20 2  
    21   19   23 am 
    22   21   22 1  
    23   23   24 1  
    24   24   25 1  
    25   24   32 1  
    26   25   26 1  
    27   25   27 1  
    28   27   28 1  
    29   28   29 ar 
    30   28   30 ar 
    31   28   31 ar 
    32   32   33 2  
    33   32   34 am 
    34   34   35 1  
    35   35   36 1  
    36   35   38 1  
    37   36   37 ar 
    38   36   42 ar 
    39   38   39 1  
    40   38   40 1  
    41   39   41 1  
    42    1   43 1  
    43    1   44 1  
    44    1   45 1  
    45    2   46 1  
    46    5   47 1  
    47    5   48 1  
    48    6   49 1  
    49    6   50 1  
    50    7   51 1  
    51    7   52 1  
    52    8   53 1  
    53    8   54 1  
    54    9   55 1  
    55    9   56 1  
    56    9   57 1  
    57   10   58 1  
    58   11   59 1  
    59   14   60 1  
    60   15   61 1  
    61   16   62 1  
    62   16   63 1  
    63   16   64 1  
    64   17   65 1  
    65   18   66 1  
    66   21   67 1  
    67   21   68 1  
    68   22   69 1  
    69   23   70 1  
    70   24   71 1  
    71   25   72 1  
    72   26   73 1  
    73   26   74 1  
    74   26   75 1  
    75   34   76 1  
    76   35   77 1  
    77   38   78 1  
    78   39   79 1  
    79   39   80 1  
    80   40   81 1  
    81   40   82 1  
    82   40   83 1  
    83   41   84 1  
    84   41   85 1  
    85   41   86 1  
@<TRIPOS>SUBSTRUCTURE
     1 LYS         1

