### 
### Created by X-TOOL on Mon Sep 10 21:13:24 2018
### 

@<TRIPOS>MOLECULE
4umj_ligand
   39    38     1     0     0
SMALL
GAST_HUCK


@<TRIPOS>ATOM
      1 P1         14.5150   21.5730   -6.1580 P.3       1 BFQ         0.1101
      2 O2         15.6990   21.3010   -7.0620 O.co2     1 BFQ        -0.5594
      3 O3         14.2420   20.3950   -5.2500 O.co2     1 BFQ        -0.5594
      4 O5         14.7390   22.9400   -5.4990 O.co2     1 BFQ        -0.5594
      5 C7         13.0240   21.6730   -7.2070 C.3       1 BFQ         0.2095
      6 P8         12.9120   20.0360   -8.0610 P.3       1 BFQ         0.1101
      7 O9         14.0680   19.8470   -8.9820 O.co2     1 BFQ        -0.5594
      8 O10        11.7190   20.0870   -8.9490 O.co2     1 BFQ        -0.5594
      9 O12        12.6400   18.9630   -7.0330 O.co2     1 BFQ        -0.5594
     10 O14        11.9400   21.9080   -6.3700 O.3       1 BFQ        -0.3593
     11 C16        13.0560   22.7660   -8.2420 C.3       1 BFQ         0.0479
     12 C19        13.6090   24.1340   -7.8440 C.3       1 BFQ        -0.0267
     13 N22        12.8740   24.8990   -6.8250 N.4       1 BFQ         0.2332
     14 C23        13.5960   26.1940   -6.7410 C.3       1 BFQ        -0.0322
     15 C26        14.0580   26.7320   -8.1060 C.3       1 BFQ        -0.0125
     16 C29        14.8140   28.0310   -8.0620 C.3       1 BFQ        -0.0485
     17 C32        15.9580   27.8800   -9.0500 C.3       1 BFQ        -0.0557
     18 C35        16.5230   29.1350   -9.6070 C.3       1 BFQ        -0.0653
     19 C39        11.5070   25.0660   -7.3310 C.3       1 BFQ        -0.0431
     20 H1         11.1467   21.9651   -6.8896 H         1 BFQ         0.2133
     21 H2         12.0215   22.9209   -8.5822 H         1 BFQ         0.0375
     22 H3         13.6670   22.4008   -9.0806 H         1 BFQ         0.0375
     23 H4         13.6463   24.7507   -8.7541 H         1 BFQ         0.0816
     24 H5         14.6297   23.9780   -7.4647 H         1 BFQ         0.0816
     25 H6         12.8664   24.4313   -5.9321 H         1 BFQ         0.2030
     26 H7         14.4818   26.0574   -6.1033 H         1 BFQ         0.0814
     27 H8         12.9258   26.9366   -6.2835 H         1 BFQ         0.0814
     28 H9         13.1662   26.8789   -8.7330 H         1 BFQ         0.0317
     29 H10        14.7096   25.9750   -8.5668 H         1 BFQ         0.0317
     30 H11        15.2041   28.2127   -7.0497 H         1 BFQ         0.0267
     31 H12        14.1602   28.8646   -8.3581 H         1 BFQ         0.0267
     32 H13        15.5936   27.2747   -9.8931 H         1 BFQ         0.0263
     33 H14        16.7722   27.3450   -8.5392 H         1 BFQ         0.0263
     34 H15        17.3384   28.8922  -10.3042 H         1 BFQ         0.0230
     35 H16        16.9139   29.7564   -8.7878 H         1 BFQ         0.0230
     36 H17        15.7354   29.6861  -10.1417 H         1 BFQ         0.0230
     37 H18        11.0107   24.0854   -7.3768 H         1 BFQ         0.0777
     38 H19        11.5401   25.5075   -8.3379 H         1 BFQ         0.0777
     39 H20        10.9453   25.7301   -6.6576 H         1 BFQ         0.0777
@<TRIPOS>BOND
     1    1    2 ar 
     2    1    3 ar 
     3    1    4 ar 
     4    1    5 1  
     5    5    6 1  
     6    5   10 1  
     7    5   11 1  
     8    6    7 ar 
     9    6    8 ar 
    10    6    9 ar 
    11   11   12 1  
    12   12   13 1  
    13   13   14 1  
    14   13   19 1  
    15   14   15 1  
    16   15   16 1  
    17   16   17 1  
    18   17   18 1  
    19   10   20 1  
    20   11   21 1  
    21   11   22 1  
    22   12   23 1  
    23   12   24 1  
    24   13   25 1  
    25   14   26 1  
    26   14   27 1  
    27   15   28 1  
    28   15   29 1  
    29   16   30 1  
    30   16   31 1  
    31   17   32 1  
    32   17   33 1  
    33   18   34 1  
    34   18   35 1  
    35   18   36 1  
    36   19   37 1  
    37   19   38 1  
    38   19   39 1  
@<TRIPOS>SUBSTRUCTURE
     1 BFQ         1

