4umj_ligand
  -I-interpret- 

 43 42  0  0  0  0  0  0  0  0999 V2000
   14.5150   21.5730   -6.1580 P   0  0  0  0  0
   15.6990   21.3010   -7.0620 O   0  0  0  0  0
   14.2420   20.3950   -5.2500 O   0  0  0  0  0
   14.7390   22.9400   -5.4990 O   0  0  0  0  0
   13.0240   21.6730   -7.2070 C   0  0  0  0  0
   12.9120   20.0360   -8.0610 P   0  0  0  0  0
   14.0680   19.8470   -8.9820 O   0  0  0  0  0
   11.7190   20.0870   -8.9490 O   0  0  0  0  0
   12.6400   18.9630   -7.0330 O   0  0  0  0  0
   11.9400   21.9080   -6.3700 O   0  0  0  0  0
   13.0560   22.7660   -8.2420 C   0  0  0  0  0
   13.6090   24.1340   -7.8440 C   0  0  0  0  0
   12.8740   24.8990   -6.8250 N   0  3  0  0  0
   13.5960   26.1940   -6.7410 C   0  0  0  0  0
   14.0580   26.7320   -8.1060 C   0  0  0  0  0
   14.8140   28.0310   -8.0620 C   0  0  0  0  0
   15.9580   27.8800   -9.0500 C   0  0  0  0  0
   16.5230   29.1350   -9.6070 C   0  0  0  0  0
   11.5070   25.0660   -7.3310 C   0  0  0  0  0
   15.8506   22.0624   -7.6267 H   0  0  0  0  0
   14.9010   23.5988   -6.1783 H   0  0  0  0  0
   14.8795   19.8050   -8.4708 H   0  0  0  0  0
   13.3889   18.8961   -6.4361 H   0  0  0  0  0
   11.8996   21.2215   -5.7002 H   0  0  0  0  0
   12.0119   22.9452   -8.4985 H   0  0  0  0  0
   13.7289   22.4024   -9.0186 H   0  0  0  0  0
   13.5678   24.7397   -8.7493 H   0  0  0  0  0
   14.5893   23.9371   -7.4099 H   0  0  0  0  0
   12.8232   24.4621   -5.9047 H   0  0  0  0  0
   14.4875   26.0321   -6.1351 H   0  0  0  0  0
   12.9071   26.9251   -6.3180 H   0  0  0  0  0
   13.1565   26.9151   -8.6907 H   0  0  0  0  0
   14.7388   25.9885   -8.5204 H   0  0  0  0  0
   15.1831   28.2403   -7.0580 H   0  0  0  0  0
   14.1721   28.8717   -8.3252 H   0  0  0  0  0
   15.5529   27.3289   -9.8987 H   0  0  0  0  0
   16.7692   27.4014   -8.5013 H   0  0  0  0  0
   15.7416   29.6801  -10.1365 H   0  0  0  0  0
   16.9099   29.7498   -8.7944 H   0  0  0  0  0
   17.3308   28.8931  -10.2977 H   0  0  0  0  0
   11.5348   25.6055   -8.2777 H   0  0  0  0  0
   11.0549   24.0859   -7.4830 H   0  0  0  0  0
   10.9193   25.6303   -6.6069 H   0  0  0  0  0
  1  2  1  0  0  0
  1  3  2  0  0  0
  1  4  1  0  0  0
  1  5  1  0  0  0
  5  6  1  0  0  0
  5 10  1  0  0  0
  5 11  1  0  0  0
  6  7  1  0  0  0
  6  8  2  0  0  0
  6  9  1  0  0  0
 11 12  1  0  0  0
 12 13  1  0  0  0
 13 14  1  0  0  0
 13 19  1  0  0  0
 14 15  1  0  0  0
 15 16  1  0  0  0
 16 17  1  0  0  0
 17 18  1  0  0  0
  2 20  1  0  0  0
  4 21  1  0  0  0
  7 22  1  0  0  0
  9 23  1  0  0  0
 10 24  1  0  0  0
 11 25  1  0  0  0
 11 26  1  0  0  0
 12 27  1  0  0  0
 12 28  1  0  0  0
 13 29  1  0  0  0
 14 30  1  0  0  0
 14 31  1  0  0  0
 15 32  1  0  0  0
 15 33  1  0  0  0
 16 34  1  0  0  0
 16 35  1  0  0  0
 17 36  1  0  0  0
 17 37  1  0  0  0
 18 38  1  0  0  0
 18 39  1  0  0  0
 18 40  1  0  0  0
 19 41  1  0  0  0
 19 42  1  0  0  0
 19 43  1  0  0  0
M  END
$$$$
