4l09_ligand
  -I-interpret- 

 30 32  0  0  0  0  0  0  0  0999 V2000
   -7.5990  -38.2820   12.9050 C   0  0  0  0  0
   -7.5690  -37.9760   14.2660 C   0  0  0  0  0
   -8.3430  -38.5560   15.0740 O   0  0  0  0  0
   -6.6830  -36.9410   14.6840 C   0  0  0  0  0
   -6.5000  -36.6560   16.0290 C   0  0  0  0  0
   -5.6480  -35.6270   16.4200 C   0  0  0  0  0
   -4.9160  -34.8740   15.4860 C   0  0  0  0  0
   -5.0670  -35.1760   14.1340 C   0  0  0  0  0
   -5.9400  -36.2070   13.7630 C   0  0  0  0  0
   -6.0530  -36.5090   12.4280 O   0  0  0  0  0
   -6.8100  -37.5520   11.9790 C   0  0  0  0  0
   -6.7410  -37.7410   10.5560 C   0  0  0  0  0
   -7.4360  -38.7510    9.8500 C   0  0  0  0  0
   -7.3300  -38.8820    8.4470 C   0  0  0  0  0
   -6.5310  -38.0150    7.6730 C   0  0  0  0  0
   -6.4460  -38.1470    6.2400 C   0  0  0  0  0
   -5.6900  -37.4710    5.5170 O   0  0  0  0  0
   -7.1550  -38.9740    5.6480 O   0  0  0  0  0
   -5.8470  -37.0190    8.3660 C   0  0  0  0  0
   -5.9480  -36.8800    9.7640 C   0  0  0  0  0
   -8.2362  -39.0915   12.5490 H   0  0  0  0  0
   -7.0260  -37.2407   16.7836 H   0  0  0  0  0
   -5.5456  -35.3987   17.4809 H   0  0  0  0  0
   -4.2485  -34.0757   15.8102 H   0  0  0  0  0
   -4.5147  -34.6190   13.3772 H   0  0  0  0  0
   -8.0691  -39.4455   10.4022 H   0  0  0  0  0
   -7.8828  -39.6777    7.9475 H   0  0  0  0  0
   -5.1855  -36.8636    6.0631 H   0  0  0  0  0
   -5.2149  -36.3266    7.8100 H   0  0  0  0  0
   -5.3941  -36.0787   10.2531 H   0  0  0  0  0
  1  2  1  0  0  0
  1 11  2  0  0  0
  2  3  2  0  0  0
  2  4  1  0  0  0
  4  5  4  0  0  0
  4  9  4  0  0  0
  5  6  4  0  0  0
  6  7  4  0  0  0
  7  8  4  0  0  0
  8  9  4  0  0  0
  9 10  1  0  0  0
 10 11  1  0  0  0
 11 12  1  0  0  0
 12 13  4  0  0  0
 12 20  4  0  0  0
 13 14  4  0  0  0
 14 15  4  0  0  0
 15 16  1  0  0  0
 15 19  4  0  0  0
 16 17  1  0  0  0
 16 18  2  0  0  0
 19 20  4  0  0  0
  1 21  1  0  0  0
  5 22  1  0  0  0
  6 23  1  0  0  0
  7 24  1  0  0  0
  8 25  1  0  0  0
 13 26  1  0  0  0
 14 27  1  0  0  0
 17 28  1  0  0  0
 19 29  1  0  0  0
 20 30  1  0  0  0
M  END
$$$$
