5wfc_ligand
  -I-interpret- 

 80 84  0  0  0  0  0  0  0  0999 V2000
   23.4910   -0.4050  -22.4410 C   0  0  0  0  0
   24.1680    2.3670  -16.4530 C   0  0  0  0  0
   23.0990   -1.0070  -21.0900 C   0  0  0  0  0
   23.3250   -0.4580  -15.9080 C   0  0  0  0  0
   22.9910   -0.0730  -24.8870 C   0  0  0  0  0
   23.8730    2.8740  -14.1590 C   0  0  0  0  0
   22.0560   -0.4390  -26.0050 C   0  0  0  0  0
   22.7200   -0.6170  -23.6270 C   0  0  0  0  0
   20.4260   -2.2130  -26.9970 C   0  0  0  0  0
   21.9560   -2.6710  -19.6680 C   0  0  0  0  0
   22.3120   -2.1660  -20.9620 C   0  0  0  0  0
   23.0050    0.7940  -15.0330 C   0  0  0  0  0
   23.0900   -0.9230  -18.5630 C   0  0  0  0  0
   23.8590   -0.3360  -30.6970 C   0  0  0  0  0
   23.5150   -1.7860  -30.2840 C   0  0  0  0  0
   22.3160   -1.9980  -29.3420 C   0  0  0  0  0
   21.9770   -3.3990  -28.7030 C   0  0  0  0  0
   22.5460   -4.6240  -29.2100 C   0  0  0  0  0
   22.2230   -5.9070  -28.6420 C   0  0  0  0  0
   22.8000   -7.2460  -29.1530 C   0  0  0  0  0
   20.8240   -4.7940  -27.1080 C   0  0  0  0  0
   21.0600   -3.4800  -27.6090 C   0  0  0  0  0
   23.7180    1.4340  -17.6220 C   0  0  0  0  0
   23.4500   -0.4090  -19.8530 C   0  0  0  0  0
   24.6060    0.4440  -22.5820 C   0  0  0  0  0
   24.9530    1.0360  -23.8550 C   0  0  0  0  0
   24.1530    0.7820  -25.0010 C   0  0  0  0  0
   24.8150    1.5390  -26.0740 C   0  0  0  0  0
   27.1810    2.5330  -23.5200 C   0  0  0  0  0
   27.0120    4.0700  -23.5980 C   0  0  0  0  0
   28.5760    2.1070  -24.0910 C   0  0  0  0  0
   21.3520   -5.9700  -27.5820 N   0  0  0  0  0
   21.3390   -1.6370  -26.0270 N   0  0  0  0  0
   22.3350   -2.0640  -18.4880 N   0  0  0  0  0
   23.6050   -0.1020  -17.3790 N   0  0  0  0  0
   24.1330    1.7660  -15.1100 N   0  3  0  0  0
   25.9200    2.1930  -25.5830 N   0  0  0  0  0
   26.0440    1.9090  -24.2470 N   0  0  0  0  0
   19.9600   -4.8840  -26.0550 O   0  0  0  0  0
   21.9050    0.4210  -26.9480 O   0  0  0  0  0
   23.4678    3.2022  -16.4366 H   0  0  0  0  0
   25.2081    2.6280  -16.6482 H   0  0  0  0  0
   22.4547   -1.1138  -15.8831 H   0  0  0  0  0
   24.2205   -0.9287  -15.5022 H   0  0  0  0  0
   22.9390    3.3685  -14.4258 H   0  0  0  0  0
   23.7976    2.4733  -13.1481 H   0  0  0  0  0
   24.6920    3.5917  -14.2066 H   0  0  0  0  0
   21.8436   -1.2594  -23.5414 H   0  0  0  0  0
   19.4901   -2.4762  -26.5041 H   0  0  0  0  0
   20.2284   -1.4875  -27.7861 H   0  0  0  0  0
   21.3562   -3.5795  -19.6137 H   0  0  0  0  0
   21.9690   -2.6860  -21.8565 H   0  0  0  0  0
   22.8667    0.4839  -13.9972 H   0  0  0  0  0
   22.0952    1.2680  -15.4013 H   0  0  0  0  0
   23.0070    0.1049  -31.2145 H   0  0  0  0  0
   24.0876    0.2495  -29.8065 H   0  0  0  0  0
   24.7241   -0.3440  -31.3601 H   0  0  0  0  0
   24.3845   -2.1462  -29.7341 H   0  0  0  0  0
   23.2520   -2.2978  -31.2097 H   0  0  0  0  0
   21.4556   -1.7975  -29.9804 H   0  0  0  0  0
   22.5618   -1.3801  -28.4784 H   0  0  0  0  0
   23.2412   -4.5768  -30.0482 H   0  0  0  0  0
   22.5202   -7.3858  -30.1972 H   0  0  0  0  0
   23.8864   -7.2289  -29.0658 H   0  0  0  0  0
   22.3991   -8.0646  -28.5553 H   0  0  0  0  0
   24.4991    1.5381  -18.3751 H   0  0  0  0  0
   22.7019    1.7526  -17.8546 H   0  0  0  0  0
   24.0367    0.5091  -19.8847 H   0  0  0  0  0
   25.2228    0.6602  -21.7097 H   0  0  0  0  0
   24.4779    1.5762  -27.1099 H   0  0  0  0  0
   27.1619    2.1886  -22.4860 H   0  0  0  0  0
   27.7969    4.5506  -23.0141 H   0  0  0  0  0
   27.0833    4.3898  -24.6376 H   0  0  0  0  0
   26.0373    4.3479  -23.1971 H   0  0  0  0  0
   28.6521    2.4206  -25.1321 H   0  0  0  0  0
   29.3658    2.5815  -23.5086 H   0  0  0  0  0
   28.6774    1.0235  -24.0282 H   0  0  0  0  0
   21.1043   -6.8645  -27.1589 H   0  0  0  0  0
   21.4851   -2.2195  -25.2025 H   0  0  0  0  0
   25.0057    1.2821  -14.8989 H   0  0  0  0  0
  1  3  1  0  0  0
  1  8  4  0  0  0
 25  1  4  0  0  0
 23  2  1  0  0  0
  2 36  1  0  0  0
  3 11  4  0  0  0
  3 24  4  0  0  0
  4 12  1  0  0  0
 35  4  1  0  0  0
  5  7  1  0  0  0
  5  8  4  0  0  0
 27  5  4  0  0  0
 36  6  1  0  0  0
  7 33  1  0  0  0
  7 40  2  0  0  0
  9 22  1  0  0  0
 33  9  1  0  0  0
 11 10  4  0  0  0
 10 34  4  0  0  0
 12 36  1  0  0  0
 24 13  4  0  0  0
 13 34  4  0  0  0
 13 35  1  0  0  0
 15 14  1  0  0  0
 16 15  1  0  0  0
 17 16  1  0  0  0
 17 18  1  0  0  0
 22 17  2  0  0  0
 18 19  2  0  0  0
 19 20  1  0  0  0
 32 19  1  0  0  0
 22 21  1  0  0  0
 21 32  1  0  0  0
 21 39  2  0  0  0
 35 23  1  0  0  0
 26 25  4  0  0  0
 26 27  4  0  0  0
 38 26  4  0  0  0
 27 28  4  0  0  0
 28 37  4  0  0  0
 29 30  1  0  0  0
 29 31  1  0  0  0
 29 38  1  0  0  0
 37 38  4  0  0  0
  2 41  1  0  0  0
  2 42  1  0  0  0
  4 43  1  0  0  0
  4 44  1  0  0  0
  6 45  1  0  0  0
  6 46  1  0  0  0
  6 47  1  0  0  0
  8 48  1  0  0  0
  9 49  1  0  0  0
  9 50  1  0  0  0
 10 51  1  0  0  0
 11 52  1  0  0  0
 12 53  1  0  0  0
 12 54  1  0  0  0
 14 55  1  0  0  0
 14 56  1  0  0  0
 14 57  1  0  0  0
 15 58  1  0  0  0
 15 59  1  0  0  0
 16 60  1  0  0  0
 16 61  1  0  0  0
 18 62  1  0  0  0
 20 63  1  0  0  0
 20 64  1  0  0  0
 20 65  1  0  0  0
 23 66  1  0  0  0
 23 67  1  0  0  0
 24 68  1  0  0  0
 25 69  1  0  0  0
 28 70  1  0  0  0
 29 71  1  0  0  0
 30 72  1  0  0  0
 30 73  1  0  0  0
 30 74  1  0  0  0
 31 75  1  0  0  0
 31 76  1  0  0  0
 31 77  1  0  0  0
 32 78  1  0  0  0
 33 79  1  0  0  0
 36 80  1  0  0  0
M  END
$$$$
