3l08_ligand
  -I-interpret- 

 53 57  0  0  0  0  0  0  0  0999 V2000
   29.8560   12.0530   20.5470 C   0  0  0  0  0
   24.1620   12.6620   23.4470 C   0  0  0  0  0
   28.5740   18.2130   20.5810 C   0  0  0  0  0
   22.9230   12.5640   24.0210 C   0  0  0  0  0
   28.3430   17.1540   19.7310 C   0  0  0  0  0
   20.6740   17.1290   21.0650 C   0  0  0  0  0
   20.1210   15.4450   23.4580 C   0  0  0  0  0
   20.9720   18.2980   20.4160 C   0  0  0  0  0
   19.8870   14.3340   24.2220 C   0  0  0  0  0
   23.5420   14.7150   22.4620 C   0  0  0  0  0
   26.2460   18.8080   20.5240 C   0  0  0  0  0
   26.0130   14.0920   20.7490 C   0  0  0  0  0
   22.5740   17.6600   22.2640 C   0  0  0  0  0
   26.8670   13.2660   22.7880 C   0  0  0  0  0
   24.4880   13.7340   22.6570 C   0  0  0  0  0
   27.5310   19.0240   20.9670 C   0  0  0  0  0
   21.5430   16.7830   22.0630 C   0  0  0  0  0
   21.3450   15.5990   22.8540 C   0  0  0  0  0
   21.9680   13.5310   23.8370 C   0  0  0  0  0
   27.0570   16.9460   19.2950 C   0  0  0  0  0
   25.7940   13.7190   22.0570 C   0  0  0  0  0
   22.2970   14.6190   23.0510 C   0  0  0  0  0
   27.2960   13.9970   20.2650 C   0  0  0  0  0
   26.0160   17.7530   19.6750 C   0  0  0  0  0
   28.2890   13.5210   21.0810 C   0  0  0  0  0
   20.7810   13.3730   24.4260 N   0  0  0  0  0
   22.0030   19.1080   20.6720 N   0  0  0  0  0
   28.1190   13.1500   22.3490 N   0  0  0  0  0
   22.7970   18.7910   21.5890 N   0  0  0  0  0
   27.6410   14.3510   18.9250 N   0  0  0  0  0
   27.3530   15.9770   16.9490 O   0  0  0  0  0
   25.3160   15.2910   18.2890 O   0  0  0  0  0
   29.5590   13.4380   20.5480 O   0  0  0  0  0
   27.7720   20.0500   21.7960 F   0  0  0  0  0
   24.7820   17.5030   19.2150 F   0  0  0  0  0
   26.7260   15.6020   18.2020 S   0  0  0  0  0
   29.8185   11.6739   21.5683 H   0  0  0  0  0
   29.1236   11.5261   19.9354 H   0  0  0  0  0
   30.8536   11.8969   20.1365 H   0  0  0  0  0
   24.8988   11.8776   23.6203 H   0  0  0  0  0
   29.5817   18.4086   20.9476 H   0  0  0  0  0
   22.6900   11.6968   24.6389 H   0  0  0  0  0
   29.1560   16.5008   19.4139 H   0  0  0  0  0
   19.8084   16.5196   20.8053 H   0  0  0  0  0
   19.3447   16.1994   23.3302 H   0  0  0  0  0
   20.3012   18.5970   19.6106 H   0  0  0  0  0
   18.9085   14.2316   24.6912 H   0  0  0  0  0
   23.7782   15.5759   21.8365 H   0  0  0  0  0
   25.4303   19.4586   20.8393 H   0  0  0  0  0
   25.1977   14.4498   20.1202 H   0  0  0  0  0
   23.2836   17.4111   23.0531 H   0  0  0  0  0
   26.6754   12.9754   23.8209 H   0  0  0  0  0
   28.3953   13.8812   18.4243 H   0  0  0  0  0
 33  1  1  0  0  0
  2  4  4  0  0  0
 15  2  4  0  0  0
  5  3  4  0  0  0
  3 16  4  0  0  0
  4 19  4  0  0  0
 20  5  4  0  0  0
  6  8  4  0  0  0
 17  6  4  0  0  0
  7  9  4  0  0  0
 18  7  4  0  0  0
  8 27  4  0  0  0
 26  9  4  0  0  0
 15 10  4  0  0  0
 10 22  4  0  0  0
 11 16  4  0  0  0
 24 11  4  0  0  0
 12 21  4  0  0  0
 23 12  4  0  0  0
 17 13  4  0  0  0
 13 29  4  0  0  0
 21 14  4  0  0  0
 28 14  4  0  0  0
 21 15  1  0  0  0
 16 34  1  0  0  0
 18 17  1  0  0  0
 22 18  4  0  0  0
 22 19  4  0  0  0
 19 26  4  0  0  0
 20 24  4  0  0  0
 36 20  1  0  0  0
 23 25  4  0  0  0
 30 23  1  0  0  0
 24 35  1  0  0  0
 25 28  4  0  0  0
 25 33  1  0  0  0
 29 27  4  0  0  0
 30 36  1  0  0  0
 36 31  2  0  0  0
 36 32  2  0  0  0
  1 37  1  0  0  0
  1 38  1  0  0  0
  1 39  1  0  0  0
  2 40  1  0  0  0
  3 41  1  0  0  0
  4 42  1  0  0  0
  5 43  1  0  0  0
  6 44  1  0  0  0
  7 45  1  0  0  0
  8 46  1  0  0  0
  9 47  1  0  0  0
 10 48  1  0  0  0
 11 49  1  0  0  0
 12 50  1  0  0  0
 13 51  1  0  0  0
 14 52  1  0  0  0
 30 53  1  0  0  0
M  END
$$$$
