1azg_ligand
  -I-interpret- 

207211  0  0  0  0  0  0  0  0999 V2000
   26.4200   31.7670   11.4910 N   0  3  0  0  0
   27.7770   31.1400   11.4220 C   0  0  0  0  0
   27.6430   29.6630   11.0400 C   0  0  0  0  0
   26.5560   29.1200   11.0350 O   0  0  0  0  0
   28.4310   31.2610   12.7980 C   0  0  0  0  0
   27.4420   31.9770   13.7080 C   0  0  0  0  0
   26.2000   32.2920   12.8740 C   0  0  0  0  0
   28.7620   29.0610   10.7330 N   0  0  0  0  0
   28.8120   27.6410   10.3410 C   0  0  0  0  0
   28.3040   26.7600   11.4860 C   0  0  0  0  0
   28.8870   26.7140   12.5510 O   0  0  0  0  0
   30.2960   27.3640   10.0640 C   0  0  0  0  0
   31.0770   28.6800   10.3170 C   0  0  0  0  0
   30.0630   29.7500   10.7500 C   0  0  0  0  0
   27.2210   26.0610   11.2760 N   0  0  0  0  0
   26.6790   25.1870   12.3530 C   0  0  0  0  0
   27.8250   24.4090   13.0060 C   0  0  0  0  0
   28.6770   23.8750   12.3240 O   0  0  0  0  0
   25.6740   24.2010   11.7530 C   0  0  0  0  0
   24.3990   24.9460   11.3510 C   0  0  0  0  0
   23.9360   25.8310   12.5090 C   0  0  0  0  0
   24.5310   27.1890   12.3630 N   0  0  0  0  0
   24.8950   27.8590   13.4220 C   0  0  0  0  0
   23.9960   28.2830   14.2680 N   0  0  0  0  0
   26.1590   28.1050   13.6370 N   0  0  0  0  0
   27.8080   24.3680   14.3130 N   0  0  0  0  0
   28.8390   23.6580   15.0900 C   0  0  0  0  0
   28.8230   22.1660   14.7480 C   0  0  0  0  0
   29.7830   21.6270   14.2320 O   0  0  0  0  0
   28.4460   23.8780   16.5580 C   0  0  0  0  0
   27.1560   24.7380   16.5760 C   0  0  0  0  0
   26.7650   25.0250   15.1180 C   0  0  0  0  0
   27.7400   21.4950   15.0300 N   0  0  0  0  0
   27.6640   20.0400   14.7200 C   0  0  0  0  0
   28.6460   19.2770   15.6160 C   0  0  0  0  0
   29.8250   19.2150   15.3280 O   0  0  0  0  0
   28.0310   19.8140   13.2510 C   0  0  0  0  0
   26.8110   19.2860   12.4950 C   0  0  0  0  0
   26.9960   19.5260   10.9950 C   0  0  0  0  0
   26.6620   17.7850   12.7560 C   0  0  0  0  0
   28.1260   18.7190   16.6790 N   0  0  0  0  0
   28.9360   17.9510   17.6410 C   0  0  0  0  0
   29.5770   16.7460   16.9490 C   0  0  0  0  0
   28.9560   15.7170   16.7710 O   0  0  0  0  0
   27.9390   17.4900   18.7140 C   0  0  0  0  0
   26.5390   18.0260   18.3180 C   0  0  0  0  0
   26.6920   18.8090   17.0040 C   0  0  0  0  0
   30.8150   16.8650   16.5550 N   0  0  0  0  0
   31.4930   15.7270   15.8740 C   0  0  0  0  0
   31.1880   14.4280   16.6220 C   0  0  0  0  0
   31.4280   14.3120   17.8070 O   0  0  0  0  0
   33.0030   15.9650   15.8620 C   0  0  0  0  0
   33.7120   14.7120   15.3460 C   0  0  0  0  0
   33.3260   17.1470   14.9450 C   0  0  0  0  0
   30.6630   13.4490   15.9380 N   0  0  0  0  0
   30.3460   12.1570   16.6090 C   0  0  0  0  0
   31.5460   11.7120   17.4500 C   0  0  0  0  0
   32.5970   12.3190   17.3970 O   0  0  0  0  0
   30.0410   11.0960   15.5490 C   0  0  0  0  0
   31.3480   10.6630   18.2040 N   0  0  0  0  0
   32.3990   10.1080   19.0760 C   0  0  0  0  0
   33.6050    9.6620   18.2440 C   0  0  0  0  0
   33.7450    8.5020   17.9090 O   0  0  0  0  0
   31.7420    8.9020   19.7620 C   0  0  0  0  0
   30.2850    8.8000   19.2430 C   0  0  0  0  0
   30.0610    9.9480   18.2470 C   0  0  0  0  0
   34.4790   10.5730   17.9130 N   0  0  0  0  0
   35.6780   10.2020   17.1080 C   0  0  0  0  0
   35.2760    9.2240   16.0030 C   0  0  0  0  0
   34.1210    9.1210   15.6410 O   0  0  0  0  0
   36.2220    8.5050   15.4630 N   0  0  0  0  0
   35.8970    7.5330   14.3820 C   0  0  0  0  0
   35.3500    6.2450   15.0000 C   0  0  0  0  0
   36.0280    5.2380   15.0610 O   0  0  0  0  0
   37.1620    7.2170   13.5850 C   0  0  0  0  0
   37.4760    8.3200   12.7450 O   0  0  0  0  0
   34.1290    6.2660   15.4580 N   0  0  0  0  0
   33.5440    5.0410   16.0710 C   0  0  0  0  0
   34.5250    4.4660   17.0930 C   0  0  0  0  0
   34.9810    3.3460   16.9700 O   0  0  0  0  0
   33.2780    4.0030   14.9800 C   0  0  0  0  0
   34.2550    4.1370   13.9560 O   0  0  0  0  0
   34.8550    5.2240   18.1020 N   0  0  0  0  0
   35.8070    4.7220   19.1320 C   0  0  0  0  0
   35.0250    4.1910   20.3350 C   0  0  0  0  0
   34.1570    4.8560   20.8650 O   0  0  0  0  0
   36.7200    5.8650   19.5820 C   0  0  0  0  0
   37.0180    6.7780   18.3910 C   0  0  0  0  0
   38.5130    7.0990   18.3540 C   0  0  0  0  0
   38.9840    7.1710   16.9000 C   0  0  0  0  0
   40.4060    6.7330   16.8170 N   0  3  0  0  0
   35.3230    2.9970   20.7690 N   0  0  0  0  0
   34.5950    2.4260   21.9360 C   0  0  0  0  0
   33.1200    2.2450   21.5740 C   0  0  0  0  0
   32.2900    2.8480   22.2340 O   0  0  0  0  0
   34.7150    3.3790   23.1270 C   0  0  0  0  0
   36.0310    3.9120   23.1760 O   0  0  0  0  0
   34.4220    2.6200   24.4220 C   0  0  0  0  0
   32.8450    1.5080   20.6410 O   0  0  0  0  0
   25.7071   31.0725   11.2679 H   0  0  0  0  0
   26.3580   32.5308   10.8179 H   0  0  0  0  0
   28.3871   31.6422   10.6712 H   0  0  0  0  0
   29.3639   31.8207   12.7307 H   0  0  0  0  0
   28.6724   30.2751   13.1953 H   0  0  0  0  0
   27.8801   32.8937   14.1026 H   0  0  0  0  0
   27.1814   31.3482   14.5594 H   0  0  0  0  0
   25.3219   31.8226   13.3176 H   0  0  0  0  0
   26.0322   33.3686   12.8437 H   0  0  0  0  0
   28.1868   27.4251    9.4746 H   0  0  0  0  0
   30.4342   27.0329    9.0347 H   0  0  0  0  0
   30.6628   26.5735   10.7188 H   0  0  0  0  0
   31.5951   28.9935    9.4107 H   0  0  0  0  0
   31.8271   28.5322   11.0939 H   0  0  0  0  0
   30.2954   30.1556   11.7347 H   0  0  0  0  0
   30.0744   30.6136   10.0851 H   0  0  0  0  0
   26.7466   26.1137   10.3746 H   0  0  0  0  0
   26.1828   25.8027   13.1032 H   0  0  0  0  0
   25.4295   23.4388   12.4928 H   0  0  0  0  0
   26.1108   23.7304   10.8722 H   0  0  0  0  0
   23.6179   24.2245   11.1115 H   0  0  0  0  0
   24.6021   25.5673   10.4788 H   0  0  0  0  0
   24.2579   25.3923   13.4535 H   0  0  0  0  0
   22.8487   25.9069   12.4967 H   0  0  0  0  0
   24.6538   27.5950   11.4354 H   0  0  0  0  0
   23.0082   28.0907   14.1016 H   0  0  0  0  0
   26.4431   28.6280   14.4654 H   0  0  0  0  0
   26.8625   27.7742   12.9766 H   0  0  0  0  0
   29.8441   24.0216   14.8765 H   0  0  0  0  0
   29.2481   24.3856   17.0937 H   0  0  0  0  0
   28.2718   22.9220   17.0517 H   0  0  0  0  0
   27.3296   25.6707   17.1126 H   0  0  0  0  0
   26.3529   24.2063   17.0863 H   0  0  0  0  0
   25.7708   24.6454   14.8821 H   0  0  0  0  0
   26.7096   26.0946   14.9156 H   0  0  0  0  0
   26.9457   21.9666   15.4626 H   0  0  0  0  0
   26.6514   19.6798   14.9014 H   0  0  0  0  0
   28.8404   19.0868   13.1869 H   0  0  0  0  0
   28.3524   20.7566   12.8081 H   0  0  0  0  0
   25.9171   19.8068   12.8382 H   0  0  0  0  0
   27.1039   20.5947   10.8099 H   0  0  0  0  0
   27.8898   19.0045   10.6524 H   0  0  0  0  0
   26.1256   19.1491   10.4580 H   0  0  0  0  0
   27.5570   17.2670   12.4114 H   0  0  0  0  0
   26.5308   17.6146   13.8246 H   0  0  0  0  0
   25.7925   17.4084   12.2173 H   0  0  0  0  0
   29.7488   18.5412   18.0643 H   0  0  0  0  0
   28.2296   17.8741   19.6918 H   0  0  0  0  0
   27.9249   16.4019   18.7762 H   0  0  0  0  0
   26.1455   18.6736   19.1015 H   0  0  0  0  0
   25.8398   17.2000   18.1878 H   0  0  0  0  0
   26.0688   18.3968   16.2104 H   0  0  0  0  0
   26.3626   19.8430   17.1064 H   0  0  0  0  0
   31.3188   17.7377   16.7134 H   0  0  0  0  0
   31.1292   15.6500   14.8494 H   0  0  0  0  0
   33.3440   16.1857   16.8735 H   0  0  0  0  0
   33.4812   13.8705   15.9992 H   0  0  0  0  0
   33.3698   14.4930   14.3345 H   0  0  0  0  0
   34.7885   14.8826   15.3378 H   0  0  0  0  0
   32.9846   16.9248   13.9340 H   0  0  0  0  0
   32.8198   18.0395   15.3129 H   0  0  0  0  0
   34.4029   17.3156   14.9374 H   0  0  0  0  0
   30.4695   13.5681   14.9436 H   0  0  0  0  0
   29.4779   12.2841   17.2557 H   0  0  0  0  0
   29.1873   11.4160   14.9516 H   0  0  0  0  0
   30.9102   10.9685   14.9038 H   0  0  0  0  0
   29.8090   10.1506   16.0393 H   0  0  0  0  0
   32.7683   10.8396   19.7947 H   0  0  0  0  0
   31.7508    9.0303   20.8444 H   0  0  0  0  0
   32.2913    7.9891   19.5317 H   0  0  0  0  0
   29.5814    8.8751   20.0721 H   0  0  0  0  0
   30.1229    7.8386   18.7556 H   0  0  0  0  0
   29.7667    9.5813   17.2636 H   0  0  0  0  0
   29.2439   10.6001   18.5555 H   0  0  0  0  0
   34.3416   11.5405   18.2055 H   0  0  0  0  0
   36.4162    9.7302   17.7565 H   0  0  0  0  0
   36.1028   11.0996   16.6585 H   0  0  0  0  0
   37.1854    8.6088   15.7817 H   0  0  0  0  0
   35.1469    7.9648   13.7194 H   0  0  0  0  0
   36.9964    6.3292   12.9747 H   0  0  0  0  0
   37.9891    7.0337   14.2709 H   0  0  0  0  0
   38.2706    8.1229   12.2436 H   0  0  0  0  0
   33.5753    7.1204   15.3965 H   0  0  0  0  0
   32.6074    5.2940   16.5679 H   0  0  0  0  0
   32.2848    4.1615   14.5598 H   0  0  0  0  0
   33.3325    3.0019   15.4077 H   0  0  0  0  0
   34.0895    3.4860   13.2702 H   0  0  0  0  0
   34.4609    6.1611   18.1858 H   0  0  0  0  0
   36.4103    3.9192   18.7082 H   0  0  0  0  0
   37.6531    5.4545   19.9678 H   0  0  0  0  0
   36.2248    6.4390   20.3651 H   0  0  0  0  0
   36.4507    7.7032   18.4924 H   0  0  0  0  0
   36.7322    6.2745   17.4675 H   0  0  0  0  0
   39.0652    6.3177   18.8763 H   0  0  0  0  0
   38.6907    8.0578   18.8411 H   0  0  0  0  0
   38.8977    8.1963   16.5402 H   0  0  0  0  0
   38.3657    6.5174   16.2847 H   0  0  0  0  0
   40.7193    6.7812   15.8475 H   0  0  0  0  0
   40.9834    7.3456   17.3930 H   0  0  0  0  0
   40.4852    5.7735   17.1538 H   0  0  0  0  0
   36.0544    2.4549   20.3090 H   0  0  0  0  0
   35.0268    1.4604   22.1990 H   0  0  0  0  0
   33.9978    4.1920   23.0146 H   0  0  0  0  0
   36.1053    4.5098   23.9235 H   0  0  0  0  0
   33.4114    2.2135   24.3827 H   0  0  0  0  0
   35.1383    1.8061   24.5346 H   0  0  0  0  0
   34.5082    3.3013   25.2684 H   0  0  0  0  0
   33.6536    1.1442   20.2730 H   0  0  0  0  0
  1  2  1  0  0  0
  1  7  1  0  0  0
  2  3  1  0  0  0
  2  5  1  0  0  0
  3  4  2  0  0  0
  3  8  1  0  0  0
  5  6  1  0  0  0
  6  7  1  0  0  0
  8  9  1  0  0  0
  8 14  1  0  0  0
  9 10  1  0  0  0
  9 12  1  0  0  0
 10 11  2  0  0  0
 10 15  1  0  0  0
 12 13  1  0  0  0
 13 14  1  0  0  0
 15 16  1  0  0  0
 16 17  1  0  0  0
 16 19  1  0  0  0
 17 18  2  0  0  0
 17 26  1  0  0  0
 19 20  1  0  0  0
 20 21  1  0  0  0
 21 22  1  0  0  0
 22 23  1  0  0  0
 23 24  2  0  0  0
 23 25  1  0  0  0
 26 27  1  0  0  0
 26 32  1  0  0  0
 27 28  1  0  0  0
 27 30  1  0  0  0
 28 29  2  0  0  0
 28 33  1  0  0  0
 30 31  1  0  0  0
 31 32  1  0  0  0
 33 34  1  0  0  0
 34 35  1  0  0  0
 34 37  1  0  0  0
 35 36  2  0  0  0
 35 41  1  0  0  0
 37 38  1  0  0  0
 38 39  1  0  0  0
 38 40  1  0  0  0
 41 42  1  0  0  0
 41 47  1  0  0  0
 42 43  1  0  0  0
 42 45  1  0  0  0
 43 44  2  0  0  0
 43 48  1  0  0  0
 45 46  1  0  0  0
 46 47  1  0  0  0
 48 49  1  0  0  0
 49 50  1  0  0  0
 49 52  1  0  0  0
 50 51  2  0  0  0
 50 55  1  0  0  0
 52 53  1  0  0  0
 52 54  1  0  0  0
 55 56  1  0  0  0
 56 57  1  0  0  0
 56 59  1  0  0  0
 57 58  2  0  0  0
 57 60  1  0  0  0
 60 61  1  0  0  0
 60 66  1  0  0  0
 61 62  1  0  0  0
 61 64  1  0  0  0
 62 63  2  0  0  0
 62 67  1  0  0  0
 64 65  1  0  0  0
 65 66  1  0  0  0
 67 68  1  0  0  0
 68 69  1  0  0  0
 69 70  2  0  0  0
 69 71  1  0  0  0
 71 72  1  0  0  0
 72 73  1  0  0  0
 72 75  1  0  0  0
 73 74  2  0  0  0
 73 77  1  0  0  0
 75 76  1  0  0  0
 77 78  1  0  0  0
 78 79  1  0  0  0
 78 81  1  0  0  0
 79 80  2  0  0  0
 79 83  1  0  0  0
 81 82  1  0  0  0
 83 84  1  0  0  0
 84 85  1  0  0  0
 84 87  1  0  0  0
 85 86  2  0  0  0
 85 92  1  0  0  0
 87 88  1  0  0  0
 88 89  1  0  0  0
 89 90  1  0  0  0
 90 91  1  0  0  0
 92 93  1  0  0  0
 93 94  1  0  0  0
 93 96  1  0  0  0
 94 95  2  0  0  0
 94 99  1  0  0  0
 96 97  1  0  0  0
 96 98  1  0  0  0
  1100  1  0  0  0
  1101  1  0  0  0
  2102  1  0  0  0
  5103  1  0  0  0
  5104  1  0  0  0
  6105  1  0  0  0
  6106  1  0  0  0
  7107  1  0  0  0
  7108  1  0  0  0
  9109  1  0  0  0
 12110  1  0  0  0
 12111  1  0  0  0
 13112  1  0  0  0
 13113  1  0  0  0
 14114  1  0  0  0
 14115  1  0  0  0
 15116  1  0  0  0
 16117  1  0  0  0
 19118  1  0  0  0
 19119  1  0  0  0
 20120  1  0  0  0
 20121  1  0  0  0
 21122  1  0  0  0
 21123  1  0  0  0
 22124  1  0  0  0
 24125  1  0  0  0
 25126  1  0  0  0
 25127  1  0  0  0
 27128  1  0  0  0
 30129  1  0  0  0
 30130  1  0  0  0
 31131  1  0  0  0
 31132  1  0  0  0
 32133  1  0  0  0
 32134  1  0  0  0
 33135  1  0  0  0
 34136  1  0  0  0
 37137  1  0  0  0
 37138  1  0  0  0
 38139  1  0  0  0
 39140  1  0  0  0
 39141  1  0  0  0
 39142  1  0  0  0
 40143  1  0  0  0
 40144  1  0  0  0
 40145  1  0  0  0
 42146  1  0  0  0
 45147  1  0  0  0
 45148  1  0  0  0
 46149  1  0  0  0
 46150  1  0  0  0
 47151  1  0  0  0
 47152  1  0  0  0
 48153  1  0  0  0
 49154  1  0  0  0
 52155  1  0  0  0
 53156  1  0  0  0
 53157  1  0  0  0
 53158  1  0  0  0
 54159  1  0  0  0
 54160  1  0  0  0
 54161  1  0  0  0
 55162  1  0  0  0
 56163  1  0  0  0
 59164  1  0  0  0
 59165  1  0  0  0
 59166  1  0  0  0
 61167  1  0  0  0
 64168  1  0  0  0
 64169  1  0  0  0
 65170  1  0  0  0
 65171  1  0  0  0
 66172  1  0  0  0
 66173  1  0  0  0
 67174  1  0  0  0
 68175  1  0  0  0
 68176  1  0  0  0
 71177  1  0  0  0
 72178  1  0  0  0
 75179  1  0  0  0
 75180  1  0  0  0
 76181  1  0  0  0
 77182  1  0  0  0
 78183  1  0  0  0
 81184  1  0  0  0
 81185  1  0  0  0
 82186  1  0  0  0
 83187  1  0  0  0
 84188  1  0  0  0
 87189  1  0  0  0
 87190  1  0  0  0
 88191  1  0  0  0
 88192  1  0  0  0
 89193  1  0  0  0
 89194  1  0  0  0
 90195  1  0  0  0
 90196  1  0  0  0
 91197  1  0  0  0
 91198  1  0  0  0
 91199  1  0  0  0
 92200  1  0  0  0
 93201  1  0  0  0
 96202  1  0  0  0
 97203  1  0  0  0
 98204  1  0  0  0
 98205  1  0  0  0
 98206  1  0  0  0
 99207  1  0  0  0
M  END
$$$$
