5dhj_ligand
  -I-interpret- 

 25 27  0  0  0  0  0  0  0  0999 V2000
   22.5750   35.4480    0.3750 C   0  0  0  0  0
   23.4270   37.9400    0.5440 C   0  0  0  0  0
   22.8900   35.4890    3.1170 C   0  0  0  0  0
   23.7880   38.6470    1.5850 N   0  0  0  0  0
   23.0330   36.6400    0.9860 C   0  0  0  0  0
   23.4710   38.4530   -0.8820 C   0  0  0  0  0
   23.6510   37.8830    2.7570 N   0  0  0  0  0
   23.1930   36.6390    2.3970 C   0  0  0  0  0
   22.3030   34.3440    1.1930 C   0  0  0  0  0
   22.4710   34.4020    2.5110 N   0  0  0  0  0
   21.8290   33.0450    0.6550 C   0  0  0  0  0
   21.9140   32.7440   -0.7130 C   0  0  0  0  0
   21.4630   31.4950   -1.1350 C   0  0  0  0  0
   20.9500   30.6060   -0.1980 C   0  0  0  0  0
   20.8950   30.9170    1.0910 N   0  0  0  0  0
   21.3100   32.0890    1.5390 C   0  0  0  0  0
   22.4375   35.3907   -0.7048 H   0  0  0  0  0
   23.0020   35.4896    4.2012 H   0  0  0  0  0
   22.8291   39.3294   -0.9715 H   0  0  0  0  0
   24.4954   38.7237   -1.1379 H   0  0  0  0  0
   23.1201   37.6734   -1.5582 H   0  0  0  0  0
   22.3200   33.4645   -1.4230 H   0  0  0  0  0
   21.5120   31.2183   -2.1882 H   0  0  0  0  0
   20.5854   29.6334   -0.5286 H   0  0  0  0  0
   21.2482   32.3139    2.6038 H   0  0  0  0  0
  5  1  4  0  0  0
  1  9  4  0  0  0
  2  4  4  0  0  0
  5  2  4  0  0  0
  2  6  1  0  0  0
  8  3  4  0  0  0
  3 10  4  0  0  0
  4  7  4  0  0  0
  5  8  4  0  0  0
  7  8  4  0  0  0
  9 10  4  0  0  0
  9 11  1  0  0  0
 11 12  4  0  0  0
 11 16  4  0  0  0
 12 13  4  0  0  0
 13 14  4  0  0  0
 14 15  4  0  0  0
 15 16  4  0  0  0
  1 17  1  0  0  0
  3 18  1  0  0  0
  6 19  1  0  0  0
  6 20  1  0  0  0
  6 21  1  0  0  0
 12 22  1  0  0  0
 13 23  1  0  0  0
 14 24  1  0  0  0
 16 25  1  0  0  0
M  END
$$$$
