1amw_ligand
  -I-interpret- 

 42 44  0  0  0  0  0  0  0  0999 V2000
   10.5090   -4.8700   -3.7360 P   0  0  0  0  0
    9.7050   -4.2170   -4.8630 O   0  0  0  0  0
   11.8930   -5.5900   -4.2890 O   0  0  0  0  0
    9.6530   -5.8370   -2.9410 O   0  0  0  0  0
   11.8240   -3.9720   -1.4370 P   0  0  0  0  0
   10.9340   -3.5680   -0.3250 O   0  0  0  0  0
   12.2960   -5.3730   -1.2860 O   0  0  0  0  0
   11.0700   -3.7970   -2.7730 O   0  0  0  0  0
   13.0580   -2.9530   -1.6250 O   0  0  0  0  0
   12.7730   -1.5790   -1.7630 C   0  0  0  0  0
   13.2040   -1.0410   -3.1430 C   0  0  0  0  0
   14.5870   -0.6290   -3.0930 O   0  0  0  0  0
   13.0680   -1.9640   -4.3440 C   0  0  0  0  0
   11.8090   -1.8630   -5.0130 O   0  0  0  0  0
   14.2060   -1.5650   -5.2380 C   0  0  0  0  0
   13.8390   -0.5360   -6.1600 O   0  0  0  0  0
   15.2700   -1.1150   -4.2620 C   0  0  0  0  0
   16.2860   -2.1950   -4.0060 N   0  0  0  0  0
   16.3210   -3.0830   -2.9990 C   0  0  0  0  0
   17.4040   -3.8670   -3.1510 N   0  0  0  0  0
   18.0520   -3.4790   -4.2370 C   0  0  0  0  0
   19.2190   -3.8720   -4.9270 C   0  0  0  0  0
   19.9740   -4.8930   -4.4760 N   0  0  0  0  0
   19.5980   -3.2110   -6.0710 N   0  0  0  0  0
   18.8800   -2.1790   -6.5710 C   0  0  0  0  0
   17.7600   -1.8000   -5.9240 N   0  0  0  0  0
   17.3230   -2.4050   -4.7840 C   0  0  0  0  0
   10.2701   -3.6115   -5.3484 H   0  0  0  0  0
   12.4084   -4.9505   -4.7860 H   0  0  0  0  0
   12.8685   -5.5978   -2.0231 H   0  0  0  0  0
   13.3245   -1.0357   -0.9957 H   0  0  0  0  0
   11.6966   -1.4403   -1.6619 H   0  0  0  0  0
   12.4932   -0.2320   -3.3114 H   0  0  0  0  0
   13.1050   -3.0102   -4.0403 H   0  0  0  0  0
   11.7934   -2.4701   -5.7565 H   0  0  0  0  0
   14.5424   -2.3774   -5.8822 H   0  0  0  0  0
   14.5952   -0.3146   -6.7083 H   0  0  0  0  0
   15.8735   -0.3025   -4.6667 H   0  0  0  0  0
   15.5923   -3.1565   -2.1917 H   0  0  0  0  0
   19.7043   -5.3908   -3.6276 H   0  0  0  0  0
   20.8152   -5.1680   -4.9831 H   0  0  0  0  0
   19.2004   -1.6652   -7.4774 H   0  0  0  0  0
  1  2  1  0  0  0
  1  3  1  0  0  0
  1  4  2  0  0  0
  8  1  1  0  0  0
  5  6  2  0  0  0
  5  7  1  0  0  0
  5  8  1  0  0  0
  5  9  1  0  0  0
  9 10  1  0  0  0
 10 11  1  0  0  0
 11 12  1  0  0  0
 11 13  1  0  0  0
 12 17  1  0  0  0
 13 14  1  0  0  0
 13 15  1  0  0  0
 15 16  1  0  0  0
 15 17  1  0  0  0
 17 18  1  0  0  0
 18 19  4  0  0  0
 18 27  4  0  0  0
 19 20  4  0  0  0
 20 21  4  0  0  0
 21 22  4  0  0  0
 21 27  4  0  0  0
 22 23  1  0  0  0
 22 24  4  0  0  0
 24 25  4  0  0  0
 25 26  4  0  0  0
 26 27  4  0  0  0
  2 28  1  0  0  0
  3 29  1  0  0  0
  7 30  1  0  0  0
 10 31  1  0  0  0
 10 32  1  0  0  0
 11 33  1  0  0  0
 13 34  1  0  0  0
 14 35  1  0  0  0
 15 36  1  0  0  0
 16 37  1  0  0  0
 17 38  1  0  0  0
 19 39  1  0  0  0
 23 40  1  0  0  0
 23 41  1  0  0  0
 25 42  1  0  0  0
M  END
$$$$
