### 
### Created by X-TOOL on Mon Sep 10 21:12:56 2018
### 

@<TRIPOS>MOLECULE
2uzd_ligand
   34    36     1     0     0
SMALL
GAST_HUCK


@<TRIPOS>ATOM
      1 O4        126.1770  107.4780   37.1910 O.2       1 C85        -0.1508
      2 S2        125.6860  108.4660   36.1630 S.o2      1 C85         0.0648
      3 O3        126.8230  109.3590   35.7470 O.2       1 C85        -0.1508
      4 N6        124.4850  109.3770   36.8050 N.am      1 C85        -0.2612
      5 C16       125.0720  107.5930   34.7590 C.ar      1 C85         0.1054
      6 C15       125.5200  106.2940   34.4840 C.ar      1 C85        -0.0371
      7 C14       125.0330  105.6110   33.3650 C.ar      1 C85        -0.0524
      8 C13       124.0950  106.2230   32.5360 C.ar      1 C85         0.0111
      9 C18       123.6420  107.5130   32.8230 C.ar      1 C85        -0.0524
     10 C17       124.1310  108.1960   33.9270 C.ar      1 C85        -0.0371
     11 C4        123.5960  105.5640   31.4280 C.2       1 C85         0.1233
     12 O2        122.5330  105.9560   30.7170 O.3       1 C85        -0.2556
     13 C3        124.0880  104.4570   30.8570 C.2       1 C85        -0.0476
     14 C2        123.3160  104.1610   29.7960 C.2       1 C85        -0.0490
     15 C1        122.3530  105.0900   29.7150 C.2       1 C85         0.1154
     16 C6        121.2840  105.1710   28.7000 C.2       1 C85         0.0004
     17 C7        120.6490  106.3570   28.4850 C.2       1 C85         0.1223
     18 S1        120.5000  107.5870   29.6280 S.3       1 C85         0.0358
     19 C9        119.6460  108.5660   28.5440 C.2       1 C85         0.1924
     20 N3        119.1880  109.7740   28.8390 N.2       1 C85        -0.3844
     21 N2        119.4820  107.9730   27.3410 N.am      1 C85        -0.1898
     22 C8        120.0420  106.7190   27.2790 C.2       1 C85         0.2531
     23 O1        120.0090  106.0000   26.2820 O.2       1 C85        -0.3719
     24 H1        123.6482  108.9403   37.1353 H         1 C85         0.1634
     25 H2        124.5888  110.3697   36.8666 H         1 C85         0.1634
     26 H3        126.2429  105.8193   35.1376 H         1 C85         0.0630
     27 H4        125.3838  104.6095   33.1435 H         1 C85         0.0604
     28 H5        122.9056  107.9820   32.1806 H         1 C85         0.0604
     29 H6        123.7809  109.1991   34.1424 H         1 C85         0.0630
     30 H7        124.9589  103.8958   31.1923 H         1 C85         0.0417
     31 H8        123.4497  103.3161   29.1220 H         1 C85         0.0414
     32 H9        121.0048  104.2882   28.1267 H         1 C85         0.0610
     33 H10       118.6859  110.3059   28.1454 H         1 C85         0.0547
     34 H11       119.0029  108.4019   26.5751 H         1 C85         0.2436
@<TRIPOS>BOND
     1    1    2 2  
     2    2    3 2  
     3    2    4 am 
     4    2    5 1  
     5    5    6 ar 
     6    5   10 ar 
     7    6    7 ar 
     8    7    8 ar 
     9    8    9 ar 
    10    8   11 1  
    11    9   10 ar 
    12   11   12 1  
    13   11   13 2  
    14   12   15 1  
    15   13   14 1  
    16   14   15 2  
    17   15   16 1  
    18   16   17 2  
    19   17   18 1  
    20   17   22 1  
    21   18   19 1  
    22   19   20 2  
    23   19   21 1  
    24   21   22 am 
    25   22   23 2  
    26    4   24 1  
    27    4   25 1  
    28    6   26 1  
    29    7   27 1  
    30    9   28 1  
    31   10   29 1  
    32   13   30 1  
    33   14   31 1  
    34   16   32 1  
    35   20   33 1  
    36   21   34 1  
@<TRIPOS>SUBSTRUCTURE
     1 C85         1

