4m13_ligand
  -I-interpret- 

 45 47  0  0  0  0  0  0  0  0999 V2000
   -4.8280    8.2800   13.1770 N   0  0  0  0  0
   -5.9160    7.6250   13.6250 N   0  0  0  0  0
   -5.4400    6.7140   14.5300 C   0  0  0  0  0
   -4.0100    6.8140   14.6280 C   0  0  0  0  0
   -3.6290    7.8300   13.7450 C   0  0  0  0  0
   -3.2400    6.0040   15.4490 N   0  0  0  0  0
   -1.8430    6.1290   15.5270 C   0  0  0  0  0
   -1.2110    5.2470   16.3970 N   0  0  0  0  0
   -1.1960    6.9640   14.8830 O   0  0  0  0  0
   -6.2960    5.7880   15.2740 C   0  0  0  0  0
   -7.6370    5.7640   14.9730 N   0  0  0  0  0
   -5.8340    5.0530   16.1550 O   0  0  0  0  0
   -4.9340    9.3780   12.2570 C   0  0  0  0  0
   -4.3100    9.2630   11.0400 C   0  0  0  0  0
   -4.4000   10.3270   10.1180 C   0  0  0  0  0
   -5.1070   11.4550   10.4330 C   0  0  0  0  0
   -5.6720   10.5390   12.6270 C   0  0  0  0  0
   -5.7440   11.5830   11.6900 C   0  0  0  0  0
   -6.4560   12.7680   12.0260 C   0  0  0  0  0
   -7.0740   12.8930   13.2320 C   0  0  0  0  0
   -7.0070   11.8140   14.1660 C   0  0  0  0  0
   -6.3150   10.6670   13.8840 C   0  0  0  0  0
   -7.6780   12.0670   15.3210 O   0  0  0  0  0
   -7.6970   11.0380   16.2960 C   0  0  0  0  0
   -8.3910   11.6470   17.5180 C   0  0  0  0  0
   -7.5530   12.7660   18.1140 C   0  0  0  0  0
   -2.6208    8.1920   13.5433 H   0  0  0  0  0
   -3.7036    5.2935   16.0153 H   0  0  0  0  0
   -0.1981    5.2821   16.5121 H   0  0  0  0  0
   -1.7604    4.5650   16.9200 H   0  0  0  0  0
   -8.2619    5.1357   15.4781 H   0  0  0  0  0
   -8.0072    6.3745   14.2445 H   0  0  0  0  0
   -3.7519    8.3610   10.7890 H   0  0  0  0  0
   -3.9040   10.2500    9.1504 H   0  0  0  0  0
   -5.1805   12.2648    9.7071 H   0  0  0  0  0
   -6.5072   13.5865   11.3080 H   0  0  0  0  0
   -7.6140   13.8061   13.4825 H   0  0  0  0  0
   -6.2591    9.8621   14.6168 H   0  0  0  0  0
   -6.6903   10.6965   16.5367 H   0  0  0  0  0
   -8.2244   10.1550   15.9353 H   0  0  0  0  0
   -8.5241   10.8693   18.2700 H   0  0  0  0  0
   -9.3529   12.0555   17.2082 H   0  0  0  0  0
   -6.5851   12.3695   18.4206 H   0  0  0  0  0
   -7.4073   13.5464   17.3671 H   0  0  0  0  0
   -8.0677   13.1818   18.9802 H   0  0  0  0  0
  1  2  4  0  0  0
  1  5  4  0  0  0
  1 13  1  0  0  0
  2  3  4  0  0  0
  3  4  4  0  0  0
  3 10  1  0  0  0
  4  5  4  0  0  0
  4  6  1  0  0  0
  6  7  1  0  0  0
  7  8  1  0  0  0
  7  9  2  0  0  0
 10 11  1  0  0  0
 10 12  2  0  0  0
 13 14  4  0  0  0
 13 17  4  0  0  0
 14 15  4  0  0  0
 15 16  4  0  0  0
 16 18  4  0  0  0
 17 18  4  0  0  0
 17 22  4  0  0  0
 18 19  4  0  0  0
 19 20  4  0  0  0
 20 21  4  0  0  0
 21 22  4  0  0  0
 21 23  1  0  0  0
 23 24  1  0  0  0
 24 25  1  0  0  0
 25 26  1  0  0  0
  5 27  1  0  0  0
  6 28  1  0  0  0
  8 29  1  0  0  0
  8 30  1  0  0  0
 11 31  1  0  0  0
 11 32  1  0  0  0
 14 33  1  0  0  0
 15 34  1  0  0  0
 16 35  1  0  0  0
 19 36  1  0  0  0
 20 37  1  0  0  0
 22 38  1  0  0  0
 24 39  1  0  0  0
 24 40  1  0  0  0
 25 41  1  0  0  0
 25 42  1  0  0  0
 26 43  1  0  0  0
 26 44  1  0  0  0
 26 45  1  0  0  0
M  END
$$$$
