5izq_ligand
  -I-interpret- 

 52 54  0  0  0  0  0  0  0  0999 V2000
   -3.9860   22.2440   -7.0780 C   0  0  0  0  0
   -3.2000   21.5680   -9.1750 N   0  0  0  0  0
   -5.3810   21.6520   -8.7680 O   0  0  0  0  0
   -4.2370   21.8080   -8.3610 C   0  0  0  0  0
   -1.6650   22.1510   -7.5350 N   0  0  0  0  0
  -10.4360   21.0540    2.1540 O   0  0  0  0  0
   -1.9330   21.7330   -8.7710 C   0  0  0  0  0
   -0.8660   21.4550   -9.6520 N   0  0  0  0  0
  -10.0590   16.9320    2.1800 O   0  0  0  0  0
   -2.6530   22.4080   -6.6730 C   0  0  0  0  0
   -2.6540   22.8280   -5.3930 N   0  0  0  0  0
  -12.1120   16.2550    1.9400 O   0  0  0  0  0
   -3.8840   22.9770   -4.8930 C   0  0  0  0  0
   -5.4570   22.1560   -1.7670 N   0  0  0  0  0
  -13.6280   19.1600   -2.7120 O   0  0  0  0  0
   -4.6670   22.6050   -5.9510 C   0  0  0  0  0
  -10.4820   19.1680    0.7970 N   0  0  0  0  0
  -14.1240   20.8920   -1.4490 O   0  0  0  0  0
   -4.3220   23.4270   -3.5280 C   0  0  0  0  0
   -5.5560   22.6070   -3.1710 C   0  0  0  0  0
   -6.6080   21.7510   -1.0160 C   0  0  0  0  0
   -6.9410   20.4100   -1.0230 C   0  0  0  0  0
   -8.0290   19.9950   -0.2800 C   0  0  0  0  0
   -8.7640   20.9250    0.4600 C   0  0  0  0  0
   -8.4340   22.2800    0.4540 C   0  0  0  0  0
   -7.3440   22.6850   -0.2960 C   0  0  0  0  0
   -9.9680   20.4070    1.2430 C   0  0  0  0  0
  -11.6220   18.5450    1.3530 C   0  0  0  0  0
  -11.2510   17.1680    1.8570 C   0  0  0  0  0
  -12.6190   18.4370    0.2180 C   0  0  0  0  0
  -12.2630   19.5180   -0.7840 C   0  0  0  0  0
  -13.4110   19.8820   -1.7050 C   0  0  0  0  0
   -0.6956   22.2762   -7.2436 H   0  0  0  0  0
   -1.0584   21.1277  -10.5987 H   0  0  0  0  0
  -12.9649   16.5945    1.6591 H   0  0  0  0  0
   -4.5410   22.1323   -1.3189 H   0  0  0  0  0
   -5.7557   22.5973   -5.8982 H   0  0  0  0  0
  -10.0026   18.6967    0.0299 H   0  0  0  0  0
  -13.8060   21.3116   -0.6462 H   0  0  0  0  0
   -4.5500   24.4929   -3.5252 H   0  0  0  0  0
   -3.5291   23.2741   -2.7958 H   0  0  0  0  0
   -6.4485   23.2205   -3.2940 H   0  0  0  0  0
   -5.6191   21.7397   -3.8281 H   0  0  0  0  0
   -6.3575   19.6947   -1.6026 H   0  0  0  0  0
   -8.3140   18.9430   -0.2709 H   0  0  0  0  0
   -9.0192   23.0009    1.0250 H   0  0  0  0  0
   -7.0621   23.7376   -0.3223 H   0  0  0  0  0
  -12.0306   19.1063    2.1933 H   0  0  0  0  0
  -13.6374   18.5684    0.5836 H   0  0  0  0  0
  -12.5740   17.4509   -0.2442 H   0  0  0  0  0
  -11.4505   19.1387   -1.4037 H   0  0  0  0  0
  -11.9943   20.4127   -0.2224 H   0  0  0  0  0
  1  4  1  0  0  0
  1 10  4  0  0  0
 16  1  4  0  0  0
  4  2  1  0  0  0
  2  7  4  0  0  0
  4  3  2  0  0  0
  5  7  1  0  0  0
 10  5  1  0  0  0
 27  6  2  0  0  0
  7  8  2  0  0  0
 29  9  2  0  0  0
 11 10  4  0  0  0
 13 11  4  0  0  0
 29 12  1  0  0  0
 13 16  4  0  0  0
 19 13  1  0  0  0
 14 20  1  0  0  0
 21 14  1  0  0  0
 32 15  2  0  0  0
 17 27  1  0  0  0
 28 17  1  0  0  0
 32 18  1  0  0  0
 20 19  1  0  0  0
 22 21  4  0  0  0
 26 21  4  0  0  0
 23 22  4  0  0  0
 24 23  4  0  0  0
 24 25  4  0  0  0
 27 24  1  0  0  0
 25 26  4  0  0  0
 28 29  1  0  0  0
 30 28  1  0  0  0
 31 30  1  0  0  0
 31 32  1  0  0  0
  5 33  1  0  0  0
  8 34  1  0  0  0
 12 35  1  0  0  0
 14 36  1  0  0  0
 16 37  1  0  0  0
 17 38  1  0  0  0
 18 39  1  0  0  0
 19 40  1  0  0  0
 19 41  1  0  0  0
 20 42  1  0  0  0
 20 43  1  0  0  0
 22 44  1  0  0  0
 23 45  1  0  0  0
 25 46  1  0  0  0
 26 47  1  0  0  0
 28 48  1  0  0  0
 30 49  1  0  0  0
 30 50  1  0  0  0
 31 51  1  0  0  0
 31 52  1  0  0  0
M  END
$$$$
