3ftu_ligand
  -I-interpret- 

 31 32  0  0  0  0  0  0  0  0999 V2000
   22.4510   -2.8540   -4.4560 C   0  0  0  0  0
   22.1970   -1.7950   -5.3160 C   0  0  0  0  0
   22.7080   -0.5380   -5.0300 C   0  0  0  0  0
   25.2740    0.1880   -1.6330 C   0  0  0  0  0
   24.5630   -1.1840   -1.7440 C   0  0  0  0  0
   23.4660   -0.3490   -3.8850 C   0  0  0  0  0
   23.7110   -1.3940   -3.0030 C   0  0  0  0  0
   23.1920   -2.6480   -3.2970 C   0  0  0  0  0
   22.4690    0.5210   -5.8800 O   0  0  0  0  0
   21.9240   -4.0800   -4.7300 O   0  0  0  0  0
   26.3430    0.0110   -0.5700 C   0  0  0  0  0
   26.0100   -0.2870    0.7480 C   0  0  0  0  0
   27.0200   -0.4690    1.7060 C   0  0  0  0  0
   28.3740   -0.3470    1.3620 C   0  0  0  0  0
   29.3840   -0.5230    2.3020 O   0  0  0  0  0
   28.6920   -0.0350    0.0490 C   0  0  0  0  0
   27.6790    0.1520   -0.9140 C   0  0  0  0  0
   21.5979   -1.9507   -6.2132 H   0  0  0  0  0
   24.5733    0.9786   -1.3647 H   0  0  0  0  0
   25.7073    0.4898   -2.5866 H   0  0  0  0  0
   23.8807   -1.2469   -0.8963 H   0  0  0  0  0
   25.3502   -1.9373   -1.7756 H   0  0  0  0  0
   23.8774    0.6378   -3.6727 H   0  0  0  0  0
   23.3669   -3.4786   -2.6132 H   0  0  0  0  0
   22.8922    1.3099   -5.5334 H   0  0  0  0  0
   22.1885   -4.7007   -4.0471 H   0  0  0  0  0
   24.9631   -0.3793    1.0370 H   0  0  0  0  0
   26.7473   -0.7090    2.7337 H   0  0  0  0  0
   30.2374   -0.4003    1.8798 H   0  0  0  0  0
   29.7374    0.0669   -0.2423 H   0  0  0  0  0
   27.9486    0.4098   -1.9382 H   0  0  0  0  0
  2  1  4  0  0  0
  1  8  4  0  0  0
  1 10  1  0  0  0
  3  2  4  0  0  0
  6  3  4  0  0  0
  3  9  1  0  0  0
  5  4  1  0  0  0
  4 11  1  0  0  0
  7  5  1  0  0  0
  6  7  4  0  0  0
  7  8  4  0  0  0
 11 12  4  0  0  0
 11 17  4  0  0  0
 12 13  4  0  0  0
 13 14  4  0  0  0
 14 15  1  0  0  0
 14 16  4  0  0  0
 16 17  4  0  0  0
  2 18  1  0  0  0
  4 19  1  0  0  0
  4 20  1  0  0  0
  5 21  1  0  0  0
  5 22  1  0  0  0
  6 23  1  0  0  0
  8 24  1  0  0  0
  9 25  1  0  0  0
 10 26  1  0  0  0
 12 27  1  0  0  0
 13 28  1  0  0  0
 15 29  1  0  0  0
 16 30  1  0  0  0
 17 31  1  0  0  0
M  END
$$$$
