5h7h_ligand
  -I-interpret- 

 84 86  0  0  0  0  0  0  0  0999 V2000
   46.8670  -12.1650  -17.5220 C   0  0  0  0  0
   47.4130  -11.4040  -16.7570 O   0  0  0  0  0
   47.5840  -13.4050  -18.0290 C   0  0  0  0  0
   45.6610  -11.9180  -17.9620 N   0  0  0  0  0
   44.8320  -10.8290  -17.3560 C   0  0  0  0  0
   44.5700  -11.1120  -15.8750 C   0  0  0  0  0
   44.2570  -12.2530  -15.5100 O   0  0  0  0  0
   43.5070  -10.7090  -18.1220 C   0  0  0  0  0
   42.4260   -9.9940  -17.3900 C   0  0  0  0  0
   41.2750  -10.5360  -16.9110 C   0  0  0  0  0
   42.3940   -8.6040  -17.0370 C   0  0  0  0  0
   40.5120   -9.5720  -16.2890 N   0  0  0  0  0
   41.1810   -8.3800  -16.3340 C   0  0  0  0  0
   43.2730   -7.5260  -17.2410 C   0  0  0  0  0
   40.8170   -7.1230  -15.8430 C   0  0  0  0  0
   42.9190   -6.2640  -16.7350 C   0  0  0  0  0
   41.6960   -6.0770  -16.0470 C   0  0  0  0  0
   44.7070  -10.0790  -15.0340 N   0  0  0  0  0
   44.3330  -10.1530  -13.6220 C   0  0  0  0  0
   43.2360   -9.1690  -13.2980 C   0  0  0  0  0
   43.3960   -7.9620  -13.5160 O   0  0  0  0  0
   45.5340   -9.8580  -12.7120 C   0  0  0  0  0
   46.4900  -11.0220  -12.5080 C   0  0  0  0  0
   45.8250  -12.2030  -11.8040 C   0  0  0  0  0
   46.7720  -13.2890  -11.5940 N   0  0  0  0  0
   47.2310  -14.0900  -12.5540 C   0  0  0  0  0
   48.0980  -15.0460  -12.2340 N   0  0  0  0  0
   46.8400  -13.9510  -13.8290 N   0  0  0  0  0
   42.1290   -9.6590  -12.7370 N   0  0  0  0  0
   41.1120   -8.7600  -12.1880 C   0  0  0  0  0
   41.7670   -7.9340  -11.0740 C   0  0  0  0  0
   42.3940   -8.5090  -10.1870 O   0  0  0  0  0
   39.9060   -9.5320  -11.6500 C   0  0  0  0  0
   39.0100   -8.6510  -10.7810 C   0  0  0  0  0
   39.1300  -10.1230  -12.8270 C   0  0  0  0  0
   41.6400   -6.5910  -11.1210 N   0  0  0  0  0
   42.3160   -5.8060  -10.0750 C   0  0  0  0  0
   41.6440   -5.9270   -8.6970 C   0  0  0  0  0
   42.1560   -5.3420   -7.7610 O   0  0  0  0  0
   42.2820   -4.3660  -10.6120 C   0  0  0  0  0
   41.1680   -4.3420  -11.6000 C   0  0  0  0  0
   41.0670   -5.7400  -12.1720 C   0  0  0  0  0
   40.6260   -6.5950   -8.4250 O   0  0  0  0  0
   48.4867  -13.1083  -18.5630 H   0  0  0  0  0
   47.8520  -14.0392  -17.1840 H   0  0  0  0  0
   46.9258  -13.9539  -18.7025 H   0  0  0  0  0
   45.2803  -12.4742  -18.7276 H   0  0  0  0  0
   45.3747   -9.8865  -17.4282 H   0  0  0  0  0
   43.1512  -11.7238  -18.3001 H   0  0  0  0  0
   43.7136  -10.1326  -19.0238 H   0  0  0  0  0
   40.9952  -11.5852  -17.0057 H   0  0  0  0  0
   44.2097   -7.6663  -17.7805 H   0  0  0  0  0
   39.8735   -6.9734  -15.3180 H   0  0  0  0  0
   43.5937   -5.4193  -16.8738 H   0  0  0  0  0
   41.4424   -5.0862  -15.6700 H   0  0  0  0  0
   45.0882   -9.2038  -15.3932 H   0  0  0  0  0
   43.9802  -11.1686  -13.4427 H   0  0  0  0  0
   45.1303   -9.6080  -11.7309 H   0  0  0  0  0
   46.1048   -9.0639  -13.1934 H   0  0  0  0  0
   47.3140  -10.6769  -11.8835 H   0  0  0  0  0
   46.8261  -11.3589  -13.4886 H   0  0  0  0  0
   45.0095  -12.5673  -12.4288 H   0  0  0  0  0
   45.4570  -11.8686  -10.8340 H   0  0  0  0  0
   47.1078  -13.4476  -10.6440 H   0  0  0  0  0
   48.4010  -15.1567  -11.2663 H   0  0  0  0  0
   47.2074  -14.5764  -14.5462 H   0  0  0  0  0
   46.1752  -13.2199  -14.0818 H   0  0  0  0  0
   41.9900  -10.6684  -12.6902 H   0  0  0  0  0
   40.7377   -8.1085  -12.9777 H   0  0  0  0  0
   40.2608  -10.3384  -11.0082 H   0  0  0  0  0
   39.5834   -8.2765   -9.9330 H   0  0  0  0  0
   38.6438   -7.8120  -11.3726 H   0  0  0  0  0
   38.1658   -9.2382  -10.4195 H   0  0  0  0  0
   38.7914   -9.3174  -13.4785 H   0  0  0  0  0
   39.7789  -10.7964  -13.3870 H   0  0  0  0  0
   38.2683  -10.6752  -12.4519 H   0  0  0  0  0
   43.3294   -6.1645   -9.8942 H   0  0  0  0  0
   43.2307   -4.0858  -11.0698 H   0  0  0  0  0
   42.1246   -3.6428   -9.8118 H   0  0  0  0  0
   41.3609   -3.6125  -12.3866 H   0  0  0  0  0
   40.2324   -4.0473  -11.1247 H   0  0  0  0  0
   40.0409   -6.0155  -12.4155 H   0  0  0  0  0
   41.5951   -5.8395  -13.1203 H   0  0  0  0  0
   40.2981   -7.0158   -9.2231 H   0  0  0  0  0
  1  2  2  0  0  0
  1  3  1  0  0  0
  1  4  1  0  0  0
  4  5  1  0  0  0
  5  6  1  0  0  0
  5  8  1  0  0  0
  6  7  2  0  0  0
  6 18  1  0  0  0
  8  9  1  0  0  0
  9 10  4  0  0  0
  9 11  4  0  0  0
 10 12  4  0  0  0
 11 13  4  0  0  0
 11 14  4  0  0  0
 12 13  4  0  0  0
 13 15  4  0  0  0
 14 16  4  0  0  0
 15 17  4  0  0  0
 16 17  4  0  0  0
 18 19  1  0  0  0
 19 20  1  0  0  0
 19 22  1  0  0  0
 20 21  2  0  0  0
 20 29  1  0  0  0
 22 23  1  0  0  0
 23 24  1  0  0  0
 24 25  1  0  0  0
 25 26  1  0  0  0
 26 27  2  0  0  0
 26 28  1  0  0  0
 29 30  1  0  0  0
 30 31  1  0  0  0
 30 33  1  0  0  0
 31 32  2  0  0  0
 31 36  1  0  0  0
 33 34  1  0  0  0
 33 35  1  0  0  0
 36 37  1  0  0  0
 36 42  1  0  0  0
 37 38  1  0  0  0
 37 40  1  0  0  0
 38 39  2  0  0  0
 38 43  1  0  0  0
 40 41  1  0  0  0
 41 42  1  0  0  0
  3 44  1  0  0  0
  3 45  1  0  0  0
  3 46  1  0  0  0
  4 47  1  0  0  0
  5 48  1  0  0  0
  8 49  1  0  0  0
  8 50  1  0  0  0
 10 51  1  0  0  0
 14 52  1  0  0  0
 15 53  1  0  0  0
 16 54  1  0  0  0
 17 55  1  0  0  0
 18 56  1  0  0  0
 19 57  1  0  0  0
 22 58  1  0  0  0
 22 59  1  0  0  0
 23 60  1  0  0  0
 23 61  1  0  0  0
 24 62  1  0  0  0
 24 63  1  0  0  0
 25 64  1  0  0  0
 27 65  1  0  0  0
 28 66  1  0  0  0
 28 67  1  0  0  0
 29 68  1  0  0  0
 30 69  1  0  0  0
 33 70  1  0  0  0
 34 71  1  0  0  0
 34 72  1  0  0  0
 34 73  1  0  0  0
 35 74  1  0  0  0
 35 75  1  0  0  0
 35 76  1  0  0  0
 37 77  1  0  0  0
 40 78  1  0  0  0
 40 79  1  0  0  0
 41 80  1  0  0  0
 41 81  1  0  0  0
 42 82  1  0  0  0
 42 83  1  0  0  0
 43 84  1  0  0  0
M  END
$$$$
