4eh9_ligand
  -I-interpret- 

 43 46  0  0  0  0  0  0  0  0999 V2000
   -1.0550  -11.7710   11.6880 O   0  0  0  0  0
   -1.0150  -10.8700   12.5330 C   0  0  0  0  0
    0.1300  -10.0640   12.5890 C   0  0  0  0  0
    0.2080   -9.0460   13.5370 C   0  0  0  0  0
   -0.8650   -8.8660   14.4110 C   0  0  0  0  0
   -2.0090   -9.6800   14.3440 C   0  0  0  0  0
   -2.0590  -10.6750   13.3890 N   0  0  0  0  0
   -3.2320  -11.6110   13.2460 C   0  0  0  0  0
   -4.4430  -11.2030   14.1000 C   0  0  0  0  0
   -5.1980  -10.1050   13.3220 C   0  0  0  0  0
   -3.9440  -10.6830   15.4740 C   0  0  0  0  0
   -3.0780   -9.4080   15.2660 C   0  0  0  0  0
   -4.0250   -8.2990   14.7000 C   0  0  0  0  0
   -4.4740   -8.7830   13.3580 N   0  0  0  0  0
   -4.1120   -8.1800   12.1960 C   0  0  0  0  0
   -4.4440   -8.6590   11.1110 O   0  0  0  0  0
   -3.5000   -6.9090   12.1970 C   0  0  0  0  0
   -4.3520   -5.7920   12.1940 C   0  0  0  0  0
   -3.8640   -4.4820   12.1890 C   0  0  0  0  0
   -2.4830   -4.2570   12.1730 C   0  0  0  0  0
   -2.0040   -2.9220   12.1490 C   0  0  0  0  0
   -2.6490   -2.2260   11.0760 F   0  0  0  0  0
   -2.2710   -2.2520   13.3410 F   0  0  0  0  0
   -0.7320   -2.8730   11.9580 F   0  0  0  0  0
   -1.6220   -5.3760   12.1520 C   0  0  0  0  0
   -2.1180   -6.6960   12.1680 C   0  0  0  0  0
    0.9540  -10.2324   11.8956 H   0  0  0  0  0
    1.0874   -8.4045   13.5947 H   0  0  0  0  0
   -0.8149   -8.0773   15.1617 H   0  0  0  0  0
   -2.9096  -12.5968   13.5812 H   0  0  0  0  0
   -3.5437  -11.5914   12.2017 H   0  0  0  0  0
   -5.1106  -12.0440   14.2876 H   0  0  0  0  0
   -6.1747   -9.9700   13.7868 H   0  0  0  0  0
   -5.2781  -10.4201   12.2816 H   0  0  0  0  0
   -3.3434  -11.4540   15.9567 H   0  0  0  0  0
   -4.8009  -10.4403   16.1024 H   0  0  0  0  0
   -2.6264   -9.0843   16.2038 H   0  0  0  0  0
   -3.5086   -7.3423   14.6213 H   0  0  0  0  0
   -4.8741   -8.1302   15.3623 H   0  0  0  0  0
   -5.4302   -5.9522   12.1956 H   0  0  0  0  0
   -4.5560   -3.6398   12.1975 H   0  0  0  0  0
   -0.5443   -5.2151   12.1226 H   0  0  0  0  0
   -1.4309   -7.5421   12.1579 H   0  0  0  0  0
  1  2  2  0  0  0
  2  3  1  0  0  0
  2  7  1  0  0  0
  3  4  2  0  0  0
  4  5  1  0  0  0
  5  6  2  0  0  0
  6  7  1  0  0  0
  6 12  1  0  0  0
  7  8  1  0  0  0
  8  9  1  0  0  0
  9 10  1  0  0  0
  9 11  1  0  0  0
 10 14  1  0  0  0
 11 12  1  0  0  0
 12 13  1  0  0  0
 13 14  1  0  0  0
 14 15  1  0  0  0
 15 16  2  0  0  0
 15 17  1  0  0  0
 17 18  4  0  0  0
 17 26  4  0  0  0
 18 19  4  0  0  0
 19 20  4  0  0  0
 20 21  1  0  0  0
 20 25  4  0  0  0
 21 22  1  0  0  0
 21 23  1  0  0  0
 21 24  1  0  0  0
 25 26  4  0  0  0
  3 27  1  0  0  0
  4 28  1  0  0  0
  5 29  1  0  0  0
  8 30  1  0  0  0
  8 31  1  0  0  0
  9 32  1  0  0  0
 10 33  1  0  0  0
 10 34  1  0  0  0
 11 35  1  0  0  0
 11 36  1  0  0  0
 12 37  1  0  0  0
 13 38  1  0  0  0
 13 39  1  0  0  0
 18 40  1  0  0  0
 19 41  1  0  0  0
 25 42  1  0  0  0
 26 43  1  0  0  0
M  END
$$$$
