5kap_ligand
  -I-interpret- 

 31 32  0  0  0  0  0  0  0  0999 V2000
  -20.2690   63.3550    4.1170 C   0  0  0  0  0
  -18.0490   63.0990    5.3410 C   0  0  0  0  0
  -17.3310   64.4290    5.1170 C   0  0  0  0  0
  -19.5610   63.2760    5.4690 C   0  0  0  0  0
  -25.8040   65.0840    5.4450 O   0  0  0  0  0
  -24.9490   64.2690    5.5350 C   0  0  0  0  0
  -25.1800   63.0660    6.2800 N   0  0  0  0  0
  -24.1270   62.0750    6.3840 C   0  0  0  0  0
  -22.8330   62.3030    5.7330 N   0  0  0  0  0
  -22.5970   63.5510    4.9610 C   0  0  0  0  0
  -23.5980   64.5020    4.8570 C   0  0  0  0  0
  -23.1100   65.5030    4.1170 N   0  0  0  0  0
  -21.8680   65.2050    3.7700 C   0  0  0  0  0
  -21.5480   64.0250    4.2760 N   0  0  0  0  0
  -16.1810   64.8390    6.5220 P   0  0  0  0  0
  -15.0330   65.6740    6.0060 O   0  0  0  0  0
  -15.6450   63.5660    7.1330 O   0  0  0  0  0
  -16.9360   65.6210    7.5700 O   0  0  0  0  0
  -20.4326   62.3477    3.7341 H   0  0  0  0  0
  -19.6506   63.9159    3.4162 H   0  0  0  0  0
  -17.6779   62.6647    6.2693 H   0  0  0  0  0
  -17.8535   62.4583    4.4812 H   0  0  0  0  0
  -18.0817   65.2162    5.0479 H   0  0  0  0  0
  -16.7415   64.3505    4.2035 H   0  0  0  0  0
  -19.9534   62.4083    5.9993 H   0  0  0  0  0
  -19.7424   64.2137    5.9943 H   0  0  0  0  0
  -24.2976   61.1578    6.9477 H   0  0  0  0  0
  -22.0939   61.6043    5.8100 H   0  0  0  0  0
  -21.2134   65.8315    3.1642 H   0  0  0  0  0
  -14.5521   65.1778    5.3395 H   0  0  0  0  0
  -15.1652   63.0696    6.4660 H   0  0  0  0  0
  1  4  1  0  0  0
 14  1  1  0  0  0
  2  3  1  0  0  0
  4  2  1  0  0  0
  3 15  1  0  0  0
  6  5  2  0  0  0
  6  7  1  0  0  0
 11  6  1  0  0  0
  8  7  2  0  0  0
  9  8  1  0  0  0
 10  9  1  0  0  0
 10 11  4  0  0  0
 10 14  4  0  0  0
 11 12  4  0  0  0
 12 13  4  0  0  0
 13 14  4  0  0  0
 15 16  1  0  0  0
 15 17  1  0  0  0
 15 18  2  0  0  0
  1 19  1  0  0  0
  1 20  1  0  0  0
  2 21  1  0  0  0
  2 22  1  0  0  0
  3 23  1  0  0  0
  3 24  1  0  0  0
  4 25  1  0  0  0
  4 26  1  0  0  0
  8 27  1  0  0  0
  9 28  1  0  0  0
 13 29  1  0  0  0
 16 30  1  0  0  0
 17 31  1  0  0  0
M  END
$$$$
