### 
### Created by X-TOOL on Mon Sep 10 21:13:30 2018
### 

@<TRIPOS>MOLECULE
5kap_ligand
   29    30     1     0     0
SMALL
GAST_HUCK


@<TRIPOS>ATOM
      1 C11       -20.2690   63.3550    4.1170 C.3       1 6RH         0.0623
      2 C13       -18.0490   63.0990    5.3410 C.3       1 6RH        -0.0355
      3 C14       -17.3310   64.4290    5.1170 C.3       1 6RH         0.0197
      4 C12       -19.5610   63.2760    5.4690 C.3       1 6RH        -0.0236
      5 O01       -25.8040   65.0840    5.4450 O.2       1 6RH        -0.4217
      6 C02       -24.9490   64.2690    5.5350 C.2       1 6RH         0.1461
      7 N03       -25.1800   63.0660    6.2800 N.2       1 6RH        -0.2575
      8 C04       -24.1270   62.0750    6.3840 C.2       1 6RH         0.1280
      9 N05       -22.8330   62.3030    5.7330 N.pl3     1 6RH        -0.2068
     10 C06       -22.5970   63.5510    4.9610 C.2       1 6RH         0.2120
     11 C07       -23.5980   64.5020    4.8570 C.2       1 6RH         0.1015
     12 N08       -23.1100   65.5030    4.1170 N.2       1 6RH        -0.3233
     13 C09       -21.8680   65.2050    3.7700 C.2       1 6RH         0.0964
     14 N10       -21.5480   64.0250    4.2760 N.pl3     1 6RH        -0.2133
     15 P15       -16.1810   64.8390    6.5220 P.3       1 6RH         0.0579
     16 O16       -15.0330   65.6740    6.0060 O.co2     1 6RH        -0.5623
     17 O17       -15.6450   63.5660    7.1330 O.co2     1 6RH        -0.5623
     18 O18       -16.9360   65.6210    7.5700 O.co2     1 6RH        -0.5623
     19 H1        -20.4337   62.3386    3.7299 H         1 6RH         0.0620
     20 H2        -19.6449   63.9204    3.4093 H         1 6RH         0.0620
     21 H3        -17.6662   62.6406    6.2647 H         1 6RH         0.0280
     22 H4        -17.8406   62.4356    4.4887 H         1 6RH         0.0280
     23 H5        -18.0816   65.2280    5.0266 H         1 6RH         0.0451
     24 H6        -16.7479   64.3665    4.1864 H         1 6RH         0.0451
     25 H7        -19.9680   62.4208    6.0285 H         1 6RH         0.0293
     26 H8        -19.7595   64.2050    6.0236 H         1 6RH         0.0293
     27 H9        -24.2975   61.1587    6.9472 H         1 6RH         0.1570
     28 H10       -22.0867   61.5974    5.8108 H         1 6RH         0.2411
     29 H11       -21.2140   65.8310    3.1647 H         1 6RH         0.1177
@<TRIPOS>BOND
     1    1    4 1  
     2   14    1 1  
     3    2    3 1  
     4    4    2 1  
     5    3   15 1  
     6    6    5 2  
     7    6    7 1  
     8   11    6 1  
     9    8    7 2  
    10    9    8 1  
    11   10    9 1  
    12   10   11 2  
    13   10   14 1  
    14   11   12 1  
    15   12   13 2  
    16   13   14 1  
    17   15   16 ar 
    18   15   17 ar 
    19   15   18 ar 
    20    1   19 1  
    21    1   20 1  
    22    2   21 1  
    23    2   22 1  
    24    3   23 1  
    25    3   24 1  
    26    4   25 1  
    27    4   26 1  
    28    8   27 1  
    29    9   28 1  
    30   13   29 1  
@<TRIPOS>SUBSTRUCTURE
     1 6RH         1

