4qwl_ligand
  -I-interpret- 

114116  0  0  0  0  0  0  0  0999 V2000
   58.6590 -135.5540   31.3450 C   0  0  0  0  0
   59.3780 -134.6440   30.9330 O   0  0  0  0  0
   58.2720 -136.7660   30.4820 C   0  0  0  0  0
   58.0430 -136.4550   29.0550 N   0  3  0  0  0
   58.0020 -135.1020   26.7420 O   0  0  0  0  0
   59.2960 -136.1940   28.2970 C   0  0  0  0  0
   57.0450 -135.3720   28.8500 C   0  0  0  0  0
   58.9210 -136.1850   26.8510 C   0  0  0  0  0
   56.7430 -135.3410   27.4330 C   0  0  0  0  0
   58.1460 -135.6100   32.5750 N   0  0  0  0  0
   58.4220 -134.5980   33.5910 C   0  0  0  0  0
   59.6800 -135.0590   34.3180 C   0  0  0  0  0
   60.0770 -136.2200   34.2090 O   0  0  0  0  0
   57.2740 -134.5990   34.5680 C   0  0  0  0  0
   56.6330 -133.2220   34.5080 C   0  0  0  0  0
   55.3220 -133.3160   35.0370 C   0  0  0  0  0
   54.2640 -132.6620   34.3970 C   0  0  0  0  0
   55.0460 -134.0360   36.2060 C   0  0  0  0  0
   52.9680 -132.7400   34.9080 C   0  0  0  0  0
   53.7530 -134.1170   36.7150 C   0  0  0  0  0
   52.7090 -133.4660   36.0670 C   0  0  0  0  0
   60.2720 -134.1330   35.0760 N   0  0  0  0  0
   61.4620 -134.4590   35.8670 C   0  0  0  0  0
   61.0270 -134.6730   37.3040 C   0  0  0  0  0
   60.2260 -133.9010   37.8320 O   0  0  0  0  0
   62.4240 -133.3100   35.8650 C   0  0  0  0  0
   63.4680 -133.6310   34.7770 C   0  0  0  0  0
   62.9410 -133.1500   33.4170 C   0  0  0  0  0
   64.8050 -132.9440   35.1130 C   0  0  0  0  0
   61.5840 -135.7310   37.9100 N   0  0  0  0  0
   61.2730 -136.0450   39.3090 C   0  0  0  0  0
   62.5740 -136.0280   40.0950 C   0  0  0  0  0
   63.6630 -136.1190   39.5280 O   0  0  0  0  0
   60.6030 -137.3790   39.4450 C   0  0  0  0  0
   59.3140 -137.1860   38.9330 C   0  0  0  0  0
   59.0320 -137.4900   37.6010 C   0  0  0  0  0
   58.3010 -136.6820   39.7510 C   0  0  0  0  0
   57.7500 -137.2960   37.0940 C   0  0  0  0  0
   57.0190 -136.4870   39.2430 C   0  0  0  0  0
   56.7430 -136.7970   37.9150 C   0  0  0  0  0
   62.3930 -135.8860   41.4120 N   0  0  0  0  0
   63.4880 -135.7160   42.3620 C   0  0  0  0  0
   63.3050 -134.2800   42.8290 C   0  0  0  0  0
   64.4170 -133.3180   42.3360 C   0  0  0  0  0
   63.8920 -131.8780   42.5020 C   0  0  0  0  0
   64.8580 -133.5240   40.8710 C   0  0  0  0  0
   63.3350 -136.6410   43.5860 C   0  0  0  0  0
   63.5490 -138.2400   43.3640 C   0  0  0  0  0
   64.3220 -138.5240   42.0390 C   0  0  0  0  0
   62.1760 -138.8960   43.1170 C   0  0  0  0  0
   61.3130 -138.5530   44.2190 O   0  0  0  0  0
   62.0190 -136.3990   44.1230 O   0  0  0  0  0
   57.3334 -137.1531   30.8786 H   0  0  0  0  0
   59.1051 -137.4675   30.5257 H   0  0  0  0  0
   57.6421 -137.3076   28.6642 H   0  0  0  0  0
   60.0437 -136.9602   28.5021 H   0  0  0  0  0
   59.7401 -135.2431   28.5915 H   0  0  0  0  0
   57.4416 -134.4126   29.1820 H   0  0  0  0  0
   56.1439 -135.5608   29.4335 H   0  0  0  0  0
   59.7862 -136.0607   26.1998 H   0  0  0  0  0
   58.4853 -137.1314   26.5305 H   0  0  0  0  0
   56.2954 -136.2811   27.1106 H   0  0  0  0  0
   56.0208 -134.5565   27.2069 H   0  0  0  0  0
   57.5362 -136.3914   32.8157 H   0  0  0  0  0
   58.5471 -133.6036   33.1624 H   0  0  0  0  0
   57.6277 -134.8146   35.5762 H   0  0  0  0  0
   56.5499 -135.3715   34.3092 H   0  0  0  0  0
   56.5949 -132.8728   33.4761 H   0  0  0  0  0
   57.2201 -132.5115   35.0899 H   0  0  0  0  0
   54.4537 -132.0863   33.4911 H   0  0  0  0  0
   55.8587 -134.5423   36.7269 H   0  0  0  0  0
   52.1527 -132.2288   34.3960 H   0  0  0  0  0
   53.5589 -134.6906   37.6213 H   0  0  0  0  0
   51.6954 -133.5238   36.4637 H   0  0  0  0  0
   59.8914 -133.1871   35.1050 H   0  0  0  0  0
   61.9382 -135.3431   35.4432 H   0  0  0  0  0
   62.8952 -133.1882   36.8403 H   0  0  0  0  0
   61.9144 -132.3691   35.6575 H   0  0  0  0  0
   63.6374 -134.7069   34.7344 H   0  0  0  0  0
   62.0052 -133.6608   33.1901 H   0  0  0  0  0
   62.7693 -132.0743   33.4551 H   0  0  0  0  0
   63.6758 -133.3747   32.6439 H   0  0  0  0  0
   64.6557 -131.8654   35.1613 H   0  0  0  0  0
   65.1659 -133.3056   36.0758 H   0  0  0  0  0
   65.5362 -133.1766   34.3388 H   0  0  0  0  0
   62.2318 -136.3249   37.3923 H   0  0  0  0  0
   60.5775 -135.3004   39.6963 H   0  0  0  0  0
   60.5816 -137.7185   40.4805 H   0  0  0  0  0
   61.1406 -138.1597   38.9069 H   0  0  0  0  0
   59.8181 -137.8808   36.9550 H   0  0  0  0  0
   58.5145 -136.4400   40.7921 H   0  0  0  0  0
   57.5346 -137.5352   36.0526 H   0  0  0  0  0
   56.2322 -136.0917   39.8855 H   0  0  0  0  0
   55.7388 -136.6492   37.5179 H   0  0  0  0  0
   61.4388 -135.8971   41.7721 H   0  0  0  0  0
   64.4550 -135.9430   41.9132 H   0  0  0  0  0
   63.3375 -134.2848   43.9185 H   0  0  0  0  0
   62.3598 -133.9223   42.4207 H   0  0  0  0  0
   65.3028 -133.5249   42.9366 H   0  0  0  0  0
   62.9873 -131.7516   41.9073 H   0  0  0  0  0
   63.6665 -131.6937   43.5524 H   0  0  0  0  0
   64.6523 -131.1742   42.1633 H   0  0  0  0  0
   65.2435 -134.5361   40.7479 H   0  0  0  0  0
   64.0028 -133.3768   40.2114 H   0  0  0  0  0
   65.6379 -132.8040   40.6230 H   0  0  0  0  0
   64.1550 -136.3836   44.2565 H   0  0  0  0  0
   64.0774 -138.6156   44.2402 H   0  0  0  0  0
   63.7551 -138.1271   41.1969 H   0  0  0  0  0
   65.2993 -138.0430   42.0797 H   0  0  0  0  0
   64.4498 -139.5997   41.9179 H   0  0  0  0  0
   62.2834 -139.9784   43.0459 H   0  0  0  0  0
   61.7505 -138.5369   42.1799 H   0  0  0  0  0
   60.4504 -138.9525   44.0849 H   0  0  0  0  0
   61.8804 -136.9576   44.8913 H   0  0  0  0  0
  1  2  2  0  0  0
  3  1  1  0  0  0
  1 10  1  0  0  0
  4  3  1  0  0  0
  6  4  1  0  0  0
  4  7  1  0  0  0
  8  5  1  0  0  0
  5  9  1  0  0  0
  6  8  1  0  0  0
  7  9  1  0  0  0
 10 11  1  0  0  0
 11 12  1  0  0  0
 11 14  1  0  0  0
 12 13  2  0  0  0
 12 22  1  0  0  0
 14 15  1  0  0  0
 15 16  1  0  0  0
 16 17  4  0  0  0
 16 18  4  0  0  0
 17 19  4  0  0  0
 18 20  4  0  0  0
 19 21  4  0  0  0
 20 21  4  0  0  0
 22 23  1  0  0  0
 23 24  1  0  0  0
 23 26  1  0  0  0
 24 25  2  0  0  0
 24 30  1  0  0  0
 26 27  1  0  0  0
 27 28  1  0  0  0
 27 29  1  0  0  0
 30 31  1  0  0  0
 31 32  1  0  0  0
 31 34  1  0  0  0
 32 33  2  0  0  0
 32 41  1  0  0  0
 34 35  1  0  0  0
 35 36  4  0  0  0
 35 37  4  0  0  0
 36 38  4  0  0  0
 37 39  4  0  0  0
 38 40  4  0  0  0
 39 40  4  0  0  0
 41 42  1  0  0  0
 42 43  1  0  0  0
 42 47  1  0  0  0
 43 44  1  0  0  0
 44 45  1  0  0  0
 44 46  1  0  0  0
 47 48  1  0  0  0
 47 52  1  0  0  0
 48 49  1  0  0  0
 48 50  1  0  0  0
 50 51  1  0  0  0
  3 53  1  0  0  0
  3 54  1  0  0  0
  4 55  1  0  0  0
  6 56  1  0  0  0
  6 57  1  0  0  0
  7 58  1  0  0  0
  7 59  1  0  0  0
  8 60  1  0  0  0
  8 61  1  0  0  0
  9 62  1  0  0  0
  9 63  1  0  0  0
 10 64  1  0  0  0
 11 65  1  0  0  0
 14 66  1  0  0  0
 14 67  1  0  0  0
 15 68  1  0  0  0
 15 69  1  0  0  0
 17 70  1  0  0  0
 18 71  1  0  0  0
 19 72  1  0  0  0
 20 73  1  0  0  0
 21 74  1  0  0  0
 22 75  1  0  0  0
 23 76  1  0  0  0
 26 77  1  0  0  0
 26 78  1  0  0  0
 27 79  1  0  0  0
 28 80  1  0  0  0
 28 81  1  0  0  0
 28 82  1  0  0  0
 29 83  1  0  0  0
 29 84  1  0  0  0
 29 85  1  0  0  0
 30 86  1  0  0  0
 31 87  1  0  0  0
 34 88  1  0  0  0
 34 89  1  0  0  0
 36 90  1  0  0  0
 37 91  1  0  0  0
 38 92  1  0  0  0
 39 93  1  0  0  0
 40 94  1  0  0  0
 41 95  1  0  0  0
 42 96  1  0  0  0
 43 97  1  0  0  0
 43 98  1  0  0  0
 44 99  1  0  0  0
 45100  1  0  0  0
 45101  1  0  0  0
 45102  1  0  0  0
 46103  1  0  0  0
 46104  1  0  0  0
 46105  1  0  0  0
 47106  1  0  0  0
 48107  1  0  0  0
 49108  1  0  0  0
 49109  1  0  0  0
 49110  1  0  0  0
 50111  1  0  0  0
 50112  1  0  0  0
 51113  1  0  0  0
 52114  1  0  0  0
M  END
$$$$
