### 
### Created by X-TOOL on Mon Sep 10 21:13:24 2018
### 

@<TRIPOS>MOLECULE
4qwl_ligand
  114   116     1     0     0
SMALL
GAST_HUCK


@<TRIPOS>ATOM
      1 C8         58.6590 -135.5540   31.3450 C.2       1 3BV         0.2238
      2 O9         59.3780 -134.6440   30.9330 O.2       1 3BV        -0.3910
      3 C7         58.2720 -136.7660   30.4820 C.3       1 3BV         0.0582
      4 N4         58.0430 -136.4550   29.0550 N.4       1 3BV         0.2552
      5 O1         58.0020 -135.1020   26.7420 O.3       1 3BV        -0.3693
      6 C5         59.2960 -136.1940   28.2970 C.3       1 3BV        -0.0060
      7 C3         57.0450 -135.3720   28.8500 C.3       1 3BV        -0.0060
      8 C6         58.9210 -136.1850   26.8510 C.3       1 3BV         0.0878
      9 C2         56.7430 -135.3410   27.4330 C.3       1 3BV         0.0878
     10 N10        58.1460 -135.6100   32.5750 N.am      1 3BV        -0.2611
     11 C11        58.4220 -134.5980   33.5910 C.3       1 3BV         0.1328
     12 C20        59.6800 -135.0590   34.3180 C.2       1 3BV         0.2041
     13 O21        60.0770 -136.2200   34.2090 O.2       1 3BV        -0.3944
     14 C12        57.2740 -134.5990   34.5680 C.3       1 3BV        -0.0027
     15 C13        56.6330 -133.2220   34.5080 C.3       1 3BV        -0.0149
     16 C14        55.3220 -133.3160   35.0370 C.ar      1 3BV        -0.0428
     17 C19        54.2640 -132.6620   34.3970 C.ar      1 3BV        -0.0603
     18 C15        55.0460 -134.0360   36.2060 C.ar      1 3BV        -0.0603
     19 C18        52.9680 -132.7400   34.9080 C.ar      1 3BV        -0.0686
     20 C16        53.7530 -134.1170   36.7150 C.ar      1 3BV        -0.0686
     21 C17        52.7090 -133.4660   36.0670 C.ar      1 3BV        -0.0687
     22 N22        60.2720 -134.1330   35.0760 N.am      1 3BV        -0.2637
     23 C23        61.4620 -134.4590   35.8670 C.3       1 3BV         0.1312
     24 C28        61.0270 -134.6730   37.3040 C.2       1 3BV         0.2040
     25 O29        60.2260 -133.9010   37.8320 O.2       1 3BV        -0.3944
     26 C24        62.4240 -133.3100   35.8650 C.3       1 3BV        -0.0101
     27 C25        63.4680 -133.6310   34.7770 C.3       1 3BV        -0.0425
     28 C26        62.9410 -133.1500   33.4170 C.3       1 3BV        -0.0625
     29 C27        64.8050 -132.9440   35.1130 C.3       1 3BV        -0.0625
     30 N30        61.5840 -135.7310   37.9100 N.am      1 3BV        -0.2619
     31 C31        61.2730 -136.0450   39.3090 C.3       1 3BV         0.1403
     32 C39        62.5740 -136.0280   40.0950 C.2       1 3BV         0.2040
     33 O40        63.6630 -136.1190   39.5280 O.2       1 3BV        -0.3943
     34 C32        60.6030 -137.3790   39.4450 C.3       1 3BV         0.0214
     35 C33        59.3140 -137.1860   38.9330 C.ar      1 3BV        -0.0386
     36 C34        59.0320 -137.4900   37.6010 C.ar      1 3BV        -0.0601
     37 C38        58.3010 -136.6820   39.7510 C.ar      1 3BV        -0.0601
     38 C35        57.7500 -137.2960   37.0940 C.ar      1 3BV        -0.0686
     39 C37        57.0190 -136.4870   39.2430 C.ar      1 3BV        -0.0686
     40 C36        56.7430 -136.7970   37.9150 C.ar      1 3BV        -0.0687
     41 N41        62.3930 -135.8860   41.4120 N.am      1 3BV        -0.2794
     42 C42        63.4880 -135.7160   42.3620 C.3       1 3BV         0.0685
     43 C43        63.3050 -134.2800   42.8290 C.3       1 3BV        -0.0251
     44 C44        64.4170 -133.3180   42.3360 C.3       1 3BV        -0.0446
     45 C45        63.8920 -131.8780   42.5020 C.3       1 3BV        -0.0626
     46 C46        64.8580 -133.5240   40.8710 C.3       1 3BV        -0.0626
     47 C47        63.3350 -136.6410   43.5860 C.3       1 3BV         0.0827
     48 C51        63.5490 -138.2400   43.3640 C.3       1 3BV         0.0075
     49 C58        64.3220 -138.5240   42.0390 C.3       1 3BV        -0.0579
     50 C59        62.1760 -138.8960   43.1170 C.3       1 3BV         0.0492
     51 O60        61.3130 -138.5530   44.2190 O.3       1 3BV        -0.3947
     52 O48        62.0190 -136.3990   44.1230 O.3       1 3BV        -0.3892
     53 H1         57.3473 -137.1984   30.8919 H         1 3BV         0.1063
     54 H2         59.0829 -137.5064   30.5463 H         1 3BV         0.1063
     55 H3         57.6412 -137.2875   28.6531 H         1 3BV         0.2054
     56 H4         60.0320 -136.9874   28.4940 H         1 3BV         0.0837
     57 H5         59.7196 -135.2209   28.5860 H         1 3BV         0.0837
     58 H6         57.4640 -134.4061   29.1687 H         1 3BV         0.0837
     59 H7         56.1326 -135.5842   29.4267 H         1 3BV         0.0837
     60 H8         59.8046 -136.0136   26.2187 H         1 3BV         0.0613
     61 H9         58.4436 -137.1337   26.5647 H         1 3BV         0.0613
     62 H10        56.3131 -136.3026   27.1159 H         1 3BV         0.0613
     63 H11        56.0311 -134.5313   27.2148 H         1 3BV         0.0613
     64 H12        57.5481 -136.3761   32.8110 H         1 3BV         0.1884
     65 H13        58.5591 -133.6026   33.1433 H         1 3BV         0.0801
     66 H14        57.6441 -134.7986   35.5845 H         1 3BV         0.0334
     67 H15        56.5404 -135.3689   34.2870 H         1 3BV         0.0334
     68 H16        56.5886 -132.8779   33.4642 H         1 3BV         0.0428
     69 H17        57.2239 -132.5108   35.1038 H         1 3BV         0.0428
     70 H18        54.4527 -132.0895   33.4960 H         1 3BV         0.0557
     71 H19        55.8542 -134.5395   36.7240 H         1 3BV         0.0557
     72 H20        52.1572 -132.2317   34.3988 H         1 3BV         0.0599
     73 H21        53.5599 -134.6874   37.6163 H         1 3BV         0.0599
     74 H22        51.7010 -133.5235   36.4615 H         1 3BV         0.0559
     75 H23        59.8989 -133.2056   35.1044 H         1 3BV         0.1883
     76 H24        61.9459 -135.3622   35.4670 H         1 3BV         0.0800
     77 H25        62.9113 -133.2179   36.8468 H         1 3BV         0.0315
     78 H26        61.8995 -132.3729   35.6266 H         1 3BV         0.0315
     79 H27        63.6263 -134.7188   34.7370 H         1 3BV         0.0298
     80 H28        63.6818 -133.3762   32.6359 H         1 3BV         0.0232
     81 H29        62.7673 -132.0644   33.4541 H         1 3BV         0.0232
     82 H30        61.9966 -133.6648   33.1868 H         1 3BV         0.0232
     83 H31        65.1655 -133.3010   36.0890 H         1 3BV         0.0232
     84 H32        64.6577 -131.8546   35.1527 H         1 3BV         0.0232
     85 H33        65.5466 -133.1858   34.3374 H         1 3BV         0.0232
     86 H34        62.2191 -136.3132   37.4024 H         1 3BV         0.1885
     87 H35        60.5981 -135.2729   39.7070 H         1 3BV         0.0823
     88 H36        60.5588 -137.6845   40.5008 H         1 3BV         0.0474
     89 H37        61.1401 -138.1434   38.8643 H         1 3BV         0.0474
     90 H38        59.8138 -137.8786   36.9585 H         1 3BV         0.0557
     91 H39        58.5133 -136.4413   40.7864 H         1 3BV         0.0557
     92 H40        57.5358 -137.5339   36.0583 H         1 3BV         0.0599
     93 H41        56.2365 -136.0939   39.8820 H         1 3BV         0.0599
     94 H42        55.7443 -136.6500   37.5200 H         1 3BV         0.0559
     95 H43        61.4575 -135.8968   41.7651 H         1 3BV         0.1856
     96 H44        64.4647 -135.8756   41.8818 H         1 3BV         0.0582
     97 H45        63.3000 -134.2704   43.9289 H         1 3BV         0.0291
     98 H46        62.3377 -133.9136   42.4547 H         1 3BV         0.0291
     99 H47        65.3000 -133.4599   42.9764 H         1 3BV         0.0296
    100 H48        64.6584 -131.1667   42.1605 H         1 3BV         0.0232
    101 H49        63.6641 -131.6907   43.5617 H         1 3BV         0.0232
    102 H50        62.9790 -131.7491   41.9022 H         1 3BV         0.0232
    103 H51        65.2346 -134.5495   40.7422 H         1 3BV         0.0232
    104 H52        65.6548 -132.8071   40.6236 H         1 3BV         0.0232
    105 H53        63.9990 -133.3623   40.2033 H         1 3BV         0.0232
    106 H54        64.0840 -136.3244   44.3268 H         1 3BV         0.0620
    107 H55        64.0634 -138.6800   44.2311 H         1 3BV         0.0346
    108 H56        64.4517 -139.6093   41.9156 H         1 3BV         0.0234
    109 H57        65.3085 -138.0391   42.0789 H         1 3BV         0.0234
    110 H58        63.7509 -138.1239   41.1883 H         1 3BV         0.0234
    111 H59        62.2896 -139.9885   43.0581 H         1 3BV         0.0560
    112 H60        61.7469 -138.5207   42.1763 H         1 3BV         0.0560
    113 H61        61.2219 -137.6086   44.2664 H         1 3BV         0.2094
    114 H62        61.9302 -136.8484   44.9552 H         1 3BV         0.2099
@<TRIPOS>BOND
     1    1    2 2  
     2    3    1 1  
     3    1   10 am 
     4    4    3 1  
     5    6    4 1  
     6    4    7 1  
     7    8    5 1  
     8    5    9 1  
     9    6    8 1  
    10    7    9 1  
    11   10   11 1  
    12   11   12 1  
    13   11   14 1  
    14   12   13 2  
    15   12   22 am 
    16   14   15 1  
    17   15   16 1  
    18   16   17 ar 
    19   16   18 ar 
    20   17   19 ar 
    21   18   20 ar 
    22   19   21 ar 
    23   20   21 ar 
    24   22   23 1  
    25   23   24 1  
    26   23   26 1  
    27   24   25 2  
    28   24   30 am 
    29   26   27 1  
    30   27   28 1  
    31   27   29 1  
    32   30   31 1  
    33   31   32 1  
    34   31   34 1  
    35   32   33 2  
    36   32   41 am 
    37   34   35 1  
    38   35   36 ar 
    39   35   37 ar 
    40   36   38 ar 
    41   37   39 ar 
    42   38   40 ar 
    43   39   40 ar 
    44   41   42 1  
    45   42   43 1  
    46   42   47 1  
    47   43   44 1  
    48   44   45 1  
    49   44   46 1  
    50   47   48 1  
    51   47   52 1  
    52   48   49 1  
    53   48   50 1  
    54   50   51 1  
    55    3   53 1  
    56    3   54 1  
    57    4   55 1  
    58    6   56 1  
    59    6   57 1  
    60    7   58 1  
    61    7   59 1  
    62    8   60 1  
    63    8   61 1  
    64    9   62 1  
    65    9   63 1  
    66   10   64 1  
    67   11   65 1  
    68   14   66 1  
    69   14   67 1  
    70   15   68 1  
    71   15   69 1  
    72   17   70 1  
    73   18   71 1  
    74   19   72 1  
    75   20   73 1  
    76   21   74 1  
    77   22   75 1  
    78   23   76 1  
    79   26   77 1  
    80   26   78 1  
    81   27   79 1  
    82   28   80 1  
    83   28   81 1  
    84   28   82 1  
    85   29   83 1  
    86   29   84 1  
    87   29   85 1  
    88   30   86 1  
    89   31   87 1  
    90   34   88 1  
    91   34   89 1  
    92   36   90 1  
    93   37   91 1  
    94   38   92 1  
    95   39   93 1  
    96   40   94 1  
    97   41   95 1  
    98   42   96 1  
    99   43   97 1  
   100   43   98 1  
   101   44   99 1  
   102   45  100 1  
   103   45  101 1  
   104   45  102 1  
   105   46  103 1  
   106   46  104 1  
   107   46  105 1  
   108   47  106 1  
   109   48  107 1  
   110   49  108 1  
   111   49  109 1  
   112   49  110 1  
   113   50  111 1  
   114   50  112 1  
   115   51  113 1  
   116   52  114 1  
@<TRIPOS>SUBSTRUCTURE
     1 3BV         1

