5hrx_ligand
  -I-interpret- 

 31 33  0  0  0  0  0  0  0  0999 V2000
   14.8720   -9.3030   -7.6140 C   0  0  0  0  0
   14.3780   -9.3520   -8.8970 C   0  0  0  0  0
   14.6350   -8.3890   -9.9220 C   0  0  0  0  0
   14.0960   -8.4720  -11.2090 C   0  0  0  0  0
   13.2060   -9.5090  -11.5310 C   0  0  0  0  0
   12.9260  -10.4430  -10.5380 C   0  0  0  0  0
   13.4630  -10.3990   -9.2440 C   0  0  0  0  0
   13.1660  -11.3780   -8.2870 C   0  0  0  0  0
   12.3940  -12.3350   -8.4760 O   0  0  0  0  0
   13.6580  -11.2930   -7.0770 O   0  0  0  0  0
   14.4860  -10.2600   -6.7250 C   0  0  0  0  0
   15.0920  -10.0810   -5.5760 N   0  0  0  0  0
   15.8100   -9.0210   -5.6530 N   0  0  0  0  0
   15.7140   -8.5240   -6.8620 C   0  0  0  0  0
   16.4940   -7.2790   -7.2510 C   0  0  0  0  0
   17.1750   -6.7470   -5.9800 C   0  0  0  0  0
   18.0920   -5.5860   -6.3710 C   0  0  0  0  0
   18.6890   -4.9750   -5.0910 C   0  0  0  0  0
   15.2852   -7.5461   -9.6876 H   0  0  0  0  0
   14.3665   -7.7320  -11.9622 H   0  0  0  0  0
   12.7523   -9.5798  -12.5196 H   0  0  0  0  0
   12.2466  -11.2598  -10.7818 H   0  0  0  0  0
   15.8269   -6.5260   -7.6706 H   0  0  0  0  0
   17.2376   -7.5164   -8.0118 H   0  0  0  0  0
   17.7574   -7.5395   -5.5101 H   0  0  0  0  0
   16.4224   -6.4042   -5.2700 H   0  0  0  0  0
   17.5219   -4.8299   -6.9108 H   0  0  0  0  0
   18.8924   -5.9479   -7.0163 H   0  0  0  0  0
   17.8831   -4.6120   -4.4531 H   0  0  0  0  0
   19.2605   -5.7357   -4.5592 H   0  0  0  0  0
   19.3447   -4.1460   -5.3573 H   0  0  0  0  0
  1  2  1  0  0  0
  1 11  4  0  0  0
  1 14  4  0  0  0
  2  3  4  0  0  0
  2  7  4  0  0  0
  3  4  4  0  0  0
  4  5  4  0  0  0
  5  6  4  0  0  0
  6  7  4  0  0  0
  7  8  1  0  0  0
  8  9  2  0  0  0
  8 10  1  0  0  0
 10 11  1  0  0  0
 11 12  4  0  0  0
 12 13  4  0  0  0
 13 14  4  0  0  0
 14 15  1  0  0  0
 15 16  1  0  0  0
 16 17  1  0  0  0
 17 18  1  0  0  0
  3 19  1  0  0  0
  4 20  1  0  0  0
  5 21  1  0  0  0
  6 22  1  0  0  0
 15 23  1  0  0  0
 15 24  1  0  0  0
 16 25  1  0  0  0
 16 26  1  0  0  0
 17 27  1  0  0  0
 17 28  1  0  0  0
 18 29  1  0  0  0
 18 30  1  0  0  0
 18 31  1  0  0  0
M  END
$$$$
