4um1_ligand
  -I-interpret- 

 36 37  0  0  0  0  0  0  0  0999 V2000
   14.2820   30.5390  -15.2490 C   0  0  0  0  0
   14.1880   31.3740  -14.0170 N   0  3  0  0  0
   15.3010   31.3400  -13.0270 C   0  0  0  0  0
   16.5360   32.1270  -13.5100 C   0  0  0  0  0
   17.0910   31.6070  -14.8430 C   0  0  0  0  0
   16.2180   32.0900  -15.9230 N   0  0  0  0  0
   15.2610   31.0360  -16.3450 C   0  0  0  0  0
   16.9000   35.6300  -18.0660 C   0  0  0  0  0
   17.8360   35.2440  -17.0910 C   0  0  0  0  0
   17.6020   34.0390  -16.3540 C   0  0  0  0  0
   16.4550   33.2470  -16.6070 C   0  0  0  0  0
   15.6030   33.7560  -17.6260 C   0  0  0  0  0
   15.8120   34.8990  -18.3330 N   0  0  0  0  0
   18.9090   36.0880  -16.8670 O   0  0  0  0  0
   18.8680   36.7500  -15.5980 C   0  0  0  0  0
   20.2720   36.7480  -15.0130 C   0  0  0  0  0
   13.2899   30.5521  -15.7003 H   0  0  0  0  0
   14.6549   29.5664  -14.9281 H   0  0  0  0  0
   13.3805   31.0063  -13.5140 H   0  0  0  0  0
   14.1693   32.3361  -14.3551 H   0  0  0  0  0
   15.5962   30.3004  -12.8848 H   0  0  0  0  0
   14.9471   31.7984  -12.1036 H   0  0  0  0  0
   17.3170   32.0157  -12.7579 H   0  0  0  0  0
   16.2338   33.1639  -13.6568 H   0  0  0  0  0
   17.1153   30.5173  -14.8395 H   0  0  0  0  0
   18.1081   31.9693  -14.9926 H   0  0  0  0  0
   14.6470   31.4736  -17.1322 H   0  0  0  0  0
   15.8604   30.1739  -16.6377 H   0  0  0  0  0
   17.0658   36.5531  -18.6214 H   0  0  0  0  0
   18.3142   33.7276  -15.5899 H   0  0  0  0  0
   14.7068   33.1814  -17.8601 H   0  0  0  0  0
   18.1828   36.2313  -14.9276 H   0  0  0  0  0
   18.5159   37.7741  -15.7217 H   0  0  0  0  0
   20.6107   35.7195  -14.8881 H   0  0  0  0  0
   20.9464   37.2745  -15.6884 H   0  0  0  0  0
   20.2615   37.2486  -14.0448 H   0  0  0  0  0
  1  2  1  0  0  0
  7  1  1  0  0  0
  2  3  1  0  0  0
  4  3  1  0  0  0
  5  4  1  0  0  0
  6  5  1  0  0  0
  6  7  1  0  0  0
 11  6  1  0  0  0
  9  8  4  0  0  0
  8 13  4  0  0  0
 10  9  4  0  0  0
  9 14  1  0  0  0
 10 11  4  0  0  0
 11 12  4  0  0  0
 12 13  4  0  0  0
 14 15  1  0  0  0
 15 16  1  0  0  0
  1 17  1  0  0  0
  1 18  1  0  0  0
  2 19  1  0  0  0
  2 20  1  0  0  0
  3 21  1  0  0  0
  3 22  1  0  0  0
  4 23  1  0  0  0
  4 24  1  0  0  0
  5 25  1  0  0  0
  5 26  1  0  0  0
  7 27  1  0  0  0
  7 28  1  0  0  0
  8 29  1  0  0  0
 10 30  1  0  0  0
 12 31  1  0  0  0
 15 32  1  0  0  0
 15 33  1  0  0  0
 16 34  1  0  0  0
 16 35  1  0  0  0
 16 36  1  0  0  0
M  END
$$$$
