3jqa_ligand
  -I-interpret- 

 15 16  0  0  0  0  0  0  0  0999 V2000
    8.2050   -9.7000   14.9700 C   0  0  0  0  0
    8.3280  -11.0020   14.5020 C   0  0  0  0  0
    9.5880  -11.4330   14.0690 C   0  0  0  0  0
    6.2740  -10.6440   15.1110 C   0  0  0  0  0
   10.6650  -10.6100   14.1310 N   0  0  0  0  0
   11.5060   -8.4890   14.6750 N   0  0  0  0  0
    9.3010   -8.9360   15.0130 N   0  0  0  0  0
   10.5020   -9.3530   14.5970 C   0  0  0  0  0
    6.9400   -9.5010   15.3480 N   0  0  0  0  0
    7.1160  -11.5620   14.5980 N   0  0  0  0  0
    9.8090  -13.0670   13.4610 S   0  0  0  0  0
    5.2133  -10.8040   15.3045 H   0  0  0  0  0
   12.4414   -8.7659   14.3771 H   0  0  0  0  0
   11.3424   -7.5480   15.0329 H   0  0  0  0  0
   11.0809  -13.2407   13.1132 H   0  0  0  0  0
  1  2  4  0  0  0
  1  7  4  0  0  0
  1  9  4  0  0  0
  2  3  4  0  0  0
  2 10  4  0  0  0
  3  5  4  0  0  0
  3 11  1  0  0  0
  9  4  4  0  0  0
  4 10  4  0  0  0
  5  8  4  0  0  0
  8  6  1  0  0  0
  7  8  4  0  0  0
  4 12  1  0  0  0
  6 13  1  0  0  0
  6 14  1  0  0  0
 11 15  1  0  0  0
M  END
$$$$
