### 
### Created by X-TOOL on Mon Sep 10 21:13:16 2018
### 

@<TRIPOS>MOLECULE
2m0u_ligand
   89    88     1     0     0
SMALL
GAST_HUCK


@<TRIPOS>ATOM
      1 N         -18.4420   24.4030    0.9410 N.4       1 GLN         0.2380
      2 CA        -18.2860   24.3360   -0.5300 C.3       1 GLN         0.0671
      3 C         -17.2800   23.2530   -0.8880 C.2       1 GLN         0.2269
      4 O         -16.3570   23.4810   -1.6770 O.2       1 GLN        -0.3907
      5 CB        -17.8040   25.6830   -1.0770 C.3       1 GLN         0.0247
      6 CG        -18.6750   26.8620   -0.6780 C.3       1 GLN         0.0443
      7 CD        -18.1190   28.1800   -1.1740 C.2       1 GLN         0.1738
      8 OE1       -16.9070   28.3330   -1.3350 O.2       1 GLN        -0.3973
      9 NE2       -18.9930   29.1400   -1.4110 N.am      1 GLN        -0.3009
     10 N         -17.4670   22.0760   -0.2910 N.am      1 ASP        -0.2595
     11 CA        -16.5380   20.9550   -0.4310 C.3       1 ASP         0.1424
     12 C         -15.1900   21.3220    0.1770 C.2       1 ASP         0.2057
     13 O         -15.0580   22.3440    0.8560 O.2       1 ASP        -0.3943
     14 CB        -16.3570   20.5420   -1.9000 C.3       1 ASP         0.0406
     15 CG        -17.6670   20.2240   -2.5930 C.2       1 ASP         0.0393
     16 OD1       -18.5560   19.6230   -1.9590 O.co2     1 ASP        -0.5688
     17 OD2       -17.8220   20.5940   -3.7760 O.co2     1 ASP        -0.5688
     18 N         -14.1980   20.4800   -0.0400 N.am      1 THR        -0.2612
     19 CA        -12.8560   20.7500    0.4420 C.3       1 THR         0.1565
     20 C         -11.8320   20.3460   -0.6090 C.2       1 THR         0.2065
     21 O         -11.7760   19.1840   -1.0160 O.2       1 THR        -0.3943
     22 CB        -12.5830   19.9970    1.7580 C.3       1 THR         0.0924
     23 OG1       -13.6350   20.2770    2.6950 O.3       1 THR        -0.3874
     24 CG2       -11.2440   20.4080    2.3560 C.3       1 THR        -0.0346
     25 N         -11.0420   21.3080   -1.0630 N.am      1 ARG        -0.2637
     26 CA        -10.0740   21.0540   -2.1180 C.3       1 ARG         0.1310
     27 C          -8.7450   20.5950   -1.5320 C.2       1 ARG         0.2033
     28 O          -8.2490   21.1630   -0.5550 O.2       1 ARG        -0.3944
     29 CB         -9.8600   22.3110   -2.9660 C.3       1 ARG        -0.0092
     30 CG         -9.1470   22.0460   -4.2860 C.3       1 ARG        -0.0156
     31 CD         -7.9320   22.9450   -4.4580 C.3       1 ARG         0.0627
     32 NE         -6.8320   22.5500   -3.5820 N.pl3     1 ARG        -0.2723
     33 CZ         -6.2200   23.3680   -2.7280 C.cat     1 ARG         0.2882
     34 NH1        -6.6010   24.6320   -2.6040 N.pl3     1 ARG        -0.2849
     35 NH2        -5.2150   22.9120   -1.9950 N.pl3     1 ARG        -0.2849
     36 N          -8.1920   19.5530   -2.1200 N.am      1 LEU        -0.2695
     37 CA         -6.8920   19.0510   -1.7310 C.3       1 LEU         0.0946
     38 C          -5.8990   19.2430   -2.8650 C.2       1 LEU         0.0601
     39 O          -5.2270   20.2940   -2.8960 O.co2     1 LEU        -0.5666
     40 CB         -7.0020   17.5790   -1.3410 C.3       1 LEU        -0.0156
     41 CG         -7.3680   17.3410    0.1210 C.3       1 LEU        -0.0431
     42 CD1        -8.1400   16.0460    0.2820 C.3       1 LEU        -0.0625
     43 CD2        -6.1080   17.3070    0.9650 C.3       1 LEU        -0.0625
     44 OXT        -5.8140   18.3580   -3.7340 O.co2     1 LEU        -0.5666
     45 H1        -19.1091   25.1213    1.1757 H         1 GLN         0.2015
     46 H2        -17.5528   24.6192    1.3637 H         1 GLN         0.2015
     47 H3        -18.7704   23.5142    1.2849 H         1 GLN         0.2015
     48 H4        -19.2580   24.0913   -0.9832 H         1 GLN         0.1100
     49 H5        -17.7856   25.6232   -2.1752 H         1 GLN         0.0370
     50 H6        -16.7856   25.8635   -0.7024 H         1 GLN         0.0370
     51 H7        -18.7423   26.8969    0.4194 H         1 GLN         0.0506
     52 H8        -19.6797   26.7195   -1.1027 H         1 GLN         0.0506
     53 H9        -18.6801   30.0309   -1.7402 H         1 GLN         0.1814
     54 H10       -19.9681   28.9765   -1.2614 H         1 GLN         0.1814
     55 H11       -18.2797   21.9538    0.2787 H         1 ASP         0.1886
     56 H12       -16.9493   20.0960    0.1194 H         1 ASP         0.0819
     57 H13       -15.7158   19.6490   -1.9363 H         1 ASP         0.0478
     58 H14       -15.8674   21.3671   -2.4381 H         1 ASP         0.0478
     59 H15       -14.3746   19.6369   -0.5479 H         1 THR         0.1884
     60 H16       -12.7623   21.8297    0.6301 H         1 THR         0.0826
     61 H17       -12.5623   18.9168    1.5514 H         1 THR         0.0639
     62 H18       -13.4666   19.8126    3.5065 H         1 THR         0.2101
     63 H19       -11.0758   19.8560    3.2925 H         1 THR         0.0257
     64 H20       -11.2511   21.4882    2.5634 H         1 THR         0.0257
     65 H21       -10.4380   20.1765    1.6442 H         1 THR         0.0257
     66 H22       -11.1128   22.2260   -0.6728 H         1 ARG         0.1883
     67 H23       -10.4663   20.2559   -2.7654 H         1 ARG         0.0800
     68 H24        -9.2584   23.0244   -2.3837 H         1 ARG         0.0313
     69 H25       -10.8430   22.7534   -3.1852 H         1 ARG         0.0313
     70 H26        -9.8477   22.2312   -5.1134 H         1 ARG         0.0301
     71 H27        -8.8201   20.9960   -4.3104 H         1 ARG         0.0301
     72 H28        -8.2197   23.9802   -4.2223 H         1 ARG         0.0689
     73 H29        -7.5924   22.8875   -5.5027 H         1 ARG         0.0689
     74 H30        -6.5080   21.5734   -3.6279 H         1 ARG         0.2642
     75 H31        -6.1178   25.2527   -1.9390 H         1 ARG         0.2615
     76 H32        -7.3802   24.9932   -3.1726 H         1 ARG         0.2615
     77 H33        -4.9143   21.9312   -2.0867 H         1 ARG         0.2615
     78 H34        -4.7344   23.5383   -1.3335 H         1 ARG         0.2615
     79 H35        -8.6867   19.0948   -2.8585 H         1 LEU         0.1875
     80 H36        -6.5395   19.6195   -0.8577 H         1 LEU         0.0726
     81 H37        -6.0322   17.0979   -1.5357 H         1 LEU         0.0308
     82 H38        -7.7752   17.1132   -1.9696 H         1 LEU         0.0308
     83 H39        -8.0022   18.1716    0.4644 H         1 LEU         0.0297
     84 H40        -8.3911   15.8983    1.3427 H         1 LEU         0.0232
     85 H41        -7.5235   15.2055   -0.0693 H         1 LEU         0.0232
     86 H42        -9.0655   16.0947   -0.3105 H         1 LEU         0.0232
     87 H43        -5.5573   18.2509    0.8398 H         1 LEU         0.0232
     88 H44        -5.4741   16.4673    0.6439 H         1 LEU         0.0232
     89 H45        -6.3789   17.1782    2.0233 H         1 LEU         0.0232
@<TRIPOS>BOND
     1    1    2 1  
     2    2    3 1  
     3    2    5 1  
     4    3    4 2  
     5    3   10 am 
     6    5    6 1  
     7    6    7 1  
     8    7    8 2  
     9    7    9 am 
    10   10   11 1  
    11   11   12 1  
    12   11   14 1  
    13   12   13 2  
    14   12   18 am 
    15   14   15 1  
    16   15   16 ar 
    17   15   17 ar 
    18   18   19 1  
    19   19   20 1  
    20   19   22 1  
    21   20   21 2  
    22   20   25 am 
    23   22   23 1  
    24   22   24 1  
    25   25   26 1  
    26   26   27 1  
    27   26   29 1  
    28   27   28 2  
    29   27   36 am 
    30   29   30 1  
    31   30   31 1  
    32   31   32 1  
    33   32   33 ar 
    34   33   34 ar 
    35   33   35 ar 
    36   36   37 1  
    37   37   38 1  
    38   37   40 1  
    39   38   39 ar 
    40   38   44 ar 
    41   40   41 1  
    42   41   42 1  
    43   41   43 1  
    44    1   45 1  
    45    1   46 1  
    46    1   47 1  
    47    2   48 1  
    48    5   49 1  
    49    5   50 1  
    50    6   51 1  
    51    6   52 1  
    52    9   53 1  
    53    9   54 1  
    54   10   55 1  
    55   11   56 1  
    56   14   57 1  
    57   14   58 1  
    58   18   59 1  
    59   19   60 1  
    60   22   61 1  
    61   23   62 1  
    62   24   63 1  
    63   24   64 1  
    64   24   65 1  
    65   25   66 1  
    66   26   67 1  
    67   29   68 1  
    68   29   69 1  
    69   30   70 1  
    70   30   71 1  
    71   31   72 1  
    72   31   73 1  
    73   32   74 1  
    74   34   75 1  
    75   34   76 1  
    76   35   77 1  
    77   35   78 1  
    78   36   79 1  
    79   37   80 1  
    80   40   81 1  
    81   40   82 1  
    82   41   83 1  
    83   42   84 1  
    84   42   85 1  
    85   42   86 1  
    86   43   87 1  
    87   43   88 1  
    88   43   89 1  
@<TRIPOS>SUBSTRUCTURE
     1 GLN         1

