2m0u_ligand
  -I-interpret- 

 90 89  0  0  0  0  0  0  0  0999 V2000
  -18.4420   24.4030    0.9410 N   0  3  0  0  0
  -18.2860   24.3360   -0.5300 C   0  0  0  0  0
  -17.2800   23.2530   -0.8880 C   0  0  0  0  0
  -16.3570   23.4810   -1.6770 O   0  0  0  0  0
  -17.8040   25.6830   -1.0770 C   0  0  0  0  0
  -18.6750   26.8620   -0.6780 C   0  0  0  0  0
  -18.1190   28.1800   -1.1740 C   0  0  0  0  0
  -16.9070   28.3330   -1.3350 O   0  0  0  0  0
  -18.9930   29.1400   -1.4110 N   0  0  0  0  0
  -17.4670   22.0760   -0.2910 N   0  0  0  0  0
  -16.5380   20.9550   -0.4310 C   0  0  0  0  0
  -15.1900   21.3220    0.1770 C   0  0  0  0  0
  -15.0580   22.3440    0.8560 O   0  0  0  0  0
  -16.3570   20.5420   -1.9000 C   0  0  0  0  0
  -17.6670   20.2240   -2.5930 C   0  0  0  0  0
  -18.5560   19.6230   -1.9590 O   0  0  0  0  0
  -17.8220   20.5940   -3.7760 O   0  0  0  0  0
  -14.1980   20.4800   -0.0400 N   0  0  0  0  0
  -12.8560   20.7500    0.4420 C   0  0  0  0  0
  -11.8320   20.3460   -0.6090 C   0  0  0  0  0
  -11.7760   19.1840   -1.0160 O   0  0  0  0  0
  -12.5830   19.9970    1.7580 C   0  0  0  0  0
  -13.6350   20.2770    2.6950 O   0  0  0  0  0
  -11.2440   20.4080    2.3560 C   0  0  0  0  0
  -11.0420   21.3080   -1.0630 N   0  0  0  0  0
  -10.0740   21.0540   -2.1180 C   0  0  0  0  0
   -8.7450   20.5950   -1.5320 C   0  0  0  0  0
   -8.2490   21.1630   -0.5550 O   0  0  0  0  0
   -9.8600   22.3110   -2.9660 C   0  0  0  0  0
   -9.1470   22.0460   -4.2860 C   0  0  0  0  0
   -7.9320   22.9450   -4.4580 C   0  0  0  0  0
   -6.8320   22.5500   -3.5820 N   0  0  0  0  0
   -6.2200   23.3680   -2.7280 C   0  0  0  0  0
   -6.6010   24.6320   -2.6040 N   0  0  0  0  0
   -5.2150   22.9120   -1.9950 N   0  0  0  0  0
   -8.1920   19.5530   -2.1200 N   0  0  0  0  0
   -6.8920   19.0510   -1.7310 C   0  0  0  0  0
   -5.8990   19.2430   -2.8650 C   0  0  0  0  0
   -5.2270   20.2940   -2.8960 O   0  0  0  0  0
   -7.0020   17.5790   -1.3410 C   0  0  0  0  0
   -7.3680   17.3410    0.1210 C   0  0  0  0  0
   -8.1400   16.0460    0.2820 C   0  0  0  0  0
   -6.1080   17.3070    0.9650 C   0  0  0  0  0
   -5.8140   18.3580   -3.7340 O   0  0  0  0  0
  -18.7630   23.4996    1.2892 H   0  0  0  0  0
  -17.5442   24.6333    1.3668 H   0  0  0  0  0
  -19.1259   25.1221    1.1768 H   0  0  0  0  0
  -19.2526   24.1000   -0.9750 H   0  0  0  0  0
  -17.8292   25.6170   -2.1647 H   0  0  0  0  0
  -16.8109   25.8617   -0.6648 H   0  0  0  0  0
  -18.7153   26.8999    0.4106 H   0  0  0  0  0
  -19.6599   26.7212   -1.1232 H   0  0  0  0  0
  -18.6733   30.0508   -1.7406 H   0  0  0  0  0
  -19.9882   28.9712   -1.2646 H   0  0  0  0  0
  -18.2960   21.9514    0.2901 H   0  0  0  0  0
  -16.9617   20.1032    0.1010 H   0  0  0  0  0
  -15.7450   19.6402   -1.9179 H   0  0  0  0  0
  -15.8985   21.3795   -2.4258 H   0  0  0  0  0
  -17.0252   21.0354   -4.0791 H   0  0  0  0  0
  -14.3782   19.6200   -0.5581 H   0  0  0  0  0
  -12.7710   21.8197    0.6336 H   0  0  0  0  0
  -12.5489   18.9287    1.5443 H   0  0  0  0  0
  -13.4649   19.8078    3.5150 H   0  0  0  0  0
  -10.4462   20.1782    1.6497 H   0  0  0  0  0
  -11.2523   21.4785    2.5610 H   0  0  0  0  0
  -11.0785   19.8604    3.2838 H   0  0  0  0  0
  -11.1142   22.2444   -0.6650 H   0  0  0  0  0
  -10.4696   20.2615   -2.7532 H   0  0  0  0  0
   -9.2337   22.9908   -2.3883 H   0  0  0  0  0
  -10.8441   22.7155   -3.2029 H   0  0  0  0  0
   -9.8431   22.2492   -5.0997 H   0  0  0  0  0
   -8.8113   21.0090   -4.2934 H   0  0  0  0  0
   -8.2226   23.9640   -4.2026 H   0  0  0  0  0
   -7.5917   22.8649   -5.4904 H   0  0  0  0  0
   -6.5112   21.5828   -3.6275 H   0  0  0  0  0
   -6.1210   25.2472   -1.9471 H   0  0  0  0  0
   -7.3741   24.9891   -3.1655 H   0  0  0  0  0
   -4.9158   21.9413   -2.0874 H   0  0  0  0  0
   -8.6966   19.0857   -2.8732 H   0  0  0  0  0
   -6.5314   19.6092   -0.8670 H   0  0  0  0  0
   -5.4464   20.8354   -2.1342 H   0  0  0  0  0
   -6.0217   17.1308   -1.5028 H   0  0  0  0  0
   -7.7994   17.1464   -1.9452 H   0  0  0  0  0
   -8.0053   18.1591    0.4566 H   0  0  0  0  0
   -9.0567   16.0955   -0.3056 H   0  0  0  0  0
   -7.5281   15.2140   -0.0664 H   0  0  0  0  0
   -8.3882   15.9008    1.3334 H   0  0  0  0  0
   -5.4615   16.5009    0.6181 H   0  0  0  0  0
   -5.5850   18.2589    0.8733 H   0  0  0  0  0
   -6.3753   17.1368    2.0079 H   0  0  0  0  0
  1  2  1  0  0  0
  2  3  1  0  0  0
  2  5  1  0  0  0
  3  4  2  0  0  0
  3 10  1  0  0  0
  5  6  1  0  0  0
  6  7  1  0  0  0
  7  8  2  0  0  0
  7  9  1  0  0  0
 10 11  1  0  0  0
 11 12  1  0  0  0
 11 14  1  0  0  0
 12 13  2  0  0  0
 12 18  1  0  0  0
 14 15  1  0  0  0
 15 16  2  0  0  0
 15 17  1  0  0  0
 18 19  1  0  0  0
 19 20  1  0  0  0
 19 22  1  0  0  0
 20 21  2  0  0  0
 20 25  1  0  0  0
 22 23  1  0  0  0
 22 24  1  0  0  0
 25 26  1  0  0  0
 26 27  1  0  0  0
 26 29  1  0  0  0
 27 28  2  0  0  0
 27 36  1  0  0  0
 29 30  1  0  0  0
 30 31  1  0  0  0
 31 32  1  0  0  0
 32 33  1  0  0  0
 33 34  1  0  0  0
 33 35  2  0  0  0
 36 37  1  0  0  0
 37 38  1  0  0  0
 37 40  1  0  0  0
 38 39  1  0  0  0
 38 44  2  0  0  0
 40 41  1  0  0  0
 41 42  1  0  0  0
 41 43  1  0  0  0
  1 45  1  0  0  0
  1 46  1  0  0  0
  1 47  1  0  0  0
  2 48  1  0  0  0
  5 49  1  0  0  0
  5 50  1  0  0  0
  6 51  1  0  0  0
  6 52  1  0  0  0
  9 53  1  0  0  0
  9 54  1  0  0  0
 10 55  1  0  0  0
 11 56  1  0  0  0
 14 57  1  0  0  0
 14 58  1  0  0  0
 17 59  1  0  0  0
 18 60  1  0  0  0
 19 61  1  0  0  0
 22 62  1  0  0  0
 23 63  1  0  0  0
 24 64  1  0  0  0
 24 65  1  0  0  0
 24 66  1  0  0  0
 25 67  1  0  0  0
 26 68  1  0  0  0
 29 69  1  0  0  0
 29 70  1  0  0  0
 30 71  1  0  0  0
 30 72  1  0  0  0
 31 73  1  0  0  0
 31 74  1  0  0  0
 32 75  1  0  0  0
 34 76  1  0  0  0
 34 77  1  0  0  0
 35 78  1  0  0  0
 36 79  1  0  0  0
 37 80  1  0  0  0
 39 81  1  0  0  0
 40 82  1  0  0  0
 40 83  1  0  0  0
 41 84  1  0  0  0
 42 85  1  0  0  0
 42 86  1  0  0  0
 42 87  1  0  0  0
 43 88  1  0  0  0
 43 89  1  0  0  0
 43 90  1  0  0  0
M  END
$$$$
