5ehq_ligand
  -I-interpret- 

 89 96  0  0  0  0  0  0  0  0999 V2000
   37.5590   24.2150    6.4140 N   0  0  0  0  0
   36.7810   25.4670    8.5450 C   0  0  0  0  0
   37.7740   25.2050    7.4510 C   0  0  0  0  0
   38.5630   24.0520    5.3170 C   0  0  0  0  0
   38.3710   23.1030    4.1980 C   0  0  0  0  0
   40.5380   27.5710    8.5930 C   0  0  0  0  0
   41.5130   27.3740    7.6080 C   0  0  0  0  0
   40.7670   28.4500    9.5900 N   0  0  0  0  0
   34.9770   25.9820   10.6450 C   0  0  0  0  0
   35.2320   26.9660    9.6800 C   0  0  0  0  0
   36.1190   26.7040    8.6240 C   0  0  0  0  0
   39.0670   25.9750    7.5210 C   0  0  0  0  0
   39.3440   26.8590    8.5740 C   0  0  0  0  0
   40.0970   25.7880    6.4430 C   0  0  0  0  0
   41.2980   26.5070    6.5300 C   0  0  0  0  0
   35.6500   24.7540   10.5710 C   0  0  0  0  0
   36.5790   24.5080    9.5460 C   0  0  0  0  0
   39.8500   24.7820    5.3560 C   0  0  0  0  0
   40.8110   24.5520    4.3520 C   0  0  0  0  0
   40.5750   23.6420    3.3030 C   0  0  0  0  0
   39.3580   22.9440    3.2090 C   0  0  0  0  0
   39.1560   22.0770    2.1810 N   0  0  0  0  0
   36.1890   23.6740    6.2160 C   0  0  0  0  0
   35.9180   22.1820    6.4320 C   0  0  0  0  0
   34.9640   21.8410    7.5900 C   0  0  0  0  0
   33.8320   22.8200    7.9170 C   0  0  0  0  0
   32.5500   22.0240    8.1250 C   0  0  0  0  0
   31.9750   22.1360    9.5250 C   0  0  0  0  0
   31.5340   21.0830   10.2580 N   0  0  0  0  0
   31.0350   21.5560   11.4750 N   0  0  0  0  0
   31.1830   22.9490   11.3890 N   0  0  0  0  0
   31.7330   23.3060   10.2350 C   0  0  0  0  0
   30.7220   23.7390   12.5370 C   0  0  0  0  0
   30.5710   22.8440   13.7600 C   0  0  0  0  0
   29.3270   23.0400   14.4690 N   0  0  0  0  0
   28.1600   22.4660   14.0930 C   0  0  0  0  0
   27.1120   23.2810   13.3970 C   0  0  0  0  0
   27.2950   24.6290   13.0790 C   0  0  0  0  0
   25.7880   22.6580   13.1510 C   0  0  0  0  0
   24.7930   23.4090   12.5260 C   0  0  0  0  0
   25.0360   24.7460   12.1920 C   0  0  0  0  0
   26.2590   25.3500   12.4820 C   0  0  0  0  0
   25.5630   21.3590   13.4460 N   0  0  0  0  0
   26.4570   20.5460   14.0430 C   0  0  0  0  0
   26.0560   19.0890   14.2600 C   0  0  0  0  0
   27.8070   21.0570   14.4430 C   0  0  0  0  0
   28.7910   20.1700   15.1910 C   0  0  0  0  0
   28.2470   18.8060   15.6450 C   0  0  0  0  0
   26.7570   18.5130   15.4760 C   0  0  0  0  0
   37.0936   25.1651    6.6003 H   0  0  0  0  0
   37.4523   22.5194    4.1395 H   0  0  0  0  0
   42.4606   27.9075    7.6820 H   0  0  0  0  0
   41.6461   28.9662    9.6229 H   0  0  0  0  0
   40.0610   28.5986   10.3111 H   0  0  0  0  0
   34.2619   26.1696   11.4459 H   0  0  0  0  0
   34.7407   27.9365    9.7496 H   0  0  0  0  0
   36.2950   27.4633    7.8621 H   0  0  0  0  0
   38.6212   26.9882    9.3796 H   0  0  0  0  0
   42.0616   26.3912    5.7608 H   0  0  0  0  0
   35.4506   23.9832   11.3155 H   0  0  0  0  0
   37.1407   23.5740    9.5297 H   0  0  0  0  0
   41.7582   25.0901    4.3877 H   0  0  0  0  0
   41.3478   23.4763    2.5524 H   0  0  0  0  0
   38.2889   21.5424    2.1276 H   0  0  0  0  0
   39.8715   21.9613    1.4634 H   0  0  0  0  0
   35.9802   23.8393    5.1590 H   0  0  0  0  0
   35.5859   24.1737    6.9740 H   0  0  0  0  0
   36.8771   21.7252    6.6761 H   0  0  0  0  0
   35.4419   21.8187    5.5213 H   0  0  0  0  0
   35.5919   21.8237    8.4808 H   0  0  0  0  0
   34.4657   20.9202    7.2869 H   0  0  0  0  0
   33.7025   23.5265    7.0971 H   0  0  0  0  0
   34.0734   23.3796    8.8207 H   0  0  0  0  0
   32.7901   20.9742    7.9568 H   0  0  0  0  0
   31.8056   22.4238    7.4365 H   0  0  0  0  0
   31.9527   24.3220    9.9070 H   0  0  0  0  0
   29.7569   24.1865   12.2994 H   0  0  0  0  0
   31.4528   24.5187   12.7518 H   0  0  0  0  0
   31.3812   23.0890   14.4468 H   0  0  0  0  0
   30.5910   21.8107   13.4137 H   0  0  0  0  0
   29.3283   23.6405   15.2935 H   0  0  0  0  0
   28.2450   25.1171   13.2966 H   0  0  0  0  0
   23.8283   22.9557   12.2982 H   0  0  0  0  0
   24.2564   25.3250   11.6969 H   0  0  0  0  0
   26.4086   26.4019   12.2387 H   0  0  0  0  0
   25.3606   18.5375   13.6273 H   0  0  0  0  0
   29.8159   20.4817   15.3920 H   0  0  0  0  0
   28.9127   18.0606   16.0800 H   0  0  0  0  0
   26.2156   17.9101   16.2050 H   0  0  0  0  0
  3  1  1  0  0  0
  1  4  1  0  0  0
  1 23  1  0  0  0
  3  2  1  0  0  0
  2 11  4  0  0  0
  2 17  4  0  0  0
 12  3  1  0  0  0
  4  5  4  0  0  0
  4 18  4  0  0  0
  5 21  4  0  0  0
  6  7  4  0  0  0
  6  8  1  0  0  0
 13  6  4  0  0  0
  7 15  4  0  0  0
 10  9  4  0  0  0
  9 16  4  0  0  0
 11 10  4  0  0  0
 12 13  4  0  0  0
 12 14  4  0  0  0
 14 15  4  0  0  0
 14 18  1  0  0  0
 16 17  4  0  0  0
 18 19  4  0  0  0
 19 20  4  0  0  0
 20 21  4  0  0  0
 21 22  1  0  0  0
 23 24  1  0  0  0
 24 25  1  0  0  0
 25 26  1  0  0  0
 26 27  1  0  0  0
 27 28  1  0  0  0
 28 29  4  0  0  0
 28 32  4  0  0  0
 29 30  4  0  0  0
 30 31  4  0  0  0
 31 32  4  0  0  0
 31 33  1  0  0  0
 33 34  1  0  0  0
 34 35  1  0  0  0
 35 36  1  0  0  0
 36 37  4  0  0  0
 36 46  4  0  0  0
 37 38  4  0  0  0
 37 39  4  0  0  0
 38 42  4  0  0  0
 39 40  4  0  0  0
 39 43  4  0  0  0
 40 41  4  0  0  0
 41 42  4  0  0  0
 43 44  4  0  0  0
 44 45  4  0  0  0
 44 46  4  0  0  0
 45 49  4  0  0  0
 46 47  4  0  0  0
 47 48  4  0  0  0
 48 49  4  0  0  0
  3 50  1  0  0  0
  5 51  1  0  0  0
  7 52  1  0  0  0
  8 53  1  0  0  0
  8 54  1  0  0  0
  9 55  1  0  0  0
 10 56  1  0  0  0
 11 57  1  0  0  0
 13 58  1  0  0  0
 15 59  1  0  0  0
 16 60  1  0  0  0
 17 61  1  0  0  0
 19 62  1  0  0  0
 20 63  1  0  0  0
 22 64  1  0  0  0
 22 65  1  0  0  0
 23 66  1  0  0  0
 23 67  1  0  0  0
 24 68  1  0  0  0
 24 69  1  0  0  0
 25 70  1  0  0  0
 25 71  1  0  0  0
 26 72  1  0  0  0
 26 73  1  0  0  0
 27 74  1  0  0  0
 27 75  1  0  0  0
 32 76  1  0  0  0
 33 77  1  0  0  0
 33 78  1  0  0  0
 34 79  1  0  0  0
 34 80  1  0  0  0
 35 81  1  0  0  0
 38 82  1  0  0  0
 40 83  1  0  0  0
 41 84  1  0  0  0
 42 85  1  0  0  0
 45 86  1  0  0  0
 47 87  1  0  0  0
 48 88  1  0  0  0
 49 89  1  0  0  0
M  END
$$$$
