3iqg_ligand
  -I-interpret- 

 74 75  0  0  0  0  0  0  0  0999 V2000
   20.1290    3.6680   44.6890 N   0  3  0  0  0
   20.2480    4.4650   43.4260 C   0  0  0  0  0
   20.6970    3.5960   42.2510 C   0  0  0  0  0
   20.5100    3.9700   41.0880 O   0  0  0  0  0
   21.1770    5.6770   43.6070 C   0  0  0  0  0
   22.4540    5.3390   44.3740 C   0  0  0  0  0
   22.4830    4.4120   45.1930 O   0  0  0  0  0
   23.5150    6.1050   44.1250 N   0  0  0  0  0
   21.2790    2.4390   42.5680 N   0  0  0  0  0
   21.6280    1.4290   41.5620 C   0  0  0  0  0
   20.4930    0.4130   41.3700 C   0  0  0  0  0
   20.5750   -0.4630   40.5000 O   0  0  0  0  0
   22.9220    0.6900   41.9400 C   0  0  0  0  0
   24.1360    1.5680   42.1060 C   0  0  0  0  0
   24.2570    2.8920   41.7640 C   0  0  0  0  0
   25.4190    1.1680   42.6240 C   0  0  0  0  0
   25.5250    3.3400   42.0540 N   0  0  0  0  0
   26.2630    2.3060   42.5740 C   0  0  0  0  0
   25.9340   -0.0390   43.1290 C   0  0  0  0  0
   27.6010    2.2730   43.0090 C   0  0  0  0  0
   27.2640   -0.0720   43.5630 C   0  0  0  0  0
   28.0800    1.0840   43.5000 C   0  0  0  0  0
   19.4490    0.5150   42.1930 N   0  0  0  0  0
   18.2720   -0.3360   42.0150 C   0  0  0  0  0
   17.3950    0.2290   40.8910 C   0  0  0  0  0
   16.4160    0.9510   41.1180 O   0  0  0  0  0
   17.5010   -0.5310   43.3180 C   0  0  0  0  0
   16.6470   -1.7940   43.3100 C   0  0  0  0  0
   16.9960   -2.8090   42.6800 O   0  0  0  0  0
   15.5160   -1.7370   44.0060 N   0  0  0  0  0
   17.7980   -0.0880   39.6650 N   0  0  0  0  0
   17.1540    0.4080   38.4580 C   0  0  0  0  0
   16.4540   -0.7850   37.7910 C   0  0  0  0  0
   16.8610   -1.9300   37.9780 O   0  0  0  0  0
   18.2000    1.1310   37.5540 C   0  0  0  0  0
   18.3330    2.6010   38.0010 C   0  0  0  0  0
   17.8410    1.0360   36.0890 C   0  0  0  0  0
   19.5350    3.3640   37.4130 C   0  0  0  0  0
   15.4410   -0.6400   37.1060 O   0  0  0  0  0
   19.5072    2.8748   44.5318 H   0  0  0  0  0
   21.0510    3.3295   44.9641 H   0  0  0  0  0
   19.7480    4.2590   45.4279 H   0  0  0  0  0
   19.2533    4.8445   43.1924 H   0  0  0  0  0
   20.6345    6.4293   44.1795 H   0  0  0  0  0
   21.4668    6.0249   42.6155 H   0  0  0  0  0
   24.3923    5.9368   44.6174 H   0  0  0  0  0
   23.4501    6.8597   43.4419 H   0  0  0  0  0
   21.4898    2.2485   43.5476 H   0  0  0  0  0
   21.7857    1.9584   40.6223 H   0  0  0  0  0
   23.1412    0.0035   41.1222 H   0  0  0  0  0
   22.7424    0.2176   42.9058 H   0  0  0  0  0
   23.4645    3.4993   41.3267 H   0  0  0  0  0
   25.3098   -0.9311   43.1814 H   0  0  0  0  0
   28.2337    3.1591   42.9579 H   0  0  0  0  0
   27.6780   -1.0009   43.9553 H   0  0  0  0  0
   29.1111    1.0282   43.8491 H   0  0  0  0  0
   19.4710    1.1932   42.9545 H   0  0  0  0  0
   18.6023   -1.3324   41.7214 H   0  0  0  0  0
   16.8358    0.3231   43.4454 H   0  0  0  0  0
   18.2262   -0.6214   44.1267 H   0  0  0  0  0
   14.8956   -2.5460   44.0380 H   0  0  0  0  0
   15.2686   -0.8843   44.5081 H   0  0  0  0  0
   18.5996   -0.7107   39.5649 H   0  0  0  0  0
   16.3964    1.1623   38.6705 H   0  0  0  0  0
   19.1617    0.6314   37.6711 H   0  0  0  0  0
   18.4722    2.5863   39.0820 H   0  0  0  0  0
   17.4372    3.1148   37.6520 H   0  0  0  0  0
   17.8004   -0.0124   35.7934 H   0  0  0  0  0
   16.8683    1.4993   35.9238 H   0  0  0  0  0
   18.5963    1.5528   35.4969 H   0  0  0  0  0
   20.4590    2.8665   37.7077 H   0  0  0  0  0
   19.4587    3.3772   36.3258 H   0  0  0  0  0
   19.5349    4.3864   37.7909 H   0  0  0  0  0
   15.2327    0.2947   37.0386 H   0  0  0  0  0
  1  2  1  0  0  0
  2  3  1  0  0  0
  2  5  1  0  0  0
  3  4  2  0  0  0
  3  9  1  0  0  0
  5  6  1  0  0  0
  6  7  2  0  0  0
  6  8  1  0  0  0
  9 10  1  0  0  0
 10 11  1  0  0  0
 10 13  1  0  0  0
 11 12  2  0  0  0
 11 23  1  0  0  0
 13 14  1  0  0  0
 14 15  4  0  0  0
 14 16  4  0  0  0
 15 17  4  0  0  0
 16 18  4  0  0  0
 16 19  4  0  0  0
 17 18  4  0  0  0
 18 20  4  0  0  0
 19 21  4  0  0  0
 20 22  4  0  0  0
 21 22  4  0  0  0
 23 24  1  0  0  0
 24 25  1  0  0  0
 24 27  1  0  0  0
 25 26  2  0  0  0
 25 31  1  0  0  0
 27 28  1  0  0  0
 28 29  2  0  0  0
 28 30  1  0  0  0
 31 32  1  0  0  0
 32 33  1  0  0  0
 32 35  1  0  0  0
 33 34  2  0  0  0
 33 39  1  0  0  0
 35 36  1  0  0  0
 35 37  1  0  0  0
 36 38  1  0  0  0
  1 40  1  0  0  0
  1 41  1  0  0  0
  1 42  1  0  0  0
  2 43  1  0  0  0
  5 44  1  0  0  0
  5 45  1  0  0  0
  8 46  1  0  0  0
  8 47  1  0  0  0
  9 48  1  0  0  0
 10 49  1  0  0  0
 13 50  1  0  0  0
 13 51  1  0  0  0
 15 52  1  0  0  0
 19 53  1  0  0  0
 20 54  1  0  0  0
 21 55  1  0  0  0
 22 56  1  0  0  0
 23 57  1  0  0  0
 24 58  1  0  0  0
 27 59  1  0  0  0
 27 60  1  0  0  0
 30 61  1  0  0  0
 30 62  1  0  0  0
 31 63  1  0  0  0
 32 64  1  0  0  0
 35 65  1  0  0  0
 36 66  1  0  0  0
 36 67  1  0  0  0
 37 68  1  0  0  0
 37 69  1  0  0  0
 37 70  1  0  0  0
 38 71  1  0  0  0
 38 72  1  0  0  0
 38 73  1  0  0  0
 39 74  1  0  0  0
M  END
$$$$
