4yux_ligand
  -I-interpret- 

 19 20  0  0  0  0  0  0  0  0999 V2000
    4.0180    8.6040   38.4760 C   0  0  0  0  0
    4.1880    7.2860   38.8360 C   0  0  0  0  0
    2.9150    8.9730   37.7210 C   0  0  0  0  0
    3.2810    6.3160   38.4050 C   0  0  0  0  0
    1.9940    8.0030   37.3040 C   0  0  0  0  0
    2.2030    6.7020   37.6190 C   0  0  0  0  0
   -0.2480    7.8080   36.5480 C   0  0  0  0  0
   -0.4810    6.5830   37.3030 C   0  0  0  0  0
    0.8830    8.4390   36.5570 N   0  0  0  0  0
   -1.3420    8.3380   35.9030 N   0  0  0  0  0
    0.9890    5.5200   37.0330 S   0  0  0  0  0
    4.7470    9.3539   38.7830 H   0  0  0  0  0
    5.0342    6.9987   39.4601 H   0  0  0  0  0
    2.7644   10.0184   37.4517 H   0  0  0  0  0
    3.4170    5.2705   38.6815 H   0  0  0  0  0
   -1.3907    6.0845   36.9682 H   0  0  0  0  0
   -0.6192    6.7972   38.3628 H   0  0  0  0  0
    0.9727    9.2881   35.9991 H   0  0  0  0  0
   -2.2481    7.8745   35.9708 H   0  0  0  0  0
  1  2  4  0  0  0
  3  1  4  0  0  0
  4  2  4  0  0  0
  5  3  4  0  0  0
  6  4  4  0  0  0
  5  6  4  0  0  0
  9  5  1  0  0  0
  6 11  1  0  0  0
  7  8  1  0  0  0
  7  9  1  0  0  0
  7 10  2  0  0  0
  8 11  1  0  0  0
  1 12  1  0  0  0
  2 13  1  0  0  0
  3 14  1  0  0  0
  4 15  1  0  0  0
  8 16  1  0  0  0
  8 17  1  0  0  0
  9 18  1  0  0  0
 10 19  1  0  0  0
M  END
$$$$
