2ayp_ligand
  -I-interpret- 

 40 43  0  0  0  0  0  0  0  0999 V2000
   11.8800   -3.4810   15.0870 C   0  0  0  0  0
   11.1140   -2.2090   15.1650 C   0  0  0  0  0
    9.7490   -2.2520   15.7760 C   0  0  0  0  0
    9.1680   -3.4930   16.2880 C   0  0  0  0  0
    9.9650   -4.7120   16.1830 C   0  0  0  0  0
   11.2930   -4.7110   15.5960 C   0  0  0  0  0
   13.1580   -3.5130   14.5320 O   0  0  0  0  0
   11.7880   -1.0420   14.6300 O   0  0  0  0  0
   11.7100    0.2220   15.2860 C   0  0  0  0  0
    7.7800   -3.5120   16.9090 C   0  0  0  0  0
    7.3700   -2.4480   17.8560 C   0  0  0  0  0
    6.0340   -2.4760   18.4390 C   0  0  0  0  0
    5.1020   -3.5150   18.1210 C   0  0  0  0  0
    5.4640   -4.5820   17.1950 C   0  0  0  0  0
    6.8040   -4.5680   16.6000 C   0  0  0  0  0
    5.4650   -1.6090   19.3160 N   0  0  0  0  0
    4.1910   -1.9840   19.6200 C   0  0  0  0  0
    3.8210   -3.2850   18.8580 C   0  0  0  0  0
    3.4730   -1.3460   20.3940 O   0  0  0  0  0
    2.7120   -4.0880   18.7820 C   0  0  0  0  0
    1.3370   -3.7400   19.2330 C   0  0  0  0  0
    1.0230   -2.7190   19.7800 N   0  0  0  0  0
   -0.4070   -2.6860   20.0990 C   0  0  0  0  0
   -0.8870   -3.8410   19.6560 C   0  0  0  0  0
    0.2590   -4.5280   19.0890 C   0  0  0  0  0
    9.1700   -1.3308   15.8416 H   0  0  0  0  0
    9.5514   -5.6490   16.5558 H   0  0  0  0  0
   11.8564   -5.6422   15.5360 H   0  0  0  0  0
   13.4977   -4.4103   14.5651 H   0  0  0  0  0
   10.6680    0.5367   15.3429 H   0  0  0  0  0
   12.1196    0.1336   16.2922 H   0  0  0  0  0
   12.2830    0.9583   14.7225 H   0  0  0  0  0
    8.0640   -1.6485   18.1153 H   0  0  0  0  0
    4.7542   -5.3723   16.9507 H   0  0  0  0  0
    7.0848   -5.3628   15.9090 H   0  0  0  0  0
    5.9304   -0.7852   19.6970 H   0  0  0  0  0
    2.8512   -5.0785   18.3487 H   0  0  0  0  0
   -0.9574   -1.8855   20.5934 H   0  0  0  0  0
   -1.9163   -4.1961   19.7068 H   0  0  0  0  0
    0.2468   -5.5145   18.6257 H   0  0  0  0  0
  1  2  4  0  0  0
  1  6  4  0  0  0
  1  7  1  0  0  0
  2  3  4  0  0  0
  2  8  1  0  0  0
  3  4  4  0  0  0
  4  5  4  0  0  0
  4 10  1  0  0  0
  5  6  4  0  0  0
  8  9  1  0  0  0
 10 11  4  0  0  0
 10 15  4  0  0  0
 11 12  4  0  0  0
 12 13  4  0  0  0
 12 16  1  0  0  0
 13 14  4  0  0  0
 13 18  1  0  0  0
 14 15  4  0  0  0
 16 17  1  0  0  0
 17 18  1  0  0  0
 17 19  2  0  0  0
 18 20  2  0  0  0
 20 21  1  0  0  0
 21 22  4  0  0  0
 21 25  4  0  0  0
 22 23  4  0  0  0
 23 24  4  0  0  0
 24 25  4  0  0  0
  3 26  1  0  0  0
  5 27  1  0  0  0
  6 28  1  0  0  0
  7 29  1  0  0  0
  9 30  1  0  0  0
  9 31  1  0  0  0
  9 32  1  0  0  0
 11 33  1  0  0  0
 14 34  1  0  0  0
 15 35  1  0  0  0
 16 36  1  0  0  0
 20 37  1  0  0  0
 23 38  1  0  0  0
 24 39  1  0  0  0
 25 40  1  0  0  0
M  END
$$$$
