3arn_ligand
  -I-interpret- 

 49 50  0  0  0  0  0  0  0  0999 V2000
   -3.5960   31.7470   32.6610 O   0  0  0  0  0
   -4.6950   32.1620   32.1900 C   0  0  0  0  0
   -5.7710   31.3220   32.1430 N   0  0  0  0  0
   -6.9330   31.6750   31.5900 C   0  0  0  0  0
   -7.0690   32.9470   31.0670 N   0  0  0  0  0
   -5.9960   33.7610   31.1140 C   0  0  0  0  0
   -4.7660   33.4630   31.6820 C   0  0  0  0  0
   -7.9030   30.8900   31.5670 O   0  0  0  0  0
   -8.3610   33.3590   30.4630 C   0  0  0  0  0
   -6.4710   33.0180   24.8770 C   0  0  0  0  0
   -8.1460   33.4560   29.0180 O   0  0  0  0  0
   -8.0110   32.1370   28.3850 C   0  0  0  0  0
   -8.0160   32.3500   26.8720 C   0  0  0  0  0
   -5.0550   30.6790   24.8250 S   0  0  0  0  0
   -6.7630   33.1990   26.4010 C   0  0  0  0  0
   -5.0780   29.4730   24.1320 O   0  0  0  0  0
   -4.8230   30.4180   26.4010 C   0  0  0  0  0
   -5.7570   29.5600   27.0010 C   0  0  0  0  0
   -5.7300   29.2090   28.3720 C   0  0  0  0  0
   -4.7740   29.7850   29.1870 C   0  0  0  0  0
   -6.1930   31.6530   24.4080 N   0  0  0  0  0
   -3.8520   30.6800   28.5810 C   0  0  0  0  0
   -3.9180   31.3580   24.4530 O   0  0  0  0  0
   -3.8530   30.9910   27.2150 C   0  0  0  0  0
   -5.3010   33.9730   24.5600 C   0  0  0  0  0
   -7.7030   33.5400   24.0860 C   0  0  0  0  0
   -5.6830   30.3892   32.5460 H   0  0  0  0  0
   -6.1050   34.7472   30.6628 H   0  0  0  0  0
   -3.9386   34.1712   31.7277 H   0  0  0  0  0
   -8.6891   34.3157   30.8693 H   0  0  0  0  0
   -9.1416   32.6325   30.6890 H   0  0  0  0  0
   -8.8341   31.4866   28.6808 H   0  0  0  0  0
   -7.0841   31.6569   28.6990 H   0  0  0  0  0
   -8.9220   32.8929   26.6027 H   0  0  0  0  0
   -7.9752   31.3753   26.3859 H   0  0  0  0  0
   -6.9773   34.2520   26.5838 H   0  0  0  0  0
   -5.8909   32.8561   26.9577 H   0  0  0  0  0
   -6.5465   29.1408   26.3773 H   0  0  0  0  0
   -6.4497   28.4978   28.7773 H   0  0  0  0  0
   -4.7291   29.5614   30.2529 H   0  0  0  0  0
   -6.8406   31.2924   23.7073 H   0  0  0  0  0
   -3.1011   31.1515   29.2149 H   0  0  0  0  0
   -3.1078   31.6689   26.7988 H   0  0  0  0  0
   -5.5972   34.9968   24.7886 H   0  0  0  0  0
   -4.4365   33.6998   25.1651 H   0  0  0  0  0
   -5.0458   33.8946   23.5032 H   0  0  0  0  0
   -8.5855   32.9674   24.3712 H   0  0  0  0  0
   -7.8616   34.5934   24.3168 H   0  0  0  0  0
   -7.5228   33.4240   23.0173 H   0  0  0  0  0
  2  1  2  0  0  0
  3  2  1  0  0  0
  7  2  1  0  0  0
  4  3  1  0  0  0
  5  4  1  0  0  0
  4  8  2  0  0  0
  5  6  1  0  0  0
  9  5  1  0  0  0
  6  7  2  0  0  0
 11  9  1  0  0  0
 10 15  1  0  0  0
 21 10  1  0  0  0
 10 25  1  0  0  0
 10 26  1  0  0  0
 12 11  1  0  0  0
 13 12  1  0  0  0
 15 13  1  0  0  0
 14 16  2  0  0  0
 14 17  1  0  0  0
 14 21  1  0  0  0
 14 23  2  0  0  0
 17 18  4  0  0  0
 17 24  4  0  0  0
 18 19  4  0  0  0
 19 20  4  0  0  0
 20 22  4  0  0  0
 22 24  4  0  0  0
  3 27  1  0  0  0
  6 28  1  0  0  0
  7 29  1  0  0  0
  9 30  1  0  0  0
  9 31  1  0  0  0
 12 32  1  0  0  0
 12 33  1  0  0  0
 13 34  1  0  0  0
 13 35  1  0  0  0
 15 36  1  0  0  0
 15 37  1  0  0  0
 18 38  1  0  0  0
 19 39  1  0  0  0
 20 40  1  0  0  0
 21 41  1  0  0  0
 22 42  1  0  0  0
 24 43  1  0  0  0
 25 44  1  0  0  0
 25 45  1  0  0  0
 25 46  1  0  0  0
 26 47  1  0  0  0
 26 48  1  0  0  0
 26 49  1  0  0  0
M  END
$$$$
