2flr_ligand
  -I-interpret- 

 44 47  0  0  0  0  0  0  0  0999 V2000
   46.6130   -8.9030   12.4410 N   0  0  0  0  0
   46.4130   -7.6110   12.1280 C   0  0  0  0  0
   47.4030   -6.9860   11.3620 C   0  0  0  0  0
   48.4610   -7.7440   11.0120 C   0  0  0  0  0
   48.6060   -9.0280   11.3540 C   0  0  0  0  0
   47.6490   -9.6670   12.1060 C   0  0  0  0  0
   49.5160   -7.4030   10.2960 N   0  0  0  0  0
   49.7640   -9.4560   10.8350 C   0  0  0  0  0
   50.3550   -8.4160   10.1490 C   0  0  0  0  0
   51.5120   -8.3000    9.4140 C   0  0  0  0  0
   52.2930   -9.4380    9.2180 C   0  0  0  0  0
   53.4650   -9.3890    8.5040 C   0  0  0  0  0
   53.8780   -8.1880    7.9710 C   0  0  0  0  0
   53.1330   -7.0100    8.1370 C   0  0  0  0  0
   51.9530   -7.0970    8.8590 C   0  0  0  0  0
   51.1820   -5.9680    9.0090 O   0  0  0  0  0
   56.9380   -4.0350    7.1660 C   0  0  0  0  0
   57.5030   -4.3370    8.5110 N   0  0  0  0  0
   58.3490   -5.3150    8.6900 C   0  0  0  0  0
   58.7140   -6.0480    7.7960 O   0  0  0  0  0
   58.8190   -5.5230    9.8900 N   0  0  0  0  0
   53.6040   -5.8310    7.5910 C   0  0  0  0  0
   52.7560   -4.9440    6.9210 C   0  0  0  0  0
   53.2370   -3.7760    6.3440 C   0  0  0  0  0
   54.5910   -3.4820    6.4350 C   0  0  0  0  0
   55.4540   -4.3460    7.0940 C   0  0  0  0  0
   54.9590   -5.5040    7.6670 C   0  0  0  0  0
   45.5218   -7.0757   12.4555 H   0  0  0  0  0
   47.3228   -5.9406   11.0639 H   0  0  0  0  0
   47.7322  -10.7125   12.4030 H   0  0  0  0  0
   50.1723  -10.4614   10.9379 H   0  0  0  0  0
   51.9661  -10.3879    9.6409 H   0  0  0  0  0
   54.0614  -10.2900    8.3607 H   0  0  0  0  0
   54.8087   -8.1513    7.4049 H   0  0  0  0  0
   51.6136   -5.2274    8.5767 H   0  0  0  0  0
   57.4534   -4.6538    6.4315 H   0  0  0  0  0
   57.0749   -2.9719    6.9682 H   0  0  0  0  0
   57.2228   -3.7673    9.3093 H   0  0  0  0  0
   59.4753   -6.2861   10.0555 H   0  0  0  0  0
   58.5299   -4.9224   10.6621 H   0  0  0  0  0
   51.6930   -5.1745    6.8499 H   0  0  0  0  0
   52.5593   -3.0977    5.8256 H   0  0  0  0  0
   54.9782   -2.5673    5.9862 H   0  0  0  0  0
   55.6414   -6.1750    8.1887 H   0  0  0  0  0
  1  2  4  0  0  0
  6  1  4  0  0  0
  3  2  4  0  0  0
  4  3  4  0  0  0
  5  4  4  0  0  0
  7  4  4  0  0  0
  5  6  4  0  0  0
  8  5  4  0  0  0
  9  7  4  0  0  0
  9  8  4  0  0  0
 10  9  1  0  0  0
 10 11  4  0  0  0
 15 10  4  0  0  0
 12 11  4  0  0  0
 13 12  4  0  0  0
 14 13  4  0  0  0
 14 15  4  0  0  0
 22 14  1  0  0  0
 15 16  1  0  0  0
 17 18  1  0  0  0
 26 17  1  0  0  0
 18 19  1  0  0  0
 19 20  2  0  0  0
 19 21  1  0  0  0
 23 22  4  0  0  0
 22 27  4  0  0  0
 24 23  4  0  0  0
 25 24  4  0  0  0
 25 26  4  0  0  0
 26 27  4  0  0  0
  2 28  1  0  0  0
  3 29  1  0  0  0
  6 30  1  0  0  0
  8 31  1  0  0  0
 11 32  1  0  0  0
 12 33  1  0  0  0
 13 34  1  0  0  0
 16 35  1  0  0  0
 17 36  1  0  0  0
 17 37  1  0  0  0
 18 38  1  0  0  0
 21 39  1  0  0  0
 21 40  1  0  0  0
 23 41  1  0  0  0
 24 42  1  0  0  0
 25 43  1  0  0  0
 27 44  1  0  0  0
M  END
$$$$
