5cfb_ligand
  -I-interpret- 

 48 54  0  0  0  0  0  0  0  0999 V2000
  117.8140  133.1740   19.4170 C   0  0  0  0  0
  117.8910  132.4660   18.0600 C   0  0  0  0  0
  119.2040  131.7120   17.9630 C   0  0  0  0  0
  119.1330  130.5460   18.9410 C   0  0  0  0  0
  118.8860  130.9790   20.3810 C   0  0  0  0  0
  118.1220  129.8630   20.9330 N   0  0  0  0  0
  116.8650  130.2990   21.3810 C   0  0  0  0  0
  115.7930  129.5640   21.8840 C   0  0  0  0  0
  114.6090  130.2000   22.2370 C   0  0  0  0  0
  114.4820  131.5770   22.0710 C   0  0  0  0  0
  115.5410  132.3190   21.5560 C   0  0  0  0  0
  116.7260  131.6820   21.1940 C   0  0  0  0  0
  118.0310  132.2330   20.6270 C   0  0  0  0  0
  118.6570  133.1440   21.6700 C   0  0  0  0  0
  119.4940  134.1170   20.8480 C   0  0  0  0  0
  118.8450  134.2470   19.5260 N   0  3  0  0  0
  119.9230  134.1600   18.5170 C   0  0  0  0  0
  120.2940  132.6940   18.3130 C   0  0  0  0  0
  121.6280  132.4040   18.4900 C   0  0  0  0  0
  122.0940  131.1120   18.3660 C   0  0  0  0  0
  121.6100  130.1390   19.3060 O   0  0  0  0  0
  120.3250  129.5590   18.9590 C   0  0  0  0  0
  120.0620  128.4610   20.0600 C   0  0  0  0  0
  118.6830  128.5840   20.7440 C   0  0  0  0  0
  118.1030  127.5720   21.1360 O   0  0  0  0  0
  116.8017  133.5767   19.4524 H   0  0  0  0  0
  117.8332  133.2034   17.2594 H   0  0  0  0  0
  117.0603  131.7667   17.9651 H   0  0  0  0  0
  119.4043  131.3072   16.9710 H   0  0  0  0  0
  118.2784  130.0085   18.5302 H   0  0  0  0  0
  119.8565  131.2251   20.8119 H   0  0  0  0  0
  115.8839  128.4841   22.0012 H   0  0  0  0  0
  113.7797  129.6213   22.6438 H   0  0  0  0  0
  113.5516  132.0745   22.3449 H   0  0  0  0  0
  115.4433  133.3980   21.4360 H   0  0  0  0  0
  119.2548  132.5936   22.3965 H   0  0  0  0  0
  117.9096  133.6520   22.2795 H   0  0  0  0  0
  120.5138  133.7478   20.7393 H   0  0  0  0  0
  119.5513  135.0862   21.3435 H   0  0  0  0  0
  118.3578  135.1318   19.3840 H   0  0  0  0  0
  120.7951  134.7157   18.8615 H   0  0  0  0  0
  119.5803  134.5874   17.5747 H   0  0  0  0  0
  122.3253  133.2063   18.7314 H   0  0  0  0  0
  123.1696  131.1709   18.5324 H   0  0  0  0  0
  121.7539  130.7700   17.3885 H   0  0  0  0  0
  120.3823  129.1827   17.9376 H   0  0  0  0  0
  120.8208  128.5862   20.8324 H   0  0  0  0  0
  120.0948  127.4900   19.5658 H   0  0  0  0  0
  1  2  1  0  0  0
  1 13  1  0  0  0
  1 16  1  0  0  0
  2  3  1  0  0  0
  3  4  1  0  0  0
  3 18  1  0  0  0
  4  5  1  0  0  0
  4 22  1  0  0  0
  5  6  1  0  0  0
  5 13  1  0  0  0
  6  7  1  0  0  0
  6 24  1  0  0  0
  7  8  4  0  0  0
  7 12  4  0  0  0
  8  9  4  0  0  0
  9 10  4  0  0  0
 10 11  4  0  0  0
 11 12  4  0  0  0
 12 13  1  0  0  0
 13 14  1  0  0  0
 14 15  1  0  0  0
 15 16  1  0  0  0
 16 17  1  0  0  0
 17 18  1  0  0  0
 18 19  2  0  0  0
 19 20  1  0  0  0
 20 21  1  0  0  0
 21 22  1  0  0  0
 22 23  1  0  0  0
 23 24  1  0  0  0
 24 25  2  0  0  0
  1 26  1  0  0  0
  2 27  1  0  0  0
  2 28  1  0  0  0
  3 29  1  0  0  0
  4 30  1  0  0  0
  5 31  1  0  0  0
  8 32  1  0  0  0
  9 33  1  0  0  0
 10 34  1  0  0  0
 11 35  1  0  0  0
 14 36  1  0  0  0
 14 37  1  0  0  0
 15 38  1  0  0  0
 15 39  1  0  0  0
 16 40  1  0  0  0
 17 41  1  0  0  0
 17 42  1  0  0  0
 19 43  1  0  0  0
 20 44  1  0  0  0
 20 45  1  0  0  0
 22 46  1  0  0  0
 23 47  1  0  0  0
 23 48  1  0  0  0
M  END
$$$$
