3ehn_ligand
  -I-interpret- 

 51 52  0  0  0  0  0  0  0  0999 V2000
  -43.5210  -29.7570   20.0550 C   0  0  0  0  0
  -42.3220  -30.4950   19.9390 O   0  0  0  0  0
  -44.5710  -29.9290   18.9500 C   0  0  0  0  0
  -44.0170  -29.6290   17.7450 N   0  0  0  0  0
  -44.1270  -30.0270   16.4810 C   0  0  0  0  0
  -45.2310  -29.4760   15.5690 C   0  0  0  0  0
  -43.5130  -31.0330   16.1620 O   0  0  0  0  0
  -45.6770  -28.8910   19.3060 C   0  0  0  0  0
  -46.7510  -28.7660   18.3820 O   0  0  0  0  0
  -46.2940  -29.2560   20.6420 C   0  0  0  0  0
  -47.3960  -28.3960   21.1810 O   0  0  0  0  0
  -45.1760  -29.2970   21.7650 C   0  0  0  0  0
  -45.7750  -29.5490   23.1830 C   0  0  0  0  0
  -44.6820  -29.8840   24.0440 O   0  0  0  0  0
  -43.9730  -30.0120   21.4140 O   0  0  0  0  0
  -49.6580  -28.3190   21.9090 C   0  0  0  0  0
  -49.2200  -28.4650   23.2670 O   0  0  0  0  0
  -51.0450  -28.9570   21.7310 C   0  0  0  0  0
  -51.9870  -28.3060   22.5930 O   0  0  0  0  0
  -51.4890  -28.8080   20.2520 C   0  0  0  0  0
  -50.4280  -29.5060   19.3580 C   0  0  0  0  0
  -50.8520  -29.3460   17.9010 C   0  0  0  0  0
  -48.6720  -29.0310   20.9750 C   0  0  0  0  0
  -49.9170  -29.9770   17.0170 O   0  0  0  0  0
  -49.1160  -28.8800   19.5780 O   0  0  0  0  0
  -51.6010  -27.4120   19.9010 O   0  0  0  0  0
  -43.3294  -28.6979   19.8827 H   0  0  0  0  0
  -41.9583  -30.3762   19.0585 H   0  0  0  0  0
  -44.9597  -30.9453   18.8863 H   0  0  0  0  0
  -43.3201  -28.8898   17.8365 H   0  0  0  0  0
  -44.8065  -29.2272   14.5964 H   0  0  0  0  0
  -46.0084  -30.2300   15.4454 H   0  0  0  0  0
  -45.6596  -28.5808   16.0196 H   0  0  0  0  0
  -45.1502  -27.9368   19.3025 H   0  0  0  0  0
  -46.4029  -28.5342   17.5179 H   0  0  0  0  0
  -46.7533  -30.2179   20.4139 H   0  0  0  0  0
  -44.7678  -28.2886   21.8331 H   0  0  0  0  0
  -46.5064  -30.3567   23.1553 H   0  0  0  0  0
  -46.2947  -28.6622   23.5459 H   0  0  0  0  0
  -45.0127  -30.0470   24.9304 H   0  0  0  0  0
  -49.7078  -27.2570   21.6688 H   0  0  0  0  0
  -48.3537  -28.0637   23.3675 H   0  0  0  0  0
  -51.0000  -30.0149   21.9897 H   0  0  0  0  0
  -52.8522  -28.7062   22.4799 H   0  0  0  0  0
  -52.4654  -29.2694   20.1046 H   0  0  0  0  0
  -50.3538  -30.5648   19.6061 H   0  0  0  0  0
  -50.8911  -28.2826   17.6647 H   0  0  0  0  0
  -51.8269  -29.8151   17.7688 H   0  0  0  0  0
  -48.6103  -30.0993   21.1826 H   0  0  0  0  0
  -50.2079  -29.8610   16.1095 H   0  0  0  0  0
  -51.8761  -27.3347   18.9845 H   0  0  0  0  0
  1  2  1  0  0  0
  3  1  1  0  0  0
 15  1  1  0  0  0
  3  4  1  0  0  0
  8  3  1  0  0  0
  4  5  1  0  0  0
  5  6  1  0  0  0
  5  7  2  0  0  0
  8  9  1  0  0  0
 10  8  1  0  0  0
 11 10  1  0  0  0
 10 12  1  0  0  0
 23 11  1  0  0  0
 12 13  1  0  0  0
 12 15  1  0  0  0
 13 14  1  0  0  0
 16 17  1  0  0  0
 16 18  1  0  0  0
 16 23  1  0  0  0
 18 19  1  0  0  0
 18 20  1  0  0  0
 20 21  1  0  0  0
 20 26  1  0  0  0
 21 22  1  0  0  0
 21 25  1  0  0  0
 22 24  1  0  0  0
 23 25  1  0  0  0
  1 27  1  0  0  0
  2 28  1  0  0  0
  3 29  1  0  0  0
  4 30  1  0  0  0
  6 31  1  0  0  0
  6 32  1  0  0  0
  6 33  1  0  0  0
  8 34  1  0  0  0
  9 35  1  0  0  0
 10 36  1  0  0  0
 12 37  1  0  0  0
 13 38  1  0  0  0
 13 39  1  0  0  0
 14 40  1  0  0  0
 16 41  1  0  0  0
 17 42  1  0  0  0
 18 43  1  0  0  0
 19 44  1  0  0  0
 20 45  1  0  0  0
 21 46  1  0  0  0
 22 47  1  0  0  0
 22 48  1  0  0  0
 23 49  1  0  0  0
 24 50  1  0  0  0
 26 51  1  0  0  0
M  END
$$$$
