4tki_ligand
  -I-interpret- 

 18 18  0  0  0  0  0  0  0  0999 V2000
   23.1390   49.8210   -1.1720 O   0  0  0  0  0
   23.0690   48.5410   -1.5710 N   0  0  0  0  0
   22.1210   48.2730   -2.4870 O   0  0  0  0  0
   23.8970   47.6090   -1.0460 C   0  0  0  0  0
   23.6110   46.2350   -1.1760 C   0  0  0  0  0
   25.0720   48.0050   -0.3690 C   0  0  0  0  0
   25.5910   50.0360   -0.0510 I   0  0  0  0  0
   25.9300   47.0580    0.1960 C   0  0  0  0  0
   25.6610   45.6990    0.0560 C   0  0  0  0  0
   24.5110   45.2900   -0.6270 C   0  0  0  0  0
   24.2710   43.7830   -0.7240 C   0  0  0  0  0
   23.6730   43.2740   -1.6780 O   0  0  0  0  0
   24.7940   43.0980    0.2880 N   0  0  0  0  0
   22.7095   45.9046   -1.6920 H   0  0  0  0  0
   26.8119   47.3838    0.7476 H   0  0  0  0  0
   26.3421   44.9588    0.4759 H   0  0  0  0  0
   24.7147   42.0813    0.3107 H   0  0  0  0  0
   25.2746   43.5890    1.0419 H   0  0  0  0  0
  1  2  2  0  0  0
  2  3  2  0  0  0
  2  4  1  0  0  0
  4  5  4  0  0  0
  4  6  4  0  0  0
  5 10  4  0  0  0
  6  7  1  0  0  0
  6  8  4  0  0  0
  8  9  4  0  0  0
  9 10  4  0  0  0
 10 11  1  0  0  0
 11 12  2  0  0  0
 11 13  1  0  0  0
  5 14  1  0  0  0
  8 15  1  0  0  0
  9 16  1  0  0  0
 13 17  1  0  0  0
 13 18  1  0  0  0
M  END
$$$$
