5dus_ligand
  -I-interpret- 

 59 62  0  0  0  0  0  0  0  0999 V2000
    4.3270   19.0140   75.5980 N   0  0  0  0  0
    3.9050   17.8750   74.9690 C   0  0  0  0  0
    2.9220   17.9240   73.9990 N   0  0  0  0  0
    2.3700   19.1360   73.6720 C   0  0  0  0  0
    2.7940   20.2590   74.2950 C   0  0  0  0  0
    3.7760   20.2060   75.2720 C   0  0  0  0  0
    4.3130   21.3040   76.0010 N   0  0  0  0  0
    2.0980   21.3220   73.8020 N   0  0  0  0  0
    1.2420   20.8490   72.8580 C   0  0  0  0  0
    1.3930   19.5020   72.7690 N   0  0  0  0  0
    0.7910   18.5080   71.9830 C   0  0  0  0  0
   -0.2000   18.9770   71.2440 C   0  0  0  0  0
   -1.4770   18.9370   71.8910 O   0  0  0  0  0
   -0.1980   18.0150   69.9220 C   0  0  0  0  0
   -0.8240   16.7620   70.2820 O   0  0  0  0  0
    1.8830   18.1590   70.9110 O   0  0  0  0  0
    1.1240   17.8160   69.6300 C   0  0  0  0  0
    1.6480   18.7340   68.4980 C   0  0  0  0  0
    0.9900   19.9810   68.7830 O   0  0  0  0  0
    1.2160   21.3420   68.0220 P   0  0  0  0  0
   -0.1730   21.9070   67.7300 O   0  0  0  0  0
    2.0490   22.2820   68.8810 O   0  0  0  0  0
    2.0020   21.0210   66.7130 O   0  0  0  0  0
    1.5860   20.7990   65.1800 P   0  0  0  0  0
    2.8270   20.2370   64.4860 O   0  0  0  0  0
    0.3050   19.9750   65.1030 O   0  0  0  0  0
    1.2600   22.2380   64.6300 O   0  0  0  0  0
    2.3440   23.1190   64.2740 C   0  0  0  0  0
    1.2580   24.9650   65.5600 O   0  0  0  0  0
    2.0340   26.1760   67.2700 O   0  0  0  0  0
    1.8300   26.1140   65.8740 C   0  0  0  0  0
    3.7340   27.3310   65.0690 O   0  0  0  0  0
    3.1900   26.0590   65.1660 C   0  0  0  0  0
    2.1720   26.5470   62.9770 O   0  0  0  0  0
    2.7730   25.4650   63.8230 C   0  0  0  0  0
    1.8340   24.5400   64.1450 C   0  0  0  0  0
    4.3498   16.9165   75.2363 H   0  0  0  0  0
    5.0450   21.1471   76.6938 H   0  0  0  0  0
    3.9659   22.2479   75.8307 H   0  0  0  0  0
    0.5492   21.4509   72.2699 H   0  0  0  0  0
    0.4339   17.7080   72.6315 H   0  0  0  0  0
   -0.0466   20.0335   71.0241 H   0  0  0  0  0
   -2.1453   19.2908   71.2996 H   0  0  0  0  0
   -0.7330   18.4408   69.0731 H   0  0  0  0  0
   -0.8340   16.1797   69.5188 H   0  0  0  0  0
    1.2636   16.7904   69.2882 H   0  0  0  0  0
    1.4287   18.3522   67.5009 H   0  0  0  0  0
    2.7347   18.8170   68.4825 H   0  0  0  0  0
   -0.6629   21.2846   67.1876 H   0  0  0  0  0
    3.5615   20.8434   64.6058 H   0  0  0  0  0
    2.7668   22.8013   63.3209 H   0  0  0  0  0
    3.1078   23.0807   65.0507 H   0  0  0  0  0
    2.4496   27.0117   67.4947 H   0  0  0  0  0
    1.2309   26.9772   65.5840 H   0  0  0  0  0
    4.5835   27.2815   64.6246 H   0  0  0  0  0
    3.9716   25.4846   65.6633 H   0  0  0  0  0
    1.9074   26.1799   62.1304 H   0  0  0  0  0
    3.6020   25.0311   63.2640 H   0  0  0  0  0
    1.1053   24.5269   63.3345 H   0  0  0  0  0
  2  1  4  0  0  0
  6  1  4  0  0  0
  3  2  4  0  0  0
  4  3  4  0  0  0
  4  5  4  0  0  0
 10  4  4  0  0  0
  5  6  4  0  0  0
  8  5  4  0  0  0
  6  7  1  0  0  0
  9  8  4  0  0  0
 10  9  4  0  0  0
 11 10  1  0  0  0
 11 12  1  0  0  0
 16 11  1  0  0  0
 12 13  1  0  0  0
 14 12  1  0  0  0
 14 15  1  0  0  0
 17 14  1  0  0  0
 17 16  1  0  0  0
 18 17  1  0  0  0
 19 18  1  0  0  0
 20 19  1  0  0  0
 20 21  1  0  0  0
 20 22  2  0  0  0
 23 20  1  0  0  0
 24 23  1  0  0  0
 24 25  1  0  0  0
 24 26  2  0  0  0
 27 24  1  0  0  0
 28 27  1  0  0  0
 36 28  1  0  0  0
 29 31  1  0  0  0
 29 36  1  0  0  0
 31 30  1  0  0  0
 31 33  1  0  0  0
 33 32  1  0  0  0
 33 35  1  0  0  0
 35 34  1  0  0  0
 35 36  1  0  0  0
  2 37  1  0  0  0
  7 38  1  0  0  0
  7 39  1  0  0  0
  9 40  1  0  0  0
 11 41  1  0  0  0
 12 42  1  0  0  0
 13 43  1  0  0  0
 14 44  1  0  0  0
 15 45  1  0  0  0
 17 46  1  0  0  0
 18 47  1  0  0  0
 18 48  1  0  0  0
 21 49  1  0  0  0
 25 50  1  0  0  0
 28 51  1  0  0  0
 28 52  1  0  0  0
 30 53  1  0  0  0
 31 54  1  0  0  0
 32 55  1  0  0  0
 33 56  1  0  0  0
 34 57  1  0  0  0
 35 58  1  0  0  0
 36 59  1  0  0  0
M  END
$$$$
