3ftv_ligand
  -I-interpret- 

 26 27  0  0  0  0  0  0  0  0999 V2000
  -23.6130   -1.3160    4.8490 N   0  0  0  0  0
  -27.8360   -0.3320    0.9130 C   0  0  0  0  0
  -29.1370   -0.4950    0.4140 C   0  0  0  0  0
  -26.7610   -0.4520    0.0430 C   0  0  0  0  0
  -26.9890   -0.7130   -1.3100 C   0  0  0  0  0
  -29.3680   -0.7520   -0.9330 C   0  0  0  0  0
  -28.2890   -0.8490   -1.8130 C   0  0  0  0  0
  -24.1380   -0.4430    4.0100 C   0  0  0  0  0
  -24.4010   -2.1070    2.3370 C   0  0  0  0  0
  -23.8500   -3.0100    3.2460 C   0  0  0  0  0
  -23.4500   -2.5780    4.5040 C   0  0  0  0  0
  -25.1660    0.2690    1.7930 C   0  0  0  0  0
  -24.5580   -0.7900    2.7370 C   0  0  0  0  0
  -25.5030   -0.3210    0.4740 N   0  0  0  0  0
  -27.6717   -0.1143    1.9683 H   0  0  0  0  0
  -29.9839   -0.4187    1.0959 H   0  0  0  0  0
  -26.1401   -0.8126   -1.9864 H   0  0  0  0  0
  -30.3868   -0.8771   -1.2998 H   0  0  0  0  0
  -28.4555   -1.0278   -2.8753 H   0  0  0  0  0
  -24.2453    0.5928    4.3321 H   0  0  0  0  0
  -24.6999   -2.4287    1.3393 H   0  0  0  0  0
  -23.7330   -4.0575    2.9684 H   0  0  0  0  0
  -23.0017   -3.2817    5.2054 H   0  0  0  0  0
  -24.4347    1.0633    1.6430 H   0  0  0  0  0
  -26.0791    0.6561    2.2453 H   0  0  0  0  0
  -24.7437   -0.6395   -0.1281 H   0  0  0  0  0
  8  1  4  0  0  0
  1 11  4  0  0  0
  2  3  4  0  0  0
  4  2  4  0  0  0
  3  6  4  0  0  0
  4  5  4  0  0  0
 14  4  1  0  0  0
  5  7  4  0  0  0
  7  6  4  0  0  0
 13  8  4  0  0  0
  9 10  4  0  0  0
 13  9  4  0  0  0
 10 11  4  0  0  0
 12 13  1  0  0  0
 12 14  1  0  0  0
  2 15  1  0  0  0
  3 16  1  0  0  0
  5 17  1  0  0  0
  6 18  1  0  0  0
  7 19  1  0  0  0
  8 20  1  0  0  0
  9 21  1  0  0  0
 10 22  1  0  0  0
 11 23  1  0  0  0
 12 24  1  0  0  0
 12 25  1  0  0  0
 14 26  1  0  0  0
M  END
$$$$
