6e7x_ligand
  -I-interpret- 

 62 63  0  0  0  0  0  0  0  0999 V2000
  -15.5710  -67.6950  163.9620 C   0  0  0  0  0
  -16.9280  -67.8520  163.7530 C   0  0  0  0  0
  -17.7040  -66.7670  163.3890 C   0  0  0  0  0
  -17.1170  -65.5220  163.2350 C   0  0  0  0  0
  -15.7560  -65.3610  163.4450 C   0  0  0  0  0
  -14.9790  -66.4500  163.8090 C   0  0  0  0  0
  -15.1200  -63.9800  163.2680 C   0  0  0  0  0
  -15.9600  -63.0840  162.3510 C   0  0  0  0  0
  -15.2500  -61.8610  162.0080 N   0  3  0  0  0
  -15.9750  -61.1670  160.9580 C   0  0  0  0  0
  -16.9210  -60.1280  161.5570 C   0  0  0  0  0
  -17.8380  -59.5400  160.4830 C   0  0  0  0  0
  -16.1450  -59.0290  162.2820 C   0  0  0  0  0
  -13.9110  -62.1720  161.5390 C   0  0  0  0  0
  -12.9320  -62.1650  162.7110 C   0  0  0  0  0
  -11.6050  -61.5320  162.3010 C   0  0  0  0  0
  -10.9130  -61.2820  163.4900 O   0  0  0  0  0
   -9.7900  -60.4500  163.4010 C   0  0  0  0  0
   -9.5660  -59.6550  162.2870 C   0  0  0  0  0
   -8.4430  -58.8410  162.2340 C   0  0  0  0  0
   -7.5480  -58.8240  163.2950 C   0  0  0  0  0
   -7.7760  -59.6170  164.4050 C   0  0  0  0  0
   -8.8950  -60.4290  164.4580 C   0  0  0  0  0
   -6.3710  -57.9760  163.2530 N   0  0  0  0  0
   -5.0950  -58.3270  162.1740 S   0  0  0  0  0
   -5.7360  -58.5960  160.4960 C   0  0  0  0  0
   -4.0880  -57.2630  162.1940 O   0  0  0  0  0
   -4.3100  -59.4780  162.6300 O   0  0  0  0  0
  -13.4770  -61.4200  163.7620 O   0  0  0  0  0
  -17.6680  -69.4630  163.9540 Cl  0  0  0  0  0
  -14.5940  -69.1100  164.4290 Cl  0  0  0  0  0
  -18.7742  -66.8911  163.2238 H   0  0  0  0  0
  -17.7272  -64.6657  162.9477 H   0  0  0  0  0
  -13.9085  -66.3284  163.9741 H   0  0  0  0  0
  -14.1368  -64.1095  162.8157 H   0  0  0  0  0
  -15.0530  -63.5042  164.2464 H   0  0  0  0  0
  -16.8776  -62.8162  162.8747 H   0  0  0  0  0
  -16.1715  -63.6307  161.4321 H   0  0  0  0  0
  -15.1833  -61.2707  162.8371 H   0  0  0  0  0
  -16.5590  -61.8927  160.3920 H   0  0  0  0  0
  -15.2600  -60.6619  160.3086 H   0  0  0  0  0
  -17.5478  -60.6309  162.2934 H   0  0  0  0  0
  -17.2331  -59.0610  159.7131 H   0  0  0  0  0
  -18.4310  -60.3382  160.0366 H   0  0  0  0  0
  -18.5010  -58.8033  160.9367 H   0  0  0  0  0
  -15.5577  -59.4711  163.0868 H   0  0  0  0  0
  -15.4800  -58.5300  161.5771 H   0  0  0  0  0
  -16.8457  -58.3048  162.6974 H   0  0  0  0  0
  -13.6032  -61.4221  160.8103 H   0  0  0  0  0
  -13.9127  -63.1603  161.0792 H   0  0  0  0  0
  -12.7558  -63.1947  163.0220 H   0  0  0  0  0
  -11.7638  -60.6133  161.7363 H   0  0  0  0  0
  -11.0380  -62.1935  161.6461 H   0  0  0  0  0
  -10.2701  -59.6693  161.4551 H   0  0  0  0  0
   -8.2639  -58.2153  161.3596 H   0  0  0  0  0
   -7.0737  -59.6022  165.2385 H   0  0  0  0  0
   -9.0727  -61.0536  165.3335 H   0  0  0  0  0
   -6.3057  -57.1669  163.8706 H   0  0  0  0  0
   -6.1944  -57.6766  160.1318 H   0  0  0  0  0
   -4.9161  -58.8807  159.8366 H   0  0  0  0  0
   -6.4808  -59.3916  160.5162 H   0  0  0  0  0
  -12.8634  -61.4140  164.5003 H   0  0  0  0  0
  1  2  4  0  0  0
  1  6  4  0  0  0
  1 31  1  0  0  0
  2  3  4  0  0  0
  2 30  1  0  0  0
  3  4  4  0  0  0
  4  5  4  0  0  0
  5  6  4  0  0  0
  5  7  1  0  0  0
  7  8  1  0  0  0
  8  9  1  0  0  0
  9 10  1  0  0  0
  9 14  1  0  0  0
 10 11  1  0  0  0
 11 12  1  0  0  0
 11 13  1  0  0  0
 14 15  1  0  0  0
 15 16  1  0  0  0
 15 29  1  0  0  0
 16 17  1  0  0  0
 17 18  1  0  0  0
 18 19  4  0  0  0
 18 23  4  0  0  0
 19 20  4  0  0  0
 20 21  4  0  0  0
 21 22  4  0  0  0
 21 24  1  0  0  0
 22 23  4  0  0  0
 24 25  1  0  0  0
 25 26  1  0  0  0
 25 27  2  0  0  0
 25 28  2  0  0  0
  3 32  1  0  0  0
  4 33  1  0  0  0
  6 34  1  0  0  0
  7 35  1  0  0  0
  7 36  1  0  0  0
  8 37  1  0  0  0
  8 38  1  0  0  0
  9 39  1  0  0  0
 10 40  1  0  0  0
 10 41  1  0  0  0
 11 42  1  0  0  0
 12 43  1  0  0  0
 12 44  1  0  0  0
 12 45  1  0  0  0
 13 46  1  0  0  0
 13 47  1  0  0  0
 13 48  1  0  0  0
 14 49  1  0  0  0
 14 50  1  0  0  0
 15 51  1  0  0  0
 16 52  1  0  0  0
 16 53  1  0  0  0
 19 54  1  0  0  0
 20 55  1  0  0  0
 22 56  1  0  0  0
 23 57  1  0  0  0
 24 58  1  0  0  0
 26 59  1  0  0  0
 26 60  1  0  0  0
 26 61  1  0  0  0
 29 62  1  0  0  0
M  END
$$$$
