3rin_ligand
  -I-interpret- 

 51 55  0  0  0  0  0  0  0  0999 V2000
    6.7160   30.3910   30.9070 C   0  0  0  0  0
    5.4810   31.0160   31.2310 C   0  0  0  0  0
    4.3200   30.7030   30.4910 C   0  0  0  0  0
    4.4290   29.7660   29.4330 C   0  0  0  0  0
    5.6370   29.1050   29.1050 C   0  0  0  0  0
    6.7980   29.4660   29.8580 C   0  0  0  0  0
    5.4150   32.0470   32.3830 C   0  0  0  0  0
    5.6950   28.1280   27.8940 C   0  0  0  0  0
    6.6040   27.1490   27.8530 N   0  0  0  0  0
    6.6480   26.3060   26.6740 C   0  0  0  0  0
    7.0640   27.0440   25.3930 C   0  0  0  0  0
    8.0390   26.0590   26.0350 C   0  0  0  0  0
    4.9850   28.3140   26.9170 O   0  0  0  0  0
    3.0320   31.2990   30.7310 C   0  0  0  0  0
    2.8580   32.6150   30.3220 C   0  0  0  0  0
    1.6660   33.3110   30.4610 C   0  0  0  0  0
    0.5640   32.6620   31.0120 C   0  0  0  0  0
    0.6840   31.3000   31.4270 C   0  0  0  0  0
    1.9180   30.6260   31.2740 C   0  0  0  0  0
    1.3940   34.5770   30.1080 N   0  0  0  0  0
    0.1070   34.8740   30.3620 C   0  0  0  0  0
   -0.6050   33.7050   30.9930 C   0  0  0  0  0
   -0.4430   35.9340   30.0910 O   0  0  0  0  0
   -1.2500   34.0470   32.3570 C   0  0  0  0  0
   -2.6690   34.4630   31.9370 C   0  0  0  0  0
   -3.0390   33.3960   30.9280 C   0  0  0  0  0
   -1.7830   33.2770   30.0470 C   0  0  0  0  0
    7.6098   30.6343   31.4815 H   0  0  0  0  0
    3.5396   29.5437   28.8434 H   0  0  0  0  0
    7.7596   29.0154   29.6125 H   0  0  0  0  0
    5.7221   31.5701   33.3138 H   0  0  0  0  0
    6.0828   32.8797   32.1623 H   0  0  0  0  0
    4.3937   32.4149   32.4815 H   0  0  0  0  0
    7.2486   26.9991   28.6292 H   0  0  0  0  0
    5.8297   25.6568   26.9855 H   0  0  0  0  0
    7.0760   28.0658   25.0136 H   0  0  0  0  0
    6.6515   27.2489   24.4051 H   0  0  0  0  0
    8.6666   25.2182   25.7396 H   0  0  0  0  0
    9.0850   26.0233   26.3393 H   0  0  0  0  0
    3.7045   33.1291   29.8668 H   0  0  0  0  0
   -0.1721   30.7825   31.8598 H   0  0  0  0  0
    2.0083   29.5828   31.5768 H   0  0  0  0  0
    2.0700   35.2246   29.7030 H   0  0  0  0  0
   -0.7159   34.8214   32.9076 H   0  0  0  0  0
   -1.2324   33.2186   33.0652 H   0  0  0  0  0
   -2.7142   35.4720   31.5272 H   0  0  0  0  0
   -3.3636   34.5169   32.7753 H   0  0  0  0  0
   -3.9274   33.6572   30.3530 H   0  0  0  0  0
   -3.3066   32.4511   31.4009 H   0  0  0  0  0
   -1.6498   32.2684   29.6557 H   0  0  0  0  0
   -1.8442   33.9042   29.1576 H   0  0  0  0  0
  1  2  4  0  0  0
  1  6  4  0  0  0
  2  3  4  0  0  0
  2  7  1  0  0  0
  3  4  4  0  0  0
  3 14  1  0  0  0
  4  5  4  0  0  0
  5  6  4  0  0  0
  5  8  1  0  0  0
  8  9  1  0  0  0
  8 13  2  0  0  0
  9 10  1  0  0  0
 10 11  1  0  0  0
 10 12  1  0  0  0
 11 12  1  0  0  0
 14 15  4  0  0  0
 14 19  4  0  0  0
 15 16  4  0  0  0
 16 17  4  0  0  0
 16 20  1  0  0  0
 17 18  4  0  0  0
 17 22  1  0  0  0
 18 19  4  0  0  0
 20 21  1  0  0  0
 21 22  1  0  0  0
 21 23  2  0  0  0
 22 24  1  0  0  0
 22 27  1  0  0  0
 24 25  1  0  0  0
 25 26  1  0  0  0
 26 27  1  0  0  0
  1 28  1  0  0  0
  4 29  1  0  0  0
  6 30  1  0  0  0
  7 31  1  0  0  0
  7 32  1  0  0  0
  7 33  1  0  0  0
  9 34  1  0  0  0
 10 35  1  0  0  0
 11 36  1  0  0  0
 11 37  1  0  0  0
 12 38  1  0  0  0
 12 39  1  0  0  0
 15 40  1  0  0  0
 18 41  1  0  0  0
 19 42  1  0  0  0
 20 43  1  0  0  0
 24 44  1  0  0  0
 24 45  1  0  0  0
 25 46  1  0  0  0
 25 47  1  0  0  0
 26 48  1  0  0  0
 26 49  1  0  0  0
 27 50  1  0  0  0
 27 51  1  0  0  0
M  END
$$$$
