3zn0_ligand
  -I-interpret- 

 92 93  0  0  0  0  0  0  0  0999 V2000
   -0.7970   54.1950   84.9750 N   0  3  0  0  0
   -0.9660   52.8370   85.4720 C   0  0  0  0  0
   -1.2000   51.8250   84.3490 C   0  0  0  0  0
   -1.7000   52.1920   83.2810 O   0  0  0  0  0
   -2.2160   52.9480   86.3500 C   0  0  0  0  0
   -2.9980   54.0870   85.7780 C   0  0  0  0  0
   -2.0660   54.9430   84.9620 C   0  0  0  0  0
   -0.8510   50.5640   84.6010 N   0  0  0  0  0
   -1.1030   49.4810   83.6460 C   0  0  0  0  0
   -2.6060   49.2280   83.4630 C   0  0  0  0  0
   -3.0240   48.6390   82.4660 O   0  0  0  0  0
   -0.3910   48.1900   84.0800 C   0  0  0  0  0
   -0.2780   47.1510   82.9680 C   0  0  0  0  0
   -0.1480   45.7300   83.5010 C   0  0  0  0  0
    1.2540   45.3520   83.7310 N   0  0  0  0  0
    1.7000   44.0970   83.7670 C   0  0  0  0  0
    0.8610   43.0750   83.5810 N   0  0  0  0  0
    2.9940   43.8610   83.9840 N   0  0  0  0  0
   -3.4040   49.6930   84.4230 N   0  0  0  0  0
   -4.8530   49.4680   84.4500 C   0  0  0  0  0
   -5.6030   49.9720   83.2120 C   0  0  0  0  0
   -6.6190   49.3920   82.8280 O   0  0  0  0  0
   -5.4650   50.0970   85.7070 C   0  0  0  0  0
   -4.7780   49.6850   86.8770 O   0  0  0  0  0
   -5.1050   51.0450   82.5970 N   0  0  0  0  0
   -5.7780   51.6660   81.4480 C   0  0  0  0  0
   -5.6590   50.8620   80.1530 C   0  0  0  0  0
   -6.4850   51.0190   79.2490 O   0  0  0  0  0
   -5.2730   53.0970   81.2060 C   0  0  0  0  0
   -5.6040   54.0670   82.3110 C   0  0  0  0  0
   -6.7370   53.8980   83.1050 C   0  0  0  0  0
   -4.7920   55.1720   82.5370 C   0  0  0  0  0
   -7.0320   54.7960   84.1180 C   0  0  0  0  0
   -5.0900   56.0770   83.5430 C   0  0  0  0  0
   -6.2090   55.8880   84.3350 C   0  0  0  0  0
   -4.6320   50.0130   80.0730 N   0  0  0  0  0
   -4.3140   49.2430   78.8640 C   0  0  0  0  0
   -5.5170   48.4860   78.2930 C   0  0  0  0  0
   -6.2890   47.8680   79.0340 O   0  0  0  0  0
   -3.1520   48.2920   79.1260 C   0  0  0  0  0
   -5.6610   48.5540   76.9700 N   0  0  0  0  0
   -6.7520   47.9030   76.2480 C   0  0  0  0  0
   -6.6890   46.3800   76.3630 C   0  0  0  0  0
   -5.5882   45.7760   76.4683 O   0  0  0  0  0
   -6.7360   48.3260   74.7890 C   0  0  0  0  0
   -7.7594   45.7153   76.3522 O   0  0  0  0  0
   -0.4493   54.1422   84.0176 H   0  0  0  0  0
   -0.1476   54.6813   85.5933 H   0  0  0  0  0
   -0.0786   52.4795   85.9944 H   0  0  0  0  0
   -1.9589   53.1217   87.3949 H   0  0  0  0  0
   -2.7926   52.0230   86.3469 H   0  0  0  0  0
   -3.4382   54.6773   86.5816 H   0  0  0  0  0
   -3.8025   53.7073   85.1481 H   0  0  0  0  0
   -2.4370   55.1121   83.9511 H   0  0  0  0  0
   -1.9593   55.9471   85.3726 H   0  0  0  0  0
   -0.3941   50.3455   85.4864 H   0  0  0  0  0
   -0.6971   49.7949   82.6843 H   0  0  0  0  0
   -0.9795   47.7464   84.8831 H   0  0  0  0  0
    0.6218   48.4601   84.3790 H   0  0  0  0  0
    0.6192   47.3751   82.3910 H   0  0  0  0  0
   -1.1875   47.2017   82.3694 H   0  0  0  0  0
   -0.5666   45.0492   82.7598 H   0  0  0  0  0
   -0.6758   45.6743   84.4530 H   0  0  0  0  0
    1.9313   46.1014   83.8726 H   0  0  0  0  0
    1.2107   42.1171   83.6052 H   0  0  0  0  0
   -0.1296   43.2522   83.4147 H   0  0  0  0  0
    3.6383   44.6396   84.1217 H   0  0  0  0  0
   -2.9851   50.2342   85.1793 H   0  0  0  0  0
   -4.9737   48.3847   84.4575 H   0  0  0  0  0
   -6.5040   49.7767   85.7842 H   0  0  0  0  0
   -5.3892   51.1812   85.6242 H   0  0  0  0  0
   -5.1830   50.0940   87.6453 H   0  0  0  0  0
   -4.2303   51.4469   82.9344 H   0  0  0  0  0
   -6.8334   51.6871   81.7196 H   0  0  0  0  0
   -5.7621   53.4611   80.3025 H   0  0  0  0  0
   -4.1863   53.0464   81.1386 H   0  0  0  0  0
   -7.3983   53.0500   82.9270 H   0  0  0  0  0
   -3.9103   55.3286   81.9155 H   0  0  0  0  0
   -7.9113   54.6429   84.7436 H   0  0  0  0  0
   -4.4429   56.9380   83.7106 H   0  0  0  0  0
   -6.4421   56.5979   85.1286 H   0  0  0  0  0
   -4.0380   49.8931   80.8935 H   0  0  0  0  0
   -4.0215   49.9677   78.1041 H   0  0  0  0  0
   -2.2739   48.8661   79.4217 H   0  0  0  0  0
   -3.4223   47.6016   79.9250 H   0  0  0  0  0
   -2.9318   47.7306   78.2180 H   0  0  0  0  0
   -4.9756   49.0870   76.4347 H   0  0  0  0  0
   -7.6879   48.2223   76.7065 H   0  0  0  0  0
   -6.8576   49.4073   74.7242 H   0  0  0  0  0
   -5.7858   48.0383   74.3390 H   0  0  0  0  0
   -7.5532   47.8349   74.2607 H   0  0  0  0  0
   -8.5054   46.3135   76.2670 H   0  0  0  0  0
  1  2  1  0  0  0
  1  7  1  0  0  0
  2  3  1  0  0  0
  2  5  1  0  0  0
  3  4  2  0  0  0
  3  8  1  0  0  0
  5  6  1  0  0  0
  6  7  1  0  0  0
  8  9  1  0  0  0
  9 10  1  0  0  0
  9 12  1  0  0  0
 10 11  2  0  0  0
 10 19  1  0  0  0
 12 13  1  0  0  0
 13 14  1  0  0  0
 14 15  1  0  0  0
 15 16  1  0  0  0
 16 17  1  0  0  0
 16 18  2  0  0  0
 19 20  1  0  0  0
 20 21  1  0  0  0
 20 23  1  0  0  0
 21 22  2  0  0  0
 21 25  1  0  0  0
 23 24  1  0  0  0
 25 26  1  0  0  0
 26 27  1  0  0  0
 26 29  1  0  0  0
 27 28  2  0  0  0
 27 36  1  0  0  0
 29 30  1  0  0  0
 30 31  4  0  0  0
 30 32  4  0  0  0
 31 33  4  0  0  0
 32 34  4  0  0  0
 33 35  4  0  0  0
 34 35  4  0  0  0
 36 37  1  0  0  0
 37 38  1  0  0  0
 37 40  1  0  0  0
 38 39  2  0  0  0
 38 41  1  0  0  0
 41 42  1  0  0  0
 42 43  1  0  0  0
 42 45  1  0  0  0
 43 44  2  0  0  0
 43 46  1  0  0  0
  1 47  1  0  0  0
  1 48  1  0  0  0
  2 49  1  0  0  0
  5 50  1  0  0  0
  5 51  1  0  0  0
  6 52  1  0  0  0
  6 53  1  0  0  0
  7 54  1  0  0  0
  7 55  1  0  0  0
  8 56  1  0  0  0
  9 57  1  0  0  0
 12 58  1  0  0  0
 12 59  1  0  0  0
 13 60  1  0  0  0
 13 61  1  0  0  0
 14 62  1  0  0  0
 14 63  1  0  0  0
 15 64  1  0  0  0
 17 65  1  0  0  0
 17 66  1  0  0  0
 18 67  1  0  0  0
 19 68  1  0  0  0
 20 69  1  0  0  0
 23 70  1  0  0  0
 23 71  1  0  0  0
 24 72  1  0  0  0
 25 73  1  0  0  0
 26 74  1  0  0  0
 29 75  1  0  0  0
 29 76  1  0  0  0
 31 77  1  0  0  0
 32 78  1  0  0  0
 33 79  1  0  0  0
 34 80  1  0  0  0
 35 81  1  0  0  0
 36 82  1  0  0  0
 37 83  1  0  0  0
 40 84  1  0  0  0
 40 85  1  0  0  0
 40 86  1  0  0  0
 41 87  1  0  0  0
 42 88  1  0  0  0
 45 89  1  0  0  0
 45 90  1  0  0  0
 45 91  1  0  0  0
 46 92  1  0  0  0
M  END
$$$$
