3dg8_ligand
  -I-interpret- 

 32 32  0  0  0  0  0  0  0  0999 V2000
   26.9540    4.8220   62.1900 C   0  0  0  0  0
   27.3970    5.9110   62.8580 C   0  0  0  0  0
   28.2110    6.8610   62.3570 C   0  0  0  0  0
   28.6290    6.6970   61.0330 C   0  0  0  0  0
   28.2230    5.6040   60.2910 C   0  0  0  0  0
   27.3800    4.6690   60.8740 C   0  0  0  0  0
   26.1240    4.0090   62.8980 O   0  0  0  0  0
   25.4230    2.8270   62.6650 C   0  0  0  0  0
   28.4990    7.8820   63.2150 O   0  0  0  0  0
   28.9060    9.1440   62.7740 C   0  0  0  0  0
   28.6240    5.4280   58.9960 N   0  0  0  0  0
   29.5170    4.5600   58.4390 C   0  0  0  0  0
   29.7750    4.6620   57.1170 N   0  0  0  0  0
   29.2000    5.3780   56.1380 C   0  0  0  0  0
   28.3770    6.4150   56.3920 N   0  0  0  0  0
   30.0890    3.6760   59.1790 N   0  0  0  0  0
   29.4460    5.0520   54.9160 N   0  0  0  0  0
   27.0675    6.0307   63.8901 H   0  0  0  0  0
   29.2839    7.4412   60.5798 H   0  0  0  0  0
   27.0482    3.8065   60.2959 H   0  0  0  0  0
   24.7227    2.9773   61.8434 H   0  0  0  0  0
   26.1252    2.0348   62.4052 H   0  0  0  0  0
   24.8749    2.5478   63.5648 H   0  0  0  0  0
   29.8283    9.0473   62.2011 H   0  0  0  0  0
   28.1286    9.5753   62.1434 H   0  0  0  0  0
   29.0775    9.7904   63.6347 H   0  0  0  0  0
   28.1767    6.0564   58.3286 H   0  0  0  0  0
   30.5553    4.0851   56.8029 H   0  0  0  0  0
   27.9560    6.9328   55.6206 H   0  0  0  0  0
   28.1752    6.6818   57.3556 H   0  0  0  0  0
   29.8736    3.6278   60.1748 H   0  0  0  0  0
   30.0644    4.2669   54.7122 H   0  0  0  0  0
  1  2  4  0  0  0
  1  6  4  0  0  0
  1  7  1  0  0  0
  2  3  4  0  0  0
  3  4  4  0  0  0
  3  9  1  0  0  0
  4  5  4  0  0  0
  5  6  4  0  0  0
  5 11  1  0  0  0
  7  8  1  0  0  0
  9 10  1  0  0  0
 11 12  1  0  0  0
 12 13  1  0  0  0
 12 16  2  0  0  0
 13 14  1  0  0  0
 14 15  1  0  0  0
 14 17  2  0  0  0
  2 18  1  0  0  0
  4 19  1  0  0  0
  6 20  1  0  0  0
  8 21  1  0  0  0
  8 22  1  0  0  0
  8 23  1  0  0  0
 10 24  1  0  0  0
 10 25  1  0  0  0
 10 26  1  0  0  0
 11 27  1  0  0  0
 13 28  1  0  0  0
 15 29  1  0  0  0
 15 30  1  0  0  0
 16 31  1  0  0  0
 17 32  1  0  0  0
M  END
$$$$
