4azc_ligand
  -I-interpret- 

 30 31  0  0  0  0  0  0  0  0999 V2000
  -31.9980  -22.2530  -51.7560 O   0  0  0  0  0
  -32.6900  -22.5500  -52.9670 C   0  0  0  0  0
  -31.7360  -22.2960  -54.1220 C   0  0  0  0  0
  -33.1400  -24.0030  -52.9780 C   0  0  0  0  0
  -31.2800  -20.9300  -54.0710 O   0  0  0  0  0
  -32.4100  -22.6430  -55.4800 C   0  0  0  0  0
  -31.4290  -22.6800  -56.5890 N   0  3  0  0  0
  -33.0720  -24.0470  -55.4600 C   0  0  0  0  0
  -30.5100  -23.8160  -56.3480 C   0  0  0  0  0
  -29.7360  -24.1800  -57.6230 C   0  0  0  0  0
  -31.6270  -25.1380  -55.7860 S   0  0  0  0  0
  -33.8140  -24.3720  -54.2120 O   0  0  0  0  0
  -34.1530  -24.2970  -51.8560 C   0  0  0  0  0
  -35.3000  -23.4600  -51.9990 O   0  0  0  0  0
  -31.7209  -21.3339  -51.7643 H   0  0  0  0  0
  -33.5761  -21.9214  -53.0557 H   0  0  0  0  0
  -30.8665  -22.9470  -54.0314 H   0  0  0  0  0
  -32.2191  -24.5724  -52.8519 H   0  0  0  0  0
  -30.8725  -20.7615  -53.2183 H   0  0  0  0  0
  -33.1524  -21.8596  -55.6323 H   0  0  0  0  0
  -30.9060  -21.8051  -56.6267 H   0  0  0  0  0
  -31.9093  -22.7980  -57.4811 H   0  0  0  0  0
  -33.8746  -24.1516  -56.1901 H   0  0  0  0  0
  -29.7295  -23.6060  -55.6166 H   0  0  0  0  0
  -29.1305  -25.0673  -57.4381 H   0  0  0  0  0
  -30.4411  -24.3814  -58.4295 H   0  0  0  0  0
  -29.0889  -23.3489  -57.9034 H   0  0  0  0  0
  -33.6851  -24.1009  -50.8913 H   0  0  0  0  0
  -34.4618  -25.3405  -51.9174 H   0  0  0  0  0
  -35.9242  -23.6514  -51.2952 H   0  0  0  0  0
  1  2  1  0  0  0
  2  3  1  0  0  0
  2  4  1  0  0  0
  3  5  1  0  0  0
  3  6  1  0  0  0
  4 12  1  0  0  0
  4 13  1  0  0  0
  6  7  1  0  0  0
  6  8  1  0  0  0
  7  9  1  0  0  0
  8 11  1  0  0  0
  8 12  1  0  0  0
  9 10  1  0  0  0
  9 11  1  0  0  0
 13 14  1  0  0  0
  1 15  1  0  0  0
  2 16  1  0  0  0
  3 17  1  0  0  0
  4 18  1  0  0  0
  5 19  1  0  0  0
  6 20  1  0  0  0
  7 21  1  0  0  0
  7 22  1  0  0  0
  8 23  1  0  0  0
  9 24  1  0  0  0
 10 25  1  0  0  0
 10 26  1  0  0  0
 10 27  1  0  0  0
 13 28  1  0  0  0
 13 29  1  0  0  0
 14 30  1  0  0  0
M  END
$$$$
