5nb6_ligand
  -I-interpret- 

 57 60  0  0  0  0  0  0  0  0999 V2000
   -5.6120  -15.9830   -6.2650 C   0  0  0  0  0
   -4.4010  -15.3380   -6.4390 C   0  0  0  0  0
   -4.1370  -15.2870   -4.0030 C   0  0  0  0  0
   -0.5050  -13.1300   -5.1910 C   0  0  0  0  0
    1.1980  -13.0860   -3.5080 C   0  0  0  0  0
    0.6900  -13.9980   -4.6650 C   0  0  0  0  0
   -6.6010  -14.3300   -8.2830 F   0  0  0  0  0
   -7.2390  -15.4490   -7.9380 C   0  0  0  0  0
   -8.0780  -15.1240   -6.9130 F   0  0  0  0  0
   -7.8230  -16.0160   -9.0360 F   0  0  0  0  0
   -6.3020  -16.3730   -7.4190 O   0  0  0  0  0
   -3.6750  -14.9970   -5.2930 C   0  0  0  0  0
   -5.3710  -15.9200   -3.8520 C   0  0  0  0  0
   -6.0980  -16.2630   -4.9750 C   0  0  0  0  0
   -2.4500  -14.4100   -5.4830 N   0  0  0  0  0
   -1.8400  -13.5360   -4.6520 C   0  0  0  0  0
   -2.3020  -12.9790   -3.6750 O   0  0  0  0  0
   -0.1170  -11.7750   -4.8890 N   0  0  0  0  0
    1.1040  -11.6530   -4.0970 C   0  0  0  0  0
    0.3660  -13.3460   -2.3210 N   0  3  0  0  0
   -0.8840  -10.7200   -5.3800 C   0  0  0  0  0
   -1.9320  -11.0080   -6.0410 O   0  0  0  0  0
   -0.5350   -9.4460   -5.1920 N   0  0  0  0  0
   -1.2490   -8.3180   -5.6080 C   0  0  0  0  0
   -1.0110   -7.5020   -6.6740 C   0  0  0  0  0
   -2.0590   -6.5180   -6.7300 N   0  0  0  0  0
   -2.9680   -6.7160   -5.6840 C   0  0  0  0  0
   -2.5600   -7.8340   -4.9550 C   0  0  0  0  0
   -3.2940   -8.2400   -3.8290 C   0  0  0  0  0
   -4.4720   -7.5400   -3.4470 C   0  0  0  0  0
   -4.8960   -6.4000   -4.1770 C   0  0  0  0  0
   -4.1440   -5.9640   -5.3020 C   0  0  0  0  0
   -2.1530   -5.5470   -7.6640 C   0  0  0  0  0
   -3.0380   -4.6610   -7.7250 O   0  0  0  0  0
   -1.1150   -5.4540   -8.5570 N   0  0  0  0  0
   -4.0252  -15.1034   -7.4349 H   0  0  0  0  0
   -3.5410  -15.0220   -3.1297 H   0  0  0  0  0
   -0.6690  -13.2658   -6.2600 H   0  0  0  0  0
    2.2193  -13.2593   -3.1689 H   0  0  0  0  0
    1.4427  -14.2316   -5.4180 H   0  0  0  0  0
    0.4128  -15.0057   -4.3556 H   0  0  0  0  0
   -5.7576  -16.1417   -2.8573 H   0  0  0  0  0
   -7.0624  -16.7579   -4.8601 H   0  0  0  0  0
   -1.9495  -14.6578   -6.3365 H   0  0  0  0  0
    1.9795  -11.3463   -4.6692 H   0  0  0  0  0
    1.0737  -10.8624   -3.3473 H   0  0  0  0  0
    0.5016  -14.3101   -2.0168 H   0  0  0  0  0
    0.6375  -12.7102   -1.5711 H   0  0  0  0  0
   -0.6154  -13.1972   -2.5559 H   0  0  0  0  0
    0.3399   -9.2781   -4.6953 H   0  0  0  0  0
   -0.1715   -7.5815   -7.3647 H   0  0  0  0  0
   -2.9592   -9.0967   -3.2441 H   0  0  0  0  0
   -5.0516   -7.8812   -2.5893 H   0  0  0  0  0
   -5.7944   -5.8607   -3.8767 H   0  0  0  0  0
   -4.4470   -5.0814   -5.8653 H   0  0  0  0  0
   -1.0885   -4.6882   -9.2302 H   0  0  0  0  0
   -0.3701   -6.1507   -8.5475 H   0  0  0  0  0
  2  1  4  0  0  0
  1 11  1  0  0  0
  1 14  4  0  0  0
 12  2  4  0  0  0
 12  3  4  0  0  0
  3 13  4  0  0  0
  4  6  1  0  0  0
 16  4  1  0  0  0
  4 18  1  0  0  0
  6  5  1  0  0  0
  5 19  1  0  0  0
  5 20  1  0  0  0
  8  7  1  0  0  0
  8  9  1  0  0  0
  8 10  1  0  0  0
 11  8  1  0  0  0
 15 12  1  0  0  0
 13 14  4  0  0  0
 15 16  1  0  0  0
 16 17  2  0  0  0
 18 19  1  0  0  0
 18 21  1  0  0  0
 21 22  2  0  0  0
 21 23  1  0  0  0
 23 24  1  0  0  0
 24 25  4  0  0  0
 24 28  4  0  0  0
 25 26  4  0  0  0
 26 27  4  0  0  0
 26 33  1  0  0  0
 27 28  4  0  0  0
 27 32  4  0  0  0
 28 29  4  0  0  0
 29 30  4  0  0  0
 30 31  4  0  0  0
 31 32  4  0  0  0
 33 34  2  0  0  0
 33 35  1  0  0  0
  2 36  1  0  0  0
  3 37  1  0  0  0
  4 38  1  0  0  0
  5 39  1  0  0  0
  6 40  1  0  0  0
  6 41  1  0  0  0
 13 42  1  0  0  0
 14 43  1  0  0  0
 15 44  1  0  0  0
 19 45  1  0  0  0
 19 46  1  0  0  0
 20 47  1  0  0  0
 20 48  1  0  0  0
 20 49  1  0  0  0
 23 50  1  0  0  0
 25 51  1  0  0  0
 29 52  1  0  0  0
 30 53  1  0  0  0
 31 54  1  0  0  0
 32 55  1  0  0  0
 35 56  1  0  0  0
 35 57  1  0  0  0
M  END
$$$$
