2rkd_ligand
  -I-interpret- 

 16 15  0  0  0  0  0  0  0  0999 V2000
    0.5060   -4.5950    9.2440 C   0  0  0  0  0
    1.8000   -5.4000    9.3800 C   0  0  0  0  0
    0.3370   -3.4350   10.6330 P   0  0  0  0  0
    2.3480   -5.8140    8.0330 C   0  0  0  0  0
    2.8940   -6.9410    7.9170 O   0  0  0  0  0
    2.2400   -4.9970    7.0910 O   0  0  0  0  0
    1.6770   -2.7350   10.7520 O   0  0  0  0  0
   -0.8070   -2.5360   10.2220 O   0  0  0  0  0
    0.0040   -4.3000   11.8240 O   0  0  0  0  0
   -0.3417   -5.2802    9.2470 H   0  0  0  0  0
    0.5332   -4.0320    8.3111 H   0  0  0  0  0
    1.5841   -6.3013    9.9537 H   0  0  0  0  0
    2.5427   -4.7737    9.8742 H   0  0  0  0  0
    2.8653   -7.3976    8.7610 H   0  0  0  0  0
    1.8298   -2.2033    9.9674 H   0  0  0  0  0
   -0.5427   -2.0101    9.4636 H   0  0  0  0  0
  1  2  1  0  0  0
  1  3  1  0  0  0
  2  4  1  0  0  0
  3  7  1  0  0  0
  3  8  1  0  0  0
  3  9  2  0  0  0
  4  5  1  0  0  0
  4  6  2  0  0  0
  1 10  1  0  0  0
  1 11  1  0  0  0
  2 12  1  0  0  0
  2 13  1  0  0  0
  5 14  1  0  0  0
  7 15  1  0  0  0
  8 16  1  0  0  0
M  END
$$$$
