2x9e_ligand
  -I-interpret- 

 89 94  0  0  0  0  0  0  0  0999 V2000
  -10.4810   24.7490   -2.5080 C   0  0  0  0  0
   -9.6860   25.9970   -1.9600 C   0  0  0  0  0
   -9.7410   23.4610   -2.3160 C   0  0  0  0  0
   -8.5820   23.3520   -1.7090 C   0  0  0  0  0
   -8.2170   21.9930   -1.7640 N   0  0  0  0  0
   -9.1780   21.3010   -2.4090 N   0  0  0  0  0
  -10.0900   22.1250   -2.7490 C   0  0  0  0  0
  -11.2660   21.7010   -3.4480 C   0  0  0  0  0
  -11.5020   20.3890   -3.4540 N   0  0  0  0  0
  -12.0170   22.5010   -4.0260 O   0  0  0  0  0
   -7.0250   21.3890   -1.2290 C   0  0  0  0  0
   -7.8760   24.4600   -1.0910 C   0  0  0  0  0
   -8.3930   25.7030   -1.1690 C   0  0  0  0  0
   -7.6600   26.7790   -0.4960 C   0  0  0  0  0
   -6.5640   26.5100    0.1280 N   0  0  0  0  0
   -6.0460   25.1740    0.1800 C   0  0  0  0  0
   -6.6770   24.2350   -0.3940 N   0  0  0  0  0
   -4.8500   24.8510    0.8600 N   0  0  0  0  0
   -4.1950   23.5840    1.0170 C   0  0  0  0  0
   -2.9030   23.5540    0.6770 C   0  0  0  0  0
   -2.1120   22.2880    0.8310 C   0  0  0  0  0
   -2.6970   21.1770    1.3090 C   0  0  0  0  0
   -4.1360   21.1910    1.6730 C   0  0  0  0  0
   -4.8550   22.3420    1.5360 C   0  0  0  0  0
   -2.3710   24.7760    0.1820 O   0  0  0  0  0
   -1.8990   19.9850    1.4880 C   0  0  0  0  0
   -2.2270   18.8240    0.8970 N   0  0  0  0  0
   -0.9040   20.0690    2.2390 O   0  0  0  0  0
   -1.4690   17.6020    1.1610 C   0  0  0  0  0
   -1.8810   16.5010    0.1340 C   0  0  0  0  0
   -1.1720   15.1540    0.4740 C   0  0  0  0  0
   -1.4920   14.7500    1.8840 N   0  3  0  0  0
   -0.9930   15.7620    2.8750 C   0  0  0  0  0
   -1.7160   17.1110    2.6370 C   0  0  0  0  0
   -0.8790   13.4350    2.1750 C   0  0  0  0  0
   -1.1730   25.2770    0.7460 C   0  0  0  0  0
   -0.1010   24.7050    0.0800 F   0  0  0  0  0
   -1.1040   24.9590    2.0900 F   0  0  0  0  0
   -1.1120   26.6650    0.6320 F   0  0  0  0  0
  -12.6450   19.7810   -3.9960 C   0  0  0  0  0
  -12.5880   19.3760   -5.2920 C   0  0  0  0  0
  -13.7770   18.7300   -5.9050 C   0  0  0  0  0
  -14.9090   18.5470   -5.1850 C   0  0  0  0  0
  -14.9800   18.9820   -3.7770 C   0  0  0  0  0
  -13.9110   19.5770   -3.1810 C   0  0  0  0  0
  -13.9640   20.0370   -1.7070 C   0  0  0  0  0
  -15.3040   19.7770   -0.9860 C   0  0  0  0  0
  -11.2890   19.5950   -6.0800 C   0  0  0  0  0
  -11.3400   19.0990   -7.5280 C   0  0  0  0  0
  -10.6311   24.8919   -3.5781 H   0  0  0  0  0
  -11.4185   24.6813   -1.9562 H   0  0  0  0  0
  -10.3573   26.4978   -1.2624 H   0  0  0  0  0
   -9.3783   26.5658   -2.8374 H   0  0  0  0  0
  -10.7991   19.7814   -3.0331 H   0  0  0  0  0
   -6.1496   21.8401   -1.6961 H   0  0  0  0  0
   -6.9885   21.5523   -0.1519 H   0  0  0  0  0
   -7.0375   20.3188   -1.4353 H   0  0  0  0  0
   -8.0390   27.8006   -0.5228 H   0  0  0  0  0
   -4.3809   25.6385    1.3074 H   0  0  0  0  0
   -1.0580   22.2698    0.5538 H   0  0  0  0  0
   -4.6154   20.2866    2.0476 H   0  0  0  0  0
   -5.9113   22.3588    1.8043 H   0  0  0  0  0
   -3.0179   18.7946    0.2535 H   0  0  0  0  0
   -0.4044   17.8074    1.0492 H   0  0  0  0  0
   -1.5847   16.8174   -0.8661 H   0  0  0  0  0
   -2.9605   16.3571    0.1793 H   0  0  0  0  0
   -0.0941   15.2792    0.3717 H   0  0  0  0  0
   -1.5221   14.3808   -0.2098 H   0  0  0  0  0
   -2.5066   14.6926    1.9714 H   0  0  0  0  0
    0.0813   15.8967    2.7495 H   0  0  0  0  0
   -1.1964   15.4126    3.8872 H   0  0  0  0  0
   -2.7860   16.9771    2.7959 H   0  0  0  0  0
   -1.3257   17.8544    3.3321 H   0  0  0  0  0
   -1.2757   12.6900    1.4853 H   0  0  0  0  0
    0.2020   13.5048    2.0541 H   0  0  0  0  0
   -1.1134   13.1450    3.1992 H   0  0  0  0  0
  -13.7378   18.4005   -6.9433 H   0  0  0  0  0
  -15.7747   18.0746   -5.6493 H   0  0  0  0  0
  -15.8970   18.8254   -3.2090 H   0  0  0  0  0
  -13.8143   21.1167   -1.7102 H   0  0  0  0  0
  -13.2049   19.4654   -1.1730 H   0  0  0  0  0
  -16.1033   20.3052   -1.5059 H   0  0  0  0  0
  -15.5136   18.7073   -0.9860 H   0  0  0  0  0
  -15.2380   20.1356    0.0412 H   0  0  0  0  0
  -10.5072   19.0286   -5.5740 H   0  0  0  0  0
  -11.1121   20.6700   -6.1149 H   0  0  0  0  0
  -11.5428   18.0281   -7.5369 H   0  0  0  0  0
  -12.1311   19.6244   -8.0630 H   0  0  0  0  0
  -10.3823   19.2927   -8.0110 H   0  0  0  0  0
  1  2  1  0  0  0
  1  3  1  0  0  0
  2 13  1  0  0  0
  3  4  4  0  0  0
  3  7  4  0  0  0
  4  5  4  0  0  0
  4 12  1  0  0  0
  5  6  4  0  0  0
  5 11  1  0  0  0
  6  7  4  0  0  0
  7  8  1  0  0  0
  8  9  1  0  0  0
  8 10  2  0  0  0
  9 40  1  0  0  0
 12 13  4  0  0  0
 12 17  4  0  0  0
 13 14  4  0  0  0
 14 15  4  0  0  0
 15 16  4  0  0  0
 16 17  4  0  0  0
 16 18  1  0  0  0
 18 19  1  0  0  0
 19 20  4  0  0  0
 19 24  4  0  0  0
 20 21  4  0  0  0
 20 25  1  0  0  0
 21 22  4  0  0  0
 22 23  4  0  0  0
 22 26  1  0  0  0
 23 24  4  0  0  0
 25 36  1  0  0  0
 26 27  1  0  0  0
 26 28  2  0  0  0
 27 29  1  0  0  0
 29 30  1  0  0  0
 29 34  1  0  0  0
 30 31  1  0  0  0
 31 32  1  0  0  0
 32 33  1  0  0  0
 32 35  1  0  0  0
 33 34  1  0  0  0
 36 37  1  0  0  0
 36 38  1  0  0  0
 36 39  1  0  0  0
 40 41  4  0  0  0
 40 45  4  0  0  0
 41 42  4  0  0  0
 41 48  1  0  0  0
 42 43  4  0  0  0
 43 44  4  0  0  0
 44 45  4  0  0  0
 45 46  1  0  0  0
 46 47  1  0  0  0
 48 49  1  0  0  0
  1 50  1  0  0  0
  1 51  1  0  0  0
  2 52  1  0  0  0
  2 53  1  0  0  0
  9 54  1  0  0  0
 11 55  1  0  0  0
 11 56  1  0  0  0
 11 57  1  0  0  0
 14 58  1  0  0  0
 18 59  1  0  0  0
 21 60  1  0  0  0
 23 61  1  0  0  0
 24 62  1  0  0  0
 27 63  1  0  0  0
 29 64  1  0  0  0
 30 65  1  0  0  0
 30 66  1  0  0  0
 31 67  1  0  0  0
 31 68  1  0  0  0
 32 69  1  0  0  0
 33 70  1  0  0  0
 33 71  1  0  0  0
 34 72  1  0  0  0
 34 73  1  0  0  0
 35 74  1  0  0  0
 35 75  1  0  0  0
 35 76  1  0  0  0
 42 77  1  0  0  0
 43 78  1  0  0  0
 44 79  1  0  0  0
 46 80  1  0  0  0
 46 81  1  0  0  0
 47 82  1  0  0  0
 47 83  1  0  0  0
 47 84  1  0  0  0
 48 85  1  0  0  0
 48 86  1  0  0  0
 49 87  1  0  0  0
 49 88  1  0  0  0
 49 89  1  0  0  0
M  END
$$$$
