### 
### Created by X-TOOL on Mon Sep 10 21:13:23 2018
### 

@<TRIPOS>MOLECULE
4yih_ligand
   49    52     1     0     0
SMALL
GAST_HUCK


@<TRIPOS>ATOM
      1 CAV        -6.0620    0.6540   -6.5010 C.ar      1 2O2        -0.0333
      2 CAW        -6.5130   -0.3350   -7.3900 C.ar      1 2O2        -0.0322
      3 CAX        -7.7390   -0.9920   -7.2250 C.ar      1 2O2        -0.0340
      4 CAY        -8.5290   -0.6540   -6.1300 C.ar      1 2O2        -0.0322
      5 CAZ        -8.0430    0.3280   -5.1910 C.ar      1 2O2        -0.0333
      6 CAU        -6.8000    0.9570   -5.3620 C.ar      1 2O2         0.0228
      7 CAB        -6.3600    1.9130   -4.4440 C.3       1 2O2         0.2365
      8 PAA        -4.9130    1.2680   -3.3800 P.3       1 2O2         0.0922
      9 OBB        -4.3910    2.2720   -2.4810 O.co2     1 2O2        -0.5660
     10 OBC        -5.5100    0.1690   -2.6070 O.co2     1 2O2        -0.5660
     11 OBA        -3.8800    0.7240   -4.3960 O.co2     1 2O2        -0.5660
     12 OAH        -7.6370    2.4460   -3.7480 O.3       1 2O2        -0.3659
     13 OAD        -5.8770    3.0640   -5.2000 O.3       1 2O2        -0.3694
     14 CAC        -5.6120    4.1990   -4.3320 C.3       1 2O2         0.0697
     15 CAE        -6.6690    4.3590   -3.2370 C.3       1 2O2         0.1102
     16 OAF        -7.8590    5.1270   -3.8560 O.3       1 2O2        -0.3346
     17 CAG        -7.3200    3.1680   -2.6910 C.3       1 2O2         0.0859
     18 CAI        -8.6700    3.8510   -2.1240 C.3       1 2O2         0.0363
     19 CAJ        -8.9870    4.8580   -3.0370 C.3       1 2O2         0.1993
     20 N1        -10.0440    4.4620   -3.9680 N.am      1 2O2        -0.1206
     21 C6         -9.6910    3.9310   -5.1910 C.2       1 2O2         0.1365
     22 C2        -11.3330    4.7320   -3.6640 C.2       1 2O2         0.3654
     23 O2        -11.6520    5.2490   -2.5900 O.2       1 2O2        -0.3637
     24 N3        -12.3290    4.3900   -4.5750 N.am      1 2O2        -0.1712
     25 C4        -11.9880    3.7850   -5.7800 C.2       1 2O2         0.2379
     26 O4        -12.9360    3.4870   -6.5200 O.2       1 2O2        -0.3818
     27 C5        -10.6420    3.5600   -6.0920 C.2       1 2O2         0.1202
     28 CAR       -10.1630    2.9240   -7.2410 C.2       1 2O2        -0.0139
     29 CAS       -11.0760    2.7990   -8.3860 C.2       1 2O2        -0.0077
     30 PBD       -10.6170    2.0730   -9.6790 P.3       1 2O2        -0.0363
     31 OBF       -11.0550    0.7040   -9.6180 O.co2     1 2O2        -0.6801
     32 OBG       -11.4050    2.7320  -10.7250 O.co2     1 2O2        -0.6801
     33 OBE        -9.1940    2.3130   -9.7790 O.co2     1 2O2        -0.6801
     34 H1         -5.1371    1.1821   -6.7029 H         1 2O2         0.0852
     35 H2         -5.8889   -0.6000   -8.2358 H         1 2O2         0.0698
     36 H3         -8.0647   -1.7455   -7.9330 H         1 2O2         0.0856
     37 H4         -9.4959   -1.1220   -5.9846 H         1 2O2         0.0698
     38 H5         -8.6527    0.5862   -4.3327 H         1 2O2         0.0852
     39 H6         -5.5955    5.1138   -4.9426 H         1 2O2         0.0577
     40 H7         -4.6302    4.0578   -3.8565 H         1 2O2         0.0577
     41 H8         -6.2147    4.9247   -2.4102 H         1 2O2         0.0646
     42 H9         -6.7368    2.6142   -1.9405 H         1 2O2         0.0615
     43 H10        -8.4953    4.2779   -1.1254 H         1 2O2         0.0350
     44 H11        -9.4822    3.1112   -2.0696 H         1 2O2         0.0350
     45 H12        -9.2902    5.7606   -2.4862 H         1 2O2         0.1038
     46 H13        -8.6380    3.8069   -5.4392 H         1 2O2         0.1588
     47 H14       -13.2879    4.5791   -4.3632 H         1 2O2         0.2276
     48 H15        -9.1472    2.5341   -7.2862 H         1 2O2         0.0798
     49 H16       -12.0795    3.2178   -8.3270 H         1 2O2         0.0786
@<TRIPOS>BOND
     1    1    2 ar 
     2    1    6 ar 
     3    2    3 ar 
     4    3    4 ar 
     5    4    5 ar 
     6    5    6 ar 
     7    6    7 1  
     8    7    8 1  
     9    7   12 1  
    10    7   13 1  
    11    8    9 ar 
    12    8   10 ar 
    13    8   11 ar 
    14   12   17 1  
    15   13   14 1  
    16   14   15 1  
    17   15   16 1  
    18   15   17 1  
    19   16   19 1  
    20   17   18 1  
    21   18   19 1  
    22   19   20 1  
    23   20   21 1  
    24   20   22 am 
    25   21   27 2  
    26   22   23 2  
    27   22   24 am 
    28   24   25 am 
    29   25   26 2  
    30   25   27 1  
    31   27   28 1  
    32   28   29 2  
    33   29   30 1  
    34   30   31 ar 
    35   30   32 ar 
    36   30   33 ar 
    37    1   34 1  
    38    2   35 1  
    39    3   36 1  
    40    4   37 1  
    41    5   38 1  
    42   14   39 1  
    43   14   40 1  
    44   15   41 1  
    45   17   42 1  
    46   18   43 1  
    47   18   44 1  
    48   19   45 1  
    49   21   46 1  
    50   24   47 1  
    51   28   48 1  
    52   29   49 1  
@<TRIPOS>SUBSTRUCTURE
     1 2O2         1

