4yih_ligand
  -I-interpret- 

 53 56  0  0  0  0  0  0  0  0999 V2000
   -6.0620    0.6540   -6.5010 C   0  0  0  0  0
   -6.5130   -0.3350   -7.3900 C   0  0  0  0  0
   -7.7390   -0.9920   -7.2250 C   0  0  0  0  0
   -8.5290   -0.6540   -6.1300 C   0  0  0  0  0
   -8.0430    0.3280   -5.1910 C   0  0  0  0  0
   -6.8000    0.9570   -5.3620 C   0  0  0  0  0
   -6.3600    1.9130   -4.4440 C   0  0  0  0  0
   -4.9130    1.2680   -3.3800 P   0  0  0  0  0
   -4.3910    2.2720   -2.4810 O   0  0  0  0  0
   -5.5100    0.1690   -2.6070 O   0  0  0  0  0
   -3.8800    0.7240   -4.3960 O   0  0  0  0  0
   -7.6370    2.4460   -3.7480 O   0  0  0  0  0
   -5.8770    3.0640   -5.2000 O   0  0  0  0  0
   -5.6120    4.1990   -4.3320 C   0  0  0  0  0
   -6.6690    4.3590   -3.2370 C   0  0  0  0  0
   -7.8590    5.1270   -3.8560 O   0  0  0  0  0
   -7.3200    3.1680   -2.6910 C   0  0  0  0  0
   -8.6700    3.8510   -2.1240 C   0  0  0  0  0
   -8.9870    4.8580   -3.0370 C   0  0  0  0  0
  -10.0440    4.4620   -3.9680 N   0  0  0  0  0
   -9.6910    3.9310   -5.1910 C   0  0  0  0  0
  -11.3330    4.7320   -3.6640 C   0  0  0  0  0
  -11.6520    5.2490   -2.5900 O   0  0  0  0  0
  -12.3290    4.3900   -4.5750 N   0  0  0  0  0
  -11.9880    3.7850   -5.7800 C   0  0  0  0  0
  -12.9360    3.4870   -6.5200 O   0  0  0  0  0
  -10.6420    3.5600   -6.0920 C   0  0  0  0  0
  -10.1630    2.9240   -7.2410 C   0  0  0  0  0
  -11.0760    2.7990   -8.3860 C   0  0  0  0  0
  -10.6170    2.0730   -9.6790 P   0  0  0  0  0
  -11.0550    0.7040   -9.6180 O   0  0  0  0  0
  -11.4050    2.7320  -10.7250 O   0  0  0  0  0
   -9.1940    2.3130   -9.7790 O   0  0  0  0  0
   -5.1320    1.1850   -6.7040 H   0  0  0  0  0
   -5.8854   -0.6014   -8.2404 H   0  0  0  0  0
   -8.0665   -1.7497   -7.9369 H   0  0  0  0  0
   -9.5013   -1.1246   -5.9838 H   0  0  0  0  0
   -8.6561    0.5876   -4.3280 H   0  0  0  0  0
   -5.8547   -0.4942   -3.2095 H   0  0  0  0  0
   -4.2988    0.0654   -4.9550 H   0  0  0  0  0
   -5.6233    5.1006   -4.9445 H   0  0  0  0  0
   -4.6491    4.0348   -3.8484 H   0  0  0  0  0
   -6.0989    4.8177   -2.4291 H   0  0  0  0  0
   -6.7679    2.5649   -1.9702 H   0  0  0  0  0
   -8.5253    4.2513   -1.1205 H   0  0  0  0  0
   -9.4779    3.1251   -2.0319 H   0  0  0  0  0
   -9.3059    5.7133   -2.4413 H   0  0  0  0  0
   -8.6370    3.8067   -5.4395 H   0  0  0  0  0
  -13.3070    4.5829   -4.3590 H   0  0  0  0  0
   -9.1463    2.5338   -7.2863 H   0  0  0  0  0
  -12.0804    3.2182   -8.3269 H   0  0  0  0  0
  -11.1380    3.6516  -10.7937 H   0  0  0  0  0
   -9.0316    3.2586   -9.8118 H   0  0  0  0  0
  1  2  4  0  0  0
  1  6  4  0  0  0
  2  3  4  0  0  0
  3  4  4  0  0  0
  4  5  4  0  0  0
  5  6  4  0  0  0
  6  7  1  0  0  0
  7  8  1  0  0  0
  7 12  1  0  0  0
  7 13  1  0  0  0
  8  9  2  0  0  0
  8 10  1  0  0  0
  8 11  1  0  0  0
 12 17  1  0  0  0
 13 14  1  0  0  0
 14 15  1  0  0  0
 15 16  1  0  0  0
 15 17  1  0  0  0
 16 19  1  0  0  0
 17 18  1  0  0  0
 18 19  1  0  0  0
 19 20  1  0  0  0
 20 21  1  0  0  0
 20 22  1  0  0  0
 21 27  2  0  0  0
 22 23  2  0  0  0
 22 24  1  0  0  0
 24 25  1  0  0  0
 25 26  2  0  0  0
 25 27  1  0  0  0
 27 28  1  0  0  0
 28 29  2  0  0  0
 29 30  1  0  0  0
 30 31  2  0  0  0
 30 32  1  0  0  0
 30 33  1  0  0  0
  1 34  1  0  0  0
  2 35  1  0  0  0
  3 36  1  0  0  0
  4 37  1  0  0  0
  5 38  1  0  0  0
 10 39  1  0  0  0
 11 40  1  0  0  0
 14 41  1  0  0  0
 14 42  1  0  0  0
 15 43  1  0  0  0
 17 44  1  0  0  0
 18 45  1  0  0  0
 18 46  1  0  0  0
 19 47  1  0  0  0
 21 48  1  0  0  0
 24 49  1  0  0  0
 28 50  1  0  0  0
 29 51  1  0  0  0
 32 52  1  0  0  0
 33 53  1  0  0  0
M  END
$$$$
