1ny0_ligand
  -I-interpret- 

 36 37  0  0  0  0  0  0  0  0999 V2000
   12.6370   13.9380   38.3770 C   0  0  0  0  0
   11.7010   12.8560   37.7910 C   0  0  0  0  0
   12.2230   12.2330   36.5920 O   0  0  0  0  0
   13.5790   11.9770   36.4200 C   0  0  0  0  0
   14.2200   10.8630   37.1130 C   0  0  0  0  0
   13.3990    9.9650   38.0270 C   0  0  0  0  0
   13.6030    9.9170   39.2460 O   0  0  0  0  0
   12.4690    9.2610   37.3920 N   0  0  0  0  0
   11.5490    8.3230   38.0170 C   0  0  0  0  0
   10.7550    7.8440   36.7220 B   0  0  0  0  0
   11.6810    7.2260   35.7170 O   0  0  0  0  0
   10.0300    8.9730   36.0720 O   0  0  0  0  0
   15.6280   10.6200   36.9150 C   0  0  0  0  0
   16.3910   11.4940   36.0250 C   0  0  0  0  0
   17.7790   11.2640   35.8240 C   0  0  0  0  0
   18.4400   10.1720   36.4970 C   0  0  0  0  0
   17.7030    9.3090   37.3700 C   0  0  0  0  0
   16.2990    9.5260   37.5830 C   0  0  0  0  0
   15.7450   12.5790   35.3540 C   0  0  0  0  0
   14.3500   12.8210   35.5480 C   0  0  0  0  0
   13.5962   13.4874   38.6321 H   0  0  0  0  0
   12.7887   14.7245   37.6377 H   0  0  0  0  0
   12.1837   14.3622   39.2729 H   0  0  0  0  0
   10.7616   13.3417   37.5270 H   0  0  0  0  0
   11.5877   12.0762   38.5441 H   0  0  0  0  0
   12.3935    9.3884   36.3828 H   0  0  0  0  0
   10.9267    8.7479   38.8046 H   0  0  0  0  0
   12.0255    7.5232   38.5839 H   0  0  0  0  0
   11.1775    6.9470   34.9487 H   0  0  0  0  0
    9.5641    8.6491   35.2976 H   0  0  0  0  0
   18.3464   11.9150   35.1589 H   0  0  0  0  0
   19.5054   10.0033   36.3400 H   0  0  0  0  0
   18.2085    8.4854   37.8742 H   0  0  0  0  0
   15.7398    8.8671   38.2472 H   0  0  0  0  0
   16.3199   13.2252   34.6907 H   0  0  0  0  0
   13.8674   13.6508   35.0316 H   0  0  0  0  0
  1  2  1  0  0  0
  2  3  1  0  0  0
  3  4  1  0  0  0
  4  5  4  0  0  0
  4 20  4  0  0  0
  5  6  1  0  0  0
  5 13  4  0  0  0
  6  7  2  0  0  0
  6  8  1  0  0  0
  8  9  1  0  0  0
  9 10  1  0  0  0
 10 11  1  0  0  0
 10 12  1  0  0  0
 13 14  4  0  0  0
 13 18  4  0  0  0
 14 15  4  0  0  0
 14 19  4  0  0  0
 15 16  4  0  0  0
 16 17  4  0  0  0
 17 18  4  0  0  0
 19 20  4  0  0  0
  1 21  1  0  0  0
  1 22  1  0  0  0
  1 23  1  0  0  0
  2 24  1  0  0  0
  2 25  1  0  0  0
  8 26  1  0  0  0
  9 27  1  0  0  0
  9 28  1  0  0  0
 11 29  1  0  0  0
 12 30  1  0  0  0
 15 31  1  0  0  0
 16 32  1  0  0  0
 17 33  1  0  0  0
 18 34  1  0  0  0
 19 35  1  0  0  0
 20 36  1  0  0  0
M  END
$$$$
