### 
### Created by X-TOOL on Mon Sep 10 21:12:49 2018
### 

@<TRIPOS>MOLECULE
1ny0_ligand
   36    37     1     0     0
SMALL
GAST_HUCK


@<TRIPOS>ATOM
      1 C25        12.6370   13.9380   38.3770 C.3       1 NBF        -0.0367
      2 C24        11.7010   12.8560   37.7910 C.3       1 NBF         0.0703
      3 O23        12.2230   12.2330   36.5920 O.3       1 NBF        -0.3106
      4 C15        13.5790   11.9770   36.4200 C.ar      1 NBF         0.1151
      5 C13        14.2200   10.8630   37.1130 C.ar      1 NBF         0.0806
      6 C11        13.3990    9.9650   38.0270 C.2       1 NBF         0.1927
      7 O12        13.6030    9.9170   39.2460 O.2       1 NBF        -0.3953
      8 N10        12.4690    9.2610   37.3920 N.am      1 NBF        -0.2992
      9 C7         11.5490    8.3230   38.0170 C.3       1 NBF         0.0407
     10 B          10.7550    7.8440   36.7220 B         1 NBF         0.7128
     11 O1         11.6810    7.2260   35.7170 O.3       1 NBF        -0.4968
     12 O2         10.0300    8.9730   36.0720 O.3       1 NBF        -0.4968
     13 C14        15.6280   10.6200   36.9150 C.ar      1 NBF        -0.0104
     14 C16        16.3910   11.4940   36.0250 C.ar      1 NBF        -0.0190
     15 C18        17.7790   11.2640   35.8240 C.ar      1 NBF        -0.0564
     16 C20        18.4400   10.1720   36.4970 C.ar      1 NBF        -0.0636
     17 C22        17.7030    9.3090   37.3700 C.ar      1 NBF        -0.0642
     18 C17        16.2990    9.5260   37.5830 C.ar      1 NBF        -0.0576
     19 C19        15.7450   12.5790   35.3540 C.ar      1 NBF        -0.0505
     20 C21        14.3500   12.8210   35.5480 C.ar      1 NBF        -0.0192
     21 H1         12.1806   14.3669   39.2813 H         1 NBF         0.0256
     22 H2         12.7909   14.7324   37.6319 H         1 NBF         0.0256
     23 H3         13.6054   13.4845   38.6349 H         1 NBF         0.0256
     24 H4         10.7354   13.3240   37.5488 H         1 NBF         0.0616
     25 H5         11.5500   12.0761   38.5519 H         1 NBF         0.0616
     26 H6         12.3949    9.3859   36.4026 H         1 NBF         0.1821
     27 H7         10.8889    8.8171   38.7452 H         1 NBF         0.0394
     28 H8         12.0779    7.4919   38.5064 H         1 NBF         0.0394
     29 H9         12.3021    7.8791   35.4167 H         1 NBF         0.1667
     30 H10         9.4398    9.3724   36.7002 H         1 NBF         0.1667
     31 H11        18.3433   11.9114   35.1626 H         1 NBF         0.0626
     32 H12        19.4995   10.0043   36.3409 H         1 NBF         0.0589
     33 H13        18.2057    8.4899   37.8714 H         1 NBF         0.0618
     34 H14        15.7428    8.8707   38.2436 H         1 NBF         0.0591
     35 H15        16.3168   13.2217   34.6944 H         1 NBF         0.0668
     36 H16        13.8701   13.6462   35.0344 H         1 NBF         0.0606
@<TRIPOS>BOND
     1    1    2 1  
     2    2    3 1  
     3    3    4 1  
     4    4    5 ar 
     5    4   20 ar 
     6    5    6 1  
     7    5   13 ar 
     8    6    7 2  
     9    6    8 am 
    10    8    9 1  
    11    9   10 1  
    12   10   11 1  
    13   10   12 1  
    14   13   14 ar 
    15   13   18 ar 
    16   14   15 ar 
    17   14   19 ar 
    18   15   16 ar 
    19   16   17 ar 
    20   17   18 ar 
    21   19   20 ar 
    22    1   21 1  
    23    1   22 1  
    24    1   23 1  
    25    2   24 1  
    26    2   25 1  
    27    8   26 1  
    28    9   27 1  
    29    9   28 1  
    30   11   29 1  
    31   12   30 1  
    32   15   31 1  
    33   16   32 1  
    34   17   33 1  
    35   18   34 1  
    36   19   35 1  
    37   20   36 1  
@<TRIPOS>SUBSTRUCTURE
     1 NBF         1

