6dh2_ligand
  -I-interpret- 

 87 90  0  0  0  0  0  0  0  0999 V2000
  116.8020   51.5870   12.6060 N   0  0  0  0  0
  117.7380   52.2240   13.4910 C   0  0  0  0  0
  118.9110   51.4200   14.1030 C   0  0  0  0  0
  119.8930   52.1110   15.0370 C   0  0  0  0  0
  119.6800   53.6010   15.3550 C   0  0  0  0  0
  118.5370   54.4000   14.7470 C   0  0  0  0  0
  117.5560   53.6950   13.8130 C   0  0  0  0  0
  120.8280   54.4990   16.4410 S   0  0  0  0  0
  120.1680   55.5860   17.1360 O   0  0  0  0  0
  121.3730   53.6730   17.4940 O   0  0  0  0  0
  122.0540   55.0650   15.3970 N   0  0  0  0  0
  122.7490   54.0140   14.6510 C   0  0  0  0  0
  124.3180   54.2880   14.6240 C   0  0  0  0  0
  124.9870   53.2650   13.6470 C   0  0  0  0  0
  124.8650   54.2310   16.0690 C   0  0  0  0  0
  121.7670   56.3590   14.6940 C   0  0  0  0  0
  122.7550   57.4500   15.2140 C   0  0  0  0  0
  126.3850   54.5720   16.0930 C   0  0  0  0  0
  122.6810   58.5800   14.4170 O   0  0  0  0  0
  122.4090   57.8080   16.6520 C   0  0  0  0  0
  124.9140   51.8030   14.1550 C   0  0  0  0  0
  123.4470   58.7480   17.0860 N   0  0  0  0  0
  124.4580   58.3740   18.0990 C   0  0  0  0  0
  124.4620   57.3040   18.6200 O   0  0  0  0  0
  125.4080   59.4010   18.3710 O   0  0  0  0  0
  126.2930   59.2870   19.5790 C   0  0  0  0  0
  127.4460   59.6960   19.2320 C   0  0  0  0  0
  127.2530   61.3250   19.1450 O   0  0  0  0  0
  126.4410   61.6460   20.1110 C   0  0  0  0  0
  125.2230   62.4980   19.5970 O   0  0  0  0  0
  124.1680   61.7100   19.5900 C   0  0  0  0  0
  124.4880   60.5160   20.6410 C   0  0  0  0  0
  125.8290   60.3340   20.6340 C   0  0  0  0  0
  121.0790   58.5160   16.7620 C   0  0  0  0  0
  120.5680   57.9260   19.3180 C   0  0  0  0  0
  120.3800   58.3680   20.7840 C   0  0  0  0  0
  120.5050   59.8640   21.1650 C   0  0  0  0  0
  120.8130   60.9050   20.0810 C   0  0  0  0  0
  121.0040   60.4620   18.6170 C   0  0  0  0  0
  120.8830   58.9700   18.2360 C   0  0  0  0  0
  116.9080   50.5987   12.3772 H   0  0  0  0  0
  116.0317   52.1232   12.2066 H   0  0  0  0  0
  119.0327   50.3632   13.8656 H   0  0  0  0  0
  120.7289   51.5626   15.4712 H   0  0  0  0  0
  118.4201   55.4595   14.9746 H   0  0  0  0  0
  116.7245   54.2491   13.3775 H   0  0  0  0  0
  122.3753   54.0021   13.6271 H   0  0  0  0  0
  122.5665   53.0561   15.1380 H   0  0  0  0  0
  124.5529   55.2832   14.2465 H   0  0  0  0  0
  126.0399   53.5324   13.5572 H   0  0  0  0  0
  124.4515   53.3135   12.6989 H   0  0  0  0  0
  124.7224   53.2241   16.4614 H   0  0  0  0  0
  124.3298   54.9591   16.6785 H   0  0  0  0  0
  120.7408   56.6667   14.8949 H   0  0  0  0  0
  121.8948   56.2296   13.6193 H   0  0  0  0  0
  123.7713   57.0581   15.1736 H   0  0  0  0  0
  126.9274   53.8517   15.4805 H   0  0  0  0  0
  126.5372   55.5757   15.6962 H   0  0  0  0  0
  126.7502   54.5263   17.1190 H   0  0  0  0  0
  123.2923   59.2430   14.7462 H   0  0  0  0  0
  122.3518   56.8990   17.2508 H   0  0  0  0  0
  125.4253   51.7272   15.1146 H   0  0  0  0  0
  123.8701   51.5128   14.2742 H   0  0  0  0  0
  125.3954   51.1441   13.4323 H   0  0  0  0  0
  123.4727   59.6831   16.6794 H   0  0  0  0  0
  126.2745   58.2661   19.9604 H   0  0  0  0  0
  127.7819   59.2606   18.2909 H   0  0  0  0  0
  128.2264   59.4010   19.9334 H   0  0  0  0  0
  127.0003   62.2142   20.8543 H   0  0  0  0  0
  123.9792   61.3148   18.5918 H   0  0  0  0  0
  123.2685   62.2550   19.8763 H   0  0  0  0  0
  123.9722   59.5998   20.3536 H   0  0  0  0  0
  124.1387   60.7767   21.6400 H   0  0  0  0  0
  126.1216   60.0225   21.6367 H   0  0  0  0  0
  120.2734   57.8425   16.4696 H   0  0  0  0  0
  121.0624   59.3820   16.1003 H   0  0  0  0  0
  119.5991   57.5183   19.0297 H   0  0  0  0  0
  121.4462   57.2807   19.3382 H   0  0  0  0  0
  121.1939   57.8814   21.3215 H   0  0  0  0  0
  119.3453   58.1141   21.0142 H   0  0  0  0  0
  121.3634   59.9049   21.8355 H   0  0  0  0  0
  119.5157   60.1363   21.5328 H   0  0  0  0  0
  121.7796   61.3189   20.3682 H   0  0  0  0  0
  119.9302   61.5440   20.0588 H   0  0  0  0  0
  122.0389   60.7171   18.3891 H   0  0  0  0  0
  120.1895   60.9465   18.0785 H   0  0  0  0  0
  120.9932   59.9338   17.7390 H   0  0  0  0  0
  2  1  1  0  0  0
  3  2  4  0  0  0
  7  2  4  0  0  0
  4  3  4  0  0  0
  5  4  4  0  0  0
  5  6  4  0  0  0
  8  5  1  0  0  0
  6  7  4  0  0  0
  8  9  2  0  0  0
  8 10  2  0  0  0
 11  8  1  0  0  0
 11 12  1  0  0  0
 16 11  1  0  0  0
 12 13  1  0  0  0
 13 14  1  0  0  0
 13 15  1  0  0  0
 14 21  1  0  0  0
 15 18  1  0  0  0
 17 16  1  0  0  0
 17 19  1  0  0  0
 20 17  1  0  0  0
 20 22  1  0  0  0
 34 20  1  0  0  0
 22 23  1  0  0  0
 23 24  2  0  0  0
 23 25  1  0  0  0
 25 26  1  0  0  0
 26 27  1  0  0  0
 26 33  1  0  0  0
 27 28  1  0  0  0
 29 28  1  0  0  0
 29 30  1  0  0  0
 33 29  1  0  0  0
 31 30  1  0  0  0
 32 31  1  0  0  0
 33 32  1  0  0  0
 40 34  1  0  0  0
 35 36  1  0  0  0
 35 40  1  0  0  0
 36 37  1  0  0  0
 37 38  1  0  0  0
 38 39  1  0  0  0
 39 40  1  0  0  0
  1 41  1  0  0  0
  1 42  1  0  0  0
  3 43  1  0  0  0
  4 44  1  0  0  0
  6 45  1  0  0  0
  7 46  1  0  0  0
 12 47  1  0  0  0
 12 48  1  0  0  0
 13 49  1  0  0  0
 14 50  1  0  0  0
 14 51  1  0  0  0
 15 52  1  0  0  0
 15 53  1  0  0  0
 16 54  1  0  0  0
 16 55  1  0  0  0
 17 56  1  0  0  0
 18 57  1  0  0  0
 18 58  1  0  0  0
 18 59  1  0  0  0
 19 60  1  0  0  0
 20 61  1  0  0  0
 21 62  1  0  0  0
 21 63  1  0  0  0
 21 64  1  0  0  0
 22 65  1  0  0  0
 26 66  1  0  0  0
 27 67  1  0  0  0
 27 68  1  0  0  0
 29 69  1  0  0  0
 31 70  1  0  0  0
 31 71  1  0  0  0
 32 72  1  0  0  0
 32 73  1  0  0  0
 33 74  1  0  0  0
 34 75  1  0  0  0
 34 76  1  0  0  0
 35 77  1  0  0  0
 35 78  1  0  0  0
 36 79  1  0  0  0
 36 80  1  0  0  0
 37 81  1  0  0  0
 37 82  1  0  0  0
 38 83  1  0  0  0
 38 84  1  0  0  0
 39 85  1  0  0  0
 39 86  1  0  0  0
 40 87  1  0  0  0
M  END
$$$$
