2ms4_ligand
  -I-interpret- 

131135  0  0  0  0  0  0  0  0999 V2000
   -2.0480   -0.1960  -16.8940 N   0  3  0  0  0
   -1.5560   -1.4040  -17.6200 C   0  0  0  0  0
   -0.8610   -2.3770  -16.6410 C   0  0  0  0  0
    0.0440   -3.1310  -17.0190 O   0  0  0  0  0
   -0.6110   -0.9260  -18.7530 C   0  0  0  0  0
   -0.9570    0.5260  -18.8930 C   0  0  0  0  0
   -1.3710    0.9770  -17.4970 C   0  0  0  0  0
   -1.3320   -2.3680  -15.3880 N   0  0  0  0  0
   -0.7680   -3.1570  -14.2800 C   0  0  0  0  0
   -1.8180   -3.2110  -13.1400 C   0  0  0  0  0
   -2.7900   -2.4300  -13.1650 O   0  0  0  0  0
    0.5830   -2.5250  -13.7840 C   0  0  0  0  0
    0.4680   -1.1880  -13.0140 C   0  0  0  0  0
   -0.0410   -0.0120  -13.8720 C   0  0  0  0  0
   -1.2540    0.1770  -13.9770 O   0  0  0  0  0
    0.7760    0.7360  -14.4320 O   0  0  0  0  0
   -1.6900   -4.1500  -12.1550 N   0  0  0  0  0
   -2.5340   -4.1250  -10.9430 C   0  0  0  0  0
   -2.2080   -2.8930  -10.0610 C   0  0  0  0  0
   -1.2600   -2.9080   -9.2660 O   0  0  0  0  0
   -2.2070   -5.4690  -10.2420 C   0  0  0  0  0
   -0.8390   -5.8410  -10.7420 C   0  0  0  0  0
   -0.7730   -5.3270  -12.1660 C   0  0  0  0  0
   -2.9790   -1.8150  -10.2660 N   0  0  0  0  0
   -2.7930   -0.5620   -9.5420 C   0  0  0  0  0
   -3.8130    0.5040   -9.9690 C   0  0  0  0  0
   -4.2150    0.5230  -11.1380 O   0  0  0  0  0
   -4.2440    1.4210   -9.0370 N   0  0  0  0  0
   -5.2640    2.4790   -9.3200 C   0  0  0  0  0
   -4.7690    3.5690  -10.3000 C   0  0  0  0  0
   -3.5620    3.7160  -10.5300 O   0  0  0  0  0
   -5.5570    3.0900   -7.9200 C   0  0  0  0  0
   -5.0030    2.1010   -6.9400 C   0  0  0  0  0
   -3.8040    1.4840   -7.6210 C   0  0  0  0  0
   -5.7210    4.3570  -10.8450 N   0  0  0  0  0
   -5.4440    5.3990  -11.8610 C   0  0  0  0  0
   -6.0620    6.7450  -11.4570 C   0  0  0  0  0
   -7.0190    6.7940  -10.6670 O   0  0  0  0  0
   -6.0000    4.9720  -13.2450 C   0  0  0  0  0
   -5.4750    3.6120  -13.7050 C   0  0  0  0  0
   -4.1430    3.4510  -14.0850 C   0  0  0  0  0
   -6.2930    2.4810  -13.7030 C   0  0  0  0  0
   -3.6570    2.2190  -14.4550 C   0  0  0  0  0
   -5.8010    1.2500  -14.0610 C   0  0  0  0  0
   -4.4850    1.1210  -14.4390 C   0  0  0  0  0
   -3.9880   -0.1220  -14.7670 O   0  0  0  0  0
   -5.4840    7.8120  -12.0260 N   0  0  0  0  0
   -5.9550    9.1960  -11.8910 C   0  0  0  0  0
   -5.1670   10.1020  -12.8360 C   0  0  0  0  0
   -4.1930    9.6570  -13.4650 O   0  0  0  0  0
   -5.8070    9.7080  -10.4520 C   0  0  0  0  0
   -5.6010   11.3830  -12.9050 N   0  0  0  0  0
   -4.8920   12.4620  -13.6160 C   0  0  0  0  0
   -4.8180   12.1790  -15.1390 C   0  0  0  0  0
   -3.8590   11.5540  -15.6090 O   0  0  0  0  0
   -3.4890   12.6950  -12.9920 C   0  0  0  0  0
   -3.5200   13.1270  -11.5070 C   0  0  0  0  0
   -2.1440   13.1430  -10.8380 C   0  0  0  0  0
   -1.1190   13.3030  -11.4930 O   0  0  0  0  0
   -2.1140   13.0160   -9.5230 N   0  0  0  0  0
   -5.8760   12.5950  -15.9170 N   0  0  0  0  0
   -5.9680   12.3440  -17.3810 C   0  0  0  0  0
   -4.7920   12.9710  -18.1820 C   0  0  0  0  0
   -4.0350   12.2270  -18.8330 O   0  0  0  0  0
   -7.3350   12.9780  -17.7730 C   0  0  0  0  0
   -8.1060   13.0550  -16.4890 C   0  0  0  0  0
   -7.0730   13.3290  -15.4220 C   0  0  0  0  0
   -4.6170   14.2010  -18.1360 O   0  0  0  0  0
   -1.8370   -0.2623  -15.8983 H   0  0  0  0  0
   -3.0609   -0.1114  -16.9788 H   0  0  0  0  0
   -2.3842   -1.9579  -18.0620 H   0  0  0  0  0
   -0.7478   -1.4834  -19.6796 H   0  0  0  0  0
    0.4416   -1.0883  -18.5209 H   0  0  0  0  0
   -1.7563    0.6800  -19.6179 H   0  0  0  0  0
   -0.1132    1.1052  -19.2681 H   0  0  0  0  0
   -0.5118    1.2933  -16.9055 H   0  0  0  0  0
   -2.0284    1.8456  -17.5337 H   0  0  0  0  0
   -2.1365   -1.7740  -15.1870 H   0  0  0  0  0
   -0.5431   -4.1698  -14.6144 H   0  0  0  0  0
    1.1667   -2.3118  -14.6795 H   0  0  0  0  0
    1.0171   -3.2418  -13.0870 H   0  0  0  0  0
    1.4682   -0.9269  -12.6682 H   0  0  0  0  0
   -0.2534   -1.3384  -12.2109 H   0  0  0  0  0
    1.6673    0.4362  -14.2389 H   0  0  0  0  0
   -3.5983   -4.0299  -11.1581 H   0  0  0  0  0
   -2.9456   -6.2368  -10.4725 H   0  0  0  0  0
   -2.2305   -5.3762   -9.1562 H   0  0  0  0  0
   -0.6780   -6.9182  -10.6990 H   0  0  0  0  0
   -0.0556   -5.4033  -10.1233 H   0  0  0  0  0
    0.2406   -5.0638  -12.4683 H   0  0  0  0  0
   -1.0693   -6.0803  -12.8960 H   0  0  0  0  0
   -3.7269   -1.8735  -10.9571 H   0  0  0  0  0
   -1.7938   -0.1859   -9.7615 H   0  0  0  0  0
   -2.9294   -0.7586   -8.4786 H   0  0  0  0  0
   -6.1410    2.0579   -9.8116 H   0  0  0  0  0
   -6.6235    3.2553   -7.7671 H   0  0  0  0  0
   -5.0988    4.0723   -7.8046 H   0  0  0  0  0
   -5.7428    1.3461   -6.6738 H   0  0  0  0  0
   -4.7253    2.5817   -6.0020 H   0  0  0  0  0
   -2.8881    2.0582   -7.4811 H   0  0  0  0  0
   -3.5316    0.5109   -7.2123 H   0  0  0  0  0
   -6.6855    4.2273  -10.5397 H   0  0  0  0  0
   -4.3622    5.5152  -11.9259 H   0  0  0  0  0
   -5.6809    5.7157  -13.9752 H   0  0  0  0  0
   -7.0841    4.8980  -13.1592 H   0  0  0  0  0
   -3.4774    4.3142  -14.0888 H   0  0  0  0  0
   -7.3392    2.5765  -13.4126 H   0  0  0  0  0
   -2.6162    2.1127  -14.7608 H   0  0  0  0  0
   -6.4526    0.3763  -14.0456 H   0  0  0  0  0
   -4.6912   -0.7728  -14.7063 H   0  0  0  0  0
   -4.6538    7.6502  -12.5961 H   0  0  0  0  0
   -7.0139    9.2143  -12.1490 H   0  0  0  0  0
   -6.3926    9.0787   -9.7818 H   0  0  0  0  0
   -4.7571    9.6723  -10.1612 H   0  0  0  0  0
   -6.1665   10.7354  -10.3945 H   0  0  0  0  0
   -6.4753   11.6163  -12.4343 H   0  0  0  0  0
   -5.4595   13.3851  -13.4978 H   0  0  0  0  0
   -3.0177   13.5025  -13.5523 H   0  0  0  0  0
   -2.9538   11.7466  -13.0402 H   0  0  0  0  0
   -4.1330   12.4024  -10.9710 H   0  0  0  0  0
   -3.9091   14.1446  -11.4732 H   0  0  0  0  0
   -1.2231   13.0500   -9.0275 H   0  0  0  0  0
   -2.9818   12.8840   -9.0034 H   0  0  0  0  0
   -5.9031   11.2817  -17.6163 H   0  0  0  0  0
   -4.3304   11.3176  -18.7471 H   0  0  0  0  0
   -7.8565   12.3842  -18.5237 H   0  0  0  0  0
   -7.2101   13.9597  -18.2300 H   0  0  0  0  0
   -8.6521   12.1324  -16.2922 H   0  0  0  0  0
   -8.8658   13.8358  -16.5227 H   0  0  0  0  0
   -6.8861   14.3933  -15.2789 H   0  0  0  0  0
   -7.3906   12.9999  -14.4326 H   0  0  0  0  0
  1  2  1  0  0  0
  1  7  1  0  0  0
  2  3  1  0  0  0
  2  5  1  0  0  0
  3  4  2  0  0  0
  3  8  1  0  0  0
  5  6  1  0  0  0
  6  7  1  0  0  0
  8  9  1  0  0  0
  9 10  1  0  0  0
  9 12  1  0  0  0
 10 11  2  0  0  0
 10 17  1  0  0  0
 12 13  1  0  0  0
 13 14  1  0  0  0
 14 15  2  0  0  0
 14 16  1  0  0  0
 17 18  1  0  0  0
 17 23  1  0  0  0
 18 19  1  0  0  0
 18 21  1  0  0  0
 19 20  2  0  0  0
 19 24  1  0  0  0
 21 22  1  0  0  0
 22 23  1  0  0  0
 24 25  1  0  0  0
 25 26  1  0  0  0
 26 27  2  0  0  0
 26 28  1  0  0  0
 28 29  1  0  0  0
 28 34  1  0  0  0
 29 30  1  0  0  0
 29 32  1  0  0  0
 30 31  2  0  0  0
 30 35  1  0  0  0
 32 33  1  0  0  0
 33 34  1  0  0  0
 35 36  1  0  0  0
 36 37  1  0  0  0
 36 39  1  0  0  0
 37 38  2  0  0  0
 37 47  1  0  0  0
 39 40  1  0  0  0
 40 41  4  0  0  0
 40 42  4  0  0  0
 41 43  4  0  0  0
 42 44  4  0  0  0
 43 45  4  0  0  0
 44 45  4  0  0  0
 45 46  1  0  0  0
 47 48  1  0  0  0
 48 49  1  0  0  0
 48 51  1  0  0  0
 49 50  2  0  0  0
 49 52  1  0  0  0
 52 53  1  0  0  0
 53 54  1  0  0  0
 53 56  1  0  0  0
 54 55  2  0  0  0
 54 61  1  0  0  0
 56 57  1  0  0  0
 57 58  1  0  0  0
 58 59  2  0  0  0
 58 60  1  0  0  0
 61 62  1  0  0  0
 61 67  1  0  0  0
 62 63  1  0  0  0
 62 65  1  0  0  0
 63 64  1  0  0  0
 63 68  2  0  0  0
 65 66  1  0  0  0
 66 67  1  0  0  0
  1 69  1  0  0  0
  1 70  1  0  0  0
  2 71  1  0  0  0
  5 72  1  0  0  0
  5 73  1  0  0  0
  6 74  1  0  0  0
  6 75  1  0  0  0
  7 76  1  0  0  0
  7 77  1  0  0  0
  8 78  1  0  0  0
  9 79  1  0  0  0
 12 80  1  0  0  0
 12 81  1  0  0  0
 13 82  1  0  0  0
 13 83  1  0  0  0
 16 84  1  0  0  0
 18 85  1  0  0  0
 21 86  1  0  0  0
 21 87  1  0  0  0
 22 88  1  0  0  0
 22 89  1  0  0  0
 23 90  1  0  0  0
 23 91  1  0  0  0
 24 92  1  0  0  0
 25 93  1  0  0  0
 25 94  1  0  0  0
 29 95  1  0  0  0
 32 96  1  0  0  0
 32 97  1  0  0  0
 33 98  1  0  0  0
 33 99  1  0  0  0
 34100  1  0  0  0
 34101  1  0  0  0
 35102  1  0  0  0
 36103  1  0  0  0
 39104  1  0  0  0
 39105  1  0  0  0
 41106  1  0  0  0
 42107  1  0  0  0
 43108  1  0  0  0
 44109  1  0  0  0
 46110  1  0  0  0
 47111  1  0  0  0
 48112  1  0  0  0
 51113  1  0  0  0
 51114  1  0  0  0
 51115  1  0  0  0
 52116  1  0  0  0
 53117  1  0  0  0
 56118  1  0  0  0
 56119  1  0  0  0
 57120  1  0  0  0
 57121  1  0  0  0
 60122  1  0  0  0
 60123  1  0  0  0
 62124  1  0  0  0
 64125  1  0  0  0
 65126  1  0  0  0
 65127  1  0  0  0
 66128  1  0  0  0
 66129  1  0  0  0
 67130  1  0  0  0
 67131  1  0  0  0
M  END
$$$$
