### 
### Created by X-TOOL on Mon Sep 10 21:13:25 2018
### 

@<TRIPOS>MOLECULE
2ms4_ligand
  129   133     1     0     0
SMALL
GAST_HUCK


@<TRIPOS>ATOM
      1 N          -2.0480   -0.1960  -16.8940 N.4       1 PRO         0.2461
      2 CA         -1.5560   -1.4040  -17.6200 C.3       1 PRO         0.0670
      3 C          -0.8610   -2.3770  -16.6410 C.2       1 PRO         0.2268
      4 O           0.0440   -3.1310  -17.0190 O.2       1 PRO        -0.3907
      5 CB         -0.6110   -0.9260  -18.7530 C.3       1 PRO         0.0127
      6 CG         -0.9570    0.5260  -18.8930 C.3       1 PRO        -0.0053
      7 CD         -1.3710    0.9770  -17.4970 C.3       1 PRO        -0.0313
      8 N          -1.3320   -2.3680  -15.3880 N.am      1 GLU        -0.2609
      9 CA         -0.7680   -3.1570  -14.2800 C.3       1 GLU         0.1328
     10 C          -1.8180   -3.2110  -13.1400 C.2       1 GLU         0.2065
     11 O          -2.7900   -2.4300  -13.1650 O.2       1 GLU        -0.3942
     12 CB          0.5830   -2.5250  -13.7840 C.3       1 GLU        -0.0008
     13 CG          0.4680   -1.1880  -13.0140 C.3       1 GLU         0.0044
     14 CD         -0.0410   -0.0120  -13.8720 C.2       1 GLU         0.0350
     15 OE1        -1.2540    0.1770  -13.9770 O.co2     1 GLU        -0.5690
     16 OE2         0.7760    0.7360  -14.4320 O.co2     1 GLU        -0.5690
     17 N          -1.6900   -4.1500  -12.1550 N.am      1 PRO        -0.2498
     18 CA         -2.5340   -4.1250  -10.9430 C.3       1 PRO         0.1338
     19 C          -2.2080   -2.8930  -10.0610 C.2       1 PRO         0.2039
     20 O          -1.2600   -2.9080   -9.2660 O.2       1 PRO        -0.3944
     21 CB         -2.2070   -5.4690  -10.2420 C.3       1 PRO        -0.0104
     22 CG         -0.8390   -5.8410  -10.7420 C.3       1 PRO        -0.0281
     23 CD         -0.7730   -5.3270  -12.1660 C.3       1 PRO         0.0369
     24 N          -2.9790   -1.8150  -10.2660 N.am      1 GLY        -0.2664
     25 CA         -2.7930   -0.5620   -9.5420 C.3       1 GLY         0.1203
     26 C          -3.8130    0.5040   -9.9690 C.2       1 GLY         0.2032
     27 O          -4.2150    0.5230  -11.1380 O.2       1 GLY        -0.3945
     28 N          -4.2440    1.4210   -9.0370 N.am      1 PRO        -0.2501
     29 CA         -5.2640    2.4790   -9.3200 C.3       1 PRO         0.1338
     30 C          -4.7690    3.5690  -10.3000 C.2       1 PRO         0.2042
     31 O          -3.5620    3.7160  -10.5300 O.2       1 PRO        -0.3944
     32 CB         -5.5570    3.0900   -7.9200 C.3       1 PRO        -0.0104
     33 CG         -5.0030    2.1010   -6.9400 C.3       1 PRO        -0.0281
     34 CD         -3.8040    1.4840   -7.6210 C.3       1 PRO         0.0369
     35 N          -5.7210    4.3570  -10.8450 N.am      1 TYR        -0.2621
     36 CA         -5.4440    5.3990  -11.8610 C.3       1 TYR         0.1390
     37 C          -6.0620    6.7450  -11.4570 C.2       1 TYR         0.2057
     38 O          -7.0190    6.7940  -10.6670 O.2       1 TYR        -0.3942
     39 CB         -6.0000    4.9720  -13.2450 C.3       1 TYR         0.0163
     40 CG         -5.4750    3.6120  -13.7050 C.ar      1 TYR        -0.0493
     41 CD1        -4.1430    3.4510  -14.0850 C.ar      1 TYR        -0.0685
     42 CD2        -6.2930    2.4810  -13.7030 C.ar      1 TYR        -0.0685
     43 CE1        -3.6570    2.2190  -14.4550 C.ar      1 TYR        -0.0398
     44 CE2        -5.8010    1.2500  -14.0610 C.ar      1 TYR        -0.0398
     45 CZ         -4.4850    1.1210  -14.4390 C.ar      1 TYR         0.0805
     46 OH         -3.9880   -0.1220  -14.7670 O.3       1 TYR        -0.3376
     47 N          -5.4840    7.8120  -12.0260 N.am      1 ALA        -0.2639
     48 CA         -5.9550    9.1960  -11.8910 C.3       1 ALA         0.1282
     49 C          -5.1670   10.1020  -12.8360 C.2       1 ALA         0.2036
     50 O          -4.1930    9.6570  -13.4650 O.2       1 ALA        -0.3944
     51 CB         -5.8070    9.7080  -10.4520 C.3       1 ALA        -0.0244
     52 N          -5.6010   11.3830  -12.9050 N.am      1 GLN        -0.2636
     53 CA         -4.8920   12.4620  -13.6160 C.3       1 GLN         0.1332
     54 C          -4.8180   12.1790  -15.1390 C.2       1 GLN         0.2060
     55 O          -3.8590   11.5540  -15.6090 O.2       1 GLN        -0.3942
     56 CB         -3.4890   12.6950  -12.9920 C.3       1 GLN         0.0045
     57 CG         -3.5200   13.1270  -11.5070 C.3       1 GLN         0.0412
     58 CD         -2.1440   13.1430  -10.8380 C.2       1 GLN         0.1737
     59 OE1        -1.1190   13.3030  -11.4930 O.2       1 GLN        -0.3973
     60 NE2        -2.1140   13.0160   -9.5230 N.am      1 GLN        -0.3009
     61 N          -5.8760   12.5950  -15.9170 N.am      1 PRO        -0.2556
     62 CA         -5.9680   12.3440  -17.3810 C.3       1 PRO         0.0972
     63 C          -4.7920   12.9710  -18.1820 C.2       1 PRO         0.0603
     64 O          -4.0350   12.2270  -18.8330 O.co2     1 PRO        -0.5666
     65 CB         -7.3350   12.9780  -17.7730 C.3       1 PRO        -0.0159
     66 CG         -8.1060   13.0550  -16.4890 C.3       1 PRO        -0.0288
     67 CD         -7.0730   13.3290  -15.4220 C.3       1 PRO         0.0362
     68 OXT        -4.6170   14.2010  -18.1360 O.co2     1 PRO        -0.5666
     69 H1         -1.8181   -0.2629  -15.9149 H         1 PRO         0.2035
     70 H2         -3.0469   -0.1114  -16.9997 H         1 PRO         0.2035
     71 H3         -2.4123   -1.9257  -18.0722 H         1 PRO         0.1099
     72 H4         -0.8080   -1.4709  -19.6880 H         1 PRO         0.0347
     73 H5          0.4437   -1.0551  -18.4686 H         1 PRO         0.0347
     74 H6         -1.7873    0.6576  -19.6025 H         1 PRO         0.0320
     75 H7         -0.0841    1.0985  -19.2398 H         1 PRO         0.0320
     76 H8         -0.4878    1.2590  -16.9051 H         1 PRO         0.0814
     77 H9         -2.0607    1.8319  -17.5566 H         1 PRO         0.0814
     78 H10        -2.1207   -1.7857  -15.1910 H         1 GLU         0.1885
     79 H11        -0.5674   -4.1800  -14.6309 H         1 GLU         0.0801
     80 H12         1.2163   -2.3510  -14.6664 H         1 GLU         0.0330
     81 H13         1.0711   -3.2539  -13.1203 H         1 GLU         0.0330
     82 H14         1.4628   -0.9266  -12.6242 H         1 GLU         0.0433
     83 H15        -0.2287   -1.3309  -12.1749 H         1 GLU         0.0433
     84 H16        -3.5989   -4.0902  -11.2164 H         1 PRO         0.0802
     85 H17        -2.9427   -6.2388  -10.5178 H         1 PRO         0.0313
     86 H18        -2.1992   -5.3440   -9.1492 H         1 PRO         0.0313
     87 H19        -0.7061   -6.9327  -10.7212 H         1 PRO         0.0287
     88 H20        -0.0621   -5.3652  -10.1255 H         1 PRO         0.0287
     89 H21         0.2517   -5.0245  -12.4276 H         1 PRO         0.0524
     90 H22        -1.1224   -6.0909  -12.8762 H         1 PRO         0.0524
     91 H23        -3.7122   -1.8724  -10.9436 H         1 GLY         0.1881
     92 H24        -1.7794   -0.1838   -9.7406 H         1 GLY         0.0763
     93 H25        -2.9085   -0.7532   -8.4649 H         1 GLY         0.0763
     94 H26        -6.1726    2.0206   -9.7375 H         1 PRO         0.0802
     95 H27        -6.6398    3.2154   -7.7721 H         1 PRO         0.0313
     96 H28        -5.0568    4.0636   -7.8109 H         1 PRO         0.0313
     97 H29        -5.7520    1.3296   -6.7077 H         1 PRO         0.0287
     98 H30        -4.6991    2.6082   -6.0125 H         1 PRO         0.0287
     99 H31        -2.9119    2.1177   -7.5086 H         1 PRO         0.0524
    100 H32        -3.5930    0.4800   -7.2241 H         1 PRO         0.0524
    101 H33        -6.6666    4.2298  -10.5457 H         1 TYR         0.1885
    102 H34        -4.3541    5.5235  -11.9416 H         1 TYR         0.0821
    103 H35        -5.7102    5.7294  -13.9882 H         1 TYR         0.0453
    104 H36        -7.0970    4.9212  -13.1818 H         1 TYR         0.0453
    105 H37        -3.4811    4.3095  -14.0888 H         1 TYR         0.0530
    106 H38        -7.3335    2.5760  -13.4142 H         1 TYR         0.0530
    107 H39        -2.6219    2.1133  -14.7591 H         1 TYR         0.0525
    108 H40        -6.4490    0.3811  -14.0457 H         1 TYR         0.0525
    109 H41        -3.0715   -0.0429  -15.0040 H         1 TYR         0.2458
    110 H42        -4.6701    7.6534  -12.5850 H         1 ALA         0.1883
    111 H43        -7.0192    9.2310  -12.1671 H         1 ALA         0.0797
    112 H44        -6.1695   10.7448  -10.3927 H         1 ALA         0.0277
    113 H45        -4.7478    9.6725  -10.1573 H         1 ALA         0.0277
    114 H46        -6.3976    9.0738   -9.7746 H         1 ALA         0.0277
    115 H47        -6.4582   11.6117  -12.4436 H         1 GLN         0.1883
    116 H48        -5.4713   13.3875  -13.4821 H         1 GLN         0.0801
    117 H49        -2.9807   13.4812  -13.5695 H         1 GLN         0.0337
    118 H50        -2.9180   11.7578  -13.0668 H         1 GLN         0.0337
    119 H51        -4.1651   12.4269  -10.9558 H         1 GLN         0.0504
    120 H52        -3.9449   14.1400  -11.4496 H         1 GLN         0.0504
    121 H53        -1.2383   13.0206   -9.0401 H         1 GLN         0.1814
    122 H54        -2.9670   12.9153   -9.0108 H         1 GLN         0.1814
    123 H55        -5.9812   11.2615  -17.5759 H         1 PRO         0.0728
    124 H56        -7.8605   12.3445  -18.5027 H         1 PRO         0.0306
    125 H57        -7.1886   13.9822  -18.1974 H         1 PRO         0.0306
    126 H58        -8.6217   12.1037  -16.2912 H         1 PRO         0.0286
    127 H59        -8.8434   13.8702  -16.5302 H         1 PRO         0.0286
    128 H60        -6.8687   14.4065  -15.3372 H         1 PRO         0.0524
    129 H61        -7.3998   12.9398  -14.4464 H         1 PRO         0.0524
@<TRIPOS>BOND
     1    1    2 1  
     2    1    7 1  
     3    2    3 1  
     4    2    5 1  
     5    3    4 2  
     6    3    8 am 
     7    5    6 1  
     8    6    7 1  
     9    8    9 1  
    10    9   10 1  
    11    9   12 1  
    12   10   11 2  
    13   10   17 am 
    14   12   13 1  
    15   13   14 1  
    16   14   15 ar 
    17   14   16 ar 
    18   17   18 1  
    19   17   23 1  
    20   18   19 1  
    21   18   21 1  
    22   19   20 2  
    23   19   24 am 
    24   21   22 1  
    25   22   23 1  
    26   24   25 1  
    27   25   26 1  
    28   26   27 2  
    29   26   28 am 
    30   28   29 1  
    31   28   34 1  
    32   29   30 1  
    33   29   32 1  
    34   30   31 2  
    35   30   35 am 
    36   32   33 1  
    37   33   34 1  
    38   35   36 1  
    39   36   37 1  
    40   36   39 1  
    41   37   38 2  
    42   37   47 am 
    43   39   40 1  
    44   40   41 ar 
    45   40   42 ar 
    46   41   43 ar 
    47   42   44 ar 
    48   43   45 ar 
    49   44   45 ar 
    50   45   46 1  
    51   47   48 1  
    52   48   49 1  
    53   48   51 1  
    54   49   50 2  
    55   49   52 am 
    56   52   53 1  
    57   53   54 1  
    58   53   56 1  
    59   54   55 2  
    60   54   61 am 
    61   56   57 1  
    62   57   58 1  
    63   58   59 2  
    64   58   60 am 
    65   61   62 1  
    66   61   67 1  
    67   62   63 1  
    68   62   65 1  
    69   63   64 ar 
    70   63   68 ar 
    71   65   66 1  
    72   66   67 1  
    73    1   69 1  
    74    1   70 1  
    75    2   71 1  
    76    5   72 1  
    77    5   73 1  
    78    6   74 1  
    79    6   75 1  
    80    7   76 1  
    81    7   77 1  
    82    8   78 1  
    83    9   79 1  
    84   12   80 1  
    85   12   81 1  
    86   13   82 1  
    87   13   83 1  
    88   18   84 1  
    89   21   85 1  
    90   21   86 1  
    91   22   87 1  
    92   22   88 1  
    93   23   89 1  
    94   23   90 1  
    95   24   91 1  
    96   25   92 1  
    97   25   93 1  
    98   29   94 1  
    99   32   95 1  
   100   32   96 1  
   101   33   97 1  
   102   33   98 1  
   103   34   99 1  
   104   34  100 1  
   105   35  101 1  
   106   36  102 1  
   107   39  103 1  
   108   39  104 1  
   109   41  105 1  
   110   42  106 1  
   111   43  107 1  
   112   44  108 1  
   113   46  109 1  
   114   47  110 1  
   115   48  111 1  
   116   51  112 1  
   117   51  113 1  
   118   51  114 1  
   119   52  115 1  
   120   53  116 1  
   121   56  117 1  
   122   56  118 1  
   123   57  119 1  
   124   57  120 1  
   125   60  121 1  
   126   60  122 1  
   127   62  123 1  
   128   65  124 1  
   129   65  125 1  
   130   66  126 1  
   131   66  127 1  
   132   67  128 1  
   133   67  129 1  
@<TRIPOS>SUBSTRUCTURE
     1 PRO         1

