6r0s_ligand
  -I-interpret- 

 28 30  0  0  0  0  0  0  0  0999 V2000
   24.7420  -12.0250    2.4870 O   0  0  0  0  0
   25.2750  -13.1050    2.5780 C   0  0  0  0  0
   25.3720  -14.0330    1.5330 N   0  0  0  0  0
   24.8430  -13.7880    0.1990 C   0  0  0  0  0
   25.5700  -14.3710   -1.0280 C   0  0  0  0  0
   24.4360  -14.6140   -1.9910 C   0  0  0  0  0
   24.4690  -14.7350   -3.2060 O   0  0  0  0  0
   23.2760  -14.6750   -1.2620 N   0  0  0  0  0
   23.4570  -14.3700    0.0520 C   0  0  0  0  0
   22.6400  -14.5150    0.9310 O   0  0  0  0  0
   26.0420  -13.6750    3.7110 C   0  0  0  0  0
   26.5100  -14.9260    3.3250 C   0  0  0  0  0
   25.9670  -15.2220    1.9710 C   0  0  0  0  0
   25.9350  -16.2800    1.3890 O   0  0  0  0  0
   26.3590  -13.1060    4.9290 C   0  0  0  0  0
   27.1540  -13.8550    5.7960 C   0  0  0  0  0
   27.6200  -15.1160    5.4470 C   0  0  0  0  0
   27.2920  -15.6770    4.2030 C   0  0  0  0  0
   27.8320  -16.9950    3.8540 N   0  0  0  0  0
   27.0900  -17.8140    3.3290 O   0  0  0  0  0
   29.0250  -17.1890    4.0620 O   0  0  0  0  0
   24.9390  -12.7026    0.1726 H   0  0  0  0  0
   26.1386  -15.2726   -0.8001 H   0  0  0  0  0
   26.3357  -13.7061   -1.4276 H   0  0  0  0  0
   22.3715  -14.9232   -1.6629 H   0  0  0  0  0
   26.0025  -12.1126    5.2013 H   0  0  0  0  0
   27.4157  -13.4413    6.7699 H   0  0  0  0  0
   28.2450  -15.6740    6.1443 H   0  0  0  0  0
  2  1  2  0  0  0
  2  3  1  0  0  0
  2 11  1  0  0  0
  3  4  1  0  0  0
  3 13  1  0  0  0
  4  5  1  0  0  0
  4  9  1  0  0  0
  5  6  1  0  0  0
  6  7  2  0  0  0
  6  8  1  0  0  0
  9  8  1  0  0  0
  9 10  2  0  0  0
 11 12  4  0  0  0
 11 15  4  0  0  0
 12 13  1  0  0  0
 12 18  4  0  0  0
 13 14  2  0  0  0
 15 16  4  0  0  0
 16 17  4  0  0  0
 18 17  4  0  0  0
 18 19  1  0  0  0
 19 20  2  0  0  0
 19 21  2  0  0  0
  4 22  1  0  0  0
  5 23  1  0  0  0
  5 24  1  0  0  0
  8 25  1  0  0  0
 15 26  1  0  0  0
 16 27  1  0  0  0
 17 28  1  0  0  0
M  END
$$$$
