1kmy_ligand
  -I-interpret- 

 24 25  0  0  0  0  0  0  0  0999 V2000
   20.6190  -23.1650   72.4330 C   0  0  0  0  0
   21.9080  -22.6340   72.3610 C   0  0  0  0  0
   22.1060  -21.3260   71.9030 C   0  0  0  0  0
   21.0270  -20.5520   71.5300 C   0  0  0  0  0
   19.7160  -21.0890   71.6030 C   0  0  0  0  0
   19.5270  -22.3910   72.0500 C   0  0  0  0  0
   23.1120  -23.4150   72.7760 C   0  0  0  0  0
   23.4660  -23.4570   74.1180 C   0  0  0  0  0
   24.5830  -24.1590   74.5260 C   0  0  0  0  0
   25.3420  -24.8330   73.5970 C   0  0  0  0  0
   24.9890  -24.7950   72.2610 C   0  0  0  0  0
   23.8690  -24.0940   71.8510 C   0  0  0  0  0
   21.2510  -19.2520   71.0840 O   0  0  0  0  0
   23.3830  -20.7990   71.8250 O   0  0  0  0  0
   20.4677  -24.1842   72.7886 H   0  0  0  0  0
   18.8595  -20.4821   71.3093 H   0  0  0  0  0
   18.5210  -22.8075   72.1009 H   0  0  0  0  0
   22.8579  -22.9321   74.8547 H   0  0  0  0  0
   24.8622  -24.1791   75.5794 H   0  0  0  0  0
   26.2200  -25.3958   73.9140 H   0  0  0  0  0
   25.5974  -25.3211   71.5254 H   0  0  0  0  0
   23.5877  -24.0801   70.7980 H   0  0  0  0  0
   20.4118  -18.8418   70.8626 H   0  0  0  0  0
   23.3369  -19.8992   71.4937 H   0  0  0  0  0
  1  2  4  0  0  0
  1  6  4  0  0  0
  2  3  4  0  0  0
  2  7  1  0  0  0
  3  4  4  0  0  0
  3 14  1  0  0  0
  4  5  4  0  0  0
  4 13  1  0  0  0
  5  6  4  0  0  0
  7  8  4  0  0  0
  7 12  4  0  0  0
  8  9  4  0  0  0
  9 10  4  0  0  0
 10 11  4  0  0  0
 11 12  4  0  0  0
  1 15  1  0  0  0
  5 16  1  0  0  0
  6 17  1  0  0  0
  8 18  1  0  0  0
  9 19  1  0  0  0
 10 20  1  0  0  0
 11 21  1  0  0  0
 12 22  1  0  0  0
 13 23  1  0  0  0
 14 24  1  0  0  0
M  END
$$$$
