5xvg_ligand
  -I-interpret- 

 53 56  0  0  0  0  0  0  0  0999 V2000
   -7.0130  -12.2510   18.9350 C   0  0  0  0  0
   -7.0720  -13.6400   18.4720 C   0  0  0  0  0
   -6.2710  -14.0760   17.3320 C   0  0  0  0  0
   -5.4440  -13.1590   16.6890 N   0  0  0  0  0
   -6.2290  -11.3950   18.3100 N   0  0  0  0  0
   -5.4140  -11.8640   17.1370 C   0  0  0  0  0
   -7.8840  -14.5390   19.0910 C   0  0  0  0  0
   -7.9180  -15.9580   18.5990 C   0  0  0  0  0
   -7.1950  -16.3610   17.5590 C   0  0  0  0  0
   -6.3060  -15.3640   16.8720 C   0  0  0  0  0
   -7.6670  -10.4750   20.6300 C   0  0  0  0  0
   -6.9510   -9.3240   20.1800 C   0  0  0  0  0
   -7.1710   -8.3010   21.0890 C   0  0  0  0  0
   -6.5690   -6.7370   21.0710 C   0  0  0  0  0
   -4.5030  -10.8850   16.4490 C   0  0  0  0  0
   -4.1360   -8.9020   15.0590 C   0  0  0  0  0
   -4.5990   -7.4680   15.2330 C   0  0  0  0  0
   -6.7980   -8.1610   15.7840 C   0  0  0  0  0
   -6.4800   -9.6440   15.5820 C   0  0  0  0  0
   -3.7630   -6.5890   14.3220 C   0  0  0  0  0
   -6.4790   -6.2110   19.8410 C   0  0  0  0  0
   -5.2540   -6.7160   21.3300 C   0  0  0  0  0
   -7.7900  -11.7960   20.0450 N   0  0  0  0  0
   -8.0170   -8.7970   22.0800 N   0  0  0  0  0
   -8.3080  -10.1320   21.7920 N   0  0  0  0  0
   -5.0520   -9.8100   15.6910 N   0  0  0  0  0
   -5.9870   -7.3440   14.9070 N   0  3  0  0  0
   -3.3040  -11.0350   16.5530 O   0  0  0  0  0
   -8.9530  -17.0720   19.4190 Cl  0  0  0  0  0
   -8.5030  -14.2332   19.9345 H   0  0  0  0  0
   -7.2461  -17.3930   17.2120 H   0  0  0  0  0
   -5.6971  -15.6626   16.0187 H   0  0  0  0  0
   -6.3392   -9.2611   19.2801 H   0  0  0  0  0
   -7.2381   -6.2269   21.7639 H   0  0  0  0  0
   -3.1542   -9.0141   15.5190 H   0  0  0  0  0
   -4.0900   -9.1312   13.9944 H   0  0  0  0  0
   -4.4740   -7.1605   16.2712 H   0  0  0  0  0
   -6.5836   -7.8908   16.8180 H   0  0  0  0  0
   -7.8498   -7.9902   15.5545 H   0  0  0  0  0
   -6.8246   -9.9738   14.6019 H   0  0  0  0  0
   -6.9885  -10.2451   16.3358 H   0  0  0  0  0
   -2.7118   -6.6807   14.5953 H   0  0  0  0  0
   -3.8998   -6.9056   13.2880 H   0  0  0  0  0
   -4.0788   -5.5514   14.4304 H   0  0  0  0  0
   -5.8135   -6.8238   19.2330 H   0  0  0  0  0
   -7.4687   -6.1849   19.3851 H   0  0  0  0  0
   -6.0819   -5.1982   19.9085 H   0  0  0  0  0
   -5.0721   -7.1460   22.3149 H   0  0  0  0  0
   -4.7269   -7.2989   20.5747 H   0  0  0  0  0
   -4.8975   -5.6861   21.3102 H   0  0  0  0  0
   -8.4712  -12.4385   20.4495 H   0  0  0  0  0
   -6.1274   -7.6551   13.9458 H   0  0  0  0  0
   -6.2642   -6.3687   15.0177 H   0  0  0  0  0
  1  2  4  0  0  0
  5  1  4  0  0  0
  1 23  1  0  0  0
  3  2  4  0  0  0
  2  7  4  0  0  0
  4  3  4  0  0  0
  3 10  4  0  0  0
  6  4  4  0  0  0
  6  5  4  0  0  0
 15  6  1  0  0  0
  7  8  4  0  0  0
  9  8  4  0  0  0
  8 29  1  0  0  0
 10  9  4  0  0  0
 11 12  4  0  0  0
 23 11  1  0  0  0
 11 25  4  0  0  0
 12 13  4  0  0  0
 13 14  1  0  0  0
 13 24  4  0  0  0
 14 21  1  0  0  0
 14 22  1  0  0  0
 26 15  1  0  0  0
 15 28  2  0  0  0
 17 16  1  0  0  0
 16 26  1  0  0  0
 17 20  1  0  0  0
 27 17  1  0  0  0
 18 19  1  0  0  0
 18 27  1  0  0  0
 19 26  1  0  0  0
 24 25  4  0  0  0
  7 30  1  0  0  0
  9 31  1  0  0  0
 10 32  1  0  0  0
 12 33  1  0  0  0
 14 34  1  0  0  0
 16 35  1  0  0  0
 16 36  1  0  0  0
 17 37  1  0  0  0
 18 38  1  0  0  0
 18 39  1  0  0  0
 19 40  1  0  0  0
 19 41  1  0  0  0
 20 42  1  0  0  0
 20 43  1  0  0  0
 20 44  1  0  0  0
 21 45  1  0  0  0
 21 46  1  0  0  0
 21 47  1  0  0  0
 22 48  1  0  0  0
 22 49  1  0  0  0
 22 50  1  0  0  0
 23 51  1  0  0  0
 27 52  1  0  0  0
 27 53  1  0  0  0
M  END
$$$$
