5ef8_ligand
  -I-interpret- 

 49 51  0  0  0  0  0  0  0  0999 V2000
  -15.7390   22.3530  -46.4220 O   0  0  0  0  0
  -15.8380   23.5970  -46.4510 C   0  0  0  0  0
  -16.9890   24.2110  -47.0540 N   0  0  0  0  0
  -17.9510   23.4530  -47.5800 O   0  0  0  0  0
  -14.7220   24.4720  -45.8450 C   0  0  0  0  0
  -14.1140   24.1080  -44.6540 C   0  0  0  0  0
  -12.7680   24.7340  -44.2930 C   0  0  0  0  0
  -11.7490   24.7600  -45.2590 C   0  0  0  0  0
  -10.5330   25.3180  -44.9570 C   0  0  0  0  0
  -12.5500   25.2790  -43.0160 C   0  0  0  0  0
  -11.3240   25.8430  -42.7090 C   0  0  0  0  0
  -10.3080   25.8730  -43.6720 C   0  0  0  0  0
   -8.9580   26.4850  -43.3430 C   0  0  0  0  0
   -7.8870   25.4700  -43.4980 N   0  3  0  0  0
   -7.9970   24.4890  -42.4070 C   0  0  0  0  0
   -8.5710   23.1600  -42.9060 C   0  0  0  0  0
   -8.5780   22.0750  -41.7700 C   0  0  0  0  0
   -7.5520   21.0400  -41.5510 C   0  0  0  0  0
   -7.9690   20.3230  -40.4440 C   0  0  0  0  0
   -9.1810   20.8540  -39.9770 N   0  0  0  0  0
   -9.5500   21.8800  -40.7400 C   0  0  0  0  0
  -10.8010   22.7040  -40.5490 C   0  0  0  0  0
   -7.1630   19.2160  -39.9650 C   0  0  0  0  0
   -5.9630   18.8830  -40.6290 C   0  0  0  0  0
   -5.5480   19.6150  -41.7490 C   0  0  0  0  0
   -6.3410   20.7020  -42.2180 C   0  0  0  0  0
  -17.0698   25.2275  -47.0795 H   0  0  0  0  0
  -18.6409   24.0164  -47.9381 H   0  0  0  0  0
  -14.4095   25.3823  -46.3566 H   0  0  0  0  0
  -14.5877   23.3879  -43.9868 H   0  0  0  0  0
  -11.9243   24.3370  -46.2482 H   0  0  0  0  0
   -9.7400   25.3347  -45.7046 H   0  0  0  0  0
  -13.3441   25.2575  -42.2697 H   0  0  0  0  0
  -11.1495   26.2634  -41.7186 H   0  0  0  0  0
   -8.9678   26.8404  -42.3126 H   0  0  0  0  0
   -8.7659   27.3147  -44.0233 H   0  0  0  0  0
   -6.9744   25.9241  -43.4621 H   0  0  0  0  0
   -7.9871   24.9982  -44.3968 H   0  0  0  0  0
   -8.6661   24.8911  -41.6463 H   0  0  0  0  0
   -7.0008   24.3062  -42.0043 H   0  0  0  0  0
   -7.9478   22.7997  -43.7245 H   0  0  0  0  0
   -9.5979   23.3271  -43.2309 H   0  0  0  0  0
  -10.5265   23.7457  -40.3826 H   0  0  0  0  0
  -11.4236   22.6290  -41.4405 H   0  0  0  0  0
  -11.3527   22.3300  -39.6865 H   0  0  0  0  0
   -7.4833   18.6431  -39.0948 H   0  0  0  0  0
   -5.3562   18.0523  -40.2687 H   0  0  0  0  0
   -4.6214   19.3539  -42.2601 H   0  0  0  0  0
   -6.0200   21.2749  -43.0880 H   0  0  0  0  0
  1  2  2  0  0  0
  2  3  1  0  0  0
  2  5  1  0  0  0
  3  4  1  0  0  0
  5  6  2  0  0  0
  6  7  1  0  0  0
  7  8  4  0  0  0
  7 10  4  0  0  0
  8  9  4  0  0  0
  9 12  4  0  0  0
 10 11  4  0  0  0
 11 12  4  0  0  0
 12 13  1  0  0  0
 13 14  1  0  0  0
 14 15  1  0  0  0
 15 16  1  0  0  0
 16 17  1  0  0  0
 17 18  4  0  0  0
 17 21  4  0  0  0
 18 19  4  0  0  0
 18 26  4  0  0  0
 19 20  4  0  0  0
 19 23  4  0  0  0
 20 21  4  0  0  0
 21 22  1  0  0  0
 23 24  4  0  0  0
 24 25  4  0  0  0
 25 26  4  0  0  0
  3 27  1  0  0  0
  4 28  1  0  0  0
  5 29  1  0  0  0
  6 30  1  0  0  0
  8 31  1  0  0  0
  9 32  1  0  0  0
 10 33  1  0  0  0
 11 34  1  0  0  0
 13 35  1  0  0  0
 13 36  1  0  0  0
 14 37  1  0  0  0
 14 38  1  0  0  0
 15 39  1  0  0  0
 15 40  1  0  0  0
 16 41  1  0  0  0
 16 42  1  0  0  0
 22 43  1  0  0  0
 22 44  1  0  0  0
 22 45  1  0  0  0
 23 46  1  0  0  0
 24 47  1  0  0  0
 25 48  1  0  0  0
 26 49  1  0  0  0
M  END
$$$$
