3qqa_ligand
  -I-interpret- 

 80 83  0  0  0  0  0  0  0  0999 V2000
  -10.8720  -16.9300  -11.6910 C   0  0  0  0  0
  -12.3500  -17.1920  -11.9600 C   0  0  0  0  0
  -13.2660  -16.4840  -10.9850 C   0  0  0  0  0
  -13.6550  -15.1680  -11.4720 O   0  0  0  0  0
  -12.6890  -16.6730   -9.5880 C   0  0  0  0  0
  -11.8010  -17.8760   -9.8390 C   0  0  0  0  0
  -11.4650  -19.0100   -8.8990 C   0  0  0  0  0
  -11.3260  -20.1570   -9.8450 C   0  0  0  0  0
  -11.4370  -19.6970  -11.1960 O   0  0  0  0  0
   -9.8900  -20.0680   -9.7420 C   0  0  0  0  0
   -9.5340  -18.6760  -10.3030 C   0  0  0  0  0
  -10.4830  -17.4430  -10.3220 C   0  0  0  0  0
   -8.0320  -18.4320  -10.1930 C   0  0  0  0  0
   -7.2110  -19.7340  -10.2820 C   0  0  0  0  0
   -5.9140  -19.4530  -10.8510 O   0  0  0  0  0
   -7.8950  -21.1070  -10.5650 C   0  0  0  0  0
   -9.3960  -21.0470  -10.7270 C   0  0  0  0  0
   -9.8680  -22.4510  -10.8670 C   0  0  0  0  0
   -8.7370  -22.9640  -11.7790 C   0  0  0  0  0
   -7.6900  -21.8570  -11.8710 C   0  0  0  0  0
   -7.5540  -22.0800   -9.4560 C   0  0  0  0  0
  -10.0270  -16.2480   -9.4850 C   0  0  0  0  0
   -6.2950  -22.3690  -12.1120 C   0  0  0  0  0
   -5.8270  -23.0990  -10.8870 C   0  0  0  0  0
   -6.1370  -23.1940  -13.3710 C   0  0  0  0  0
   -7.3080  -23.1240  -14.3320 C   0  0  0  0  0
   -7.8130  -24.5080  -14.5630 C   0  0  0  0  0
   -7.6350  -25.0890  -15.7450 N   0  0  0  0  0
   -8.3520  -25.0590  -13.6530 O   0  0  0  0  0
   -7.7360  -26.5420  -15.9000 C   0  0  0  0  0
   -6.6930  -27.1280  -16.8550 C   0  0  0  0  0
   -6.7170  -28.7650  -17.1660 S   0  0  0  0  0
   -7.4360  -29.5170  -16.1330 O   0  0  0  0  0
   -5.3390  -29.2320  -17.3160 O   0  0  0  0  0
   -7.3580  -29.0870  -18.4420 O   0  0  0  0  0
  -10.6898  -15.8561  -11.7315 H   0  0  0  0  0
  -10.2780  -17.4470  -12.4446 H   0  0  0  0  0
  -12.5205  -18.2635  -11.8561 H   0  0  0  0  0
  -12.5762  -16.8176  -12.9584 H   0  0  0  0  0
  -14.2624  -16.9176  -10.8995 H   0  0  0  0  0
  -13.9945  -15.2465  -12.3665 H   0  0  0  0  0
  -13.4342  -16.8152   -8.8053 H   0  0  0  0  0
  -12.1693  -15.8012   -9.1906 H   0  0  0  0  0
  -12.5463  -18.3473  -10.4797 H   0  0  0  0  0
  -12.2177  -19.1721   -8.1275 H   0  0  0  0  0
  -10.5713  -18.8288   -8.3018 H   0  0  0  0  0
  -11.9521  -21.0307   -9.6637 H   0  0  0  0  0
  -11.3463  -20.4418  -11.7949 H   0  0  0  0  0
   -9.4989  -20.2288   -8.7374 H   0  0  0  0  0
   -9.8822  -18.7967  -11.3288 H   0  0  0  0  0
   -7.8364  -17.9782   -9.2214 H   0  0  0  0  0
   -7.7349  -17.7910  -11.0230 H   0  0  0  0  0
   -7.0659  -20.0509   -9.2492 H   0  0  0  0  0
   -5.4064  -20.2660  -10.9046 H   0  0  0  0  0
   -9.8460  -20.6258  -11.6260 H   0  0  0  0  0
  -10.8784  -22.5707  -11.2580 H   0  0  0  0  0
  -10.0035  -22.9969   -9.9334 H   0  0  0  0  0
   -9.1240  -23.2080  -12.7683 H   0  0  0  0  0
   -8.2975  -23.8734  -11.3691 H   0  0  0  0  0
   -7.8107  -21.2054  -12.7364 H   0  0  0  0  0
   -6.4732  -22.2144   -9.4119 H   0  0  0  0  0
   -7.9114  -21.6849   -8.5051 H   0  0  0  0  0
   -8.0328  -23.0387   -9.6555 H   0  0  0  0  0
   -9.9359  -16.5504   -8.4417 H   0  0  0  0  0
   -9.0608  -15.8986   -9.8491 H   0  0  0  0  0
  -10.7603  -15.4459   -9.5694 H   0  0  0  0  0
   -5.6565  -21.5042  -12.2927 H   0  0  0  0  0
   -5.8282  -22.4171  -10.0366 H   0  0  0  0  0
   -6.4972  -23.9346  -10.6853 H   0  0  0  0  0
   -4.8169  -23.4736  -11.0525 H   0  0  0  0  0
   -6.0482  -24.2341  -13.0574 H   0  0  0  0  0
   -5.2703  -22.7983  -13.9006 H   0  0  0  0  0
   -6.9892  -22.6816  -15.2758 H   0  0  0  0  0
   -8.0994  -22.5045  -13.9101 H   0  0  0  0  0
   -7.4241  -24.5123  -16.5594 H   0  0  0  0  0
   -8.7198  -26.7596  -16.3158 H   0  0  0  0  0
   -7.5700  -26.9884  -14.9196 H   0  0  0  0  0
   -5.7337  -26.9472  -16.3702 H   0  0  0  0  0
   -6.8940  -26.6554  -17.8164 H   0  0  0  0  0
   -8.3337  -29.1840  -16.0628 H   0  0  0  0  0
  1  2  1  0  0  0
  1 12  1  0  0  0
  2  3  1  0  0  0
  3  4  1  0  0  0
  3  5  1  0  0  0
  5  6  1  0  0  0
  6  7  1  0  0  0
  6 12  1  0  0  0
  7  8  1  0  0  0
  8  9  1  0  0  0
  8 10  1  0  0  0
 10 11  1  0  0  0
 10 17  1  0  0  0
 11 12  1  0  0  0
 11 13  1  0  0  0
 12 22  1  0  0  0
 13 14  1  0  0  0
 14 15  1  0  0  0
 14 16  1  0  0  0
 16 17  1  0  0  0
 16 20  1  0  0  0
 16 21  1  0  0  0
 17 18  1  0  0  0
 18 19  1  0  0  0
 19 20  1  0  0  0
 20 23  1  0  0  0
 23 24  1  0  0  0
 23 25  1  0  0  0
 25 26  1  0  0  0
 26 27  1  0  0  0
 27 28  1  0  0  0
 27 29  2  0  0  0
 28 30  1  0  0  0
 30 31  1  0  0  0
 31 32  1  0  0  0
 32 33  1  0  0  0
 32 34  2  0  0  0
 32 35  2  0  0  0
  1 36  1  0  0  0
  1 37  1  0  0  0
  2 38  1  0  0  0
  2 39  1  0  0  0
  3 40  1  0  0  0
  4 41  1  0  0  0
  5 42  1  0  0  0
  5 43  1  0  0  0
  6 44  1  0  0  0
  7 45  1  0  0  0
  7 46  1  0  0  0
  8 47  1  0  0  0
  9 48  1  0  0  0
 10 49  1  0  0  0
 11 50  1  0  0  0
 13 51  1  0  0  0
 13 52  1  0  0  0
 14 53  1  0  0  0
 15 54  1  0  0  0
 17 55  1  0  0  0
 18 56  1  0  0  0
 18 57  1  0  0  0
 19 58  1  0  0  0
 19 59  1  0  0  0
 20 60  1  0  0  0
 21 61  1  0  0  0
 21 62  1  0  0  0
 21 63  1  0  0  0
 22 64  1  0  0  0
 22 65  1  0  0  0
 22 66  1  0  0  0
 23 67  1  0  0  0
 24 68  1  0  0  0
 24 69  1  0  0  0
 24 70  1  0  0  0
 25 71  1  0  0  0
 25 72  1  0  0  0
 26 73  1  0  0  0
 26 74  1  0  0  0
 28 75  1  0  0  0
 30 76  1  0  0  0
 30 77  1  0  0  0
 31 78  1  0  0  0
 31 79  1  0  0  0
 33 80  1  0  0  0
M  END
$$$$
