4mz5_ligand
  -I-interpret- 

132133  0  0  0  0  0  0  0  0999 V2000
   43.6090   48.2190   42.2390 N   0  3  0  0  0
   44.7020   49.0620   42.7280 C   0  0  0  0  0
   45.3130   49.9830   41.6550 C   0  0  0  0  0
   45.3110   51.2030   41.8300 O   0  0  0  0  0
   45.7840   48.2230   43.4330 C   0  0  0  0  0
   46.7140   49.0410   44.1280 O   0  0  0  0  0
   45.8260   49.4170   40.5400 N   0  0  0  0  0
   46.4980   50.3050   39.5810 C   0  0  0  0  0
   45.4990   51.1860   38.8400 C   0  0  0  0  0
   45.8710   52.2280   38.2990 O   0  0  0  0  0
   47.1520   49.3310   38.5870 C   0  0  0  0  0
   46.9960   47.9600   39.1830 C   0  0  0  0  0
   45.7760   48.0330   40.0380 C   0  0  0  0  0
   44.2420   50.7580   38.8210 N   0  0  0  0  0
   43.1940   51.4860   38.1230 C   0  0  0  0  0
   42.4720   52.5090   39.0070 C   0  0  0  0  0
   41.5470   53.1720   38.5440 O   0  0  0  0  0
   42.1980   50.5010   37.5240 C   0  0  0  0  0
   41.9890   49.4210   38.4130 O   0  0  0  0  0
   42.8880   52.6380   40.2690 N   0  0  0  0  0
   42.3910   53.7220   41.1230 C   0  0  0  0  0
   42.8810   55.0300   40.5230 C   0  0  0  0  0
   44.0390   55.1210   40.1120 O   0  0  0  0  0
   42.9410   53.6070   42.5500 C   0  0  0  0  0
   42.5910   52.3300   43.2980 C   0  0  0  0  0
   41.1500   52.3260   43.8050 C   0  0  0  0  0
   40.9780   51.2510   44.8750 C   0  0  0  0  0
   39.6310   51.2920   45.4870 N   0  3  0  0  0
   42.0130   56.0360   40.4550 N   0  0  0  0  0
   42.4210   57.3520   39.9620 C   0  0  0  0  0
   42.2880   58.4250   41.0390 C   0  0  0  0  0
   41.4400   58.3260   41.9290 O   0  0  0  0  0
   41.5790   57.7710   38.7530 C   0  0  0  0  0
   41.7710   56.9400   37.4890 C   0  0  0  0  0
   40.8270   57.4430   36.4130 C   0  0  0  0  0
   39.5090   57.6660   36.9920 N   0  0  0  0  0
   38.8200   58.8010   36.9170 C   0  0  0  0  0
   39.2970   59.8460   36.2560 N   0  0  0  0  0
   37.6360   58.8790   37.5000 N   0  0  0  0  0
   43.1160   59.4600   40.9470 N   0  0  0  0  0
   42.9510   60.6350   41.8010 C   0  0  0  0  0
   41.8290   61.5380   41.2900 C   0  0  0  0  0
   41.4650   61.4990   40.1090 O   0  0  0  0  0
   44.2350   61.4110   41.8910 C   0  0  0  0  0
   41.2770   62.3380   42.1970 N   0  0  0  0  0
   40.3080   63.3670   41.8530 C   0  0  0  0  0
   40.9480   64.2860   40.8180 C   0  0  0  0  0
   42.1030   64.6830   40.9750 O   0  0  0  0  0
   39.9380   64.1540   43.1200 C   0  0  0  0  0
   38.7930   65.1370   42.9780 C   0  0  0  0  0
   38.5360   65.8760   44.3010 C   0  0  0  0  0
   37.8210   65.0580   45.2900 N   0  0  0  0  0
   38.3780   64.5190   46.3750 C   0  0  0  0  0
   39.6700   64.7060   46.6320 N   0  0  0  0  0
   37.6400   63.7970   47.2110 N   0  0  0  0  0
   40.2210   64.5940   39.7330 N   0  0  0  0  0
   40.7730   65.4890   38.7120 C   0  0  0  0  0
   40.3390   66.9350   38.9450 C   0  0  0  0  0
   41.1402   67.8741   38.6926 O   0  0  0  0  0
   40.1480   64.9540   37.4240 C   0  0  0  0  0
   38.7940   64.4740   37.8660 C   0  0  0  0  0
   38.9490   63.9850   39.2990 C   0  0  0  0  0
   39.1864   67.1871   39.3872 O   0  0  0  0  0
   42.9108   48.8028   41.7785 H   0  0  0  0  0
   43.9772   47.5388   41.5741 H   0  0  0  0  0
   43.1803   47.7303   43.0250 H   0  0  0  0  0
   44.2505   49.7307   43.4609 H   0  0  0  0  0
   46.3251   47.6550   42.6762 H   0  0  0  0  0
   45.2950   47.5694   44.1553 H   0  0  0  0  0
   47.3713   48.4857   44.5536 H   0  0  0  0  0
   47.2003   50.9790   40.0715 H   0  0  0  0  0
   48.2027   49.5750   38.4299 H   0  0  0  0  0
   46.6781   49.3908   37.6073 H   0  0  0  0  0
   47.8736   47.6747   39.7632 H   0  0  0  0  0
   46.8969   47.1977   38.4102 H   0  0  0  0  0
   44.8581   47.8068   39.4953 H   0  0  0  0  0
   45.7653   47.2885   40.8340 H   0  0  0  0  0
   44.0049   49.8946   39.3096 H   0  0  0  0  0
   43.6766   52.0586   37.3310 H   0  0  0  0  0
   42.5942   50.1188   36.5833 H   0  0  0  0  0
   41.2502   51.0108   37.3511 H   0  0  0  0  0
   41.3605   48.8068   38.0265 H   0  0  0  0  0
   43.5625   51.9718   40.6455 H   0  0  0  0  0
   41.3033   53.6725   41.1726 H   0  0  0  0  0
   42.4965   54.4253   43.1164 H   0  0  0  0  0
   44.0273   53.6222   42.4617 H   0  0  0  0  0
   43.2518   52.2540   44.1615 H   0  0  0  0  0
   42.7076   51.4936   42.6088 H   0  0  0  0  0
   40.4772   52.1162   42.9735 H   0  0  0  0  0
   40.9174   53.3006   44.2342 H   0  0  0  0  0
   41.7149   51.4276   45.6585 H   0  0  0  0  0
   41.1103   50.2765   44.4048 H   0  0  0  0  0
   39.5577   50.5605   46.1940 H   0  0  0  0  0
   39.4841   52.2028   45.9219 H   0  0  0  0  0
   38.9262   51.1408   44.7653 H   0  0  0  0  0
   41.0483   55.8877   40.7511 H   0  0  0  0  0
   43.4681   57.2636   39.6723 H   0  0  0  0  0
   41.8850   58.7867   38.5025 H   0  0  0  0  0
   40.5366   57.6474   39.0467 H   0  0  0  0  0
   41.5565   55.8930   37.7035 H   0  0  0  0  0
   42.8009   57.0316   37.1440 H   0  0  0  0  0
   40.7544   56.7021   35.6169 H   0  0  0  0  0
   41.2076   58.3784   36.0029 H   0  0  0  0  0
   39.0802   56.8893   37.4953 H   0  0  0  0  0
   38.7511   60.7057   36.1987 H   0  0  0  0  0
   40.2100   59.7905   35.8046 H   0  0  0  0  0
   37.2600   58.0738   38.0007 H   0  0  0  0  0
   43.8786   59.4344   40.2701 H   0  0  0  0  0
   42.6809   60.2831   42.7966 H   0  0  0  0  0
   45.0136   60.7751   42.3123 H   0  0  0  0  0
   44.5310   61.7380   40.8942 H   0  0  0  0  0
   44.0883   62.2807   42.5315 H   0  0  0  0  0
   41.5441   62.2256   43.1750 H   0  0  0  0  0
   39.3987   62.9286   41.4417 H   0  0  0  0  0
   40.8169   64.7424   43.3835 H   0  0  0  0  0
   39.6201   63.4169   43.8573 H   0  0  0  0  0
   37.8924   64.5881   42.7028 H   0  0  0  0  0
   39.0525   65.8687   42.2129 H   0  0  0  0  0
   37.9158   66.7446   44.0796 H   0  0  0  0  0
   39.5045   66.1384   44.7268 H   0  0  0  0  0
   36.8268   64.8903   45.1355 H   0  0  0  0  0
   40.0885   64.2960   47.4670 H   0  0  0  0  0
   40.2420   65.2593   45.9940 H   0  0  0  0  0
   36.6476   63.6551   47.0228 H   0  0  0  0  0
   41.8629   65.5034   38.7055 H   0  0  0  0  0
   40.7434   64.1636   36.9670 H   0  0  0  0  0
   40.0888   65.7109   36.6419 H   0  0  0  0  0
   38.4358   63.6731   37.2191 H   0  0  0  0  0
   38.0592   65.2770   37.8072 H   0  0  0  0  0
   38.1098   64.2725   39.9324 H   0  0  0  0  0
   38.9596   62.8974   39.3712 H   0  0  0  0  0
   38.7105   66.3647   39.5241 H   0  0  0  0  0
  1  2  1  0  0  0
  2  3  1  0  0  0
  2  5  1  0  0  0
  3  4  2  0  0  0
  3  7  1  0  0  0
  5  6  1  0  0  0
  7  8  1  0  0  0
  7 13  1  0  0  0
  8  9  1  0  0  0
  8 11  1  0  0  0
  9 10  2  0  0  0
  9 14  1  0  0  0
 11 12  1  0  0  0
 12 13  1  0  0  0
 14 15  1  0  0  0
 15 16  1  0  0  0
 15 18  1  0  0  0
 16 17  2  0  0  0
 16 20  1  0  0  0
 18 19  1  0  0  0
 20 21  1  0  0  0
 21 22  1  0  0  0
 21 24  1  0  0  0
 22 23  2  0  0  0
 22 29  1  0  0  0
 24 25  1  0  0  0
 25 26  1  0  0  0
 26 27  1  0  0  0
 27 28  1  0  0  0
 29 30  1  0  0  0
 30 31  1  0  0  0
 30 33  1  0  0  0
 31 32  2  0  0  0
 31 40  1  0  0  0
 33 34  1  0  0  0
 34 35  1  0  0  0
 35 36  1  0  0  0
 36 37  1  0  0  0
 37 38  1  0  0  0
 37 39  2  0  0  0
 40 41  1  0  0  0
 41 42  1  0  0  0
 41 44  1  0  0  0
 42 43  2  0  0  0
 42 45  1  0  0  0
 45 46  1  0  0  0
 46 47  1  0  0  0
 46 49  1  0  0  0
 47 48  2  0  0  0
 47 56  1  0  0  0
 49 50  1  0  0  0
 50 51  1  0  0  0
 51 52  1  0  0  0
 52 53  1  0  0  0
 53 54  1  0  0  0
 53 55  2  0  0  0
 56 57  1  0  0  0
 56 62  1  0  0  0
 57 58  1  0  0  0
 57 60  1  0  0  0
 58 59  2  0  0  0
 60 61  1  0  0  0
 61 62  1  0  0  0
 58 63  1  0  0  0
  1 64  1  0  0  0
  1 65  1  0  0  0
  1 66  1  0  0  0
  2 67  1  0  0  0
  5 68  1  0  0  0
  5 69  1  0  0  0
  6 70  1  0  0  0
  8 71  1  0  0  0
 11 72  1  0  0  0
 11 73  1  0  0  0
 12 74  1  0  0  0
 12 75  1  0  0  0
 13 76  1  0  0  0
 13 77  1  0  0  0
 14 78  1  0  0  0
 15 79  1  0  0  0
 18 80  1  0  0  0
 18 81  1  0  0  0
 19 82  1  0  0  0
 20 83  1  0  0  0
 21 84  1  0  0  0
 24 85  1  0  0  0
 24 86  1  0  0  0
 25 87  1  0  0  0
 25 88  1  0  0  0
 26 89  1  0  0  0
 26 90  1  0  0  0
 27 91  1  0  0  0
 27 92  1  0  0  0
 28 93  1  0  0  0
 28 94  1  0  0  0
 28 95  1  0  0  0
 29 96  1  0  0  0
 30 97  1  0  0  0
 33 98  1  0  0  0
 33 99  1  0  0  0
 34100  1  0  0  0
 34101  1  0  0  0
 35102  1  0  0  0
 35103  1  0  0  0
 36104  1  0  0  0
 38105  1  0  0  0
 38106  1  0  0  0
 39107  1  0  0  0
 40108  1  0  0  0
 41109  1  0  0  0
 44110  1  0  0  0
 44111  1  0  0  0
 44112  1  0  0  0
 45113  1  0  0  0
 46114  1  0  0  0
 49115  1  0  0  0
 49116  1  0  0  0
 50117  1  0  0  0
 50118  1  0  0  0
 51119  1  0  0  0
 51120  1  0  0  0
 52121  1  0  0  0
 54122  1  0  0  0
 54123  1  0  0  0
 55124  1  0  0  0
 57125  1  0  0  0
 60126  1  0  0  0
 60127  1  0  0  0
 61128  1  0  0  0
 61129  1  0  0  0
 62130  1  0  0  0
 62131  1  0  0  0
 63132  1  0  0  0
M  END
$$$$
