### 
### Created by X-TOOL on Mon Sep 10 21:13:14 2018
### 

@<TRIPOS>MOLECULE
4mz5_ligand
  133   134     1     0     0
SMALL
GAST_HUCK


@<TRIPOS>ATOM
      1 N          43.6090   48.2190   42.2390 N.4       1 SER         0.2396
      2 CA         44.7020   49.0620   42.7280 C.3       1 SER         0.0886
      3 C          45.3130   49.9830   41.6550 C.2       1 SER         0.2315
      4 O          45.3110   51.2030   41.8300 O.2       1 SER        -0.3904
      5 CB         45.7840   48.2230   43.4330 C.3       1 SER         0.1041
      6 OG         46.7140   49.0410   44.1280 O.3       1 SER        -0.3870
      7 N          45.8260   49.4170   40.5400 N.am      1 PRO        -0.2471
      8 CA         46.4980   50.3050   39.5810 C.3       1 PRO         0.1339
      9 C          45.4990   51.1860   38.8400 C.2       1 PRO         0.2042
     10 O          45.8710   52.2280   38.2990 O.2       1 PRO        -0.3944
     11 CB         47.1520   49.3310   38.5870 C.3       1 PRO        -0.0104
     12 CG         46.9960   47.9600   39.1830 C.3       1 PRO        -0.0281
     13 CD         45.7760   48.0330   40.0380 C.3       1 PRO         0.0371
     14 N          44.2420   50.7580   38.8210 N.am      1 SER        -0.2616
     15 CA         43.1940   51.4860   38.1230 C.3       1 SER         0.1539
     16 C          42.4720   52.5090   39.0070 C.2       1 SER         0.2062
     17 O          41.5470   53.1720   38.5440 O.2       1 SER        -0.3943
     18 CB         42.1980   50.5010   37.5240 C.3       1 SER         0.0843
     19 OG         41.9890   49.4210   38.4130 O.3       1 SER        -0.3903
     20 N          42.8880   52.6380   40.2690 N.am      1 LYS        -0.2637
     21 CA         42.3910   53.7220   41.1230 C.3       1 LYS         0.1310
     22 C          42.8810   55.0300   40.5230 C.2       1 LYS         0.2039
     23 O          44.0390   55.1210   40.1120 O.2       1 LYS        -0.3944
     24 CB         42.9410   53.6070   42.5500 C.3       1 LYS        -0.0122
     25 CG         42.5910   52.3300   43.2980 C.3       1 LYS        -0.0440
     26 CD         41.1500   52.3260   43.8050 C.3       1 LYS        -0.0124
     27 CE         40.9780   51.2510   44.8750 C.3       1 LYS        -0.0354
     28 NZ         39.6310   51.2920   45.4870 N.4       1 LYS         0.2185
     29 N          42.0130   56.0360   40.4550 N.am      1 ARG        -0.2637
     30 CA         42.4210   57.3520   39.9620 C.3       1 ARG         0.1311
     31 C          42.2880   58.4250   41.0390 C.2       1 ARG         0.2039
     32 O          41.4400   58.3260   41.9290 O.2       1 ARG        -0.3944
     33 CB         41.5790   57.7710   38.7530 C.3       1 ARG        -0.0092
     34 CG         41.7710   56.9400   37.4890 C.3       1 ARG        -0.0156
     35 CD         40.8270   57.4430   36.4130 C.3       1 ARG         0.0627
     36 NE         39.5090   57.6660   36.9920 N.pl3     1 ARG        -0.2723
     37 CZ         38.8200   58.8010   36.9170 C.cat     1 ARG         0.2882
     38 NH1        39.2970   59.8460   36.2560 N.pl3     1 ARG        -0.2849
     39 NH2        37.6360   58.8790   37.5000 N.pl3     1 ARG        -0.2849
     40 N          43.1160   59.4600   40.9470 N.am      1 ALA        -0.2640
     41 CA         42.9510   60.6350   41.8010 C.3       1 ALA         0.1282
     42 C          41.8290   61.5380   41.2900 C.2       1 ALA         0.2036
     43 O          41.4650   61.4990   40.1090 O.2       1 ALA        -0.3944
     44 CB         44.2350   61.4110   41.8910 C.3       1 ALA        -0.0244
     45 N          41.2770   62.3380   42.1970 N.am      1 ARG        -0.2637
     46 CA         40.3080   63.3670   41.8530 C.3       1 ARG         0.1312
     47 C          40.9480   64.2860   40.8180 C.2       1 ARG         0.2058
     48 O          42.1030   64.6830   40.9750 O.2       1 ARG        -0.3942
     49 CB         39.9380   64.1540   43.1200 C.3       1 ARG        -0.0092
     50 CG         38.7930   65.1370   42.9780 C.3       1 ARG        -0.0156
     51 CD         38.5360   65.8760   44.3010 C.3       1 ARG         0.0627
     52 NE         37.8210   65.0580   45.2900 N.pl3     1 ARG        -0.2723
     53 CZ         38.3780   64.5190   46.3750 C.cat     1 ARG         0.2882
     54 NH1        39.6700   64.7060   46.6320 N.pl3     1 ARG        -0.2849
     55 NH2        37.6400   63.7970   47.2110 N.pl3     1 ARG        -0.2849
     56 N          40.2210   64.5940   39.7330 N.am      1 PRO        -0.2556
     57 CA         40.7730   65.4890   38.7120 C.3       1 PRO         0.0972
     58 C          40.3390   66.9350   38.9450 C.2       1 PRO         0.0603
     59 O          41.1402   67.8741   38.6926 O.co2     1 PRO        -0.5666
     60 CB         40.1480   64.9540   37.4240 C.3       1 PRO        -0.0159
     61 CG         38.7940   64.4740   37.8660 C.3       1 PRO        -0.0288
     62 CD         38.9490   63.9850   39.2990 C.3       1 PRO         0.0362
     63 O          39.1864   67.1871   39.3872 O.co2     1 PRO        -0.5666
     64 H1         43.2621   47.6476   42.9934 H         1 SER         0.2016
     65 H2         43.9476   47.6266   41.4971 H         1 SER         0.2016
     66 H3         42.8649   48.8025   41.8899 H         1 SER         0.2016
     67 H4         44.2649   49.7237   43.4903 H         1 SER         0.1122
     68 H5         46.3238   47.6314   42.6790 H         1 SER         0.0640
     69 H6         45.2984   47.5462   44.1514 H         1 SER         0.0640
     70 H7         47.3645   48.4915   44.5492 H         1 SER         0.2099
     71 H8         47.2490   50.9322   40.0835 H         1 PRO         0.0802
     72 H9         48.2175   49.5731   38.4602 H         1 PRO         0.0313
     73 H10        46.6455   49.3832   37.6120 H         1 PRO         0.0313
     74 H11        47.8762   47.7026   39.7905 H         1 PRO         0.0287
     75 H12        46.8652   47.2088   38.3901 H         1 PRO         0.0287
     76 H13        44.8649   47.8562   39.4476 H         1 PRO         0.0524
     77 H14        45.8245   47.3079   40.8637 H         1 PRO         0.0524
     78 H15        44.0095   49.9115   39.3000 H         1 SER         0.1884
     79 H16        43.6667   52.0394   37.2982 H         1 SER         0.0823
     80 H17        42.5933   50.1173   36.5719 H         1 SER         0.0606
     81 H18        41.2419   51.0143   37.3439 H         1 SER         0.0606
     82 H19        41.3671   48.8133   38.0305 H         1 SER         0.2097
     83 H20        43.5493   51.9849   40.6381 H         1 LYS         0.1883
     84 H21        41.2915   53.7008   41.1495 H         1 LYS         0.0800
     85 H22        42.5499   54.4553   43.1309 H         1 LYS         0.0312
     86 H23        44.0375   53.6749   42.4947 H         1 LYS         0.0312
     87 H24        43.2682   52.2284   44.1589 H         1 LYS         0.0269
     88 H25        42.7289   51.4748   42.6200 H         1 LYS         0.0269
     89 H26        40.4690   52.1181   42.9665 H         1 LYS         0.0317
     90 H27        40.9121   53.3100   44.2353 H         1 LYS         0.0317
     91 H28        41.7308   51.4083   45.6614 H         1 LYS         0.0813
     92 H29        41.1295   50.2635   44.4146 H         1 LYS         0.0813
     93 H30        39.5574   50.5694   46.1860 H         1 LYS         0.1994
     94 H31        38.9336   51.1427   44.7747 H         1 LYS         0.1994
     95 H32        39.4846   52.1917   45.9172 H         1 LYS         0.1994
     96 H33        41.0672   55.8906   40.7453 H         1 ARG         0.1883
     97 H34        43.4755   57.2908   39.6550 H         1 ARG         0.0800
     98 H35        41.8306   58.8144   38.5121 H         1 ARG         0.0313
     99 H36        40.5194   57.7065   39.0413 H         1 ARG         0.0313
    100 H37        41.5521   55.8841   37.7061 H         1 ARG         0.0301
    101 H38        42.8100   57.0350   37.1405 H         1 ARG         0.0301
    102 H39        40.7534   56.6947   35.6101 H         1 ARG         0.0689
    103 H40        41.2110   58.3874   35.9999 H         1 ARG         0.0689
    104 H41        39.0760   56.8817   37.5002 H         1 ARG         0.2642
    105 H42        38.7507   60.7178   36.2075 H         1 ARG         0.2615
    106 H43        40.2140   59.7863   35.7908 H         1 ARG         0.2615
    107 H44        37.2611   58.0695   38.0148 H         1 ARG         0.2615
    108 H45        37.0884   59.7493   37.4394 H         1 ARG         0.2615
    109 H46        43.8636   59.4349   40.2833 H         1 ALA         0.1883
    110 H47        42.6830   60.2897   42.8104 H         1 ALA         0.0797
    111 H48        44.0882   62.2890   42.5372 H         1 ALA         0.0277
    112 H49        44.5349   61.7417   40.8857 H         1 ALA         0.0277
    113 H50        45.0216   60.7703   42.3161 H         1 ALA         0.0277
    114 H51        41.5388   62.2278   43.1558 H         1 ARG         0.1883
    115 H52        39.4031   62.9058   41.4306 H         1 ARG         0.0800
    116 H53        40.8277   64.7168   43.4390 H         1 ARG         0.0313
    117 H54        39.6642   63.4281   43.8997 H         1 ARG         0.0313
    118 H55        37.8833   64.5906   42.6883 H         1 ARG         0.0301
    119 H56        39.0436   65.8714   42.1983 H         1 ARG         0.0301
    120 H57        37.9359   66.7733   44.0897 H         1 ARG         0.0689
    121 H58        39.5044   66.1748   44.7287 H         1 ARG         0.0689
    122 H59        36.8171   64.8887   45.1340 H         1 ARG         0.2642
    123 H60        40.0940   64.2868   47.4719 H         1 ARG         0.2615
    124 H61        40.2462   65.2700   45.9911 H         1 ARG         0.2615
    125 H62        36.6393   63.6485   47.0177 H         1 ARG         0.2615
    126 H63        38.0686   63.3857   48.0525 H         1 ARG         0.2615
    127 H64        41.8710   65.4302   38.6821 H         1 PRO         0.0728
    128 H65        40.7437   64.1261   37.0119 H         1 PRO         0.0306
    129 H66        40.0565   65.7504   36.6707 H         1 PRO         0.0306
    130 H67        38.4538   63.6515   37.2196 H         1 PRO         0.0286
    131 H68        38.0671   65.2985   37.8235 H         1 PRO         0.0286
    132 H69        38.1133   64.3306   39.9253 H         1 PRO         0.0524
    133 H70        39.0055   62.8871   39.3362 H         1 PRO         0.0524
@<TRIPOS>BOND
     1    1    2 1  
     2    2    3 1  
     3    2    5 1  
     4    3    4 2  
     5    3    7 am 
     6    5    6 1  
     7    7    8 1  
     8    7   13 1  
     9    8    9 1  
    10    8   11 1  
    11    9   10 2  
    12    9   14 am 
    13   11   12 1  
    14   12   13 1  
    15   14   15 1  
    16   15   16 1  
    17   15   18 1  
    18   16   17 2  
    19   16   20 am 
    20   18   19 1  
    21   20   21 1  
    22   21   22 1  
    23   21   24 1  
    24   22   23 2  
    25   22   29 am 
    26   24   25 1  
    27   25   26 1  
    28   26   27 1  
    29   27   28 1  
    30   29   30 1  
    31   30   31 1  
    32   30   33 1  
    33   31   32 2  
    34   31   40 am 
    35   33   34 1  
    36   34   35 1  
    37   35   36 1  
    38   36   37 ar 
    39   37   38 ar 
    40   37   39 ar 
    41   40   41 1  
    42   41   42 1  
    43   41   44 1  
    44   42   43 2  
    45   42   45 am 
    46   45   46 1  
    47   46   47 1  
    48   46   49 1  
    49   47   48 2  
    50   47   56 am 
    51   49   50 1  
    52   50   51 1  
    53   51   52 1  
    54   52   53 ar 
    55   53   54 ar 
    56   53   55 ar 
    57   56   57 1  
    58   56   62 1  
    59   57   58 1  
    60   57   60 1  
    61   58   59 ar 
    62   60   61 1  
    63   61   62 1  
    64   58   63 ar 
    65    1   64 1  
    66    1   65 1  
    67    1   66 1  
    68    2   67 1  
    69    5   68 1  
    70    5   69 1  
    71    6   70 1  
    72    8   71 1  
    73   11   72 1  
    74   11   73 1  
    75   12   74 1  
    76   12   75 1  
    77   13   76 1  
    78   13   77 1  
    79   14   78 1  
    80   15   79 1  
    81   18   80 1  
    82   18   81 1  
    83   19   82 1  
    84   20   83 1  
    85   21   84 1  
    86   24   85 1  
    87   24   86 1  
    88   25   87 1  
    89   25   88 1  
    90   26   89 1  
    91   26   90 1  
    92   27   91 1  
    93   27   92 1  
    94   28   93 1  
    95   28   94 1  
    96   28   95 1  
    97   29   96 1  
    98   30   97 1  
    99   33   98 1  
   100   33   99 1  
   101   34  100 1  
   102   34  101 1  
   103   35  102 1  
   104   35  103 1  
   105   36  104 1  
   106   38  105 1  
   107   38  106 1  
   108   39  107 1  
   109   39  108 1  
   110   40  109 1  
   111   41  110 1  
   112   44  111 1  
   113   44  112 1  
   114   44  113 1  
   115   45  114 1  
   116   46  115 1  
   117   49  116 1  
   118   49  117 1  
   119   50  118 1  
   120   50  119 1  
   121   51  120 1  
   122   51  121 1  
   123   52  122 1  
   124   54  123 1  
   125   54  124 1  
   126   55  125 1  
   127   55  126 1  
   128   57  127 1  
   129   60  128 1  
   130   60  129 1  
   131   61  130 1  
   132   61  131 1  
   133   62  132 1  
   134   62  133 1  
@<TRIPOS>SUBSTRUCTURE
     1 SER         1

