3ohi_ligand
  -I-interpret- 

 33 33  0  0  0  0  0  0  0  0999 V2000
   12.2380    0.3020   18.7040 O   0  0  0  0  0
   16.4910   -0.2610   15.8380 O   0  0  0  0  0
   12.8300    6.8690   12.7400 O   0  0  0  0  0
   10.1610    1.6330   17.5720 O   0  0  0  0  0
   16.8360    1.9430   16.9980 O   0  0  0  0  0
   17.3410   -0.2380   18.1950 O   0  0  0  0  0
   10.8320    5.9230   11.4430 O   0  0  0  0  0
   10.4350    7.1640   13.5850 O   0  0  0  0  0
   13.0210    2.5430   15.4500 C   0  0  0  0  0
   14.0410    1.8270   16.0800 C   0  0  0  0  0
   11.0940    4.7620   14.9800 C   0  0  0  0  0
   10.6470    3.3060   15.2060 C   0  0  0  0  0
   14.8410    0.3150   17.8360 C   0  0  0  0  0
   11.5880    4.9530   13.6370 O   0  0  0  0  0
   12.4630    0.9980   17.6790 C   0  0  0  0  0
   11.7110    2.4970   15.9320 C   0  0  0  0  0
   11.4270    1.7120   17.0560 C   0  0  0  0  0
   13.7910    1.0710   17.1650 N   0  0  0  0  0
   16.4920    0.4860   17.1530 P   0  0  0  0  0
   11.4100    6.3300   12.7850 P   0  0  0  0  0
   16.2664   -1.1812   15.9942 H   0  0  0  0  0
   13.3777    6.2812   12.2144 H   0  0  0  0  0
   10.1636    1.0512   18.3356 H   0  0  0  0  0
   17.0710   -1.1580   18.2429 H   0  0  0  0  0
   11.4767    5.3966   10.9646 H   0  0  0  0  0
   13.2501    3.1454   14.5710 H   0  0  0  0  0
   15.0561    1.8813   15.6866 H   0  0  0  0  0
   11.8952    4.9933   15.6820 H   0  0  0  0  0
   10.2363    5.4172   15.1321 H   0  0  0  0  0
   10.4700    2.8463   14.2337 H   0  0  0  0  0
    9.7451    3.3147   15.8181 H   0  0  0  0  0
   14.5745   -0.7369   17.7332 H   0  0  0  0  0
   14.8902    0.6977   18.8554 H   0  0  0  0  0
 15  1  2  0  0  0
 19  2  1  0  0  0
 20  3  1  0  0  0
 17  4  1  0  0  0
 19  5  2  0  0  0
 19  6  1  0  0  0
 20  7  1  0  0  0
 20  8  2  0  0  0
 10  9  2  0  0  0
  9 16  1  0  0  0
 18 10  1  0  0  0
 12 11  1  0  0  0
 11 14  1  0  0  0
 16 12  1  0  0  0
 18 13  1  0  0  0
 13 19  1  0  0  0
 14 20  1  0  0  0
 15 17  1  0  0  0
 15 18  1  0  0  0
 16 17  2  0  0  0
  2 21  1  0  0  0
  3 22  1  0  0  0
  4 23  1  0  0  0
  6 24  1  0  0  0
  7 25  1  0  0  0
  9 26  1  0  0  0
 10 27  1  0  0  0
 11 28  1  0  0  0
 11 29  1  0  0  0
 12 30  1  0  0  0
 12 31  1  0  0  0
 13 32  1  0  0  0
 13 33  1  0  0  0
M  END
$$$$
