6aao_ligand
  -I-interpret- 

 50 50  0  0  0  0  0  0  0  0999 V2000
   79.4710   12.5300   10.8440 C   0  0  0  0  0
   79.5360   14.6990    9.4150 C   0  0  0  0  0
   78.5260   15.0570   12.5130 C   0  0  0  0  0
   79.3500   13.7760   12.8810 C   0  0  0  0  0
   73.2640   12.8480   19.6770 O   0  0  0  0  0
   73.0950   13.7460   18.6740 C   0  0  0  0  0
   73.4490   15.0610   18.8410 O   0  0  0  0  0
   72.5470   13.1870   17.3800 C   0  0  0  0  0
   72.0400   14.2370   16.4930 N   0  3  0  0  0
   73.7010   12.4690   16.6970 C   0  0  0  0  0
   73.4070   12.1220   15.2420 C   0  0  0  0  0
   74.4490   11.1070   14.7390 C   0  0  0  0  0
   75.8760   11.6800   14.5560 C   0  0  0  0  0
   76.8710   10.6040   14.2460 N   0  0  0  0  0
   78.3070   10.9410   13.9960 C   0  0  0  0  0
   79.0500   11.0000   14.8860 O   0  0  0  0  0
   79.0580   11.2340   12.7900 O   0  0  0  0  0
   78.8080   12.5170   12.1660 C   0  0  0  0  0
   78.9330   13.3720    9.7660 C   0  0  0  0  0
   78.8370   15.9320    9.9870 C   0  0  0  0  0
   79.1340   16.0860   11.5050 C   0  0  0  0  0
   79.3656   11.5101   10.4741 H   0  0  0  0  0
   80.4640   12.9351   11.0390 H   0  0  0  0  0
   79.4676   14.7866    8.3307 H   0  0  0  0  0
   80.5413   14.6969    9.8362 H   0  0  0  0  0
   78.4275   15.6060   13.4495 H   0  0  0  0  0
   77.6274   14.6817   12.0233 H   0  0  0  0  0
   79.2736   13.6177   13.9567 H   0  0  0  0  0
   80.3817   13.9308   12.5654 H   0  0  0  0  0
   73.2606   15.5468   18.0347 H   0  0  0  0  0
   71.7096   12.5232   17.5949 H   0  0  0  0  0
   71.2658   14.7205   16.9483 H   0  0  0  0  0
   72.7873   14.9019   16.2933 H   0  0  0  0  0
   71.7151   13.8171   15.6221 H   0  0  0  0  0
   73.8759   11.5360   17.2327 H   0  0  0  0  0
   74.5632   13.1356   16.7123 H   0  0  0  0  0
   73.4561   13.0259   14.6348 H   0  0  0  0  0
   72.4097   11.6888   15.1651 H   0  0  0  0  0
   74.1148   10.7694   13.7580 H   0  0  0  0  0
   74.5167   10.3224   15.4926 H   0  0  0  0  0
   76.1731   12.1641   15.4863 H   0  0  0  0  0
   75.8593   12.3822   13.7225 H   0  0  0  0  0
   76.5663    9.6314   14.2049 H   0  0  0  0  0
   77.7203   12.5871   12.1666 H   0  0  0  0  0
   77.9344   13.6305   10.1181 H   0  0  0  0  0
   79.0943   12.7732    8.8696 H   0  0  0  0  0
   77.7615   15.8193    9.8506 H   0  0  0  0  0
   79.2058   16.8161    9.4669 H   0  0  0  0  0
   80.2127   15.9558   11.5917 H   0  0  0  0  0
   78.6874   17.0415   11.7800 H   0  0  0  0  0
 18  1  1  0  0  0
  1 19  1  0  0  0
 19  2  1  0  0  0
  2 20  1  0  0  0
  4  3  1  0  0  0
  3 21  1  0  0  0
 18  4  1  0  0  0
  6  5  2  0  0  0
  6  7  1  0  0  0
  8  6  1  0  0  0
  8  9  1  0  0  0
 10  8  1  0  0  0
 11 10  1  0  0  0
 12 11  1  0  0  0
 13 12  1  0  0  0
 14 13  1  0  0  0
 15 14  1  0  0  0
 15 16  2  0  0  0
 17 15  1  0  0  0
 17 18  1  0  0  0
 20 21  1  0  0  0
  1 22  1  0  0  0
  1 23  1  0  0  0
  2 24  1  0  0  0
  2 25  1  0  0  0
  3 26  1  0  0  0
  3 27  1  0  0  0
  4 28  1  0  0  0
  4 29  1  0  0  0
  7 30  1  0  0  0
  8 31  1  0  0  0
  9 32  1  0  0  0
  9 33  1  0  0  0
  9 34  1  0  0  0
 10 35  1  0  0  0
 10 36  1  0  0  0
 11 37  1  0  0  0
 11 38  1  0  0  0
 12 39  1  0  0  0
 12 40  1  0  0  0
 13 41  1  0  0  0
 13 42  1  0  0  0
 14 43  1  0  0  0
 18 44  1  0  0  0
 19 45  1  0  0  0
 19 46  1  0  0  0
 20 47  1  0  0  0
 20 48  1  0  0  0
 21 49  1  0  0  0
 21 50  1  0  0  0
M  END
$$$$
