### 
### Created by X-TOOL on Mon Sep 10 21:13:07 2018
### 

@<TRIPOS>MOLECULE
3mg0_ligand
   53    54     1     0     0
SMALL
GAST_HUCK


@<TRIPOS>ATOM
      1 N1         62.2320 -135.4130   35.2100 N.ar      1 BO2        -0.2509
      2 C2         62.0830 -134.4560   36.1520 C.ar      1 BO2         0.1532
      3 C3         62.5400 -133.1640   35.8890 C.ar      1 BO2         0.0620
      4 N4         63.0950 -132.8720   34.7080 N.ar      1 BO2        -0.2653
      5 C5         63.2340 -133.8220   33.7720 C.ar      1 BO2         0.0462
      6 C6         62.7910 -135.1170   34.0280 C.ar      1 BO2         0.0475
      7 C7         61.4800 -134.7780   37.4900 C.2       1 BO2         0.2349
      8 O8         60.8910 -133.9160   38.1260 O.2       1 BO2        -0.3755
      9 N9         61.6180 -136.0100   37.9610 N.am      1 BO2        -0.2600
     10 C10        61.1030 -136.3550   39.2760 C.3       1 BO2         0.1378
     11 C11        60.3480 -137.6740   39.2030 C.3       1 BO2         0.0213
     12 C12        58.9470 -137.4520   38.6920 C.ar      1 BO2        -0.0385
     13 C13        58.6460 -137.7850   37.3650 C.ar      1 BO2        -0.0601
     14 C14        57.3520 -137.5930   36.8650 C.ar      1 BO2        -0.0686
     15 C15        56.3570 -137.0710   37.6990 C.ar      1 BO2        -0.0687
     16 C16        56.6620 -136.7430   39.0280 C.ar      1 BO2        -0.0686
     17 C17        57.9540 -136.9330   39.5330 C.ar      1 BO2        -0.0601
     18 C18        62.2840 -136.5390   40.1800 C.2       1 BO2         0.1755
     19 O19        63.3400 -137.0060   39.7610 O.2       1 BO2        -0.3969
     20 N20        62.1250 -136.1360   41.4300 N.am      1 BO2        -0.4361
     21 C21        63.2130 -136.3040   42.3820 C.3       1 BO2        -0.2261
     22 C22        63.8520 -134.9760   42.8390 C.3       1 BO2        -0.1585
     23 C23        63.2550 -133.6600   42.3570 C.3       1 BO2        -0.0721
     24 C24        62.2100 -133.1480   43.3300 C.3       1 BO2        -0.0649
     25 C25        64.3410 -132.6080   42.2260 C.3       1 BO2        -0.0649
     26 B26        62.5430 -137.0990   43.5990 B         1 BO2         3.0000
     27 O27        61.7900 -136.3500   44.6940 O.3       1 BO2        -0.8710
     28 O28        62.5890 -138.6320   43.6320 O.3       1 BO2        -0.8710
     29 H          62.4441 -132.3893   36.6497 H         1 BO2         0.0978
     30 H          63.6927 -133.5811   32.8130 H         1 BO2         0.0958
     31 H          62.8987 -135.8902   33.2673 H         1 BO2         0.0941
     32 H          62.0878 -136.7190   37.3979 H         1 BO2         0.1883
     33 H          60.4332 -135.5750   39.6381 H         1 BO2         0.0823
     34 H          60.2964 -138.1086   40.2013 H         1 BO2         0.0474
     35 H          60.8716 -138.3448   38.5218 H         1 BO2         0.0474
     36 H          59.4222 -138.1952   36.7189 H         1 BO2         0.0557
     37 H          57.1210 -137.8490   35.8310 H         1 BO2         0.0599
     38 H          55.3475 -136.9197   37.3167 H         1 BO2         0.0559
     39 H          55.8848 -136.3358   39.6748 H         1 BO2         0.0599
     40 H          58.1844 -136.6802   40.5679 H         1 BO2         0.0557
     41 H          61.2460 -135.7105   41.7245 H         1 BO2         0.1459
     42 H          64.0508 -136.8381   41.9337 H         1 BO2        -0.1822
     43 H          64.8600 -134.9939   42.4245 H         1 BO2        -0.0063
     44 H          63.7226 -134.9616   43.9212 H         1 BO2        -0.0063
     45 H          62.7900 -133.8453   41.3887 H         1 BO2         0.0272
     46 H          61.4099 -133.8826   43.4217 H         1 BO2         0.0232
     47 H          62.6708 -132.9872   44.3047 H         1 BO2         0.0232
     48 H          61.8011 -132.2077   42.9604 H         1 BO2         0.0232
     49 H          64.8129 -132.4521   43.1961 H         1 BO2         0.0232
     50 H          65.0877 -132.9460   41.5074 H         1 BO2         0.0232
     51 H          63.8996 -131.6731   41.8808 H         1 BO2         0.0232
     52 H          62.1773 -136.5586   45.5473 H         1 BO2        -0.1290
     53 H          63.0046 -138.9211   44.4476 H         1 BO2        -0.1290
@<TRIPOS>BOND
     1    1    2 ar 
     2    1    6 ar 
     3    2    3 ar 
     4    2    7 1  
     5    3    4 ar 
     6    4    5 ar 
     7    5    6 ar 
     8    7    8 2  
     9    7    9 am 
    10    9   10 1  
    11   10   11 1  
    12   10   18 1  
    13   11   12 1  
    14   12   13 ar 
    15   12   17 ar 
    16   13   14 ar 
    17   14   15 ar 
    18   15   16 ar 
    19   16   17 ar 
    20   18   19 2  
    21   18   20 am 
    22   20   21 1  
    23   21   22 1  
    24   21   26 1  
    25   22   23 1  
    26   23   24 1  
    27   23   25 1  
    28   26   27 1  
    29   26   28 1  
    30    3   29 1  
    31    5   30 1  
    32    6   31 1  
    33    9   32 1  
    34   10   33 1  
    35   11   34 1  
    36   11   35 1  
    37   13   36 1  
    38   14   37 1  
    39   15   38 1  
    40   16   39 1  
    41   17   40 1  
    42   20   41 1  
    43   21   42 1  
    44   22   43 1  
    45   22   44 1  
    46   23   45 1  
    47   24   46 1  
    48   24   47 1  
    49   24   48 1  
    50   25   49 1  
    51   25   50 1  
    52   25   51 1  
    53   27   52 1  
    54   28   53 1  
@<TRIPOS>SUBSTRUCTURE
     1 BO2         1

