3mg0_ligand
  -I-interpret- 

 53 54  0  0  0  0  0  0  0  0999 V2000
   62.2320 -135.4130   35.2100 N   0  0  0  0  0
   62.0830 -134.4560   36.1520 C   0  0  0  0  0
   62.5400 -133.1640   35.8890 C   0  0  0  0  0
   63.0950 -132.8720   34.7080 N   0  0  0  0  0
   63.2340 -133.8220   33.7720 C   0  0  0  0  0
   62.7910 -135.1170   34.0280 C   0  0  0  0  0
   61.4800 -134.7780   37.4900 C   0  0  0  0  0
   60.8910 -133.9160   38.1260 O   0  0  0  0  0
   61.6180 -136.0100   37.9610 N   0  0  0  0  0
   61.1030 -136.3550   39.2760 C   0  0  0  0  0
   60.3480 -137.6740   39.2030 C   0  0  0  0  0
   58.9470 -137.4520   38.6920 C   0  0  0  0  0
   58.6460 -137.7850   37.3650 C   0  0  0  0  0
   57.3520 -137.5930   36.8650 C   0  0  0  0  0
   56.3570 -137.0710   37.6990 C   0  0  0  0  0
   56.6620 -136.7430   39.0280 C   0  0  0  0  0
   57.9540 -136.9330   39.5330 C   0  0  0  0  0
   62.2840 -136.5390   40.1800 C   0  0  0  0  0
   63.3400 -137.0060   39.7610 O   0  0  0  0  0
   62.1250 -136.1360   41.4300 N   0  0  0  0  0
   63.2130 -136.3040   42.3820 C   0  0  0  0  0
   63.8520 -134.9760   42.8390 C   0  0  0  0  0
   63.2550 -133.6600   42.3570 C   0  0  0  0  0
   62.2100 -133.1480   43.3300 C   0  0  0  0  0
   64.3410 -132.6080   42.2260 C   0  0  0  0  0
   62.5430 -137.0990   43.5990 B   0  0  0  0  0
   61.7900 -136.3500   44.6940 O   0  0  0  0  0
   62.5890 -138.6320   43.6320 O   0  0  0  0  0
   62.4441 -132.3893   36.6497 H   0  0  0  0  0
   63.6927 -133.5811   32.8130 H   0  0  0  0  0
   62.8987 -135.8902   33.2673 H   0  0  0  0  0
   62.0878 -136.7190   37.3979 H   0  0  0  0  0
   60.4332 -135.5750   39.6381 H   0  0  0  0  0
   60.2964 -138.1086   40.2013 H   0  0  0  0  0
   60.8716 -138.3448   38.5218 H   0  0  0  0  0
   59.4222 -138.1952   36.7189 H   0  0  0  0  0
   57.1210 -137.8490   35.8310 H   0  0  0  0  0
   55.3475 -136.9197   37.3167 H   0  0  0  0  0
   55.8848 -136.3358   39.6748 H   0  0  0  0  0
   58.1844 -136.6802   40.5679 H   0  0  0  0  0
   61.2460 -135.7105   41.7245 H   0  0  0  0  0
   64.0508 -136.8381   41.9337 H   0  0  0  0  0
   64.8600 -134.9939   42.4245 H   0  0  0  0  0
   63.7226 -134.9616   43.9212 H   0  0  0  0  0
   62.7900 -133.8453   41.3887 H   0  0  0  0  0
   61.4099 -133.8826   43.4217 H   0  0  0  0  0
   62.6708 -132.9872   44.3047 H   0  0  0  0  0
   61.8011 -132.2077   42.9604 H   0  0  0  0  0
   64.8129 -132.4521   43.1961 H   0  0  0  0  0
   65.0877 -132.9460   41.5074 H   0  0  0  0  0
   63.8996 -131.6731   41.8808 H   0  0  0  0  0
   61.4564 -136.9783   45.3386 H   0  0  0  0  0
   62.1452 -138.9474   44.4227 H   0  0  0  0  0
  1  2  4  0  0  0
  1  6  4  0  0  0
  2  3  4  0  0  0
  2  7  1  0  0  0
  3  4  4  0  0  0
  4  5  4  0  0  0
  5  6  4  0  0  0
  7  8  2  0  0  0
  7  9  1  0  0  0
  9 10  1  0  0  0
 10 11  1  0  0  0
 10 18  1  0  0  0
 11 12  1  0  0  0
 12 13  4  0  0  0
 12 17  4  0  0  0
 13 14  4  0  0  0
 14 15  4  0  0  0
 15 16  4  0  0  0
 16 17  4  0  0  0
 18 19  2  0  0  0
 18 20  1  0  0  0
 20 21  1  0  0  0
 21 22  1  0  0  0
 21 26  1  0  0  0
 22 23  1  0  0  0
 23 24  1  0  0  0
 23 25  1  0  0  0
 26 27  1  0  0  0
 26 28  1  0  0  0
  3 29  1  0  0  0
  5 30  1  0  0  0
  6 31  1  0  0  0
  9 32  1  0  0  0
 10 33  1  0  0  0
 11 34  1  0  0  0
 11 35  1  0  0  0
 13 36  1  0  0  0
 14 37  1  0  0  0
 15 38  1  0  0  0
 16 39  1  0  0  0
 17 40  1  0  0  0
 20 41  1  0  0  0
 21 42  1  0  0  0
 22 43  1  0  0  0
 22 44  1  0  0  0
 23 45  1  0  0  0
 24 46  1  0  0  0
 24 47  1  0  0  0
 24 48  1  0  0  0
 25 49  1  0  0  0
 25 50  1  0  0  0
 25 51  1  0  0  0
 27 52  1  0  0  0
 28 53  1  0  0  0
M  END
$$$$
