5h8x_ligand
  -I-interpret- 

 39 41  0  0  0  0  0  0  0  0999 V2000
  -10.6220   -7.3080   17.0410 C   0  0  0  0  0
   -9.6280   -7.1300   16.0740 C   0  0  0  0  0
   -9.6890   -6.1250   15.0740 O   0  0  0  0  0
   -8.5260   -7.9630   16.0460 C   0  0  0  0  0
   -7.5250   -7.7440   15.0530 O   0  0  0  0  0
   -8.4210   -8.9810   17.0050 C   0  0  0  0  0
   -9.4060   -9.1480   17.9810 C   0  0  0  0  0
  -10.5050   -8.3210   18.0000 C   0  0  0  0  0
  -11.5380   -8.4820   18.9960 N   0  0  0  0  0
  -11.1960   -8.2000   20.6070 S   0  0  0  0  0
  -10.1960   -7.0750   20.7500 O   0  0  0  0  0
  -12.4410   -7.7950   21.3450 O   0  0  0  0  0
  -10.5350   -9.7310   21.3180 C   0  0  0  0  0
  -11.2770  -10.9050   21.2300 C   0  0  0  0  0
  -10.7870  -12.0960   21.7760 C   0  0  0  0  0
   -9.2990   -9.7530   21.9540 C   0  0  0  0  0
   -8.8070  -10.9510   22.5030 C   0  0  0  0  0
   -9.5450  -12.1270   22.4020 C   0  0  0  0  0
   -9.0360  -13.4480   23.0250 C   0  0  0  0  0
   -9.9350  -14.4900   23.3080 C   0  0  0  0  0
   -9.5230  -15.6870   23.9120 C   0  0  0  0  0
   -8.1780  -15.8610   24.2130 C   0  0  0  0  0
   -7.2730  -14.8280   23.9310 C   0  0  0  0  0
   -7.6960  -13.6280   23.3470 C   0  0  0  0  0
  -11.4937   -6.6537   17.0482 H   0  0  0  0  0
   -8.9083   -6.1805   14.5181 H   0  0  0  0  0
   -6.8261   -8.3940   15.1560 H   0  0  0  0  0
   -7.5604   -9.6498   16.9884 H   0  0  0  0  0
   -9.3037   -9.9346   18.7286 H   0  0  0  0  0
  -12.4763   -8.7678   18.7162 H   0  0  0  0  0
  -12.2467  -10.8964   20.7322 H   0  0  0  0  0
  -11.3827  -13.0065   21.7105 H   0  0  0  0  0
   -8.7094   -8.8392   22.0275 H   0  0  0  0  0
   -7.8423  -10.9585   23.0104 H   0  0  0  0  0
  -10.9865  -14.3641   23.0499 H   0  0  0  0  0
  -10.2471  -16.4687   24.1417 H   0  0  0  0  0
   -7.8301  -16.7906   24.6635 H   0  0  0  0  0
   -6.2183  -14.9619   24.1714 H   0  0  0  0  0
   -6.9752  -12.8357   23.1451 H   0  0  0  0  0
  1  2  4  0  0  0
  1  8  4  0  0  0
  2  3  1  0  0  0
  2  4  4  0  0  0
  4  5  1  0  0  0
  4  6  4  0  0  0
  6  7  4  0  0  0
  7  8  4  0  0  0
  8  9  1  0  0  0
  9 10  1  0  0  0
 10 11  2  0  0  0
 10 12  2  0  0  0
 10 13  1  0  0  0
 13 14  4  0  0  0
 13 16  4  0  0  0
 14 15  4  0  0  0
 15 18  4  0  0  0
 16 17  4  0  0  0
 17 18  4  0  0  0
 18 19  1  0  0  0
 19 20  4  0  0  0
 19 24  4  0  0  0
 20 21  4  0  0  0
 21 22  4  0  0  0
 22 23  4  0  0  0
 23 24  4  0  0  0
  1 25  1  0  0  0
  3 26  1  0  0  0
  5 27  1  0  0  0
  6 28  1  0  0  0
  7 29  1  0  0  0
  9 30  1  0  0  0
 14 31  1  0  0  0
 15 32  1  0  0  0
 16 33  1  0  0  0
 17 34  1  0  0  0
 20 35  1  0  0  0
 21 36  1  0  0  0
 22 37  1  0  0  0
 23 38  1  0  0  0
 24 39  1  0  0  0
M  END
$$$$
