3r7r_ligand
  -I-interpret- 

 48 51  0  0  0  0  0  0  0  0999 V2000
   17.4960   62.8130   22.3220 C   0  0  0  0  0
   25.8180   61.7890   20.5530 N   0  0  0  0  0
   19.2330   60.2410   24.0950 O   0  0  0  0  0
   22.6460   62.0630   21.3280 S   0  0  0  0  0
   18.4950   63.4000   21.5640 C   0  0  0  0  0
   16.1810   63.2540   22.2660 N   0  0  0  0  0
   26.1110   60.3600   22.1660 O   0  0  0  0  0
   19.7780   62.9280   21.6530 C   0  0  0  0  0
   16.7630   65.3540   21.8460 O   0  0  0  0  0
   20.0950   61.8660   22.4760 C   0  0  0  0  0
   19.0650   61.2660   23.2460 C   0  0  0  0  0
   17.7910   61.7540   23.1500 C   0  0  0  0  0
   21.5060   61.4510   22.4680 C   0  0  0  0  0
   22.1460   60.5790   23.3110 C   0  0  0  0  0
   21.4670   59.8660   24.4370 C   0  0  0  0  0
   20.2120   59.2570   23.8630 C   0  0  0  0  0
   23.9540   61.1240   22.0030 C   0  0  0  0  0
   23.4680   60.4110   23.0360 C   0  0  0  0  0
   25.3370   61.0780   21.5740 C   0  0  0  0  0
   25.0190   62.6470   19.8230 C   0  0  0  0  0
   24.9780   63.9920   20.1220 C   0  0  0  0  0
   24.1690   64.8150   19.3650 C   0  0  0  0  0
   23.4020   64.3040   18.3170 C   0  0  0  0  0
   23.4480   62.9650   18.0240 C   0  0  0  0  0
   24.2630   62.1610   18.7830 C   0  0  0  0  0
   15.8860   64.5370   22.0200 C   0  0  0  0  0
   14.4420   64.9390   21.9760 C   0  0  0  0  0
   27.2280   61.6590   20.2350 C   0  0  0  0  0
   24.3410   60.4850   18.4390 Cl  0  0  0  0  0
   18.2620   64.2327   20.9004 H   0  0  0  0  0
   15.4238   62.5871   22.4153 H   0  0  0  0  0
   20.5635   63.4000   21.0627 H   0  0  0  0  0
   16.9961   61.2966   23.7390 H   0  0  0  0  0
   21.2311   60.5539   25.2489 H   0  0  0  0  0
   22.1150   59.0986   24.8604 H   0  0  0  0  0
   20.3134   59.0097   22.8063 H   0  0  0  0  0
   19.9620   58.3021   24.3253 H   0  0  0  0  0
   24.0970   59.7379   23.6186 H   0  0  0  0  0
   25.5729   64.3977   20.9403 H   0  0  0  0  0
   24.1285   65.8809   19.5892 H   0  0  0  0  0
   22.7667   64.9688   17.7317 H   0  0  0  0  0
   22.8535   62.5497   17.2102 H   0  0  0  0  0
   14.2509   65.6874   22.7450 H   0  0  0  0  0
   14.2121   65.3566   20.9957 H   0  0  0  0  0
   13.8170   64.0642   22.1553 H   0  0  0  0  0
   27.8229   61.9621   21.0966 H   0  0  0  0  0
   27.4489   60.6210   19.9864 H   0  0  0  0  0
   27.4675   62.2966   19.3840 H   0  0  0  0  0
  5  1  4  0  0  0
  1  6  1  0  0  0
 12  1  4  0  0  0
 19  2  1  0  0  0
  2 20  1  0  0  0
  2 28  1  0  0  0
 11  3  1  0  0  0
 16  3  1  0  0  0
  4 13  4  0  0  0
 17  4  4  0  0  0
  8  5  4  0  0  0
  6 26  1  0  0  0
 19  7  2  0  0  0
 10  8  4  0  0  0
 26  9  2  0  0  0
 10 11  4  0  0  0
 13 10  1  0  0  0
 11 12  4  0  0  0
 14 13  4  0  0  0
 14 15  1  0  0  0
 18 14  4  0  0  0
 15 16  1  0  0  0
 17 18  4  0  0  0
 17 19  1  0  0  0
 20 21  4  0  0  0
 20 25  4  0  0  0
 21 22  4  0  0  0
 22 23  4  0  0  0
 23 24  4  0  0  0
 24 25  4  0  0  0
 25 29  1  0  0  0
 26 27  1  0  0  0
  5 30  1  0  0  0
  6 31  1  0  0  0
  8 32  1  0  0  0
 12 33  1  0  0  0
 15 34  1  0  0  0
 15 35  1  0  0  0
 16 36  1  0  0  0
 16 37  1  0  0  0
 18 38  1  0  0  0
 21 39  1  0  0  0
 22 40  1  0  0  0
 23 41  1  0  0  0
 24 42  1  0  0  0
 27 43  1  0  0  0
 27 44  1  0  0  0
 27 45  1  0  0  0
 28 46  1  0  0  0
 28 47  1  0  0  0
 28 48  1  0  0  0
M  END
$$$$
