6jao_ligand
  -I-interpret- 

 45 46  0  0  0  0  0  0  0  0999 V2000
   -6.6410  -32.5720  -14.5710 C   0  0  0  0  0
   -7.8880  -32.4070  -13.7090 C   0  0  0  0  0
   -8.8520  -31.4010  -14.3440 C   0  0  0  0  0
   -8.1300  -30.0600  -14.5350 C   0  0  0  0  0
   -6.7760  -30.2810  -15.3030 C   0  0  0  0  0
   -5.9040  -29.0460  -15.3530 C   0  0  0  0  0
   -8.6270  -33.6240  -13.5700 O   0  0  0  0  0
  -10.0190  -31.1230  -13.5170 O   0  0  0  0  0
   -8.9030  -29.0530  -15.2350 O   0  0  0  0  0
   -6.0130  -31.3260  -14.7030 O   0  0  0  0  0
   -4.7180  -29.2690  -16.1700 O   0  0  0  0  0
   -4.2070  -37.2700  -15.3750 O   0  0  0  0  0
   -6.3310  -36.8890  -14.3030 C   0  0  0  0  0
   -5.6120  -36.4710  -13.1130 O   0  0  0  0  0
   -5.4780  -36.6330  -15.5250 C   0  0  0  0  0
   -5.1870  -35.2350  -15.6610 O   0  0  0  0  0
   -6.1410  -37.0200  -16.8190 C   0  0  0  0  0
   -7.0700  -38.0880  -16.6690 O   0  0  0  0  0
   -6.7530  -35.7290  -17.3130 C   0  0  0  0  0
   -6.9930  -35.7890  -18.7330 O   0  0  0  0  0
   -5.6430  -34.7800  -16.9210 C   0  0  0  0  0
   -6.0370  -33.3230  -16.8560 C   0  0  0  0  0
   -7.0820  -33.0920  -15.8460 O   0  0  0  0  0
   -5.9165  -33.2566  -14.1300 H   0  0  0  0  0
   -7.5261  -32.0743  -12.7361 H   0  0  0  0  0
   -9.1794  -31.8470  -15.2831 H   0  0  0  0  0
   -7.9606  -29.6799  -13.5276 H   0  0  0  0  0
   -7.0667  -30.5416  -16.3207 H   0  0  0  0  0
   -5.5865  -28.8037  -14.3388 H   0  0  0  0  0
   -6.4802  -28.2316  -15.7922 H   0  0  0  0  0
   -8.0657  -34.2944  -13.1736 H   0  0  0  0  0
  -10.5061  -31.9369  -13.3689 H   0  0  0  0  0
   -9.7328  -28.9103  -14.7738 H   0  0  0  0  0
   -4.1852  -28.4705  -16.1833 H   0  0  0  0  0
   -3.6724  -37.1025  -16.1546 H   0  0  0  0  0
   -7.2592  -36.3233  -14.3835 H   0  0  0  0  0
   -6.5575  -37.9530  -14.2350 H   0  0  0  0  0
   -6.1551  -36.6343  -12.3384 H   0  0  0  0  0
   -5.4395  -37.4305  -17.5453 H   0  0  0  0  0
   -7.4612  -38.2925  -17.5215 H   0  0  0  0  0
   -7.7301  -35.4597  -16.9119 H   0  0  0  0  0
   -7.3810  -34.9613  -19.0261 H   0  0  0  0  0
   -4.8732  -34.7975  -17.6925 H   0  0  0  0  0
   -6.4264  -33.0266  -17.8300 H   0  0  0  0  0
   -5.1578  -32.7392  -16.5832 H   0  0  0  0  0
  1  2  1  0  0  0
  1 10  1  0  0  0
 23  1  1  0  0  0
  2  3  1  0  0  0
  2  7  1  0  0  0
  3  4  1  0  0  0
  3  8  1  0  0  0
  5  4  1  0  0  0
  4  9  1  0  0  0
  5  6  1  0  0  0
 10  5  1  0  0  0
  6 11  1  0  0  0
 15 12  1  0  0  0
 13 14  1  0  0  0
 15 13  1  0  0  0
 16 15  1  0  0  0
 17 15  1  0  0  0
 21 16  1  0  0  0
 17 18  1  0  0  0
 19 17  1  0  0  0
 19 20  1  0  0  0
 21 19  1  0  0  0
 22 21  1  0  0  0
 22 23  1  0  0  0
  1 24  1  0  0  0
  2 25  1  0  0  0
  3 26  1  0  0  0
  4 27  1  0  0  0
  5 28  1  0  0  0
  6 29  1  0  0  0
  6 30  1  0  0  0
  7 31  1  0  0  0
  8 32  1  0  0  0
  9 33  1  0  0  0
 11 34  1  0  0  0
 12 35  1  0  0  0
 13 36  1  0  0  0
 13 37  1  0  0  0
 14 38  1  0  0  0
 17 39  1  0  0  0
 18 40  1  0  0  0
 19 41  1  0  0  0
 20 42  1  0  0  0
 21 43  1  0  0  0
 22 44  1  0  0  0
 22 45  1  0  0  0
M  END
$$$$
