5ueu_ligand
  -I-interpret- 

 47 50  0  0  0  0  0  0  0  0999 V2000
   30.0930   10.0650  -14.3610 Cl  0  0  0  0  0
   28.5170   10.5530  -13.8270 C   0  0  0  0  0
   27.6260   11.1330  -14.7000 C   0  0  0  0  0
   26.3700   11.5230  -14.2800 C   0  0  0  0  0
   28.1450   10.3690  -12.5170 C   0  0  0  0  0
   26.8880   10.7600  -12.1050 C   0  0  0  0  0
   25.9780   11.3430  -12.9670 C   0  0  0  0  0
   24.6310   11.7380  -12.4830 C   0  0  0  0  0
   24.4360   12.1080  -11.0910 C   0  0  0  0  0
   25.2280   13.0220  -10.3370 C   0  0  0  0  0
   26.3820   13.7630  -10.8730 C   0  0  0  0  0
   24.7940   13.1620   -9.0320 C   0  0  0  0  0
   25.3530   14.0020   -7.9580 C   0  0  0  0  0
   23.4090   12.2010   -8.7100 S   0  0  0  0  0
   23.4130   11.5880  -10.3180 C   0  0  0  0  0
   22.4280   10.7220  -10.7910 N   0  0  0  0  0
   21.7700    9.6440  -10.2550 C   0  0  0  0  0
   22.0640    9.0370   -8.9450 C   0  0  0  0  0
   20.8330    9.2190  -11.0700 N   0  0  0  0  0
   20.8560   10.0120  -12.1760 N   0  0  0  0  0
   21.8040   10.9060  -12.0000 C   0  0  0  0  0
   23.6310   11.6680  -13.3130 N   0  0  0  0  0
   22.2430   11.9740  -12.9230 C   0  0  0  0  0
   21.3690   12.0610  -14.1570 C   0  0  0  0  0
   21.7210   13.2660  -14.9860 C   0  0  0  0  0
   22.4600   14.1770  -14.6390 O   0  0  0  0  0
   21.0790   13.1840  -16.1820 O   0  0  0  0  0
   21.4360   14.2280  -17.0910 C   0  0  0  0  0
   27.9161   11.2870  -15.7393 H   0  0  0  0  0
   25.6804   11.9776  -14.9913 H   0  0  0  0  0
   28.8387    9.9170  -11.8081 H   0  0  0  0  0
   26.6026   10.6040  -11.0647 H   0  0  0  0  0
   27.1352   13.0568  -11.2222 H   0  0  0  0  0
   26.0562   14.3890  -11.7037 H   0  0  0  0  0
   26.8059   14.3898  -10.0885 H   0  0  0  0  0
   26.3847   13.7066   -7.7672 H   0  0  0  0  0
   25.3238   15.0478   -8.2639 H   0  0  0  0  0
   24.7625   13.8707   -7.0512 H   0  0  0  0  0
   23.0951    8.6837   -8.9329 H   0  0  0  0  0
   21.9246    9.7817   -8.1614 H   0  0  0  0  0
   21.3891    8.1981   -8.7750 H   0  0  0  0  0
   22.1681   12.9383  -12.4203 H   0  0  0  0  0
   20.3288   12.1457  -13.8425 H   0  0  0  0  0
   21.5252   11.1658  -14.7589 H   0  0  0  0  0
   21.1861   15.1930  -16.6502 H   0  0  0  0  0
   22.5068   14.1844  -17.2900 H   0  0  0  0  0
   20.8864   14.0998  -18.0235 H   0  0  0  0  0
  1  2  1  0  0  0
  2  3  4  0  0  0
  2  5  4  0  0  0
  3  4  4  0  0  0
  4  7  4  0  0  0
  5  6  4  0  0  0
  6  7  4  0  0  0
  7  8  1  0  0  0
  8  9  1  0  0  0
  8 22  2  0  0  0
  9 10  4  0  0  0
  9 15  4  0  0  0
 10 11  1  0  0  0
 10 12  4  0  0  0
 12 13  1  0  0  0
 12 14  4  0  0  0
 14 15  4  0  0  0
 15 16  1  0  0  0
 16 17  4  0  0  0
 16 21  4  0  0  0
 17 18  1  0  0  0
 17 19  4  0  0  0
 19 20  4  0  0  0
 20 21  4  0  0  0
 21 23  1  0  0  0
 22 23  1  0  0  0
 23 24  1  0  0  0
 24 25  1  0  0  0
 25 26  2  0  0  0
 25 27  1  0  0  0
 27 28  1  0  0  0
  3 29  1  0  0  0
  4 30  1  0  0  0
  5 31  1  0  0  0
  6 32  1  0  0  0
 11 33  1  0  0  0
 11 34  1  0  0  0
 11 35  1  0  0  0
 13 36  1  0  0  0
 13 37  1  0  0  0
 13 38  1  0  0  0
 18 39  1  0  0  0
 18 40  1  0  0  0
 18 41  1  0  0  0
 23 42  1  0  0  0
 24 43  1  0  0  0
 24 44  1  0  0  0
 28 45  1  0  0  0
 28 46  1  0  0  0
 28 47  1  0  0  0
M  END
$$$$
