3ttn_ligand
  -I-interpret- 

 32 31  0  0  0  0  0  0  0  0999 V2000
   26.0240   27.2880   31.8790 N   0  3  0  0  0
   25.6740   28.6610   32.2050 C   0  0  0  0  0
   24.2020   28.7490   32.5890 C   0  0  0  0  0
   23.9270   30.0630   33.3210 C   0  0  0  0  0
   22.4580   30.3970   33.1780 C   0  0  0  0  0
   21.6720   30.0550   34.3210 N   0  3  0  0  0
   20.4990   30.8570   34.6400 C   0  0  0  0  0
   19.2470   29.9820   34.6890 C   0  0  0  0  0
   18.0790   30.6230   35.4490 C   0  0  0  0  0
   16.8560   30.0850   34.8730 N   0  3  0  0  0
   27.0105   27.2413   31.6238 H   0  0  0  0  0
   25.8528   26.6931   32.6897 H   0  0  0  0  0
   25.4535   26.9698   31.0957 H   0  0  0  0  0
   25.8552   29.2925   31.3353 H   0  0  0  0  0
   26.2833   28.9958   33.0445 H   0  0  0  0  0
   23.9533   27.9152   33.2455 H   0  0  0  0  0
   23.5938   28.7091   31.6854 H   0  0  0  0  0
   24.5326   30.8610   32.8913 H   0  0  0  0  0
   24.1835   29.9611   34.3755 H   0  0  0  0  0
   22.0749   29.8194   32.3368 H   0  0  0  0  0
   22.3827   31.4761   33.0442 H   0  0  0  0  0
   22.2984   30.1794   35.1163 H   0  0  0  0  0
   21.3060   29.1248   34.1183 H   0  0  0  0  0
   20.3696   31.6162   33.8687 H   0  0  0  0  0
   20.6435   31.3221   35.6151 H   0  0  0  0  0
   19.5112   29.0624   35.2112 H   0  0  0  0  0
   18.9198   29.8220   33.6617 H   0  0  0  0  0
   18.1059   31.7087   35.3562 H   0  0  0  0  0
   18.1384   30.3958   36.5134 H   0  0  0  0  0
   16.0503   30.4873   35.3520 H   0  0  0  0  0
   16.8162   30.3209   33.8814 H   0  0  0  0  0
   16.8471   29.0710   34.9831 H   0  0  0  0  0
  1  2  1  0  0  0
  2  3  1  0  0  0
  3  4  1  0  0  0
  4  5  1  0  0  0
  5  6  1  0  0  0
  6  7  1  0  0  0
  7  8  1  0  0  0
  8  9  1  0  0  0
  9 10  1  0  0  0
  1 11  1  0  0  0
  1 12  1  0  0  0
  1 13  1  0  0  0
  2 14  1  0  0  0
  2 15  1  0  0  0
  3 16  1  0  0  0
  3 17  1  0  0  0
  4 18  1  0  0  0
  4 19  1  0  0  0
  5 20  1  0  0  0
  5 21  1  0  0  0
  6 22  1  0  0  0
  6 23  1  0  0  0
  7 24  1  0  0  0
  7 25  1  0  0  0
  8 26  1  0  0  0
  8 27  1  0  0  0
  9 28  1  0  0  0
  9 29  1  0  0  0
 10 30  1  0  0  0
 10 31  1  0  0  0
 10 32  1  0  0  0
M  END
$$$$
