1bxl_ligand
  -I-interpret- 

247246  0  0  0  0  0  0  0  0999 V2000
   -8.9250  -19.1580    1.8400 N   0  3  0  0  0
   -8.2060  -17.9060    1.4680 C   0  0  0  0  0
   -6.7390  -18.2280    1.1750 C   0  0  0  0  0
   -6.0240  -18.7330    2.0170 O   0  0  0  0  0
   -6.2850  -17.9400   -0.0150 N   0  0  0  0  0
   -4.8640  -18.2290   -0.3620 C   0  0  0  0  0
   -4.0360  -16.9490   -0.2340 C   0  0  0  0  0
   -2.9100  -16.9750    0.2220 O   0  0  0  0  0
   -4.7860  -18.7450   -1.8010 C   0  0  0  0  0
   -4.3710  -20.2180   -1.7970 C   0  0  0  0  0
   -5.6170  -21.1010   -1.8840 C   0  0  0  0  0
   -6.7120  -20.6570   -1.6020 O   0  0  0  0  0
   -5.4970  -22.3430   -2.2670 N   0  0  0  0  0
   -4.5810  -15.8310   -0.6340 N   0  0  0  0  0
   -3.8140  -14.5530   -0.5320 C   0  0  0  0  0
   -3.3270  -14.3630    0.9000 C   0  0  0  0  0
   -3.8400  -14.9570    1.8280 O   0  0  0  0  0
   -4.6960  -13.3650   -0.9300 C   0  0  0  0  0
   -4.7930  -13.2860   -2.4550 C   0  0  0  0  0
   -6.0980  -13.5360   -0.3380 C   0  0  0  0  0
   -2.3340  -13.5420    1.0850 N   0  0  0  0  0
   -1.8060  -13.3150    2.4510 C   0  0  0  0  0
   -0.6750  -14.3100    2.7130 C   0  0  0  0  0
    0.4220  -13.9380    3.0800 O   0  0  0  0  0
   -0.9340  -15.5750    2.5210 N   0  0  0  0  0
    0.1230  -16.5970    2.7510 C   0  0  0  0  0
    1.2130  -16.4310    1.6910 C   0  0  0  0  0
    2.3800  -16.6590    1.9410 O   0  0  0  0  0
   -0.4920  -17.9950    2.6420 C   0  0  0  0  0
   -0.7840  -18.5400    4.0420 C   0  0  0  0  0
    0.5270  -18.7090    4.8120 C   0  0  0  0  0
    0.5020  -19.9960    5.5620 N   0  0  0  0  0
    1.6200  -20.6070    5.8460 C   0  0  0  0  0
    2.4730  -20.8780    4.8960 N   0  0  0  0  0
    1.8850  -20.9450    7.0780 N   0  0  0  0  0
    0.8370  -16.0300    0.5070 N   0  0  0  0  0
    1.8420  -15.8410   -0.5760 C   0  0  0  0  0
    2.3260  -14.3900   -0.5630 C   0  0  0  0  0
    3.4600  -14.0980   -0.8900 O   0  0  0  0  0
    1.1950  -16.1540   -1.9280 C   0  0  0  0  0
    1.2950  -17.6560   -2.2060 C   0  0  0  0  0
   -0.0940  -18.2880   -2.0960 C   0  0  0  0  0
   -1.0770  -17.6960   -2.4930 O   0  0  0  0  0
   -0.2170  -19.4760   -1.5700 N   0  0  0  0  0
    1.4720  -13.4770   -0.1850 N   0  0  0  0  0
    1.8790  -12.0440   -0.1460 C   0  0  0  0  0
    3.1310  -11.8950    0.7220 C   0  0  0  0  0
    3.9130  -10.9820    0.5470 O   0  0  0  0  0
    0.7440  -11.2060    0.4490 C   0  0  0  0  0
    0.0470  -10.4130   -0.6600 C   0  0  0  0  0
   -1.2740  -11.0920   -1.0240 C   0  0  0  0  0
   -0.2330   -8.9910   -0.1680 C   0  0  0  0  0
    3.3290  -12.7840    1.6590 N   0  0  0  0  0
    4.5310  -12.6890    2.5330 C   0  0  0  0  0
    5.7130  -13.3720    1.8420 C   0  0  0  0  0
    6.8490  -12.9660    1.9870 O   0  0  0  0  0
    4.2480  -13.3850    3.8660 C   0  0  0  0  0
    5.4530  -14.4060    1.0890 N   0  0  0  0  0
    6.5610  -15.1140    0.3870 C   0  0  0  0  0
    7.3240  -14.1170   -0.4870 C   0  0  0  0  0
    8.5280  -13.9930   -0.3950 O   0  0  0  0  0
    5.9810  -16.2240   -0.4920 C   0  0  0  0  0
    5.9020  -17.5220    0.3150 C   0  0  0  0  0
    6.8830  -16.4360   -1.7090 C   0  0  0  0  0
    4.6990  -18.3420   -0.1530 C   0  0  0  0  0
    6.6330  -13.4050   -1.3330 N   0  0  0  0  0
    7.3240  -12.4160   -2.2090 C   0  0  0  0  0
    8.1330  -11.4460   -1.3460 C   0  0  0  0  0
    9.1410  -10.9230   -1.7700 O   0  0  0  0  0
    6.2890  -11.6260   -3.0110 C   0  0  0  0  0
    5.3050  -10.9600   -2.0500 C   0  0  0  0  0
    5.5350  -12.5720   -3.9430 C   0  0  0  0  0
    4.0190  -10.6090   -2.7970 C   0  0  0  0  0
    7.6950  -11.1990   -0.1400 N   0  0  0  0  0
    8.4330  -10.2580    0.7540 C   0  0  0  0  0
    9.9080  -10.6590    0.8430 C   0  0  0  0  0
   10.7900   -9.8270    0.7690 O   0  0  0  0  0
   10.1850  -11.9230    1.0050 N   0  0  0  0  0
   11.6050  -12.3690    1.1010 C   0  0  0  0  0
   12.3770  -11.9050   -0.1370 C   0  0  0  0  0
   13.3540  -11.1900   -0.0390 O   0  0  0  0  0
   11.6540  -13.8960    1.1900 C   0  0  0  0  0
   12.9440  -14.3270    1.8920 C   0  0  0  0  0
   13.6780  -13.4560    2.3280 O   0  0  0  0  0
   13.1760  -15.5220    1.9810 O   0  0  0  0  0
   11.9460  -12.3070   -1.3010 N   0  0  0  0  0
   12.6540  -11.8930   -2.5470 C   0  0  0  0  0
   12.7230  -10.3630   -2.6320 C   0  0  0  0  0
   13.5650   -9.8110   -3.3130 O   0  0  0  0  0
   11.8980  -12.4340   -3.7620 C   0  0  0  0  0
   12.8990  -12.8630   -4.8370 C   0  0  0  0  0
   14.0210  -12.3860   -4.7980 O   0  0  0  0  0
   12.5250  -13.6600   -5.6820 O   0  0  0  0  0
   11.8470   -9.6710   -1.9530 N   0  0  0  0  0
   11.8700   -8.1830   -2.0040 C   0  0  0  0  0
   11.8220   -7.6210   -0.5820 C   0  0  0  0  0
   10.9830   -6.8060   -0.2540 O   0  0  0  0  0
   10.6550   -7.6850   -2.7900 C   0  0  0  0  0
    9.3760   -8.2170   -2.1400 C   0  0  0  0  0
   10.7350   -8.1920   -4.2310 C   0  0  0  0  0
    8.3980   -7.0640   -1.9120 C   0  0  0  0  0
   12.7160   -8.0490    0.2670 N   0  0  0  0  0
   12.7190   -7.5380    1.6670 C   0  0  0  0  0
   13.8290   -6.4980    1.8300 C   0  0  0  0  0
   14.9970   -6.8280    1.8880 O   0  0  0  0  0
   12.9630   -8.6990    2.6330 C   0  0  0  0  0
   12.5260   -8.2920    4.0410 C   0  0  0  0  0
   11.6460   -7.4700    4.2020 O   0  0  0  0  0
   13.1070   -8.8370    5.0740 N   0  0  0  0  0
   13.4740   -5.2440    1.9060 N   0  0  0  0  0
   14.5110   -4.1860    2.0670 C   0  0  0  0  0
   15.5450   -4.3090    0.9450 C   0  0  0  0  0
   16.5540   -4.9580    1.1660 O   0  0  0  0  0
   15.2030   -4.3530    3.4210 C   0  0  0  0  0
   16.3050   -3.3020    3.5640 C   0  0  0  0  0
   17.6550   -3.9970    3.7440 C   0  0  0  0  0
   18.5470   -3.1410    4.5760 N   0  0  0  0  0
   19.5700   -3.6680    5.1910 C   0  0  0  0  0
   20.5650   -4.1560    4.5010 N   0  0  0  0  0
   19.5980   -3.7080    6.4950 N   0  0  0  0  0
   15.3090   -3.7540   -0.1150 O   0  0  0  0  0
   -9.9026  -18.9421    2.0350 H   0  0  0  0  0
   -8.8698  -19.8225    1.0681 H   0  0  0  0  0
   -8.4928  -19.5629    2.6704 H   0  0  0  0  0
   -8.2643  -17.1950    2.2921 H   0  0  0  0  0
   -8.6670  -17.4723    0.5806 H   0  0  0  0  0
   -6.9029  -17.5170   -0.7076 H   0  0  0  0  0
   -4.4707  -18.9848    0.3178 H   0  0  0  0  0
   -4.0494  -18.1629   -2.3548 H   0  0  0  0  0
   -5.7626  -18.6454   -2.2747 H   0  0  0  0  0
   -3.8324  -20.4405   -0.8759 H   0  0  0  0  0
   -3.7261  -20.4154   -2.6533 H   0  0  0  0  0
   -6.3221  -22.9395   -2.3292 H   0  0  0  0  0
   -4.5782  -22.7171   -2.5041 H   0  0  0  0  0
   -5.5273  -15.8307   -1.0148 H   0  0  0  0  0
   -2.9614  -14.6024   -1.2093 H   0  0  0  0  0
   -4.2527  -12.4467   -0.5449 H   0  0  0  0  0
   -3.7958  -13.1543   -2.8749 H   0  0  0  0  0
   -5.2311  -14.2076   -2.8381 H   0  0  0  0  0
   -5.4210  -12.4400   -2.7345 H   0  0  0  0  0
   -6.5412  -14.4568   -0.7171 H   0  0  0  0  0
   -6.0286  -13.5852    0.7487 H   0  0  0  0  0
   -6.7185  -12.6873   -0.6257 H   0  0  0  0  0
   -1.9195  -13.0552    0.2903 H   0  0  0  0  0
   -2.6009  -13.4578    3.1830 H   0  0  0  0  0
   -1.4290  -12.2959    2.5369 H   0  0  0  0  0
   -1.8625  -15.8634    2.2128 H   0  0  0  0  0
    0.5544  -16.4698    3.7439 H   0  0  0  0  0
    0.2074  -18.6591    2.1342 H   0  0  0  0  0
   -1.4213  -17.9380    2.0752 H   0  0  0  0  0
   -1.2811  -19.5064    3.9576 H   0  0  0  0  0
   -1.4290  -17.8414    4.5749 H   0  0  0  0  0
    0.6449  -17.8828    5.5131 H   0  0  0  0  0
    1.3615  -18.7140    4.1108 H   0  0  0  0  0
   -0.3883  -20.3995    5.8534 H   0  0  0  0  0
    3.3476  -21.3544    5.1165 H   0  0  0  0  0
    2.2650  -20.6134    3.9331 H   0  0  0  0  0
    1.2184  -20.7318    7.8200 H   0  0  0  0  0
   -0.1491  -15.8453    0.3227 H   0  0  0  0  0
    2.6879  -16.5097   -0.4163 H   0  0  0  0  0
    1.7119  -15.6038   -2.7142 H   0  0  0  0  0
    0.1463  -15.8575   -1.9063 H   0  0  0  0  0
    1.9627  -18.1168   -1.4781 H   0  0  0  0  0
    1.6880  -17.8145   -3.2103 H   0  0  0  0  0
   -1.1384  -19.9066   -1.4926 H   0  0  0  0  0
    0.6083  -19.9739   -1.2363 H   0  0  0  0  0
    0.5253  -13.7451    0.0838 H   0  0  0  0  0
    2.0928  -11.6990   -1.1576 H   0  0  0  0  0
    1.1548  -10.5131    1.1833 H   0  0  0  0  0
    0.0214  -11.8668    0.9277 H   0  0  0  0  0
    0.6907  -10.3773   -1.5389 H   0  0  0  0  0
   -1.0761  -12.1057   -1.3724 H   0  0  0  0  0
   -1.9171  -11.1278   -0.1446 H   0  0  0  0  0
   -1.7671  -10.5248   -1.8135 H   0  0  0  0  0
   -0.8765   -9.0321    0.7108 H   0  0  0  0  0
    0.7079   -8.5058    0.0914 H   0  0  0  0  0
   -0.7292   -8.4260   -0.9571 H   0  0  0  0  0
    2.6604  -13.5428    1.7917 H   0  0  0  0  0
    4.7694  -11.6410    2.7147 H   0  0  0  0  0
    3.4029  -12.9006    4.3551 H   0  0  0  0  0
    4.0120  -14.4335    3.6841 H   0  0  0  0  0
    5.1282  -13.3150    4.5050 H   0  0  0  0  0
    4.4917  -14.7295    0.9810 H   0  0  0  0  0
    7.2389  -15.5502    1.1206 H   0  0  0  0  0
    4.9829  -15.9397   -0.8252 H   0  0  0  0  0
    5.7904  -17.2853    1.3731 H   0  0  0  0  0
    6.8148  -18.0987    0.1652 H   0  0  0  0  0
    6.9407  -15.5109   -2.2825 H   0  0  0  0  0
    7.8807  -16.7207   -1.3750 H   0  0  0  0  0
    6.4681  -17.2270   -2.3338 H   0  0  0  0  0
    3.7868  -17.7645   -0.0030 H   0  0  0  0  0
    4.8113  -18.5780   -1.2112 H   0  0  0  0  0
    4.6445  -19.2659    0.4228 H   0  0  0  0  0
    5.6219  -13.5244   -1.3954 H   0  0  0  0  0
    7.9889  -12.9460   -2.8911 H   0  0  0  0  0
    6.7919  -10.8618   -3.6036 H   0  0  0  0  0
    5.7505  -10.0502   -1.6476 H   0  0  0  0  0
    5.0750  -11.6451   -1.2341 H   0  0  0  0  0
    6.2401  -13.0454   -4.6262 H   0  0  0  0  0
    5.0306  -13.3366   -3.3521 H   0  0  0  0  0
    4.7980  -12.0069   -4.5135 H   0  0  0  0  0
    4.2497   -9.9242   -3.6130 H   0  0  0  0  0
    3.5742  -11.5191   -3.1995 H   0  0  0  0  0
    3.3190  -10.1342   -2.1095 H   0  0  0  0  0
    6.8437  -11.6518    0.1927 H   0  0  0  0  0
    7.9930  -10.2941    1.7506 H   0  0  0  0  0
    8.3617   -9.2495    0.3467 H   0  0  0  0  0
    9.4305  -12.6067    1.0661 H   0  0  0  0  0
   12.0597  -11.9363    1.9921 H   0  0  0  0  0
   11.6291  -14.3188    0.1856 H   0  0  0  0  0
   10.7952  -14.2539    1.7578 H   0  0  0  0  0
   12.4636  -16.0167    1.5695 H   0  0  0  0  0
   11.1225  -12.9061   -1.3592 H   0  0  0  0  0
   13.6672  -12.2947   -2.5313 H   0  0  0  0  0
   11.2478  -11.6555   -4.1612 H   0  0  0  0  0
   11.2965  -13.2923   -3.4627 H   0  0  0  0  0
   11.6097  -13.8963   -5.5145 H   0  0  0  0  0
   11.1467  -10.1506   -1.3874 H   0  0  0  0  0
   12.7848   -7.8495   -2.4939 H   0  0  0  0  0
   10.6438   -6.5951   -2.7861 H   0  0  0  0  0
    9.6210   -8.6784   -1.1833 H   0  0  0  0  0
    8.9171   -8.9565   -2.7962 H   0  0  0  0  0
   11.6470   -7.8180   -4.6963 H   0  0  0  0  0
   10.7461   -9.2819   -4.2312 H   0  0  0  0  0
    9.8687   -7.8361   -4.7887 H   0  0  0  0  0
    8.8572   -6.3240   -1.2565 H   0  0  0  0  0
    8.1536   -6.6021   -2.8685 H   0  0  0  0  0
    7.4885   -7.4469   -1.4490 H   0  0  0  0  0
   13.4127   -8.7333   -0.0276 H   0  0  0  0  0
   11.7557   -7.0777    1.8867 H   0  0  0  0  0
   14.0240   -8.9486    2.6401 H   0  0  0  0  0
   12.3873   -9.5666    2.3107 H   0  0  0  0  0
   12.8225   -8.5731    6.0173 H   0  0  0  0  0
   13.8458   -9.5271    4.9384 H   0  0  0  0  0
   12.4878   -4.9887    1.8552 H   0  0  0  0  0
   14.0396   -3.2044    2.0189 H   0  0  0  0  0
   16.5234   -5.2996    2.0627 H   0  0  0  0  0
   15.6408   -5.3492    3.4847 H   0  0  0  0  0
   14.4730   -4.2248    4.2202 H   0  0  0  0  0
   16.0999   -2.6776    4.4336 H   0  0  0  0  0
   16.3331   -2.6819    2.6680 H   0  0  0  0  0
   18.1133   -4.1590    2.7684 H   0  0  0  0  0
   17.5066   -4.9565    4.2393 H   0  0  0  0  0
   18.3578   -2.1426    4.6648 H   0  0  0  0  0
   21.3647   -4.5687    4.9812 H   0  0  0  0  0
   20.5427   -4.1245    3.4817 H   0  0  0  0  0
   18.8201   -3.3272    7.0337 H   0  0  0  0  0
  1  2  1  0  0  0
  2  3  1  0  0  0
  3  4  2  0  0  0
  3  5  1  0  0  0
  5  6  1  0  0  0
  6  7  1  0  0  0
  6  9  1  0  0  0
  7  8  2  0  0  0
  7 14  1  0  0  0
  9 10  1  0  0  0
 10 11  1  0  0  0
 11 12  2  0  0  0
 11 13  1  0  0  0
 14 15  1  0  0  0
 15 16  1  0  0  0
 15 18  1  0  0  0
 16 17  2  0  0  0
 16 21  1  0  0  0
 18 19  1  0  0  0
 18 20  1  0  0  0
 21 22  1  0  0  0
 22 23  1  0  0  0
 23 24  2  0  0  0
 23 25  1  0  0  0
 25 26  1  0  0  0
 26 27  1  0  0  0
 26 29  1  0  0  0
 27 28  2  0  0  0
 27 36  1  0  0  0
 29 30  1  0  0  0
 30 31  1  0  0  0
 31 32  1  0  0  0
 32 33  1  0  0  0
 33 34  1  0  0  0
 33 35  2  0  0  0
 36 37  1  0  0  0
 37 38  1  0  0  0
 37 40  1  0  0  0
 38 39  2  0  0  0
 38 45  1  0  0  0
 40 41  1  0  0  0
 41 42  1  0  0  0
 42 43  2  0  0  0
 42 44  1  0  0  0
 45 46  1  0  0  0
 46 47  1  0  0  0
 46 49  1  0  0  0
 47 48  2  0  0  0
 47 53  1  0  0  0
 49 50  1  0  0  0
 50 51  1  0  0  0
 50 52  1  0  0  0
 53 54  1  0  0  0
 54 55  1  0  0  0
 54 57  1  0  0  0
 55 56  2  0  0  0
 55 58  1  0  0  0
 58 59  1  0  0  0
 59 60  1  0  0  0
 59 62  1  0  0  0
 60 61  2  0  0  0
 60 66  1  0  0  0
 62 63  1  0  0  0
 62 64  1  0  0  0
 63 65  1  0  0  0
 66 67  1  0  0  0
 67 68  1  0  0  0
 67 70  1  0  0  0
 68 69  2  0  0  0
 68 74  1  0  0  0
 70 71  1  0  0  0
 70 72  1  0  0  0
 71 73  1  0  0  0
 74 75  1  0  0  0
 75 76  1  0  0  0
 76 77  2  0  0  0
 76 78  1  0  0  0
 78 79  1  0  0  0
 79 80  1  0  0  0
 79 82  1  0  0  0
 80 81  2  0  0  0
 80 86  1  0  0  0
 82 83  1  0  0  0
 83 84  2  0  0  0
 83 85  1  0  0  0
 86 87  1  0  0  0
 87 88  1  0  0  0
 87 90  1  0  0  0
 88 89  2  0  0  0
 88 94  1  0  0  0
 90 91  1  0  0  0
 91 92  2  0  0  0
 91 93  1  0  0  0
 94 95  1  0  0  0
 95 96  1  0  0  0
 95 98  1  0  0  0
 96 97  2  0  0  0
 96102  1  0  0  0
 98 99  1  0  0  0
 98100  1  0  0  0
 99101  1  0  0  0
102103  1  0  0  0
103104  1  0  0  0
103106  1  0  0  0
104105  2  0  0  0
104110  1  0  0  0
106107  1  0  0  0
107108  2  0  0  0
107109  1  0  0  0
110111  1  0  0  0
111112  1  0  0  0
111114  1  0  0  0
112113  1  0  0  0
112121  2  0  0  0
114115  1  0  0  0
115116  1  0  0  0
116117  1  0  0  0
117118  1  0  0  0
118119  1  0  0  0
118120  2  0  0  0
  1122  1  0  0  0
  1123  1  0  0  0
  1124  1  0  0  0
  2125  1  0  0  0
  2126  1  0  0  0
  5127  1  0  0  0
  6128  1  0  0  0
  9129  1  0  0  0
  9130  1  0  0  0
 10131  1  0  0  0
 10132  1  0  0  0
 13133  1  0  0  0
 13134  1  0  0  0
 14135  1  0  0  0
 15136  1  0  0  0
 18137  1  0  0  0
 19138  1  0  0  0
 19139  1  0  0  0
 19140  1  0  0  0
 20141  1  0  0  0
 20142  1  0  0  0
 20143  1  0  0  0
 21144  1  0  0  0
 22145  1  0  0  0
 22146  1  0  0  0
 25147  1  0  0  0
 26148  1  0  0  0
 29149  1  0  0  0
 29150  1  0  0  0
 30151  1  0  0  0
 30152  1  0  0  0
 31153  1  0  0  0
 31154  1  0  0  0
 32155  1  0  0  0
 34156  1  0  0  0
 34157  1  0  0  0
 35158  1  0  0  0
 36159  1  0  0  0
 37160  1  0  0  0
 40161  1  0  0  0
 40162  1  0  0  0
 41163  1  0  0  0
 41164  1  0  0  0
 44165  1  0  0  0
 44166  1  0  0  0
 45167  1  0  0  0
 46168  1  0  0  0
 49169  1  0  0  0
 49170  1  0  0  0
 50171  1  0  0  0
 51172  1  0  0  0
 51173  1  0  0  0
 51174  1  0  0  0
 52175  1  0  0  0
 52176  1  0  0  0
 52177  1  0  0  0
 53178  1  0  0  0
 54179  1  0  0  0
 57180  1  0  0  0
 57181  1  0  0  0
 57182  1  0  0  0
 58183  1  0  0  0
 59184  1  0  0  0
 62185  1  0  0  0
 63186  1  0  0  0
 63187  1  0  0  0
 64188  1  0  0  0
 64189  1  0  0  0
 64190  1  0  0  0
 65191  1  0  0  0
 65192  1  0  0  0
 65193  1  0  0  0
 66194  1  0  0  0
 67195  1  0  0  0
 70196  1  0  0  0
 71197  1  0  0  0
 71198  1  0  0  0
 72199  1  0  0  0
 72200  1  0  0  0
 72201  1  0  0  0
 73202  1  0  0  0
 73203  1  0  0  0
 73204  1  0  0  0
 74205  1  0  0  0
 75206  1  0  0  0
 75207  1  0  0  0
 78208  1  0  0  0
 79209  1  0  0  0
 82210  1  0  0  0
 82211  1  0  0  0
 85212  1  0  0  0
 86213  1  0  0  0
 87214  1  0  0  0
 90215  1  0  0  0
 90216  1  0  0  0
 93217  1  0  0  0
 94218  1  0  0  0
 95219  1  0  0  0
 98220  1  0  0  0
 99221  1  0  0  0
 99222  1  0  0  0
100223  1  0  0  0
100224  1  0  0  0
100225  1  0  0  0
101226  1  0  0  0
101227  1  0  0  0
101228  1  0  0  0
102229  1  0  0  0
103230  1  0  0  0
106231  1  0  0  0
106232  1  0  0  0
109233  1  0  0  0
109234  1  0  0  0
110235  1  0  0  0
111236  1  0  0  0
113237  1  0  0  0
114238  1  0  0  0
114239  1  0  0  0
115240  1  0  0  0
115241  1  0  0  0
116242  1  0  0  0
116243  1  0  0  0
117244  1  0  0  0
119245  1  0  0  0
119246  1  0  0  0
120247  1  0  0  0
M  END
$$$$
