### 
### Created by X-TOOL on Mon Sep 10 21:12:46 2018
### 

@<TRIPOS>MOLECULE
1bxl_ligand
  246   245     1     0     0
SMALL
GAST_HUCK


@<TRIPOS>ATOM
      1 N          -8.9250  -19.1580    1.8400 N.4       1 GLY         0.2357
      2 CA         -8.2060  -17.9060    1.4680 C.3       1 GLY         0.0545
      3 C          -6.7390  -18.2280    1.1750 C.2       1 GLY         0.2236
      4 O          -6.0240  -18.7330    2.0170 O.2       1 GLY        -0.3910
      5 N          -6.2850  -17.9400   -0.0150 N.am      1 GLN        -0.2611
      6 CA         -4.8640  -18.2290   -0.3620 C.3       1 GLN         0.1331
      7 C          -4.0360  -16.9490   -0.2340 C.2       1 GLN         0.2041
      8 O          -2.9100  -16.9750    0.2220 O.2       1 GLN        -0.3944
      9 CB         -4.7860  -18.7450   -1.8010 C.3       1 GLN         0.0045
     10 CG         -4.3710  -20.2180   -1.7970 C.3       1 GLN         0.0412
     11 CD         -5.6170  -21.1010   -1.8840 C.2       1 GLN         0.1737
     12 OE1        -6.7120  -20.6570   -1.6020 O.2       1 GLN        -0.3973
     13 NE2        -5.4970  -22.3430   -2.2670 N.am      1 GLN        -0.3009
     14 N          -4.5810  -15.8310   -0.6340 N.am      1 VAL        -0.2635
     15 CA         -3.8140  -14.5530   -0.5320 C.3       1 VAL         0.1332
     16 C          -3.3270  -14.3630    0.9000 C.2       1 VAL         0.2039
     17 O          -3.8400  -14.9570    1.8280 O.2       1 VAL        -0.3944
     18 CB         -4.6960  -13.3650   -0.9300 C.3       1 VAL        -0.0063
     19 CG1        -4.7930  -13.2860   -2.4550 C.3       1 VAL        -0.0584
     20 CG2        -6.0980  -13.5360   -0.3380 C.3       1 VAL        -0.0584
     21 N          -2.3340  -13.5420    1.0850 N.am      1 GLY        -0.2664
     22 CA         -1.8060  -13.3150    2.4510 C.3       1 GLY         0.1201
     23 C          -0.6750  -14.3100    2.7130 C.2       1 GLY         0.2007
     24 O           0.4220  -13.9380    3.0800 O.2       1 GLY        -0.3947
     25 N          -0.9340  -15.5750    2.5210 N.am      1 ARG        -0.2640
     26 CA          0.1230  -16.5970    2.7510 C.3       1 ARG         0.1311
     27 C           1.2130  -16.4310    1.6910 C.2       1 ARG         0.2039
     28 O           2.3800  -16.6590    1.9410 O.2       1 ARG        -0.3944
     29 CB         -0.4920  -17.9950    2.6420 C.3       1 ARG        -0.0092
     30 CG         -0.7840  -18.5400    4.0420 C.3       1 ARG        -0.0156
     31 CD          0.5270  -18.7090    4.8120 C.3       1 ARG         0.0627
     32 NE          0.5020  -19.9960    5.5620 N.pl3     1 ARG        -0.2723
     33 CZ          1.6200  -20.6070    5.8460 C.cat     1 ARG         0.2882
     34 NH1         2.4730  -20.8780    4.8960 N.pl3     1 ARG        -0.2849
     35 NH2         1.8850  -20.9450    7.0780 N.pl3     1 ARG        -0.2849
     36 N           0.8370  -16.0300    0.5070 N.am      1 GLN        -0.2636
     37 CA          1.8420  -15.8410   -0.5760 C.3       1 GLN         0.1330
     38 C           2.3260  -14.3900   -0.5630 C.2       1 GLN         0.2040
     39 O           3.4600  -14.0980   -0.8900 O.2       1 GLN        -0.3944
     40 CB          1.1950  -16.1540   -1.9280 C.3       1 GLN         0.0045
     41 CG          1.2950  -17.6560   -2.2060 C.3       1 GLN         0.0412
     42 CD         -0.0940  -18.2880   -2.0960 C.2       1 GLN         0.1737
     43 OE1        -1.0770  -17.6960   -2.4930 O.2       1 GLN        -0.3973
     44 NE2        -0.2170  -19.4760   -1.5700 N.am      1 GLN        -0.3009
     45 N           1.4720  -13.4770   -0.1850 N.am      1 LEU        -0.2637
     46 CA          1.8790  -12.0440   -0.1460 C.3       1 LEU         0.1312
     47 C           3.1310  -11.8950    0.7220 C.2       1 LEU         0.2039
     48 O           3.9130  -10.9820    0.5470 O.2       1 LEU        -0.3944
     49 CB          0.7440  -11.2060    0.4490 C.3       1 LEU        -0.0101
     50 CG          0.0470  -10.4130   -0.6600 C.3       1 LEU        -0.0425
     51 CD1        -1.2740  -11.0920   -1.0240 C.3       1 LEU        -0.0625
     52 CD2        -0.2330   -8.9910   -0.1680 C.3       1 LEU        -0.0625
     53 N           3.3290  -12.7840    1.6590 N.am      1 ALA        -0.2640
     54 CA          4.5310  -12.6890    2.5330 C.3       1 ALA         0.1282
     55 C           5.7130  -13.3720    1.8420 C.2       1 ALA         0.2036
     56 O           6.8490  -12.9660    1.9870 O.2       1 ALA        -0.3944
     57 CB          4.2480  -13.3850    3.8660 C.3       1 ALA        -0.0244
     58 N           5.4530  -14.4060    1.0890 N.am      1 ILE        -0.2635
     59 CA          6.5610  -15.1140    0.3870 C.3       1 ILE         0.1335
     60 C           7.3240  -14.1170   -0.4870 C.2       1 ILE         0.2042
     61 O           8.5280  -13.9930   -0.3950 O.2       1 ILE        -0.3944
     62 CB          5.9810  -16.2240   -0.4920 C.3       1 ILE        -0.0037
     63 CG1         5.9020  -17.5220    0.3150 C.3       1 ILE        -0.0491
     64 CG2         6.8830  -16.4360   -1.7090 C.3       1 ILE        -0.0582
     65 CD1         4.6990  -18.3420   -0.1530 C.3       1 ILE        -0.0648
     66 N           6.6330  -13.4050   -1.3330 N.am      1 ILE        -0.2635
     67 CA          7.3240  -12.4160   -2.2090 C.3       1 ILE         0.1335
     68 C           8.1330  -11.4460   -1.3460 C.2       1 ILE         0.2040
     69 O           9.1410  -10.9230   -1.7700 O.2       1 ILE        -0.3944
     70 CB          6.2890  -11.6260   -3.0110 C.3       1 ILE        -0.0037
     71 CG1         5.3050  -10.9600   -2.0500 C.3       1 ILE        -0.0491
     72 CG2         5.5350  -12.5720   -3.9430 C.3       1 ILE        -0.0582
     73 CD1         4.0190  -10.6090   -2.7970 C.3       1 ILE        -0.0648
     74 N           7.6950  -11.1990   -0.1400 N.am      1 GLY        -0.2664
     75 CA          8.4330  -10.2580    0.7540 C.3       1 GLY         0.1201
     76 C           9.9080  -10.6590    0.8430 C.2       1 GLY         0.2008
     77 O          10.7900   -9.8270    0.7690 O.2       1 GLY        -0.3947
     78 N          10.1850  -11.9230    1.0050 N.am      1 ASP        -0.2624
     79 CA         11.6050  -12.3690    1.1010 C.3       1 ASP         0.1423
     80 C          12.3770  -11.9050   -0.1370 C.2       1 ASP         0.2057
     81 O          13.3540  -11.1900   -0.0390 O.2       1 ASP        -0.3943
     82 CB         11.6540  -13.8960    1.1900 C.3       1 ASP         0.0406
     83 CG         12.9440  -14.3270    1.8920 C.2       1 ASP         0.0393
     84 OD1        13.6780  -13.4560    2.3280 O.co2     1 ASP        -0.5688
     85 OD2        13.1760  -15.5220    1.9810 O.co2     1 ASP        -0.5688
     86 N          11.9460  -12.3070   -1.3010 N.am      1 ASP        -0.2621
     87 CA         12.6540  -11.8930   -2.5470 C.3       1 ASP         0.1423
     88 C          12.7230  -10.3630   -2.6320 C.2       1 ASP         0.2056
     89 O          13.5650   -9.8110   -3.3130 O.2       1 ASP        -0.3943
     90 CB         11.8980  -12.4340   -3.7620 C.3       1 ASP         0.0406
     91 CG         12.8990  -12.8630   -4.8370 C.2       1 ASP         0.0393
     92 OD1        14.0210  -12.3860   -4.7980 O.co2     1 ASP        -0.5688
     93 OD2        12.5250  -13.6600   -5.6820 O.co2     1 ASP        -0.5688
     94 N          11.8470   -9.6710   -1.9530 N.am      1 ILE        -0.2634
     95 CA         11.8700   -8.1830   -2.0040 C.3       1 ILE         0.1335
     96 C          11.8220   -7.6210   -0.5820 C.2       1 ILE         0.2043
     97 O          10.9830   -6.8060   -0.2540 O.2       1 ILE        -0.3944
     98 CB         10.6550   -7.6850   -2.7900 C.3       1 ILE        -0.0037
     99 CG1         9.3760   -8.2170   -2.1400 C.3       1 ILE        -0.0491
    100 CG2        10.7350   -8.1920   -4.2310 C.3       1 ILE        -0.0582
    101 CD1         8.3980   -7.0640   -1.9120 C.3       1 ILE        -0.0648
    102 N          12.7160   -8.0490    0.2670 N.am      1 ASN        -0.2616
    103 CA         12.7190   -7.5380    1.6670 C.3       1 ASN         0.1475
    104 C          13.8290   -6.4980    1.8300 C.2       1 ASN         0.2057
    105 O          14.9970   -6.8280    1.8880 O.2       1 ASN        -0.3942
    106 CB         12.9630   -8.6990    2.6330 C.3       1 ASN         0.0773
    107 CG         12.5260   -8.2920    4.0410 C.2       1 ASN         0.1780
    108 OD1        11.6460   -7.4700    4.2020 O.2       1 ASN        -0.3970
    109 ND2        13.1070   -8.8370    5.0740 N.am      1 ASN        -0.3007
    110 N          13.4740   -5.2440    1.9060 N.am      1 ARG        -0.2693
    111 CA         14.5110   -4.1860    2.0670 C.3       1 ARG         0.0945
    112 C          15.5450   -4.3090    0.9450 C.2       1 ARG         0.0601
    113 O          16.5540   -4.9580    1.1660 O.co2     1 ARG        -0.5666
    114 CB         15.2030   -4.3530    3.4210 C.3       1 ARG        -0.0148
    115 CG         16.3050   -3.3020    3.5640 C.3       1 ARG        -0.0162
    116 CD         17.6550   -3.9970    3.7440 C.3       1 ARG         0.0627
    117 NE         18.5470   -3.1410    4.5760 N.pl3     1 ARG        -0.2723
    118 CZ         19.5700   -3.6680    5.1910 C.cat     1 ARG         0.2882
    119 NH1        20.5650   -4.1560    4.5010 N.pl3     1 ARG        -0.2849
    120 NH2        19.5980   -3.7080    6.4950 N.pl3     1 ARG        -0.2849
    121 OXT        15.3090   -3.7540   -0.1150 O.co2     1 ARG        -0.5666
    122 H1         -9.8913  -18.9458    2.0330 H         1 GLY         0.2012
    123 H2         -8.4987  -19.5591    2.6606 H         1 GLY         0.2012
    124 H3         -8.8711  -19.8155    1.0779 H         1 GLY         0.2012
    125 H4         -8.2648  -17.1885    2.2997 H         1 GLY         0.1061
    126 H5         -8.6712  -17.4683    0.5725 H         1 GLY         0.1061
    127 H6         -6.8908  -17.5253   -0.6940 H         1 GLN         0.1884
    128 H7         -4.4671  -18.9923    0.3234 H         1 GLN         0.0801
    129 H8         -4.0437  -18.1572   -2.3609 H         1 GLN         0.0337
    130 H9         -5.7710  -18.6436   -2.2801 H         1 GLN         0.0337
    131 H10        -3.8269  -20.4428   -0.8678 H         1 GLN         0.0504
    132 H11        -3.7197  -20.4175   -2.6607 H         1 GLN         0.0504
    133 H12        -6.3057  -22.9281   -2.3270 H         1 GLN         0.1814
    134 H13        -4.5963  -22.7095   -2.5004 H         1 GLN         0.1814
    135 H14        -5.5087  -15.8307   -1.0073 H         1 VAL         0.1883
    136 H15        -2.9470  -14.5996   -1.2074 H         1 VAL         0.0802
    137 H16        -4.2496  -12.4364   -0.5446 H         1 VAL         0.0343
    138 H17        -5.4265  -12.4326   -2.7384 H         1 VAL         0.0234
    139 H18        -5.2351  -14.2155   -2.8430 H         1 VAL         0.0234
    140 H19        -3.7872  -13.1530   -2.8800 H         1 VAL         0.0234
    141 H20        -6.0286  -13.5928    0.7583 H         1 VAL         0.0234
    142 H21        -6.5492  -14.4614   -0.7253 H         1 VAL         0.0234
    143 H22        -6.7232  -12.6766   -0.6217 H         1 VAL         0.0234
    144 H23        -1.9276  -13.0647    0.3058 H         1 GLY         0.1881
    145 H24        -2.6089  -13.4655    3.1876 H         1 GLY         0.0763
    146 H25        -1.4211  -12.2878    2.5328 H         1 GLY         0.0763
    147 H26        -1.8443  -15.8578    2.2188 H         1 ARG         0.1883
    148 H27         0.5575  -16.4626    3.7526 H         1 ARG         0.0800
    149 H28         0.2125  -18.6655    2.1282 H         1 ARG         0.0313
    150 H29        -1.4291  -17.9387    2.0687 H         1 ARG         0.0313
    151 H30        -1.2870  -19.5146    3.9577 H         1 ARG         0.0301
    152 H31        -1.4361  -17.8362    4.5800 H         1 ARG         0.0301
    153 H32         0.6466  -17.8751    5.5193 H         1 ARG         0.0689
    154 H33         1.3694  -18.7135    4.1047 H         1 ARG         0.0689
    155 H34        -0.3970  -20.4035    5.8563 H         1 ARG         0.2642
    156 H35         3.3556  -21.3601    5.1185 H         1 ARG         0.2615
    157 H36         2.2635  -20.6098    3.9238 H         1 ARG         0.2615
    158 H37         1.2113  -20.7308    7.8271 H         1 ARG         0.2615
    159 H38         2.7679  -21.4261    7.3015 H         1 ARG         0.2615
    160 H39        -0.1297  -15.8490    0.3263 H         1 GLN         0.1883
    161 H40         2.6948  -16.5158   -0.4110 H         1 GLN         0.0801
    162 H41         1.7166  -15.5988   -2.7215 H         1 GLN         0.0337
    163 H42         0.1367  -15.8549   -1.9061 H         1 GLN         0.0337
    164 H43         1.9687  -18.1210   -1.4712 H         1 GLN         0.0504
    165 H44         1.6914  -17.8158   -3.2196 H         1 GLN         0.0504
    166 H45        -1.1204  -19.8979   -1.4935 H         1 GLN         0.1814
    167 H46         0.5922  -19.9644   -1.2434 H         1 GLN         0.1814
    168 H47         0.5439  -13.7399    0.0786 H         1 LEU         0.1883
    169 H48         2.0959  -11.6960   -1.1667 H         1 LEU         0.0800
    170 H49         1.1566  -10.5082    1.1925 H         1 LEU         0.0315
    171 H50         0.0153  -11.8713    0.9352 H         1 LEU         0.0315
    172 H51         0.6964  -10.3742   -1.5470 H         1 LEU         0.0298
    173 H52        -1.7726  -10.5205   -1.8207 H         1 LEU         0.0232
    174 H53        -1.9240  -11.1287   -0.1373 H         1 LEU         0.0232
    175 H54        -1.0756  -12.1151   -1.3759 H         1 LEU         0.0232
    176 H55         0.7159   -8.5004    0.0945 H         1 LEU         0.0232
    177 H56        -0.8826   -9.0310    0.7188 H         1 LEU         0.0232
    178 H57        -0.7334   -8.4196   -0.9636 H         1 LEU         0.0232
    179 H58         2.6735  -13.5279    1.7891 H         1 ALA         0.1883
    180 H59         4.7717  -11.6311    2.7146 H         1 ALA         0.0797
    181 H60         5.1357  -13.3150    4.5119 H         1 ALA         0.0277
    182 H61         4.0097  -14.4433    3.6838 H         1 ALA         0.0277
    183 H62         3.3953  -12.8970    4.3607 H         1 ALA         0.0277
    184 H63         4.5105  -14.7231    0.9831 H         1 ILE         0.1883
    185 H64         7.2454  -15.5525    1.1282 H         1 ILE         0.0803
    186 H65         4.9733  -15.9379   -0.8275 H         1 ILE         0.0345
    187 H66         5.7897  -17.2834    1.3829 H         1 ILE         0.0267
    188 H67         6.8232  -18.1040    0.1642 H         1 ILE         0.0267
    189 H68         6.9404  -15.5035   -2.2897 H         1 ILE         0.0235
    190 H69         6.4664  -17.2354   -2.3394 H         1 ILE         0.0235
    191 H70         7.8908  -16.7214   -1.3732 H         1 ILE         0.0235
    192 H71         4.6429  -19.2747    0.4274 H         1 ILE         0.0230
    193 H72         4.8111  -18.5809   -1.2209 H         1 ILE         0.0230
    194 H73         3.7777  -17.7603   -0.0021 H         1 ILE         0.0230
    195 H74         5.6418  -13.5220   -1.3942 H         1 ILE         0.1883
    196 H75         7.9977  -12.9456   -2.8987 H         1 ILE         0.0803
    197 H76         6.7981  -10.8543   -3.6071 H         1 ILE         0.0345
    198 H77         5.7545  -10.0421   -1.6433 H         1 ILE         0.0267
    199 H78         5.0731  -11.6509   -1.2261 H         1 ILE         0.0267
    200 H79         6.2455  -13.0499   -4.6335 H         1 ILE         0.0235
    201 H80         4.7904  -12.0030   -4.5190 H         1 ILE         0.0235
    202 H81         5.0261  -13.3446   -3.3479 H         1 ILE         0.0235
    203 H82         3.3117  -10.1297   -2.1041 H         1 ILE         0.0230
    204 H83         3.5690  -11.5267   -3.2037 H         1 ILE         0.0230
    205 H84         4.2505   -9.9179   -3.6208 H         1 ILE         0.0230
    206 H85         6.8604  -11.6429    0.1862 H         1 GLY         0.1881
    207 H86         7.9874  -10.2873    1.7593 H         1 GLY         0.0763
    208 H87         8.3578   -9.2380    0.3491 H         1 GLY         0.0763
    209 H88         9.4453  -12.5933    1.0649 H         1 ASP         0.1884
    210 H89        12.0641  -11.9349    2.0014 H         1 ASP         0.0819
    211 H90        11.6282  -14.3230    0.1766 H         1 ASP         0.0478
    212 H91        10.7871  -14.2576    1.7625 H         1 ASP         0.0478
    213 H92        11.1387  -12.8944   -1.3580 H         1 ASP         0.1884
    214 H93        13.6747  -12.3029   -2.5383 H         1 ASP         0.0819
    215 H94        11.2417  -11.6486   -4.1649 H         1 ASP         0.0478
    216 H95        11.2908  -13.3001   -3.4601 H         1 ASP         0.0478
    217 H96        11.1604  -10.1412   -1.3985 H         1 ILE         0.1883
    218 H97        12.7922   -7.8466   -2.5004 H         1 ILE         0.0803
    219 H98        10.6406   -6.5851   -2.7867 H         1 ILE         0.0345
    220 H99         9.6227   -8.6838   -1.1750 H         1 ILE         0.0267
    221 H100        8.9130   -8.9643   -2.8011 H         1 ILE         0.0267
    222 H101       11.6532   -7.8121   -4.7029 H         1 ILE         0.0235
    223 H102        9.8594   -7.8365   -4.7939 H         1 ILE         0.0235
    224 H103       10.7501   -9.2919   -4.2324 H         1 ILE         0.0235
    225 H104        7.4797   -7.4491   -1.4447 H         1 ILE         0.0230
    226 H105        8.1504   -6.5969   -2.8766 H         1 ILE         0.0230
    227 H106        8.8602   -6.3165   -1.2505 H         1 ILE         0.0230
    228 H107       13.3990   -8.7198   -0.0219 H         1 ASN         0.1885
    229 H108       11.7468   -7.0741    1.8896 H         1 ASN         0.0826
    230 H109       14.0337   -8.9511    2.6401 H         1 ASN         0.0551
    231 H110       12.3822   -9.5747    2.3078 H         1 ASN         0.0551
    232 H111       12.8286   -8.5777    5.9988 H         1 ASN         0.1814
    233 H112       13.8308   -9.5141    4.9411 H         1 ASN         0.1814
    234 H113       12.5071   -4.9937    1.8562 H         1 ARG         0.1875
    235 H114       14.0346   -3.1957    2.0189 H         1 ARG         0.0726
    236 H115       15.6447   -5.3583    3.4854 H         1 ARG         0.0307
    237 H116       14.4663   -4.2238    4.2276 H         1 ARG         0.0307
    238 H117       16.0980   -2.6712    4.4411 H         1 ARG         0.0301
    239 H118       16.3332   -2.6756    2.6603 H         1 ARG         0.0301
    240 H119       18.1175   -4.1604    2.7595 H         1 ARG         0.0689
    241 H120       17.5052   -4.9653    4.2440 H         1 ARG         0.0689
    242 H121       18.3559   -2.1329    4.6656 H         1 ARG         0.2642
    243 H122       21.3728   -4.5721    4.9859 H         1 ARG         0.2615
    244 H123       20.5422   -4.1249    3.4717 H         1 ARG         0.2615
    245 H124       18.8128   -3.3229    7.0390 H         1 ARG         0.2615
    246 H125       20.4053   -4.1247    6.9802 H         1 ARG         0.2615
@<TRIPOS>BOND
     1    1    2 1  
     2    2    3 1  
     3    3    4 2  
     4    3    5 am 
     5    5    6 1  
     6    6    7 1  
     7    6    9 1  
     8    7    8 2  
     9    7   14 am 
    10    9   10 1  
    11   10   11 1  
    12   11   12 2  
    13   11   13 am 
    14   14   15 1  
    15   15   16 1  
    16   15   18 1  
    17   16   17 2  
    18   16   21 am 
    19   18   19 1  
    20   18   20 1  
    21   21   22 1  
    22   22   23 1  
    23   23   24 2  
    24   23   25 am 
    25   25   26 1  
    26   26   27 1  
    27   26   29 1  
    28   27   28 2  
    29   27   36 am 
    30   29   30 1  
    31   30   31 1  
    32   31   32 1  
    33   32   33 ar 
    34   33   34 ar 
    35   33   35 ar 
    36   36   37 1  
    37   37   38 1  
    38   37   40 1  
    39   38   39 2  
    40   38   45 am 
    41   40   41 1  
    42   41   42 1  
    43   42   43 2  
    44   42   44 am 
    45   45   46 1  
    46   46   47 1  
    47   46   49 1  
    48   47   48 2  
    49   47   53 am 
    50   49   50 1  
    51   50   51 1  
    52   50   52 1  
    53   53   54 1  
    54   54   55 1  
    55   54   57 1  
    56   55   56 2  
    57   55   58 am 
    58   58   59 1  
    59   59   60 1  
    60   59   62 1  
    61   60   61 2  
    62   60   66 am 
    63   62   63 1  
    64   62   64 1  
    65   63   65 1  
    66   66   67 1  
    67   67   68 1  
    68   67   70 1  
    69   68   69 2  
    70   68   74 am 
    71   70   71 1  
    72   70   72 1  
    73   71   73 1  
    74   74   75 1  
    75   75   76 1  
    76   76   77 2  
    77   76   78 am 
    78   78   79 1  
    79   79   80 1  
    80   79   82 1  
    81   80   81 2  
    82   80   86 am 
    83   82   83 1  
    84   83   84 ar 
    85   83   85 ar 
    86   86   87 1  
    87   87   88 1  
    88   87   90 1  
    89   88   89 2  
    90   88   94 am 
    91   90   91 1  
    92   91   92 ar 
    93   91   93 ar 
    94   94   95 1  
    95   95   96 1  
    96   95   98 1  
    97   96   97 2  
    98   96  102 am 
    99   98   99 1  
   100   98  100 1  
   101   99  101 1  
   102  102  103 1  
   103  103  104 1  
   104  103  106 1  
   105  104  105 2  
   106  104  110 am 
   107  106  107 1  
   108  107  108 2  
   109  107  109 am 
   110  110  111 1  
   111  111  112 1  
   112  111  114 1  
   113  112  113 ar 
   114  112  121 ar 
   115  114  115 1  
   116  115  116 1  
   117  116  117 1  
   118  117  118 ar 
   119  118  119 ar 
   120  118  120 ar 
   121    1  122 1  
   122    1  123 1  
   123    1  124 1  
   124    2  125 1  
   125    2  126 1  
   126    5  127 1  
   127    6  128 1  
   128    9  129 1  
   129    9  130 1  
   130   10  131 1  
   131   10  132 1  
   132   13  133 1  
   133   13  134 1  
   134   14  135 1  
   135   15  136 1  
   136   18  137 1  
   137   19  138 1  
   138   19  139 1  
   139   19  140 1  
   140   20  141 1  
   141   20  142 1  
   142   20  143 1  
   143   21  144 1  
   144   22  145 1  
   145   22  146 1  
   146   25  147 1  
   147   26  148 1  
   148   29  149 1  
   149   29  150 1  
   150   30  151 1  
   151   30  152 1  
   152   31  153 1  
   153   31  154 1  
   154   32  155 1  
   155   34  156 1  
   156   34  157 1  
   157   35  158 1  
   158   35  159 1  
   159   36  160 1  
   160   37  161 1  
   161   40  162 1  
   162   40  163 1  
   163   41  164 1  
   164   41  165 1  
   165   44  166 1  
   166   44  167 1  
   167   45  168 1  
   168   46  169 1  
   169   49  170 1  
   170   49  171 1  
   171   50  172 1  
   172   51  173 1  
   173   51  174 1  
   174   51  175 1  
   175   52  176 1  
   176   52  177 1  
   177   52  178 1  
   178   53  179 1  
   179   54  180 1  
   180   57  181 1  
   181   57  182 1  
   182   57  183 1  
   183   58  184 1  
   184   59  185 1  
   185   62  186 1  
   186   63  187 1  
   187   63  188 1  
   188   64  189 1  
   189   64  190 1  
   190   64  191 1  
   191   65  192 1  
   192   65  193 1  
   193   65  194 1  
   194   66  195 1  
   195   67  196 1  
   196   70  197 1  
   197   71  198 1  
   198   71  199 1  
   199   72  200 1  
   200   72  201 1  
   201   72  202 1  
   202   73  203 1  
   203   73  204 1  
   204   73  205 1  
   205   74  206 1  
   206   75  207 1  
   207   75  208 1  
   208   78  209 1  
   209   79  210 1  
   210   82  211 1  
   211   82  212 1  
   212   86  213 1  
   213   87  214 1  
   214   90  215 1  
   215   90  216 1  
   216   94  217 1  
   217   95  218 1  
   218   98  219 1  
   219   99  220 1  
   220   99  221 1  
   221  100  222 1  
   222  100  223 1  
   223  100  224 1  
   224  101  225 1  
   225  101  226 1  
   226  101  227 1  
   227  102  228 1  
   228  103  229 1  
   229  106  230 1  
   230  106  231 1  
   231  109  232 1  
   232  109  233 1  
   233  110  234 1  
   234  111  235 1  
   235  114  236 1  
   236  114  237 1  
   237  115  238 1  
   238  115  239 1  
   239  116  240 1  
   240  116  241 1  
   241  117  242 1  
   242  119  243 1  
   243  119  244 1  
   244  120  245 1  
   245  120  246 1  
@<TRIPOS>SUBSTRUCTURE
     1 GLY         1

