1nyy_ligand
  -I-interpret- 

 32 33  0  0  0  0  0  0  0  0999 V2000
   10.2750    7.7210   36.4050 B   0  0  0  0  0
   11.1290    7.2940   35.2830 O   0  0  0  0  0
    9.3310    8.7720   35.9420 O   0  0  0  0  0
   11.1780    8.2920   37.5680 C   0  0  0  0  0
   11.5090    9.7200   37.3810 N   0  0  0  0  0
   12.2880   10.3280   38.2820 C   0  0  0  0  0
   12.7120    9.6710   39.2380 O   0  0  0  0  0
   12.6820   11.8250   38.1720 C   0  0  0  0  0
   12.6580   14.0360   37.6640 N   0  0  0  0  0
   13.8370   13.7460   38.5580 O   0  0  0  0  0
   13.7040   12.4080   38.7570 C   0  0  0  0  0
   12.0360   12.8860   37.4620 C   0  0  0  0  0
   14.7010   11.6600   39.6050 C   0  0  0  0  0
   10.8380   12.7870   36.5700 C   0  0  0  0  0
   10.9760   13.0310   35.1620 C   0  0  0  0  0
   12.5310   13.3580   34.4890 Cl  0  0  0  0  0
    9.8390   13.0160   34.3090 C   0  0  0  0  0
    8.5560   12.7510   34.8520 C   0  0  0  0  0
    8.4090   12.4980   36.2470 C   0  0  0  0  0
    9.5490   12.5150   37.1060 C   0  0  0  0  0
   10.5784    6.9473   34.5772 H   0  0  0  0  0
    8.7843    8.4207   35.2354 H   0  0  0  0  0
   12.1115    7.7293   37.5751 H   0  0  0  0  0
   10.6236    8.1955   38.5015 H   0  0  0  0  0
   11.1488   10.2340   36.5770 H   0  0  0  0  0
   14.1850   11.1946   40.4448 H   0  0  0  0  0
   15.1840   10.8908   39.0023 H   0  0  0  0  0
   15.4523   12.3556   39.9788 H   0  0  0  0  0
    9.9528   13.2074   33.2420 H   0  0  0  0  0
    7.6812   12.7408   34.2018 H   0  0  0  0  0
    7.4217   12.2906   36.6597 H   0  0  0  0  0
    9.4317   12.3197   38.1719 H   0  0  0  0  0
  1  2  1  0  0  0
  1  3  1  0  0  0
  4  1  1  0  0  0
  5  4  1  0  0  0
  6  5  1  0  0  0
  6  7  2  0  0  0
  8  6  1  0  0  0
  8 11  4  0  0  0
 12  8  4  0  0  0
  9 10  4  0  0  0
  9 12  4  0  0  0
 10 11  4  0  0  0
 11 13  1  0  0  0
 12 14  1  0  0  0
 14 15  4  0  0  0
 14 20  4  0  0  0
 15 16  1  0  0  0
 15 17  4  0  0  0
 17 18  4  0  0  0
 18 19  4  0  0  0
 19 20  4  0  0  0
  2 21  1  0  0  0
  3 22  1  0  0  0
  4 23  1  0  0  0
  4 24  1  0  0  0
  5 25  1  0  0  0
 13 26  1  0  0  0
 13 27  1  0  0  0
 13 28  1  0  0  0
 17 29  1  0  0  0
 18 30  1  0  0  0
 19 31  1  0  0  0
 20 32  1  0  0  0
M  END
$$$$
