### 
### Created by X-TOOL on Mon Sep 10 21:12:50 2018
### 

@<TRIPOS>MOLECULE
1nyy_ligand
   32    33     1     0     0
SMALL
GAST_HUCK


@<TRIPOS>ATOM
      1 B          10.2750    7.7210   36.4050 B         1 105         0.7127
      2 O1         11.1290    7.2940   35.2830 O.3       1 105        -0.4968
      3 O2          9.3310    8.7720   35.9420 O.3       1 105        -0.4968
      4 C3         11.1780    8.2920   37.5680 C.3       1 105         0.0404
      5 N4         11.5090    9.7200   37.3810 N.am      1 105        -0.3020
      6 C5         12.2880   10.3280   38.2820 C.2       1 105         0.1791
      7 O6         12.7120    9.6710   39.2380 O.2       1 105        -0.4042
      8 C7         12.6820   11.8250   38.1720 C.2       1 105         0.0868
      9 N11        12.6580   14.0360   37.6640 N.2       1 105        -0.1444
     10 O10        13.8370   13.7460   38.5580 O.3       1 105        -0.1564
     11 C8         13.7040   12.4080   38.7570 C.2       1 105         0.1630
     12 C12        12.0360   12.8860   37.4620 C.2       1 105         0.0647
     13 C9         14.7010   11.6600   39.6050 C.3       1 105         0.0166
     14 C13        10.8380   12.7870   36.5700 C.ar      1 105         0.0016
     15 C14        10.9760   13.0310   35.1620 C.ar      1 105         0.0476
     16 CL1        12.5310   13.3580   34.4890 Cl        1 105        -0.0700
     17 C15         9.8390   13.0160   34.3090 C.ar      1 105        -0.0479
     18 C16         8.5560   12.7510   34.8520 C.ar      1 105        -0.0618
     19 C17         8.4090   12.4980   36.2470 C.ar      1 105        -0.0617
     20 C18         9.5490   12.5150   37.1060 C.ar      1 105        -0.0541
     21 H1         11.6204    8.0397   34.9589 H         1 105         0.1667
     22 H2          8.7820    9.0450   36.6677 H         1 105         0.1667
     23 H3         12.1139    7.7151   37.6031 H         1 105         0.0394
     24 H4         10.6402    8.1768   38.5206 H         1 105         0.0394
     25 H5         11.1559   10.2240   36.5928 H         1 105         0.1817
     26 H6         15.4598   12.3610   39.9829 H         1 105         0.0477
     27 H7         15.1892   10.8834   38.9979 H         1 105         0.0477
     28 H8         14.1815   11.1899   40.4530 H         1 105         0.0477
     29 H9          9.9522   13.2063   33.2479 H         1 105         0.0622
     30 H10         7.6860   12.7408   34.2054 H         1 105         0.0613
     31 H11         7.4271   12.2918   36.6575 H         1 105         0.0617
     32 H12         9.4323   12.3207   38.1661 H         1 105         0.0618
@<TRIPOS>BOND
     1    1    2 1  
     2    1    3 1  
     3    4    1 1  
     4    5    4 1  
     5    6    5 am 
     6    6    7 2  
     7    8    6 1  
     8    8   11 2  
     9   12    8 1  
    10    9   10 1  
    11    9   12 2  
    12   10   11 1  
    13   11   13 1  
    14   12   14 1  
    15   14   15 ar 
    16   14   20 ar 
    17   15   16 1  
    18   15   17 ar 
    19   17   18 ar 
    20   18   19 ar 
    21   19   20 ar 
    22    2   21 1  
    23    3   22 1  
    24    4   23 1  
    25    4   24 1  
    26    5   25 1  
    27   13   26 1  
    28   13   27 1  
    29   13   28 1  
    30   17   29 1  
    31   18   30 1  
    32   19   31 1  
    33   20   32 1  
@<TRIPOS>SUBSTRUCTURE
     1 105         1

