2v57_ligand
  -I-interpret- 

 27 29  0  0  0  0  0  0  0  0999 V2000
    5.7110   -3.8290    4.7020 C   0  0  0  0  0
    6.4370   -3.0180    3.8200 C   0  0  0  0  0
    7.8300   -2.9470    3.9400 C   0  0  0  0  0
    8.4930   -3.6860    4.9140 C   0  0  0  0  0
    8.5040   -6.6940    8.5770 C   0  0  0  0  0
    7.8300   -7.5120    9.4890 C   0  0  0  0  0
    6.4510   -7.6270    9.4210 C   0  0  0  0  0
    5.7400   -6.9250    8.4610 C   0  0  0  0  0
    5.6840   -5.3820    6.5860 C   0  0  0  0  0
    8.4280   -5.1940    6.7350 N   0  0  0  0  0
    7.7690   -4.4840    5.7940 C   0  0  0  0  0
    6.4010   -6.0980    7.5560 C   0  0  0  0  0
    6.3790   -4.5650    5.6890 C   0  0  0  0  0
    7.7810   -5.9940    7.6090 C   0  0  0  0  0
    8.5350   -2.1670    3.0930 N   0  0  0  0  0
    8.5080   -8.2100   10.4340 N   0  0  0  0  0
    4.6256   -3.8873    4.6201 H   0  0  0  0  0
    5.9219   -2.4474    3.0472 H   0  0  0  0  0
    9.5795   -3.6399    4.9878 H   0  0  0  0  0
    9.5893   -6.6031    8.6215 H   0  0  0  0  0
    5.9240   -8.2714   10.1246 H   0  0  0  0  0
    4.6552   -7.0207    8.4137 H   0  0  0  0  0
    4.5982   -5.4615    6.5322 H   0  0  0  0  0
    8.0525   -1.6331    2.3701 H   0  0  0  0  0
    9.5501   -2.1116    3.1760 H   0  0  0  0  0
    9.5244   -8.1425   10.4867 H   0  0  0  0  0
    8.0014   -8.8024   11.0920 H   0  0  0  0  0
  1  2  4  0  0  0
 13  1  4  0  0  0
  2  3  4  0  0  0
  3  4  4  0  0  0
  3 15  1  0  0  0
  4 11  4  0  0  0
  6  5  4  0  0  0
  5 14  4  0  0  0
  7  6  4  0  0  0
  6 16  1  0  0  0
  8  7  4  0  0  0
 12  8  4  0  0  0
  9 12  4  0  0  0
  9 13  4  0  0  0
 11 10  4  0  0  0
 10 14  4  0  0  0
 11 13  4  0  0  0
 12 14  4  0  0  0
  1 17  1  0  0  0
  2 18  1  0  0  0
  4 19  1  0  0  0
  5 20  1  0  0  0
  7 21  1  0  0  0
  8 22  1  0  0  0
  9 23  1  0  0  0
 15 24  1  0  0  0
 15 25  1  0  0  0
 16 26  1  0  0  0
 16 27  1  0  0  0
M  END
$$$$
