1ywh_ligand
  -I-interpret- 

236240  0  0  0  0  0  0  0  0999 V2000
   13.1330   10.2890   42.3300 N   0  3  0  0  0
   12.7450    9.9000   43.7270 C   0  0  0  0  0
   12.7520   11.1110   44.6820 C   0  0  0  0  0
   11.6910   11.7000   44.9350 O   0  0  0  0  0
   13.6210    8.7390   44.2380 C   0  0  0  0  0
   13.2760    7.3690   43.6140 C   0  0  0  0  0
   14.5240    6.5210   43.3330 C   0  0  0  0  0
   14.2080    5.3340   42.4320 C   0  0  0  0  0
   13.6710    4.1670   43.1820 N   0  3  0  0  0
   13.9310   11.4760   45.1980 N   0  0  0  0  0
   14.1170   12.7220   45.9610 C   0  0  0  0  0
   15.5360   13.2330   45.7250 C   0  0  0  0  0
   16.4900   12.4450   45.6750 O   0  0  0  0  0
   13.8560   12.5080   47.4590 C   0  0  0  0  0
   13.2320   13.6450   48.0730 O   0  0  0  0  0
   15.6630   14.5500   45.5580 N   0  0  0  0  0
   16.9340   15.2130   45.2370 C   0  0  0  0  0
   18.1480   14.5130   45.8770 C   0  0  0  0  0
   18.1090   14.0760   47.0190 O   0  0  0  0  0
   16.8430   16.7080   45.6300 C   0  0  0  0  0
   18.0920   17.5200   45.2590 C   0  0  0  0  0
   18.6530   17.3230   44.1570 O   0  0  0  0  0
   18.5790   18.4010   46.0020 O   0  0  0  0  0
   19.2160   14.3880   45.1080 N   0  0  0  0  0
   20.4550   13.7950   45.5850 C   0  0  0  0  0
   21.0620   14.5510   46.7480 C   0  0  0  0  0
   21.3800   13.7830   44.3770 C   0  0  0  0  0
   22.3930   12.6600   44.2370 C   0  0  0  0  0
   23.5490   13.2630   43.4480 C   0  0  0  0  0
   24.5850   12.1990   43.0920 C   0  0  0  0  0
   25.1440   11.4860   44.3260 C   0  0  0  0  0
   24.0420   11.0560   45.2910 C   0  0  0  0  0
   22.9990   12.1490   45.5390 C   0  0  0  0  0
   21.4890   13.9390   47.7240 O   0  0  0  0  0
   21.1120   15.8760   46.6530 N   0  0  0  0  0
   21.5810   16.7040   47.7530 C   0  0  0  0  0
   20.6470   16.5670   48.9790 C   0  0  0  0  0
   21.0950   16.2480   50.0800 O   0  0  0  0  0
   21.7460   18.1640   47.3020 C   0  0  0  0  0
   22.4590   19.0440   48.3000 C   0  0  0  0  0
   23.8300   19.2540   48.2090 C   0  0  0  0  0
   21.7580   19.6720   49.3340 C   0  0  0  0  0
   24.5090   20.0750   49.1510 C   0  0  0  0  0
   22.4190   20.4910   50.2730 C   0  0  0  0  0
   23.7950   20.6910   50.1800 C   0  0  0  0  0
   19.3490   16.7670   48.7760 N   0  0  0  0  0
   18.3480   16.5950   49.8510 C   0  0  0  0  0
   18.6340   15.4080   50.7480 C   0  0  0  0  0
   18.7190   15.5420   51.9880 O   0  0  0  0  0
   18.1780   17.8760   50.6750 C   0  0  0  0  0
   17.8790   18.9750   49.8100 O   0  0  0  0  0
   18.7910   14.2420   50.1130 N   0  0  0  0  0
   19.0670   12.9630   50.7820 C   0  0  0  0  0
   20.1760   13.0680   51.7820 C   0  0  0  0  0
   20.0140   12.6790   52.9350 O   0  0  0  0  0
   17.8190   12.4020   51.4590 C   0  0  0  0  0
   16.7740   11.8980   50.4570 C   0  0  0  0  0
   15.3550   12.0710   51.0110 C   0  0  0  0  0
   14.9290   10.8650   51.8540 C   0  0  0  0  0
   14.5850   11.2710   53.2140 N   0  3  0  0  0
   21.3060   13.6200   51.3510 N   0  0  0  0  0
   22.4900   13.7280   52.2020 C   0  0  0  0  0
   22.2660   14.6060   53.4280 C   0  0  0  0  0
   22.6010   14.2320   54.5600 O   0  0  0  0  0
   23.7040   14.1930   51.3920 C   0  0  0  0  0
   24.4300   13.0430   50.7190 C   0  0  0  0  0
   24.1580   12.6810   49.3950 C   0  0  0  0  0
   25.3580   12.2930   51.4230 C   0  0  0  0  0
   24.8130   11.6170   48.8090 C   0  0  0  0  0
   26.0010   11.2360   50.8490 C   0  0  0  0  0
   25.7330   10.8950   49.5500 C   0  0  0  0  0
   26.4200    9.8190   49.0070 O   0  0  0  0  0
   21.6510   15.7590   53.2000 N   0  0  0  0  0
   21.3320   16.6800   54.2700 C   0  0  0  0  0
   20.4200   16.0380   55.3170 C   0  0  0  0  0
   20.4610   16.4180   56.4890 O   0  0  0  0  0
   20.6810   17.9360   53.6870 C   0  0  0  0  0
   20.4030   19.1190   54.6210 C   0  0  0  0  0
   21.6970   19.6980   55.1950 C   0  0  0  0  0
   19.6630   20.1570   53.8480 C   0  0  0  0  0
   19.6080   15.0640   54.8980 N   0  0  0  0  0
   18.5990   14.4860   55.8040 C   0  0  0  0  0
   18.7530   13.0150   56.1620 C   0  0  0  0  0
   18.3120   12.6010   57.2190 O   0  0  0  0  0
   17.1830   14.7800   55.3080 C   0  0  0  0  0
   16.9000   16.2530   55.2940 C   0  0  0  0  0
   16.9620   17.0830   54.2170 C   0  0  0  0  0
   16.5610   17.0800   56.4200 C   0  0  0  0  0
   16.6620   18.3690   54.5960 N   0  0  0  0  0
   16.4070   18.3950   55.9420 C   0  0  0  0  0
   16.3530   16.8380   57.7840 C   0  0  0  0  0
   16.0590   19.4680   56.7770 C   0  0  0  0  0
   16.0070   17.9040   58.6100 C   0  0  0  0  0
   15.8670   19.2010   58.1020 C   0  0  0  0  0
   19.3950   12.2330   55.3010 N   0  0  0  0  0
   19.5450   10.7960   55.5500 C   0  0  0  0  0
   20.9990   10.3470   55.7640 C   0  0  0  0  0
   21.2720    9.4790   56.6070 O   0  0  0  0  0
   18.9040    9.9900   54.4160 C   0  0  0  0  0
   17.5080   10.2260   54.3560 O   0  0  0  0  0
   21.9230   10.9610   55.0290 N   0  0  0  0  0
   23.2910   10.4580   54.9680 C   0  0  0  0  0
   24.0400   10.4000   56.2880 C   0  0  0  0  0
   24.0280   11.3550   57.0810 O   0  0  0  0  0
   24.1290   11.2150   53.9470 C   0  0  0  0  0
   24.9360   12.2000   54.5660 O   0  0  0  0  0
   24.7030    9.2550   56.4690 N   0  0  0  0  0
   25.5550    8.9540   57.6040 C   0  0  0  0  0
   27.0180    8.7790   57.1270 C   0  0  0  0  0
   27.8700    8.1530   57.7660 O   0  0  0  0  0
   25.0360    7.6940   58.3000 C   0  0  0  0  0
   23.9710    7.9300   59.3680 C   0  0  0  0  0
   24.5860    7.8430   60.7650 C   0  0  0  0  0
   23.5250    7.8060   61.8730 C   0  0  0  0  0
   24.1410    7.7570   63.2520 N   0  3  0  0  0
   27.4230    9.2790   56.0710 O   0  0  0  0  0
   12.5404   11.0572   42.0153 H   0  0  0  0  0
   14.1092   10.5847   42.3194 H   0  0  0  0  0
   13.0122    9.4885   41.7095 H   0  0  0  0  0
   11.7166    9.5397   43.7022 H   0  0  0  0  0
   13.4535    8.6563   45.3119 H   0  0  0  0  0
   14.6514    8.9677   43.9658 H   0  0  0  0  0
   12.7708    7.5490   42.6651 H   0  0  0  0  0
   12.6514    6.8243   44.3221 H   0  0  0  0  0
   14.9014    6.1406   44.2822 H   0  0  0  0  0
   15.2590    7.1485   42.8289 H   0  0  0  0  0
   15.1359    5.0235   41.9517 H   0  0  0  0  0
   13.4475    5.6503   41.7181 H   0  0  0  0  0
   13.4784    3.4056   42.5312 H   0  0  0  0  0
   14.3585    3.8615   43.8708 H   0  0  0  0  0
   12.8092    4.4366   43.6564 H   0  0  0  0  0
   14.7357   10.8652   45.0570 H   0  0  0  0  0
   13.3958   13.4629   45.6160 H   0  0  0  0  0
   14.8160   12.3445   47.9488 H   0  0  0  0  0
   13.1848   11.6559   47.5662 H   0  0  0  0  0
   13.0891   13.4656   49.0052 H   0  0  0  0  0
   14.8301   15.1301   45.6589 H   0  0  0  0  0
   17.0986   15.1406   44.1619 H   0  0  0  0  0
   16.7338   16.7544   46.7135 H   0  0  0  0  0
   16.0014   17.1375   45.0865 H   0  0  0  0  0
   18.1895   16.6288   43.6828 H   0  0  0  0  0
   19.1692   14.7197   44.1446 H   0  0  0  0  0
   20.2805   12.7938   45.9790 H   0  0  0  0  0
   21.9772   14.6899   44.4714 H   0  0  0  0  0
   20.7185   13.6734   43.5177 H   0  0  0  0  0
   21.8758   11.8143   43.7838 H   0  0  0  0  0
   24.0289   14.0263   44.0604 H   0  0  0  0  0
   23.1564   13.6904   42.5253 H   0  0  0  0  0
   25.4140   12.6939   42.5861 H   0  0  0  0  0
   24.0974   11.4524   42.4652 H   0  0  0  0  0
   25.8022   12.1793   44.8496 H   0  0  0  0  0
   25.6706   10.5920   43.9920 H   0  0  0  0  0
   24.5115   10.8238   46.2469 H   0  0  0  0  0
   23.5283   10.2031   44.8475 H   0  0  0  0  0
   22.1986   11.7269   46.1467 H   0  0  0  0  0
   23.4902   12.9838   46.0389 H   0  0  0  0  0
   20.8138   16.3236   45.7863 H   0  0  0  0  0
   22.5654   16.3528   48.0625 H   0  0  0  0  0
   20.7450   18.5744   47.1693 H   0  0  0  0  0
   22.3492   18.1536   46.3942 H   0  0  0  0  0
   24.3931   18.7824   47.4036 H   0  0  0  0  0
   20.6809   19.5260   49.4159 H   0  0  0  0  0
   25.5858   20.2230   49.0695 H   0  0  0  0  0
   21.8526   20.9683   51.0727 H   0  0  0  0  0
   24.3090   21.3228   50.9043 H   0  0  0  0  0
   19.0326   17.0485   47.8480 H   0  0  0  0  0
   17.4046   16.3842   49.3474 H   0  0  0  0  0
   19.1033   18.0831   51.2127 H   0  0  0  0  0
   17.3597   17.7424   51.3826 H   0  0  0  0  0
   17.7740   19.7731   50.3331 H   0  0  0  0  0
   18.7140   14.2400   49.0959 H   0  0  0  0  0
   19.3836   12.2770   49.9963 H   0  0  0  0  0
   17.3646   13.2053   52.0389 H   0  0  0  0  0
   18.1253   11.5565   52.0749 H   0  0  0  0  0
   16.9502   10.8386   50.2704 H   0  0  0  0  0
   16.8636   12.4760   49.5372 H   0  0  0  0  0
   14.6663   12.1654   50.1715 H   0  0  0  0  0
   15.3380   12.9578   51.6446 H   0  0  0  0  0
   15.7590   10.1599   51.8994 H   0  0  0  0  0
   14.0527   10.4090   51.3934 H   0  0  0  0  0
   14.3057   10.4507   53.7521 H   0  0  0  0  0
   15.3960   11.7070   53.6528 H   0  0  0  0  0
   13.8138   11.9379   53.1837 H   0  0  0  0  0
   21.3483   13.9792   50.3973 H   0  0  0  0  0
   22.6939   12.7273   52.5829 H   0  0  0  0  0
   24.4009   14.6748   52.0778 H   0  0  0  0  0
   23.3495   14.8682   50.6132 H   0  0  0  0  0
   23.4221   13.2445   48.8213 H   0  0  0  0  0
   25.5791   12.5533   52.4581 H   0  0  0  0  0
   24.6080   11.3477   47.7729 H   0  0  0  0  0
   26.7281   10.6627   51.4241 H   0  0  0  0  0
   27.0085    9.4494   49.6693 H   0  0  0  0  0
   21.3956   16.0035   52.2432 H   0  0  0  0  0
   22.2592   16.9521   54.7744 H   0  0  0  0  0
   19.7002   17.6122   53.3388 H   0  0  0  0  0
   21.3958   18.3132   52.9556 H   0  0  0  0  0
   19.8060   18.7784   55.4670 H   0  0  0  0  0
   22.2189   18.9266   55.7612 H   0  0  0  0  0
   22.3319   20.0441   54.3794 H   0  0  0  0  0
   21.4592   20.5345   55.8521 H   0  0  0  0  0
   20.2703   20.4804   53.0026 H   0  0  0  0  0
   18.7252   19.7373   53.4839 H   0  0  0  0  0
   19.4543   21.0095   54.4943 H   0  0  0  0  0
   19.6867   14.7168   53.9421 H   0  0  0  0  0
   18.7873   14.9984   56.7474 H   0  0  0  0  0
   16.4743   14.2987   55.9819 H   0  0  0  0  0
   17.0878   14.4005   54.2906 H   0  0  0  0  0
   17.2129   16.7729   53.2026 H   0  0  0  0  0
   16.4602   15.8327   58.1915 H   0  0  0  0  0
   15.9461   20.4776   56.3820 H   0  0  0  0  0
   15.8420   17.7253   59.6725 H   0  0  0  0  0
   15.5995   20.0135   58.7775 H   0  0  0  0  0
   19.7900   12.6390   54.4528 H   0  0  0  0  0
   19.0270   10.5990   56.4886 H   0  0  0  0  0
   19.0730    8.9291   54.6004 H   0  0  0  0  0
   19.3526   10.2959   53.4709 H   0  0  0  0  0
   17.1282    9.7118   53.6398 H   0  0  0  0  0
   21.6709   11.7960   54.5002 H   0  0  0  0  0
   23.1546    9.4219   54.6583 H   0  0  0  0  0
   23.4561   11.7100   53.2469 H   0  0  0  0  0
   24.7807   10.5037   53.4396 H   0  0  0  0  0
   25.4502   12.6576   53.8968 H   0  0  0  0  0
   24.6025    8.5355   55.7530 H   0  0  0  0  0
   25.5345    9.7755   58.3201 H   0  0  0  0  0
   25.8898    7.2425   58.8052 H   0  0  0  0  0
   24.5729    7.0794   57.5280 H   0  0  0  0  0
   23.1985    7.1669   59.2728 H   0  0  0  0  0
   23.5446    8.9236   59.2298 H   0  0  0  0  0
   25.2008    8.7301   60.9176 H   0  0  0  0  0
   25.1634    6.9202   60.8214 H   0  0  0  0  0
   22.9246    6.9064   61.7377 H   0  0  0  0  0
   22.9274    8.7147   61.8007 H   0  0  0  0  0
   23.4006    7.7337   63.9532 H   0  0  0  0  0
   24.7171    6.9195   63.3362 H   0  0  0  0  0
   24.7196    8.5849   63.3942 H   0  0  0  0  0
   26.7015    9.7439   55.6410 H   0  0  0  0  0
  1  2  1  0  0  0
  2  3  1  0  0  0
  2  5  1  0  0  0
  3  4  2  0  0  0
  3 10  1  0  0  0
  5  6  1  0  0  0
  6  7  1  0  0  0
  7  8  1  0  0  0
  8  9  1  0  0  0
 10 11  1  0  0  0
 11 12  1  0  0  0
 11 14  1  0  0  0
 12 13  2  0  0  0
 12 16  1  0  0  0
 14 15  1  0  0  0
 16 17  1  0  0  0
 17 18  1  0  0  0
 17 20  1  0  0  0
 18 19  2  0  0  0
 18 24  1  0  0  0
 20 21  1  0  0  0
 21 22  1  0  0  0
 21 23  2  0  0  0
 24 25  1  0  0  0
 25 26  1  0  0  0
 25 27  1  0  0  0
 26 34  2  0  0  0
 26 35  1  0  0  0
 27 28  1  0  0  0
 28 29  1  0  0  0
 28 33  1  0  0  0
 29 30  1  0  0  0
 30 31  1  0  0  0
 31 32  1  0  0  0
 32 33  1  0  0  0
 35 36  1  0  0  0
 36 37  1  0  0  0
 36 39  1  0  0  0
 37 38  2  0  0  0
 37 46  1  0  0  0
 39 40  1  0  0  0
 40 41  4  0  0  0
 40 42  4  0  0  0
 41 43  4  0  0  0
 42 44  4  0  0  0
 43 45  4  0  0  0
 44 45  4  0  0  0
 46 47  1  0  0  0
 47 48  1  0  0  0
 47 50  1  0  0  0
 48 49  2  0  0  0
 48 52  1  0  0  0
 50 51  1  0  0  0
 52 53  1  0  0  0
 53 54  1  0  0  0
 53 56  1  0  0  0
 54 55  2  0  0  0
 54 61  1  0  0  0
 56 57  1  0  0  0
 57 58  1  0  0  0
 58 59  1  0  0  0
 59 60  1  0  0  0
 61 62  1  0  0  0
 62 63  1  0  0  0
 62 65  1  0  0  0
 63 64  2  0  0  0
 63 73  1  0  0  0
 65 66  1  0  0  0
 66 67  4  0  0  0
 66 68  4  0  0  0
 67 69  4  0  0  0
 68 70  4  0  0  0
 69 71  4  0  0  0
 70 71  4  0  0  0
 71 72  1  0  0  0
 73 74  1  0  0  0
 74 75  1  0  0  0
 74 77  1  0  0  0
 75 76  2  0  0  0
 75 81  1  0  0  0
 77 78  1  0  0  0
 78 79  1  0  0  0
 78 80  1  0  0  0
 81 82  1  0  0  0
 82 83  1  0  0  0
 82 85  1  0  0  0
 83 84  2  0  0  0
 83 95  1  0  0  0
 85 86  1  0  0  0
 86 87  4  0  0  0
 86 88  4  0  0  0
 87 89  4  0  0  0
 88 90  4  0  0  0
 88 91  4  0  0  0
 89 90  4  0  0  0
 90 92  4  0  0  0
 91 93  4  0  0  0
 92 94  4  0  0  0
 93 94  4  0  0  0
 95 96  1  0  0  0
 96 97  1  0  0  0
 96 99  1  0  0  0
 97 98  2  0  0  0
 97101  1  0  0  0
 99100  1  0  0  0
101102  1  0  0  0
102103  1  0  0  0
102105  1  0  0  0
103104  2  0  0  0
103107  1  0  0  0
105106  1  0  0  0
107108  1  0  0  0
108109  1  0  0  0
108111  1  0  0  0
109110  2  0  0  0
109116  1  0  0  0
111112  1  0  0  0
112113  1  0  0  0
113114  1  0  0  0
114115  1  0  0  0
  1117  1  0  0  0
  1118  1  0  0  0
  1119  1  0  0  0
  2120  1  0  0  0
  5121  1  0  0  0
  5122  1  0  0  0
  6123  1  0  0  0
  6124  1  0  0  0
  7125  1  0  0  0
  7126  1  0  0  0
  8127  1  0  0  0
  8128  1  0  0  0
  9129  1  0  0  0
  9130  1  0  0  0
  9131  1  0  0  0
 10132  1  0  0  0
 11133  1  0  0  0
 14134  1  0  0  0
 14135  1  0  0  0
 15136  1  0  0  0
 16137  1  0  0  0
 17138  1  0  0  0
 20139  1  0  0  0
 20140  1  0  0  0
 22141  1  0  0  0
 24142  1  0  0  0
 25143  1  0  0  0
 27144  1  0  0  0
 27145  1  0  0  0
 28146  1  0  0  0
 29147  1  0  0  0
 29148  1  0  0  0
 30149  1  0  0  0
 30150  1  0  0  0
 31151  1  0  0  0
 31152  1  0  0  0
 32153  1  0  0  0
 32154  1  0  0  0
 33155  1  0  0  0
 33156  1  0  0  0
 35157  1  0  0  0
 36158  1  0  0  0
 39159  1  0  0  0
 39160  1  0  0  0
 41161  1  0  0  0
 42162  1  0  0  0
 43163  1  0  0  0
 44164  1  0  0  0
 45165  1  0  0  0
 46166  1  0  0  0
 47167  1  0  0  0
 50168  1  0  0  0
 50169  1  0  0  0
 51170  1  0  0  0
 52171  1  0  0  0
 53172  1  0  0  0
 56173  1  0  0  0
 56174  1  0  0  0
 57175  1  0  0  0
 57176  1  0  0  0
 58177  1  0  0  0
 58178  1  0  0  0
 59179  1  0  0  0
 59180  1  0  0  0
 60181  1  0  0  0
 60182  1  0  0  0
 60183  1  0  0  0
 61184  1  0  0  0
 62185  1  0  0  0
 65186  1  0  0  0
 65187  1  0  0  0
 67188  1  0  0  0
 68189  1  0  0  0
 69190  1  0  0  0
 70191  1  0  0  0
 72192  1  0  0  0
 73193  1  0  0  0
 74194  1  0  0  0
 77195  1  0  0  0
 77196  1  0  0  0
 78197  1  0  0  0
 79198  1  0  0  0
 79199  1  0  0  0
 79200  1  0  0  0
 80201  1  0  0  0
 80202  1  0  0  0
 80203  1  0  0  0
 81204  1  0  0  0
 82205  1  0  0  0
 85206  1  0  0  0
 85207  1  0  0  0
 87208  1  0  0  0
 91209  1  0  0  0
 92210  1  0  0  0
 93211  1  0  0  0
 94212  1  0  0  0
 95213  1  0  0  0
 96214  1  0  0  0
 99215  1  0  0  0
 99216  1  0  0  0
100217  1  0  0  0
101218  1  0  0  0
102219  1  0  0  0
105220  1  0  0  0
105221  1  0  0  0
106222  1  0  0  0
107223  1  0  0  0
108224  1  0  0  0
111225  1  0  0  0
111226  1  0  0  0
112227  1  0  0  0
112228  1  0  0  0
113229  1  0  0  0
113230  1  0  0  0
114231  1  0  0  0
114232  1  0  0  0
115233  1  0  0  0
115234  1  0  0  0
115235  1  0  0  0
116236  1  0  0  0
M  END
$$$$
