### 
### Created by X-TOOL on Mon Sep 10 21:12:53 2018
### 

@<TRIPOS>MOLECULE
1ywh_ligand
  235   239     1     0     0
SMALL
GAST_HUCK


@<TRIPOS>ATOM
      1 N          13.1330   10.2890   42.3300 N.4       1 LYS         0.2379
      2 CA         12.7450    9.9000   43.7270 C.3       1 LYS         0.0650
      3 C          12.7520   11.1110   44.6820 C.2       1 LYS         0.2268
      4 O          11.6910   11.7000   44.9350 O.2       1 LYS        -0.3907
      5 CB         13.6210    8.7390   44.2380 C.3       1 LYS         0.0080
      6 CG         13.2760    7.3690   43.6140 C.3       1 LYS        -0.0410
      7 CD         14.5240    6.5210   43.3330 C.3       1 LYS        -0.0123
      8 CE         14.2080    5.3340   42.4320 C.3       1 LYS        -0.0354
      9 NZ         13.6710    4.1670   43.1820 N.4       1 LYS         0.2185
     10 N          13.9310   11.4760   45.1980 N.am      1 SER        -0.2589
     11 CA         14.1170   12.7220   45.9610 C.3       1 SER         0.1540
     12 C          15.5360   13.2330   45.7250 C.2       1 SER         0.2063
     13 O          16.4900   12.4450   45.6750 O.2       1 SER        -0.3943
     14 CB         13.8560   12.5080   47.4590 C.3       1 SER         0.0843
     15 OG         13.2320   13.6450   48.0730 O.3       1 SER        -0.3903
     16 N          15.6630   14.5500   45.5580 N.am      1 ASP        -0.2621
     17 CA         16.9340   15.2130   45.2370 C.3       1 ASP         0.1423
     18 C          18.1480   14.5130   45.8770 C.2       1 ASP         0.2056
     19 O          18.1090   14.0760   47.0190 O.2       1 ASP        -0.3943
     20 CB         16.8430   16.7080   45.6300 C.3       1 ASP         0.0406
     21 CG         18.0920   17.5200   45.2590 C.2       1 ASP         0.0393
     22 OD1        18.6530   17.3230   44.1570 O.co2     1 ASP        -0.5688
     23 OD2        18.5790   18.4010   46.0020 O.co2     1 ASP        -0.5688
     24 N          19.2160   14.3880   45.1080 N.am      1 ALC        -0.2636
     25 CA         20.4550   13.7950   45.5850 C.3       1 ALC         0.1312
     26 C          21.0620   14.5510   46.7480 C.2       1 ALC         0.2040
     27 CB         21.3800   13.7830   44.3770 C.3       1 ALC        -0.0096
     28 CG         22.3930   12.6600   44.2370 C.3       1 ALC        -0.0368
     29 CD2        23.5490   13.2630   43.4480 C.3       1 ALC        -0.0500
     30 CE2        24.5850   12.1990   43.0920 C.3       1 ALC        -0.0528
     31 CZ         25.1440   11.4860   44.3260 C.3       1 ALC        -0.0530
     32 CE1        24.0420   11.0560   45.2910 C.3       1 ALC        -0.0528
     33 CD1        22.9990   12.1490   45.5390 C.3       1 ALC        -0.0500
     34 OXT        21.4890   13.9390   47.7240 O.2       1 ALC        -0.3944
     35 N          21.1120   15.8760   46.6530 N.am      1 PHE        -0.2619
     36 CA         21.5810   16.7040   47.7530 C.3       1 PHE         0.1404
     37 C          20.6470   16.5670   48.9790 C.2       1 PHE         0.2060
     38 O          21.0950   16.2480   50.0800 O.2       1 PHE        -0.3942
     39 CB         21.7460   18.1640   47.3020 C.3       1 PHE         0.0214
     40 CG         22.4590   19.0440   48.3000 C.ar      1 PHE        -0.0386
     41 CD1        23.8300   19.2540   48.2090 C.ar      1 PHE        -0.0601
     42 CD2        21.7580   19.6720   49.3340 C.ar      1 PHE        -0.0601
     43 CE1        24.5090   20.0750   49.1510 C.ar      1 PHE        -0.0686
     44 CE2        22.4190   20.4910   50.2730 C.ar      1 PHE        -0.0686
     45 CZ         23.7950   20.6910   50.1800 C.ar      1 PHE        -0.0687
     46 N          19.3490   16.7670   48.7760 N.am      1 DSN        -0.2614
     47 CA         18.3480   16.5950   49.8510 C.3       1 DSN         0.1539
     48 C          18.6340   15.4080   50.7480 C.2       1 DSN         0.2062
     49 O          18.7190   15.5420   51.9880 O.2       1 DSN        -0.3943
     50 CB         18.1780   17.8760   50.6750 C.3       1 DSN         0.0843
     51 OG         17.8790   18.9750   49.8100 O.3       1 DSN        -0.3903
     52 N          18.7910   14.2420   50.1130 N.am      1 DLY        -0.2637
     53 CA         19.0670   12.9630   50.7820 C.3       1 DLY         0.1310
     54 C          20.1760   13.0680   51.7820 C.2       1 DLY         0.2040
     55 O          20.0140   12.6790   52.9350 O.2       1 DLY        -0.3944
     56 CB         17.8190   12.4020   51.4590 C.3       1 DLY        -0.0122
     57 CG         16.7740   11.8980   50.4570 C.3       1 DLY        -0.0440
     58 CD         15.3550   12.0710   51.0110 C.3       1 DLY        -0.0124
     59 CE         14.9290   10.8650   51.8540 C.3       1 DLY        -0.0354
     60 NZ         14.5850   11.2710   53.2140 N.4       1 DLY         0.2185
     61 N          21.3060   13.6200   51.3510 N.am      1 TYR        -0.2621
     62 CA         22.4900   13.7280   52.2020 C.3       1 TYR         0.1390
     63 C          22.2660   14.6060   53.4280 C.2       1 TYR         0.2057
     64 O          22.6010   14.2320   54.5600 O.2       1 TYR        -0.3942
     65 CB         23.7040   14.1930   51.3920 C.3       1 TYR         0.0163
     66 CG         24.4300   13.0430   50.7190 C.ar      1 TYR        -0.0493
     67 CD1        24.1580   12.6810   49.3950 C.ar      1 TYR        -0.0685
     68 CD2        25.3580   12.2930   51.4230 C.ar      1 TYR        -0.0685
     69 CE1        24.8130   11.6170   48.8090 C.ar      1 TYR        -0.0398
     70 CE2        26.0010   11.2360   50.8490 C.ar      1 TYR        -0.0398
     71 CZ         25.7330   10.8950   49.5500 C.ar      1 TYR         0.0805
     72 OH         26.4200    9.8190   49.0070 O.3       1 TYR        -0.3376
     73 N          21.6510   15.7590   53.2000 N.am      1 LEU        -0.2636
     74 CA         21.3320   16.6800   54.2700 C.3       1 LEU         0.1312
     75 C          20.4200   16.0380   55.3170 C.2       1 LEU         0.2040
     76 O          20.4610   16.4180   56.4890 O.2       1 LEU        -0.3944
     77 CB         20.6810   17.9360   53.6870 C.3       1 LEU        -0.0101
     78 CG         20.4030   19.1190   54.6210 C.3       1 LEU        -0.0425
     79 CD1        21.6970   19.6980   55.1950 C.3       1 LEU        -0.0625
     80 CD2        19.6630   20.1570   53.8480 C.3       1 LEU        -0.0625
     81 N          19.6080   15.0640   54.8980 N.am      1 TRP        -0.2627
     82 CA         18.5990   14.4860   55.8040 C.3       1 TRP         0.1352
     83 C          18.7530   13.0150   56.1620 C.2       1 TRP         0.2052
     84 O          18.3120   12.6010   57.2190 O.2       1 TRP        -0.3942
     85 CB         17.1830   14.7800   55.3080 C.3       1 TRP         0.0042
     86 CG         16.9000   16.2530   55.2940 C.2       1 TRP        -0.0418
     87 CD1        16.9620   17.0830   54.2170 C.2       1 TRP         0.0167
     88 CD2        16.5610   17.0800   56.4200 C.ar      1 TRP        -0.0214
     89 NE1        16.6620   18.3690   54.5960 N.pl3     1 TRP        -0.2890
     90 CE2        16.4070   18.3950   55.9420 C.ar      1 TRP         0.0603
     91 CE3        16.3530   16.8380   57.7840 C.ar      1 TRP        -0.0747
     92 CZ2        16.0590   19.4680   56.7770 C.ar      1 TRP        -0.0443
     93 CZ3        16.0070   17.9040   58.6100 C.ar      1 TRP        -0.0792
     94 CH2        15.8670   19.2010   58.1020 C.ar      1 TRP        -0.0768
     95 N          19.3950   12.2330   55.3010 N.am      1 SER        -0.2615
     96 CA         19.5450   10.7960   55.5500 C.3       1 SER         0.1539
     97 C          20.9990   10.3470   55.7640 C.2       1 SER         0.2062
     98 O          21.2720    9.4790   56.6070 O.2       1 SER        -0.3943
     99 CB         18.9040    9.9900   54.4160 C.3       1 SER         0.0843
    100 OG         17.5080   10.2260   54.3560 O.3       1 SER        -0.3903
    101 N          21.9230   10.9610   55.0290 N.am      1 SER        -0.2615
    102 CA         23.2910   10.4580   54.9680 C.3       1 SER         0.1539
    103 C          24.0400   10.4000   56.2880 C.2       1 SER         0.2056
    104 O          24.0280   11.3550   57.0810 O.2       1 SER        -0.3943
    105 CB         24.1290   11.2150   53.9470 C.3       1 SER         0.0843
    106 OG         24.9360   12.2000   54.5660 O.3       1 SER        -0.3903
    107 N          24.7030    9.2550   56.4690 N.am      1 LYS        -0.2694
    108 CA         25.5550    8.9540   57.6040 C.3       1 LYS         0.0944
    109 C          27.0180    8.7790   57.1270 C.2       1 LYS         0.0601
    110 O          27.8700    8.1530   57.7660 O.co2     1 LYS        -0.5666
    111 CB         25.0360    7.6940   58.3000 C.3       1 LYS        -0.0177
    112 CG         23.9710    7.9300   59.3680 C.3       1 LYS        -0.0446
    113 CD         24.5860    7.8430   60.7650 C.3       1 LYS        -0.0125
    114 CE         23.5250    7.8060   61.8730 C.3       1 LYS        -0.0354
    115 NZ         24.1410    7.7570   63.2520 N.4       1 LYS         0.2185
    116 OXT        27.4230    9.2790   56.0710 O.co2     1 LYS        -0.5666
    117 H1         13.1169    9.4737   41.7375 H         1 LYS         0.2015
    118 H2         14.0614   10.6816   42.3361 H         1 LYS         0.2015
    119 H3         12.4813   10.9728   41.9783 H         1 LYS         0.2015
    120 H4         11.7098    9.5303   43.6867 H         1 LYS         0.1098
    121 H5         13.4943    8.6641   45.3281 H         1 LYS         0.0346
    122 H6         14.6711    8.9700   44.0058 H         1 LYS         0.0346
    123 H7         12.7428    7.5369   42.6666 H         1 LYS         0.0270
    124 H8         12.6246    6.8187   44.3088 H         1 LYS         0.0270
    125 H9         14.9235    6.1475   44.2874 H         1 LYS         0.0317
    126 H10        15.2795    7.1509   42.8407 H         1 LYS         0.0317
    127 H11        15.1311    5.0270   41.9186 H         1 LYS         0.0813
    128 H12        13.4611    5.6470   41.6876 H         1 LYS         0.0813
    129 H13        13.4802    3.4138   42.5398 H         1 LYS         0.1994
    130 H14        12.8193    4.4322   43.6513 H         1 LYS         0.1994
    131 H15        14.3496    3.8641   43.8630 H         1 LYS         0.1994
    132 H16        14.7199   10.8772   45.0598 H         1 SER         0.1885
    133 H17        13.4032   13.4724   45.5903 H         1 SER         0.0823
    134 H18        14.8159   12.3177   47.9613 H         1 SER         0.0606
    135 H19        13.1984   11.6348   47.5819 H         1 SER         0.0606
    136 H20        13.0906   13.4675   48.9955 H         1 SER         0.2097
    137 H21        14.8464   15.1187   45.6569 H         1 ASP         0.1884
    138 H22        17.0704   15.1615   44.1467 H         1 ASP         0.0819
    139 H23        16.6971   16.7729   46.7183 H         1 ASP         0.0478
    140 H24        15.9762   17.1500   45.1168 H         1 ASP         0.0478
    141 H25        19.1701   14.7132   44.1635 H         1 ALC         0.1883
    142 H26        20.2625   12.7627   45.9125 H         1 ALC         0.0800
    143 H27        21.9451   14.7266   44.3942 H         1 ALC         0.0315
    144 H28        20.7412   13.7544   43.4820 H         1 ALC         0.0315
    145 H29        21.9334   11.8192   43.6968 H         1 ALC         0.0303
    146 H30        24.0300   14.0439   44.0553 H         1 ALC         0.0268
    147 H31        23.1580   13.7081   42.5212 H         1 ALC         0.0268
    148 H32        25.4163   12.6816   42.5572 H         1 ALC         0.0265
    149 H33        24.1123   11.4520   42.4374 H         1 ALC         0.0265
    150 H34        25.8278   12.1694   44.8508 H         1 ALC         0.0265
    151 H35        25.6972   10.5931   43.9992 H         1 ALC         0.0265
    152 H36        24.5039   10.7886   46.2528 H         1 ALC         0.0265
    153 H37        23.5332   10.1757   44.8712 H         1 ALC         0.0265
    154 H38        22.1958   11.7382   46.1684 H         1 ALC         0.0268
    155 H39        23.4808   12.9888   46.0611 H         1 ALC         0.0268
    156 H40        20.8196   16.3148   45.8033 H         1 PHE         0.1885
    157 H41        22.5738   16.3363   48.0515 H         1 PHE         0.0823
    158 H42        20.7455   18.5851   47.1240 H         1 PHE         0.0474
    159 H43        22.3196   18.1723   46.3635 H         1 PHE         0.0474
    160 H44        24.3900   18.7850   47.4081 H         1 PHE         0.0557
    161 H45        20.6869   19.5268   49.4155 H         1 PHE         0.0557
    162 H46        25.5799   20.2222   49.0699 H         1 PHE         0.0599
    163 H47        21.8557   20.9656   51.0683 H         1 PHE         0.0599
    164 H48        24.3062   21.3193   50.9004 H         1 PHE         0.0559
    165 H49        19.0388   17.0429   47.8662 H         1 DSN         0.1884
    166 H50        17.3851   16.3968   49.3576 H         1 DSN         0.0823
    167 H51        19.1097   18.0848   51.2211 H         1 DSN         0.0606
    168 H52        17.3548   17.7419   51.3921 H         1 DSN         0.0606
    169 H53        17.0738   18.7957   49.3388 H         1 DSN         0.2097
    170 H54        18.7156   14.2401   49.1158 H         1 DLY         0.1883
    171 H55        19.3813   12.2486   50.0068 H         1 DLY         0.0800
    172 H56        17.3648   13.1951   52.0711 H         1 DLY         0.0312
    173 H57        18.1172   11.5644   52.1067 H         1 DLY         0.0312
    174 H58        16.9539   10.8318   50.2550 H         1 DLY         0.0269
    175 H59        16.8673   12.4693   49.5217 H         1 DLY         0.0269
    176 H60        14.6547   12.1844   50.1703 H         1 DLY         0.0317
    177 H61        15.3241   12.9740   51.6383 H         1 DLY         0.0317
    178 H62        15.7579   10.1430   51.8932 H         1 DLY         0.0813
    179 H63        14.0523   10.3919   51.3875 H         1 DLY         0.0813
    180 H64        14.3088   10.4611   53.7467 H         1 DLY         0.1994
    181 H65        13.8229   11.9301   53.1853 H         1 DLY         0.1994
    182 H66        15.3858   11.7020   53.6487 H         1 DLY         0.1994
    183 H67        21.3475   13.9722   50.4160 H         1 TYR         0.1885
    184 H68        22.7127   12.7161   52.5715 H         1 TYR         0.0821
    185 H69        24.4045   14.7043   52.0687 H         1 TYR         0.0453
    186 H70        23.3630   14.8960   50.6177 H         1 TYR         0.0453
    187 H71        23.4262   13.2414   48.8245 H         1 TYR         0.0530
    188 H72        25.5778   12.5519   52.4524 H         1 TYR         0.0530
    189 H73        24.6091   11.3492   47.7786 H         1 TYR         0.0525
    190 H74        26.7241   10.6659   51.4209 H         1 TYR         0.0525
    191 H75        26.2325    9.0371   49.5130 H         1 TYR         0.2458
    192 H76        21.4006   15.9987   52.2620 H         1 LEU         0.1883
    193 H77        22.2697   16.9708   54.7662 H         1 LEU         0.0800
    194 H78        19.7167   17.6306   53.2547 H         1 LEU         0.0315
    195 H79        21.3417   18.3024   52.8875 H         1 LEU         0.0315
    196 H80        19.7748   18.7749   55.4558 H         1 LEU         0.0298
    197 H81        21.4583   20.5424   55.8584 H         1 LEU         0.0232
    198 H82        22.3386   20.0477   54.3728 H         1 LEU         0.0232
    199 H83        22.2247   18.9204   55.7667 H         1 LEU         0.0232
    200 H84        18.7369   19.7223   53.4438 H         1 LEU         0.0232
    201 H85        20.2919   20.5152   53.0196 H         1 LEU         0.0232
    202 H86        19.4141   20.9993   54.5102 H         1 LEU         0.0232
    203 H87        19.6852   14.7236   53.9609 H         1 TRP         0.1884
    204 H88        18.7165   15.0296   56.7530 H         1 TRP         0.0815
    205 H89        16.4610   14.2837   55.9732 H         1 TRP         0.0397
    206 H90        17.0727   14.3852   54.2873 H         1 TRP         0.0397
    207 H91        17.2126   16.7731   53.2035 H         1 TRP         0.0795
    208 H92        16.6333   19.1846   53.9677 H         1 TRP         0.2216
    209 H93        16.4596   15.8383   58.1893 H         1 TRP         0.0540
    210 H94        15.9468   20.4721   56.3842 H         1 TRP         0.0541
    211 H95        15.8429   17.7263   59.6667 H         1 TRP         0.0510
    212 H96        15.6010   20.0090   58.7738 H         1 TRP         0.0530
    213 H97        19.7823   12.6311   54.4694 H         1 SER         0.1884
    214 H98        18.9966   10.5694   56.4763 H         1 SER         0.0823
    215 H99        19.0811    8.9185   54.5906 H         1 SER         0.0606
    216 H100       19.3609   10.2863   53.4603 H         1 SER         0.0606
    217 H101       17.1321    9.7172   53.6473 H         1 SER         0.2097
    218 H102       21.6758   11.7796   54.5106 H         1 SER         0.1884
    219 H103       23.2114    9.4196   54.6139 H         1 SER         0.0823
    220 H104       23.4578   11.7044   53.2259 H         1 SER         0.0606
    221 H105       24.7782   10.5018   53.4181 H         1 SER         0.0606
    222 H106       25.5218   11.7833   55.1871 H         1 SER         0.2097
    223 H107       24.6045    8.5496   55.7670 H         1 LYS         0.1875
    224 H108       25.5157    9.7919   58.3156 H         1 LYS         0.0726
    225 H109       25.8909    7.1930   58.7776 H         1 LYS         0.0305
    226 H110       24.6065    7.0340   57.5319 H         1 LYS         0.0305
    227 H111       23.1849    7.1668   59.2703 H         1 LYS         0.0269
    228 H112       23.5320    8.9287   59.2272 H         1 LYS         0.0269
    229 H113       25.2298    8.7209   60.9223 H         1 LYS         0.0317
    230 H114       25.1927    6.9276   60.8270 H         1 LYS         0.0317
    231 H115       22.8979    6.9131   61.7333 H         1 LYS         0.0813
    232 H116       22.9006    8.7083   61.7959 H         1 LYS         0.0813
    233 H117       23.4101    7.7339   63.9458 H         1 LYS         0.1994
    234 H118       24.7131    8.5747   63.3937 H         1 LYS         0.1994
    235 H119       24.7106    6.9297   63.3364 H         1 LYS         0.1994
@<TRIPOS>BOND
     1    1    2 1  
     2    2    3 1  
     3    2    5 1  
     4    3    4 2  
     5    3   10 am 
     6    5    6 1  
     7    6    7 1  
     8    7    8 1  
     9    8    9 1  
    10   10   11 1  
    11   11   12 1  
    12   11   14 1  
    13   12   13 2  
    14   12   16 am 
    15   14   15 1  
    16   16   17 1  
    17   17   18 1  
    18   17   20 1  
    19   18   19 2  
    20   18   24 am 
    21   20   21 1  
    22   21   22 ar 
    23   21   23 ar 
    24   24   25 1  
    25   25   26 1  
    26   25   27 1  
    27   26   34 2  
    28   26   35 am 
    29   27   28 1  
    30   28   29 1  
    31   28   33 1  
    32   29   30 1  
    33   30   31 1  
    34   31   32 1  
    35   32   33 1  
    36   35   36 1  
    37   36   37 1  
    38   36   39 1  
    39   37   38 2  
    40   37   46 am 
    41   39   40 1  
    42   40   41 ar 
    43   40   42 ar 
    44   41   43 ar 
    45   42   44 ar 
    46   43   45 ar 
    47   44   45 ar 
    48   46   47 1  
    49   47   48 1  
    50   47   50 1  
    51   48   49 2  
    52   48   52 am 
    53   50   51 1  
    54   52   53 1  
    55   53   54 1  
    56   53   56 1  
    57   54   55 2  
    58   54   61 am 
    59   56   57 1  
    60   57   58 1  
    61   58   59 1  
    62   59   60 1  
    63   61   62 1  
    64   62   63 1  
    65   62   65 1  
    66   63   64 2  
    67   63   73 am 
    68   65   66 1  
    69   66   67 ar 
    70   66   68 ar 
    71   67   69 ar 
    72   68   70 ar 
    73   69   71 ar 
    74   70   71 ar 
    75   71   72 1  
    76   73   74 1  
    77   74   75 1  
    78   74   77 1  
    79   75   76 2  
    80   75   81 am 
    81   77   78 1  
    82   78   79 1  
    83   78   80 1  
    84   81   82 1  
    85   82   83 1  
    86   82   85 1  
    87   83   84 2  
    88   83   95 am 
    89   85   86 1  
    90   86   87 2  
    91   86   88 1  
    92   87   89 1  
    93   88   90 ar 
    94   88   91 ar 
    95   89   90 1  
    96   90   92 ar 
    97   91   93 ar 
    98   92   94 ar 
    99   93   94 ar 
   100   95   96 1  
   101   96   97 1  
   102   96   99 1  
   103   97   98 2  
   104   97  101 am 
   105   99  100 1  
   106  101  102 1  
   107  102  103 1  
   108  102  105 1  
   109  103  104 2  
   110  103  107 am 
   111  105  106 1  
   112  107  108 1  
   113  108  109 1  
   114  108  111 1  
   115  109  110 ar 
   116  109  116 ar 
   117  111  112 1  
   118  112  113 1  
   119  113  114 1  
   120  114  115 1  
   121    1  117 1  
   122    1  118 1  
   123    1  119 1  
   124    2  120 1  
   125    5  121 1  
   126    5  122 1  
   127    6  123 1  
   128    6  124 1  
   129    7  125 1  
   130    7  126 1  
   131    8  127 1  
   132    8  128 1  
   133    9  129 1  
   134    9  130 1  
   135    9  131 1  
   136   10  132 1  
   137   11  133 1  
   138   14  134 1  
   139   14  135 1  
   140   15  136 1  
   141   16  137 1  
   142   17  138 1  
   143   20  139 1  
   144   20  140 1  
   145   24  141 1  
   146   25  142 1  
   147   27  143 1  
   148   27  144 1  
   149   28  145 1  
   150   29  146 1  
   151   29  147 1  
   152   30  148 1  
   153   30  149 1  
   154   31  150 1  
   155   31  151 1  
   156   32  152 1  
   157   32  153 1  
   158   33  154 1  
   159   33  155 1  
   160   35  156 1  
   161   36  157 1  
   162   39  158 1  
   163   39  159 1  
   164   41  160 1  
   165   42  161 1  
   166   43  162 1  
   167   44  163 1  
   168   45  164 1  
   169   46  165 1  
   170   47  166 1  
   171   50  167 1  
   172   50  168 1  
   173   51  169 1  
   174   52  170 1  
   175   53  171 1  
   176   56  172 1  
   177   56  173 1  
   178   57  174 1  
   179   57  175 1  
   180   58  176 1  
   181   58  177 1  
   182   59  178 1  
   183   59  179 1  
   184   60  180 1  
   185   60  181 1  
   186   60  182 1  
   187   61  183 1  
   188   62  184 1  
   189   65  185 1  
   190   65  186 1  
   191   67  187 1  
   192   68  188 1  
   193   69  189 1  
   194   70  190 1  
   195   72  191 1  
   196   73  192 1  
   197   74  193 1  
   198   77  194 1  
   199   77  195 1  
   200   78  196 1  
   201   79  197 1  
   202   79  198 1  
   203   79  199 1  
   204   80  200 1  
   205   80  201 1  
   206   80  202 1  
   207   81  203 1  
   208   82  204 1  
   209   85  205 1  
   210   85  206 1  
   211   87  207 1  
   212   89  208 1  
   213   91  209 1  
   214   92  210 1  
   215   93  211 1  
   216   94  212 1  
   217   95  213 1  
   218   96  214 1  
   219   99  215 1  
   220   99  216 1  
   221  100  217 1  
   222  101  218 1  
   223  102  219 1  
   224  105  220 1  
   225  105  221 1  
   226  106  222 1  
   227  107  223 1  
   228  108  224 1  
   229  111  225 1  
   230  111  226 1  
   231  112  227 1  
   232  112  228 1  
   233  113  229 1  
   234  113  230 1  
   235  114  231 1  
   236  114  232 1  
   237  115  233 1  
   238  115  234 1  
   239  115  235 1  
@<TRIPOS>SUBSTRUCTURE
     1 LYS         1

