3k98_ligand
  -I-interpret- 

 42 44  0  0  0  0  0  0  0  0999 V2000
   16.6200   -3.0070   50.7400 N   0  0  0  0  0
   17.4940   -2.8140   54.3950 C   0  0  0  0  0
   17.2390   -3.0700   53.0220 C   0  0  0  0  0
   17.6420   -4.2930   52.4180 C   0  0  0  0  0
   17.2630   -4.3190   50.9710 C   0  0  0  0  0
   16.5500   -2.1880   52.0110 C   0  0  0  0  0
   15.6290   -1.2800   49.2250 C   0  0  0  0  0
   14.5590    1.3200   48.9020 C   0  0  0  0  0
   16.4800   -0.1950   48.8460 C   0  0  0  0  0
   12.8770   -3.0860   52.8820 C   0  0  0  0  0
   18.1660   -3.8070   55.1530 C   0  0  0  0  0
   18.5670   -5.0320   54.5400 C   0  0  0  0  0
   18.3030   -5.2810   53.1630 C   0  0  0  0  0
   16.2080   -2.6440   49.4180 C   0  0  0  0  0
   14.2440   -1.0610   49.4310 C   0  0  0  0  0
   13.7150    0.2360   49.2700 C   0  0  0  0  0
   15.9450    1.1040   48.6850 C   0  0  0  0  0
   17.8210   -0.4140   48.6430 O   0  0  0  0  0
   14.0310    2.5820   48.7560 O   0  0  0  0  0
   12.0410    0.4630   49.5390 Cl  0  0  0  0  0
   16.3190   -3.3590   48.4220 O   0  0  0  0  0
   15.0980   -1.9600   52.5160 C   0  0  0  0  0
   14.2750   -3.0800   52.4530 N   0  0  0  0  0
   11.9010   -2.7960   51.7640 C   0  0  0  0  0
   14.7350   -0.8640   52.9300 O   0  0  0  0  0
   17.1809   -1.8770   54.8556 H   0  0  0  0  0
   18.1256   -4.4738   50.3229 H   0  0  0  0  0
   16.5981   -5.1499   50.7351 H   0  0  0  0  0
   16.9847   -1.2008   51.8542 H   0  0  0  0  0
   12.7607   -2.3015   53.6298 H   0  0  0  0  0
   12.6548   -4.0840   53.2599 H   0  0  0  0  0
   18.3771   -3.6338   56.2082 H   0  0  0  0  0
   19.0822   -5.7870   55.1338 H   0  0  0  0  0
   18.6078   -6.2186   52.6981 H   0  0  0  0  0
   13.5928   -1.8888   49.7117 H   0  0  0  0  0
   16.5917    1.9327   48.3966 H   0  0  0  0  0
   18.2450    0.4111   48.3960 H   0  0  0  0  0
   14.7286    3.1927   48.5071 H   0  0  0  0  0
   14.6693   -3.9464   52.0866 H   0  0  0  0  0
   12.1105   -1.8110   51.3469 H   0  0  0  0  0
   12.0071   -3.5516   50.9856 H   0  0  0  0  0
   10.8843   -2.8171   52.1564 H   0  0  0  0  0
  1  5  1  0  0  0
  6  1  1  0  0  0
  1 14  1  0  0  0
  3  2  4  0  0  0
  2 11  4  0  0  0
  3  4  4  0  0  0
  6  3  1  0  0  0
  4  5  1  0  0  0
  4 13  4  0  0  0
 22  6  1  0  0  0
  7  9  4  0  0  0
 14  7  1  0  0  0
  7 15  4  0  0  0
 16  8  4  0  0  0
 17  8  4  0  0  0
  8 19  1  0  0  0
  9 17  4  0  0  0
  9 18  1  0  0  0
 23 10  1  0  0  0
 10 24  1  0  0  0
 11 12  4  0  0  0
 13 12  4  0  0  0
 14 21  2  0  0  0
 15 16  4  0  0  0
 16 20  1  0  0  0
 22 23  1  0  0  0
 22 25  2  0  0  0
  2 26  1  0  0  0
  5 27  1  0  0  0
  5 28  1  0  0  0
  6 29  1  0  0  0
 10 30  1  0  0  0
 10 31  1  0  0  0
 11 32  1  0  0  0
 12 33  1  0  0  0
 13 34  1  0  0  0
 15 35  1  0  0  0
 17 36  1  0  0  0
 18 37  1  0  0  0
 19 38  1  0  0  0
 23 39  1  0  0  0
 24 40  1  0  0  0
 24 41  1  0  0  0
 24 42  1  0  0  0
M  END
$$$$
