### 
### Created by X-TOOL on Mon Sep 10 21:13:23 2018
### 

@<TRIPOS>MOLECULE
4z68_ligand
  171   170     1     0     0
SMALL
GAST_HUCK


@<TRIPOS>ATOM
      1 N           8.6680   -9.4780   11.1370 N.4       1 GLU         0.2380
      2 CA          7.5310  -10.0390   11.8620 C.3       1 GLU         0.0665
      3 C           6.2560   -9.9340   11.0250 C.2       1 GLU         0.2268
      4 O           6.1280   -9.0310   10.2030 O.2       1 GLU        -0.3907
      5 CB          7.3490   -9.3160   13.2040 C.3       1 GLU         0.0194
      6 CG          6.5120   -8.0400   13.1570 C.3       1 GLU         0.0075
      7 CD          7.2800   -6.8010   12.7060 C.2       1 GLU         0.0351
      8 OE1         6.9460   -5.7000   13.2000 O.co2     1 GLU        -0.5690
      9 OE2         8.1900   -6.9060   11.8550 O.co2     1 GLU        -0.5690
     10 N           5.3080  -10.8460   11.2390 N.am      1 ILE        -0.2607
     11 CA          4.0320  -10.7900   10.5270 C.3       1 ILE         0.1336
     12 C           3.2070   -9.6140   11.0570 C.2       1 ILE         0.2042
     13 O           3.2800   -9.2980   12.2410 O.2       1 ILE        -0.3944
     14 CB          3.2440  -12.1140   10.7060 C.3       1 ILE        -0.0037
     15 CG1         1.9080  -12.0690    9.9570 C.3       1 ILE        -0.0491
     16 CG2         3.0160  -12.4120   12.1800 C.3       1 ILE        -0.0582
     17 CD1         1.0250  -13.2750   10.2250 C.3       1 ILE        -0.0648
     18 N           2.4400   -8.9420   10.1980 N.am      1 ARG        -0.2637
     19 CA          1.5620   -7.8800   10.7030 C.3       1 ARG         0.1311
     20 C           0.3520   -8.4810   11.4200 C.2       1 ARG         0.2039
     21 O          -0.3500   -9.3180   10.8520 O.2       1 ARG        -0.3944
     22 CB          1.0950   -6.9520    9.5770 C.3       1 ARG        -0.0092
     23 CG          0.1010   -5.8880   10.0440 C.3       1 ARG        -0.0156
     24 CD         -0.4600   -5.0520    8.8940 C.3       1 ARG         0.0627
     25 NE         -1.4230   -4.0900    9.4210 N.pl3     1 ARG        -0.2723
     26 CZ         -2.7350   -4.2990    9.4740 C.cat     1 ARG         0.2882
     27 NH1        -3.2500   -5.4250    9.0010 N.pl3     1 ARG        -0.2849
     28 NH2        -3.5320   -3.3790    9.9990 N.pl3     1 ARG        -0.2849
     29 N           0.1110   -8.0520   12.6620 N.am      1 GLU        -0.2636
     30 CA         -1.0370   -8.5180   13.4560 C.3       1 GLU         0.1325
     31 C          -2.2850   -7.6480   13.2650 C.2       1 GLU         0.2040
     32 O          -2.1690   -6.4420   13.0270 O.2       1 GLU        -0.3944
     33 CB         -0.6570   -8.5500   14.9340 C.3       1 GLU        -0.0008
     34 CG          0.4360   -9.5480   15.2520 C.3       1 GLU         0.0044
     35 CD         -0.0490  -10.9770   15.1370 C.2       1 GLU         0.0350
     36 OE1        -0.9210  -11.3730   15.9430 O.co2     1 GLU        -0.5690
     37 OE2         0.4330  -11.7030   14.2400 O.co2     1 GLU        -0.5690
     38 N          -3.4720   -8.2550   13.3940 N.am      1 GLN        -0.2636
     39 CA         -4.7380   -7.5910   13.0580 C.3       1 GLN         0.1330
     40 C          -5.3350   -6.8010   14.2120 C.2       1 GLN         0.2038
     41 O          -6.2730   -6.0130   14.0270 O.2       1 GLN        -0.3944
     42 CB         -5.7790   -8.6170   12.5950 C.3       1 GLN         0.0045
     43 CG         -5.2560   -9.6720   11.6260 C.3       1 GLN         0.0412
     44 CD         -5.0790   -9.1610   10.2040 C.2       1 GLN         0.1737
     45 OE1        -5.0200   -7.9530    9.9580 O.2       1 GLN        -0.3973
     46 NE2        -4.9960  -10.0880    9.2550 N.am      1 GLN        -0.3009
     47 N          -4.8110   -7.0360   15.4050 N.am      1 GLY        -0.2664
     48 CA         -5.3310   -6.3910   16.5950 C.3       1 GLY         0.1201
     49 C          -6.1910   -7.3570   17.3800 C.2       1 GLY         0.2008
     50 O          -6.4710   -8.4700   16.9150 O.2       1 GLY        -0.3947
     51 N          -6.6140   -6.9340   18.5670 N.am      1 ASP        -0.2624
     52 CA         -7.4020   -7.7910   19.4390 C.3       1 ASP         0.1423
     53 C          -8.8400   -7.8550   18.9720 C.2       1 ASP         0.2054
     54 O          -9.4320   -6.8400   18.5980 O.2       1 ASP        -0.3943
     55 CB         -7.3590   -7.2750   20.8710 C.3       1 ASP         0.0406
     56 CG         -6.0190   -7.5240   21.5350 C.2       1 ASP         0.0393
     57 OD1        -5.5390   -8.6790   21.4960 O.co2     1 ASP        -0.5688
     58 OD2        -5.4420   -6.5620   22.0860 O.co2     1 ASP        -0.5688
     59 N          -9.4050   -9.0520   19.0030 N.am      1 GLY        -0.2663
     60 CA        -10.7930   -9.2090   18.6170 C.3       1 GLY         0.1201
     61 C         -11.0900  -10.6370   18.2360 C.2       1 GLY         0.2007
     62 O         -10.2490  -11.5230   18.4190 O.2       1 GLY        -0.3947
     63 N         -12.2830  -10.8540   17.6930 N.am      1 ALA        -0.2642
     64 CA        -12.7300  -12.1840   17.2940 C.3       1 ALA         0.1282
     65 C         -13.6030  -12.0750   16.0580 C.2       1 ALA         0.2036
     66 O         -14.2840  -11.0660   15.8610 O.2       1 ALA        -0.3944
     67 CB        -13.5130  -12.8280   18.4210 C.3       1 ALA        -0.0244
     68 N         -13.6090  -13.1150   15.2320 N.am      1 GLU        -0.2636
     69 CA        -14.5160  -13.1460   14.0840 C.3       1 GLU         0.1325
     70 C         -15.9520  -13.3840   14.5240 C.2       1 GLU         0.2041
     71 O         -16.1950  -14.0000   15.5630 O.2       1 GLU        -0.3944
     72 CB        -14.1200  -14.2580   13.1080 C.3       1 GLU        -0.0008
     73 CG        -12.7360  -14.1260   12.5350 C.3       1 GLU         0.0044
     74 CD        -12.6180  -12.9360   11.6150 C.2       1 GLU         0.0350
     75 OE1       -13.6510  -12.5470   11.0290 O.co2     1 GLU        -0.5690
     76 OE2       -11.4960  -12.3940   11.4730 O.co2     1 GLU        -0.5690
     77 N         -16.9060  -12.8980   13.7300 N.am      1 ASP        -0.2622
     78 CA        -18.2970  -13.2840   13.8980 C.3       1 ASP         0.1423
     79 C         -18.4570  -14.6630   13.2770 C.2       1 ASP         0.2051
     80 O         -17.6620  -15.0500   12.4180 O.2       1 ASP        -0.3943
     81 CB        -19.2120  -12.3040   13.1780 C.3       1 ASP         0.0406
     82 CG        -19.2000  -10.9220   13.8020 C.2       1 ASP         0.0393
     83 OD1       -19.4660  -10.8090   15.0200 O.co2     1 ASP        -0.5688
     84 OD2       -18.9250   -9.9470   13.0650 O.co2     1 ASP        -0.5688
     85 N         -19.4790  -15.3960   13.7020 N.am      1 GLU        -0.2693
     86 CA        -19.7520  -16.7190   13.1430 C.3       1 GLU         0.0959
     87 C         -20.2570  -16.6310   11.7040 C.2       1 GLU         0.0602
     88 O         -21.1970  -15.8910   11.4080 O.co2     1 GLU        -0.5666
     89 CB        -20.7680  -17.4660   14.0100 C.3       1 GLU        -0.0064
     90 CG        -22.0450  -16.6790   14.2930 C.3       1 GLU         0.0038
     91 CD        -23.1960  -17.5710   14.7130 C.2       1 GLU         0.0350
     92 OE1       -23.0840  -18.2470   15.7580 O.co2     1 GLU        -0.5690
     93 OE2       -24.2140  -17.6010   13.9900 O.co2     1 GLU        -0.5690
     94 OXT       -19.7350  -17.2980   10.8090 O.co2     1 GLU        -0.5666
     95 H1          9.4986   -9.5555   11.7028 H         1 GLU         0.2015
     96 H2          8.4902   -8.5071   10.9325 H         1 GLU         0.2015
     97 H3          8.8000   -9.9842   10.2754 H         1 GLU         0.2015
     98 H4          7.7324  -11.1020   12.0606 H         1 GLU         0.1099
     99 H5          8.3468   -9.0525   13.5846 H         1 GLU         0.0363
    100 H6          6.8630  -10.0141   13.9015 H         1 GLU         0.0363
    101 H7          6.1151   -7.8511   14.1654 H         1 GLU         0.0434
    102 H8          5.6775   -8.2010   12.4587 H         1 GLU         0.0434
    103 H9          5.4720  -11.5807   11.8973 H         1 ILE         0.1885
    104 H10         4.2282  -10.6370    9.4555 H         1 ILE         0.0803
    105 H11         3.8472  -12.9294   10.2804 H         1 ILE         0.0345
    106 H12         2.1148  -12.0214    8.8777 H         1 ILE         0.0267
    107 H13         1.3651  -11.1638   10.2666 H         1 ILE         0.0267
    108 H14         3.9837  -12.4407   12.7022 H         1 ILE         0.0235
    109 H15         2.5143  -13.3854   12.2840 H         1 ILE         0.0235
    110 H16         2.3852  -11.6254   12.6198 H         1 ILE         0.0235
    111 H17         0.0876  -13.1763    9.6580 H         1 ILE         0.0230
    112 H18         0.7990  -13.3323   11.3000 H         1 ILE         0.0230
    113 H19         1.5487  -14.1899    9.9111 H         1 ILE         0.0230
    114 H20         2.4627   -9.1589    9.2221 H         1 ARG         0.1883
    115 H21         2.1328   -7.2806   11.4275 H         1 ARG         0.0800
    116 H22         0.6134   -7.5621    8.7987 H         1 ARG         0.0313
    117 H23         1.9752   -6.4458    9.1539 H         1 ARG         0.0313
    118 H24         0.6117   -5.2162   10.7495 H         1 ARG         0.0301
    119 H25        -0.7351   -6.3887   10.5542 H         1 ARG         0.0301
    120 H26        -0.9593   -5.7121    8.1695 H         1 ARG         0.0689
    121 H27         0.3606   -4.5149    8.3959 H         1 ARG         0.0689
    122 H28        -1.0632   -3.1919    9.7744 H         1 ARG         0.2642
    123 H29        -4.2668   -5.5840    9.0435 H         1 ARG         0.2615
    124 H30        -2.6334   -6.1410    8.5910 H         1 ARG         0.2615
    125 H31        -3.1347   -2.5030   10.3674 H         1 ARG         0.2615
    126 H32        -4.5485   -3.5402   10.0386 H         1 ARG         0.2615
    127 H33         0.7367   -7.3866   13.0690 H         1 GLU         0.1883
    128 H34        -1.2820   -9.5405   13.1329 H         1 GLU         0.0801
    129 H35        -1.5509   -8.8139   15.5183 H         1 GLU         0.0330
    130 H36        -0.3102   -7.5480   15.2267 H         1 GLU         0.0330
    131 H37         0.7875   -9.3741   16.2797 H         1 GLU         0.0433
    132 H38         1.2689   -9.3982   14.5493 H         1 GLU         0.0433
    133 H39        -3.4971   -9.1959   13.7319 H         1 GLN         0.1883
    134 H40        -4.5390   -6.8925   12.2319 H         1 GLN         0.0801
    135 H41        -6.5969   -8.0737   12.0992 H         1 GLN         0.0337
    136 H42        -6.1683   -9.1337   13.4846 H         1 GLN         0.0337
    137 H43        -5.9679  -10.5104   11.6078 H         1 GLN         0.0504
    138 H44        -4.2810  -10.0267   11.9916 H         1 GLN         0.0504
    139 H45        -4.8791   -9.8165    8.2997 H         1 GLN         0.1814
    140 H46        -5.0505  -11.0569    9.4964 H         1 GLN         0.1814
    141 H47        -4.0422   -7.6702   15.4869 H         1 GLY         0.1881
    142 H48        -5.9370   -5.5212   16.3014 H         1 GLY         0.0763
    143 H49        -4.4921   -6.0580   17.2238 H         1 GLY         0.0763
    144 H50        -6.3858   -6.0076   18.8666 H         1 ASP         0.1884
    145 H51        -6.9755   -8.8046   19.4132 H         1 ASP         0.0819
    146 H52        -8.1416   -7.7833   21.4533 H         1 ASP         0.0478
    147 H53        -7.5532   -6.1923   20.8624 H         1 ASP         0.0478
    148 H54        -8.8737   -9.8481   19.2929 H         1 GLY         0.1881
    149 H55       -11.0032   -8.5562   17.7570 H         1 GLY         0.0763
    150 H56       -11.4360   -8.9210   19.4617 H         1 GLY         0.0763
    151 H57       -12.8969  -10.0772   17.5527 H         1 ALA         0.1883
    152 H58       -11.8526  -12.8061   17.0638 H         1 ALA         0.0797
    153 H59       -13.8455  -13.8296   18.1108 H         1 ALA         0.0277
    154 H60       -14.3899  -12.2081   18.6592 H         1 ALA         0.0277
    155 H61       -12.8719  -12.9137   19.3107 H         1 ALA         0.0277
    156 H62       -12.9892  -13.8825   15.3957 H         1 GLU         0.1883
    157 H63       -14.4568  -12.1770   13.5668 H         1 GLU         0.0801
    158 H64       -14.8379  -14.2544   12.2746 H         1 GLU         0.0330
    159 H65       -14.1806  -15.2188   13.6401 H         1 GLU         0.0330
    160 H66       -12.4973  -15.0382   11.9685 H         1 GLU         0.0433
    161 H67       -12.0190  -14.0091   13.3610 H         1 GLU         0.0433
    162 H68       -16.6598  -12.2552   13.0046 H         1 ASP         0.1884
    163 H69       -18.5541  -13.3137   14.9671 H         1 ASP         0.0819
    164 H70       -20.2398  -12.6948   13.2093 H         1 ASP         0.0478
    165 H71       -18.8833  -12.2200   12.1316 H         1 ASP         0.0478
    166 H72       -20.0748  -15.0355   14.4197 H         1 GLU         0.1875
    167 H73       -18.8114  -17.2892   13.1415 H         1 GLU         0.0727
    168 H74       -20.2907  -17.7069   14.9713 H         1 GLU         0.0323
    169 H75       -21.0437  -18.3975   13.4939 H         1 GLU         0.0323
    170 H76       -22.3342  -16.1362   13.3810 H         1 GLU         0.0432
    171 H77       -21.8441  -15.9591   15.1001 H         1 GLU         0.0432
@<TRIPOS>BOND
     1    1    2 1  
     2    2    3 1  
     3    2    5 1  
     4    3    4 2  
     5    3   10 am 
     6    5    6 1  
     7    6    7 1  
     8    7    8 ar 
     9    7    9 ar 
    10   10   11 1  
    11   11   12 1  
    12   11   14 1  
    13   12   13 2  
    14   12   18 am 
    15   14   15 1  
    16   14   16 1  
    17   15   17 1  
    18   18   19 1  
    19   19   20 1  
    20   19   22 1  
    21   20   21 2  
    22   20   29 am 
    23   22   23 1  
    24   23   24 1  
    25   24   25 1  
    26   25   26 ar 
    27   26   27 ar 
    28   26   28 ar 
    29   29   30 1  
    30   30   31 1  
    31   30   33 1  
    32   31   32 2  
    33   31   38 am 
    34   33   34 1  
    35   34   35 1  
    36   35   36 ar 
    37   35   37 ar 
    38   38   39 1  
    39   39   40 1  
    40   39   42 1  
    41   40   41 2  
    42   40   47 am 
    43   42   43 1  
    44   43   44 1  
    45   44   45 2  
    46   44   46 am 
    47   47   48 1  
    48   48   49 1  
    49   49   50 2  
    50   49   51 am 
    51   51   52 1  
    52   52   53 1  
    53   52   55 1  
    54   53   54 2  
    55   53   59 am 
    56   55   56 1  
    57   56   57 ar 
    58   56   58 ar 
    59   59   60 1  
    60   60   61 1  
    61   61   62 2  
    62   61   63 am 
    63   63   64 1  
    64   64   65 1  
    65   64   67 1  
    66   65   66 2  
    67   65   68 am 
    68   68   69 1  
    69   69   70 1  
    70   69   72 1  
    71   70   71 2  
    72   70   77 am 
    73   72   73 1  
    74   73   74 1  
    75   74   75 ar 
    76   74   76 ar 
    77   77   78 1  
    78   78   79 1  
    79   78   81 1  
    80   79   80 2  
    81   79   85 am 
    82   81   82 1  
    83   82   83 ar 
    84   82   84 ar 
    85   85   86 1  
    86   86   87 1  
    87   86   89 1  
    88   87   88 ar 
    89   87   94 ar 
    90   89   90 1  
    91   90   91 1  
    92   91   92 ar 
    93   91   93 ar 
    94    1   95 1  
    95    1   96 1  
    96    1   97 1  
    97    2   98 1  
    98    5   99 1  
    99    5  100 1  
   100    6  101 1  
   101    6  102 1  
   102   10  103 1  
   103   11  104 1  
   104   14  105 1  
   105   15  106 1  
   106   15  107 1  
   107   16  108 1  
   108   16  109 1  
   109   16  110 1  
   110   17  111 1  
   111   17  112 1  
   112   17  113 1  
   113   18  114 1  
   114   19  115 1  
   115   22  116 1  
   116   22  117 1  
   117   23  118 1  
   118   23  119 1  
   119   24  120 1  
   120   24  121 1  
   121   25  122 1  
   122   27  123 1  
   123   27  124 1  
   124   28  125 1  
   125   28  126 1  
   126   29  127 1  
   127   30  128 1  
   128   33  129 1  
   129   33  130 1  
   130   34  131 1  
   131   34  132 1  
   132   38  133 1  
   133   39  134 1  
   134   42  135 1  
   135   42  136 1  
   136   43  137 1  
   137   43  138 1  
   138   46  139 1  
   139   46  140 1  
   140   47  141 1  
   141   48  142 1  
   142   48  143 1  
   143   51  144 1  
   144   52  145 1  
   145   55  146 1  
   146   55  147 1  
   147   59  148 1  
   148   60  149 1  
   149   60  150 1  
   150   63  151 1  
   151   64  152 1  
   152   67  153 1  
   153   67  154 1  
   154   67  155 1  
   155   68  156 1  
   156   69  157 1  
   157   72  158 1  
   158   72  159 1  
   159   73  160 1  
   160   73  161 1  
   161   77  162 1  
   162   78  163 1  
   163   81  164 1  
   164   81  165 1  
   165   85  166 1  
   166   86  167 1  
   167   89  168 1  
   168   89  169 1  
   169   90  170 1  
   170   90  171 1  
@<TRIPOS>SUBSTRUCTURE
     1 GLU         1

