4z68_ligand
  -I-interpret- 

177176  0  0  0  0  0  0  0  0999 V2000
    8.6680   -9.4780   11.1370 N   0  3  0  0  0
    7.5310  -10.0390   11.8620 C   0  0  0  0  0
    6.2560   -9.9340   11.0250 C   0  0  0  0  0
    6.1280   -9.0310   10.2030 O   0  0  0  0  0
    7.3490   -9.3160   13.2040 C   0  0  0  0  0
    6.5120   -8.0400   13.1570 C   0  0  0  0  0
    7.2800   -6.8010   12.7060 C   0  0  0  0  0
    6.9460   -5.7000   13.2000 O   0  0  0  0  0
    8.1900   -6.9060   11.8550 O   0  0  0  0  0
    5.3080  -10.8460   11.2390 N   0  0  0  0  0
    4.0320  -10.7900   10.5270 C   0  0  0  0  0
    3.2070   -9.6140   11.0570 C   0  0  0  0  0
    3.2800   -9.2980   12.2410 O   0  0  0  0  0
    3.2440  -12.1140   10.7060 C   0  0  0  0  0
    1.9080  -12.0690    9.9570 C   0  0  0  0  0
    3.0160  -12.4120   12.1800 C   0  0  0  0  0
    1.0250  -13.2750   10.2250 C   0  0  0  0  0
    2.4400   -8.9420   10.1980 N   0  0  0  0  0
    1.5620   -7.8800   10.7030 C   0  0  0  0  0
    0.3520   -8.4810   11.4200 C   0  0  0  0  0
   -0.3500   -9.3180   10.8520 O   0  0  0  0  0
    1.0950   -6.9520    9.5770 C   0  0  0  0  0
    0.1010   -5.8880   10.0440 C   0  0  0  0  0
   -0.4600   -5.0520    8.8940 C   0  0  0  0  0
   -1.4230   -4.0900    9.4210 N   0  0  0  0  0
   -2.7350   -4.2990    9.4740 C   0  0  0  0  0
   -3.2500   -5.4250    9.0010 N   0  0  0  0  0
   -3.5320   -3.3790    9.9990 N   0  0  0  0  0
    0.1110   -8.0520   12.6620 N   0  0  0  0  0
   -1.0370   -8.5180   13.4560 C   0  0  0  0  0
   -2.2850   -7.6480   13.2650 C   0  0  0  0  0
   -2.1690   -6.4420   13.0270 O   0  0  0  0  0
   -0.6570   -8.5500   14.9340 C   0  0  0  0  0
    0.4360   -9.5480   15.2520 C   0  0  0  0  0
   -0.0490  -10.9770   15.1370 C   0  0  0  0  0
   -0.9210  -11.3730   15.9430 O   0  0  0  0  0
    0.4330  -11.7030   14.2400 O   0  0  0  0  0
   -3.4720   -8.2550   13.3940 N   0  0  0  0  0
   -4.7380   -7.5910   13.0580 C   0  0  0  0  0
   -5.3350   -6.8010   14.2120 C   0  0  0  0  0
   -6.2730   -6.0130   14.0270 O   0  0  0  0  0
   -5.7790   -8.6170   12.5950 C   0  0  0  0  0
   -5.2560   -9.6720   11.6260 C   0  0  0  0  0
   -5.0790   -9.1610   10.2040 C   0  0  0  0  0
   -5.0200   -7.9530    9.9580 O   0  0  0  0  0
   -4.9960  -10.0880    9.2550 N   0  0  0  0  0
   -4.8110   -7.0360   15.4050 N   0  0  0  0  0
   -5.3310   -6.3910   16.5950 C   0  0  0  0  0
   -6.1910   -7.3570   17.3800 C   0  0  0  0  0
   -6.4710   -8.4700   16.9150 O   0  0  0  0  0
   -6.6140   -6.9340   18.5670 N   0  0  0  0  0
   -7.4020   -7.7910   19.4390 C   0  0  0  0  0
   -8.8400   -7.8550   18.9720 C   0  0  0  0  0
   -9.4320   -6.8400   18.5980 O   0  0  0  0  0
   -7.3590   -7.2750   20.8710 C   0  0  0  0  0
   -6.0190   -7.5240   21.5350 C   0  0  0  0  0
   -5.5390   -8.6790   21.4960 O   0  0  0  0  0
   -5.4420   -6.5620   22.0860 O   0  0  0  0  0
   -9.4050   -9.0520   19.0030 N   0  0  0  0  0
  -10.7930   -9.2090   18.6170 C   0  0  0  0  0
  -11.0900  -10.6370   18.2360 C   0  0  0  0  0
  -10.2490  -11.5230   18.4190 O   0  0  0  0  0
  -12.2830  -10.8540   17.6930 N   0  0  0  0  0
  -12.7300  -12.1840   17.2940 C   0  0  0  0  0
  -13.6030  -12.0750   16.0580 C   0  0  0  0  0
  -14.2840  -11.0660   15.8610 O   0  0  0  0  0
  -13.5130  -12.8280   18.4210 C   0  0  0  0  0
  -13.6090  -13.1150   15.2320 N   0  0  0  0  0
  -14.5160  -13.1460   14.0840 C   0  0  0  0  0
  -15.9520  -13.3840   14.5240 C   0  0  0  0  0
  -16.1950  -14.0000   15.5630 O   0  0  0  0  0
  -14.1200  -14.2580   13.1080 C   0  0  0  0  0
  -12.7360  -14.1260   12.5350 C   0  0  0  0  0
  -12.6180  -12.9360   11.6150 C   0  0  0  0  0
  -13.6510  -12.5470   11.0290 O   0  0  0  0  0
  -11.4960  -12.3940   11.4730 O   0  0  0  0  0
  -16.9060  -12.8980   13.7300 N   0  0  0  0  0
  -18.2970  -13.2840   13.8980 C   0  0  0  0  0
  -18.4570  -14.6630   13.2770 C   0  0  0  0  0
  -17.6620  -15.0500   12.4180 O   0  0  0  0  0
  -19.2120  -12.3040   13.1780 C   0  0  0  0  0
  -19.2000  -10.9220   13.8020 C   0  0  0  0  0
  -19.4660  -10.8090   15.0200 O   0  0  0  0  0
  -18.9250   -9.9470   13.0650 O   0  0  0  0  0
  -19.4790  -15.3960   13.7020 N   0  0  0  0  0
  -19.7520  -16.7190   13.1430 C   0  0  0  0  0
  -20.2570  -16.6310   11.7040 C   0  0  0  0  0
  -21.1970  -15.8910   11.4080 O   0  0  0  0  0
  -20.7680  -17.4660   14.0100 C   0  0  0  0  0
  -22.0450  -16.6790   14.2930 C   0  0  0  0  0
  -23.1960  -17.5710   14.7130 C   0  0  0  0  0
  -23.0840  -18.2470   15.7580 O   0  0  0  0  0
  -24.2140  -17.6010   13.9900 O   0  0  0  0  0
  -19.7350  -17.2980   10.8090 O   0  0  0  0  0
    8.7777   -9.9666   10.2484 H   0  0  0  0  0
    8.5031   -8.4865   10.9631 H   0  0  0  0  0
    9.5144   -9.5904   11.6949 H   0  0  0  0  0
    7.7296  -11.0931   12.0557 H   0  0  0  0  0
    8.3449   -9.0211   13.5345 H   0  0  0  0  0
    6.8214  -10.0085   13.8599 H   0  0  0  0  0
    6.1620   -7.8486   14.1714 H   0  0  0  0  0
    5.7158   -8.2055   12.4312 H   0  0  0  0  0
    6.2336   -5.8357   13.8290 H   0  0  0  0  0
    5.4753  -11.5954   11.9105 H   0  0  0  0  0
    4.2273  -10.6512    9.4637 H   0  0  0  0  0
    3.8447  -12.9173   10.2794 H   0  0  0  0  0
    2.1300  -12.0552    8.8899 H   0  0  0  0  0
    1.3694  -11.1852   10.2989 H   0  0  0  0  0
    3.9782  -12.5043   12.6838 H   0  0  0  0  0
    2.4455  -11.5994   12.6296 H   0  0  0  0  0
    2.4615  -13.3452   12.2792 H   0  0  0  0  0
    1.5451  -14.1809    9.9136 H   0  0  0  0  0
    0.8018  -13.3307   11.2905 H   0  0  0  0  0
    0.0965  -13.1760    9.6627 H   0  0  0  0  0
    2.4632   -9.1632    9.2025 H   0  0  0  0  0
    2.1399   -7.2868   11.4117 H   0  0  0  0  0
    0.5930   -7.5668    8.8300 H   0  0  0  0  0
    1.9733   -6.4354    9.1900 H   0  0  0  0  0
    0.6279   -5.2139   10.7193 H   0  0  0  0  0
   -0.7344   -6.3999   10.5217 H   0  0  0  0  0
   -0.9538   -5.7057    8.1751 H   0  0  0  0  0
    0.3529   -4.5205    8.3993 H   0  0  0  0  0
   -1.0667   -3.2006    9.7710 H   0  0  0  0  0
   -2.6394   -6.1340    8.5950 H   0  0  0  0  0
   -4.5387   -3.5386   10.0382 H   0  0  0  0  0
   -3.1386   -2.5115   10.3638 H   0  0  0  0  0
    0.7492   -7.3733   13.0772 H   0  0  0  0  0
   -1.2864   -9.5188   13.1033 H   0  0  0  0  0
   -1.5440   -8.8441   15.4951 H   0  0  0  0  0
   -0.2856   -7.5602   15.1994 H   0  0  0  0  0
    0.7619   -9.3805   16.2786 H   0  0  0  0  0
    1.2464   -9.4048   14.5372 H   0  0  0  0  0
   -1.1481  -10.6591   16.5433 H   0  0  0  0  0
   -3.4976   -9.2147   13.7386 H   0  0  0  0  0
   -4.4941   -6.8903   12.2595 H   0  0  0  0  0
   -6.5552   -8.0623   12.0679 H   0  0  0  0  0
   -6.1167   -9.1470   13.4856 H   0  0  0  0  0
   -5.9893  -10.4778   11.5942 H   0  0  0  0  0
   -4.2757   -9.9864   11.9840 H   0  0  0  0  0
   -4.8789   -9.8110    8.2803 H   0  0  0  0  0
   -5.0494  -11.0763    9.5014 H   0  0  0  0  0
   -4.0268   -7.6829   15.4885 H   0  0  0  0  0
   -5.9358   -5.5334   16.3004 H   0  0  0  0  0
   -4.4975   -6.0678   17.2186 H   0  0  0  0  0
   -6.3813   -5.9891   18.8726 H   0  0  0  0  0
   -6.9722   -8.7920   19.4025 H   0  0  0  0  0
   -8.1221   -7.8031   21.4428 H   0  0  0  0  0
   -7.5286   -6.1985   20.8468 H   0  0  0  0  0
   -6.1431   -9.2597   21.0276 H   0  0  0  0  0
   -8.8631   -9.8640   19.2987 H   0  0  0  0  0
  -10.9911   -8.5693   17.7570 H   0  0  0  0  0
  -11.4241   -8.9342   19.4622 H   0  0  0  0  0
  -12.9092  -10.0617   17.5499 H   0  0  0  0  0
  -11.8607  -12.8023   17.0701 H   0  0  0  0  0
  -12.8766  -12.9123   19.3019 H   0  0  0  0  0
  -14.3815  -12.2128   18.6561 H   0  0  0  0  0
  -13.8419  -13.8203   18.1125 H   0  0  0  0  0
  -12.9768  -13.8978   15.3990 H   0  0  0  0  0
  -14.4417  -12.1760   13.5923 H   0  0  0  0  0
  -14.8164  -14.2089   12.2709 H   0  0  0  0  0
  -14.1450  -15.1941   13.6658 H   0  0  0  0  0
  -12.5176  -15.0255   11.9594 H   0  0  0  0  0
  -12.0365  -13.9905   13.3599 H   0  0  0  0  0
  -10.8493  -12.8532   12.0139 H   0  0  0  0  0
  -16.6549  -12.2424   12.9901 H   0  0  0  0  0
  -18.5628  -13.2870   14.9551 H   0  0  0  0  0
  -20.2296  -12.6897   13.2405 H   0  0  0  0  0
  -18.8584  -12.2098   12.1513 H   0  0  0  0  0
  -18.7553  -10.2592   12.1732 H   0  0  0  0  0
  -20.0867  -15.0283   14.4341 H   0  0  0  0  0
  -18.8122  -17.2710   13.1350 H   0  0  0  0  0
  -21.5043  -15.4354   12.1952 H   0  0  0  0  0
  -20.2904  -17.6613   14.9701 H   0  0  0  0  0
  -21.0574  -18.3647   13.4653 H   0  0  0  0  0
  -22.3343  -16.1666   13.3755 H   0  0  0  0  0
  -21.8397  -15.9879   15.1105 H   0  0  0  0  0
  -22.2284  -18.0759   16.1583 H   0  0  0  0  0
  1  2  1  0  0  0
  2  3  1  0  0  0
  2  5  1  0  0  0
  3  4  2  0  0  0
  3 10  1  0  0  0
  5  6  1  0  0  0
  6  7  1  0  0  0
  7  8  1  0  0  0
  7  9  2  0  0  0
 10 11  1  0  0  0
 11 12  1  0  0  0
 11 14  1  0  0  0
 12 13  2  0  0  0
 12 18  1  0  0  0
 14 15  1  0  0  0
 14 16  1  0  0  0
 15 17  1  0  0  0
 18 19  1  0  0  0
 19 20  1  0  0  0
 19 22  1  0  0  0
 20 21  2  0  0  0
 20 29  1  0  0  0
 22 23  1  0  0  0
 23 24  1  0  0  0
 24 25  1  0  0  0
 25 26  1  0  0  0
 26 27  2  0  0  0
 26 28  1  0  0  0
 29 30  1  0  0  0
 30 31  1  0  0  0
 30 33  1  0  0  0
 31 32  2  0  0  0
 31 38  1  0  0  0
 33 34  1  0  0  0
 34 35  1  0  0  0
 35 36  1  0  0  0
 35 37  2  0  0  0
 38 39  1  0  0  0
 39 40  1  0  0  0
 39 42  1  0  0  0
 40 41  2  0  0  0
 40 47  1  0  0  0
 42 43  1  0  0  0
 43 44  1  0  0  0
 44 45  2  0  0  0
 44 46  1  0  0  0
 47 48  1  0  0  0
 48 49  1  0  0  0
 49 50  2  0  0  0
 49 51  1  0  0  0
 51 52  1  0  0  0
 52 53  1  0  0  0
 52 55  1  0  0  0
 53 54  2  0  0  0
 53 59  1  0  0  0
 55 56  1  0  0  0
 56 57  1  0  0  0
 56 58  2  0  0  0
 59 60  1  0  0  0
 60 61  1  0  0  0
 61 62  2  0  0  0
 61 63  1  0  0  0
 63 64  1  0  0  0
 64 65  1  0  0  0
 64 67  1  0  0  0
 65 66  2  0  0  0
 65 68  1  0  0  0
 68 69  1  0  0  0
 69 70  1  0  0  0
 69 72  1  0  0  0
 70 71  2  0  0  0
 70 77  1  0  0  0
 72 73  1  0  0  0
 73 74  1  0  0  0
 74 75  2  0  0  0
 74 76  1  0  0  0
 77 78  1  0  0  0
 78 79  1  0  0  0
 78 81  1  0  0  0
 79 80  2  0  0  0
 79 85  1  0  0  0
 81 82  1  0  0  0
 82 83  2  0  0  0
 82 84  1  0  0  0
 85 86  1  0  0  0
 86 87  1  0  0  0
 86 89  1  0  0  0
 87 88  1  0  0  0
 87 94  2  0  0  0
 89 90  1  0  0  0
 90 91  1  0  0  0
 91 92  1  0  0  0
 91 93  2  0  0  0
  1 95  1  0  0  0
  1 96  1  0  0  0
  1 97  1  0  0  0
  2 98  1  0  0  0
  5 99  1  0  0  0
  5100  1  0  0  0
  6101  1  0  0  0
  6102  1  0  0  0
  8103  1  0  0  0
 10104  1  0  0  0
 11105  1  0  0  0
 14106  1  0  0  0
 15107  1  0  0  0
 15108  1  0  0  0
 16109  1  0  0  0
 16110  1  0  0  0
 16111  1  0  0  0
 17112  1  0  0  0
 17113  1  0  0  0
 17114  1  0  0  0
 18115  1  0  0  0
 19116  1  0  0  0
 22117  1  0  0  0
 22118  1  0  0  0
 23119  1  0  0  0
 23120  1  0  0  0
 24121  1  0  0  0
 24122  1  0  0  0
 25123  1  0  0  0
 27124  1  0  0  0
 28125  1  0  0  0
 28126  1  0  0  0
 29127  1  0  0  0
 30128  1  0  0  0
 33129  1  0  0  0
 33130  1  0  0  0
 34131  1  0  0  0
 34132  1  0  0  0
 36133  1  0  0  0
 38134  1  0  0  0
 39135  1  0  0  0
 42136  1  0  0  0
 42137  1  0  0  0
 43138  1  0  0  0
 43139  1  0  0  0
 46140  1  0  0  0
 46141  1  0  0  0
 47142  1  0  0  0
 48143  1  0  0  0
 48144  1  0  0  0
 51145  1  0  0  0
 52146  1  0  0  0
 55147  1  0  0  0
 55148  1  0  0  0
 57149  1  0  0  0
 59150  1  0  0  0
 60151  1  0  0  0
 60152  1  0  0  0
 63153  1  0  0  0
 64154  1  0  0  0
 67155  1  0  0  0
 67156  1  0  0  0
 67157  1  0  0  0
 68158  1  0  0  0
 69159  1  0  0  0
 72160  1  0  0  0
 72161  1  0  0  0
 73162  1  0  0  0
 73163  1  0  0  0
 76164  1  0  0  0
 77165  1  0  0  0
 78166  1  0  0  0
 81167  1  0  0  0
 81168  1  0  0  0
 84169  1  0  0  0
 85170  1  0  0  0
 86171  1  0  0  0
 88172  1  0  0  0
 89173  1  0  0  0
 89174  1  0  0  0
 90175  1  0  0  0
 90176  1  0  0  0
 92177  1  0  0  0
M  END
$$$$
