6pit_ligand
  -I-interpret- 

149153  0  0  0  0  0  0  0  0999 V2000
   -7.1920   17.0500   21.4640 N   0  3  0  0  0
   -7.3450   17.7320   22.7270 C   0  0  0  0  0
   -7.3430   16.7360   23.9840 C   0  0  0  0  0
   -6.8730   17.0630   25.0310 O   0  0  0  0  0
   -8.4580   18.7990   22.7610 C   0  0  0  0  0
   -7.8260   15.5340   23.8060 N   0  0  0  0  0
   -7.9460   14.6330   24.9360 C   0  0  0  0  0
   -6.6450   14.3850   25.7020 C   0  0  0  0  0
   -6.5960   14.5550   26.9010 O   0  0  0  0  0
   -8.5960   13.3220   24.4970 C   0  0  0  0  0
   -9.5820   12.7260   25.5020 C   0  0  0  0  0
   -9.0950   12.8180   26.9470 C   0  0  0  0  0
   -9.6870   11.7420   27.8450 C   0  0  0  0  0
   -9.2750   11.8870   29.2820 N   0  3  0  0  0
   -5.6150   13.9540   24.9770 N   0  0  0  0  0
   -4.3020   13.5870   25.4980 C   0  0  0  0  0
   -3.6410   14.8630   25.9740 C   0  0  0  0  0
   -3.0240   14.9060   26.9970 O   0  0  0  0  0
   -3.4710   12.9270   24.3910 C   0  0  0  0  0
   -2.5700   11.7150   24.5980 C   0  0  0  0  0
   -1.7270   11.4410   23.3730 C   0  0  0  0  0
   -1.6930   11.7940   25.8060 C   0  0  0  0  0
   -3.8070   15.8970   25.1740 N   0  0  0  0  0
   -3.4110   17.2460   25.4750 C   0  0  0  0  0
   -3.8210   17.6620   26.8750 C   0  0  0  0  0
   -3.1030   18.3990   27.5220 O   0  0  0  0  0
   -4.1080   18.1560   24.5030 C   0  0  0  0  0
   -3.2820   18.5420   23.3340 C   0  0  0  0  0
   -3.5110   18.0540   22.0720 N   0  0  0  0  0
   -2.2480   19.3980   23.2230 C   0  0  0  0  0
   -2.6390   18.5760   21.2320 C   0  0  0  0  0
   -1.8650   19.4000   21.9080 N   0  0  0  0  0
   -4.9270   17.1710   27.3880 N   0  0  0  0  0
   -5.2290   17.5030   28.7600 C   0  0  0  0  0
   -4.5510   16.5360   29.7570 C   0  0  0  0  0
   -3.5790   16.9030   30.3700 O   0  0  0  0  0
   -6.7170   17.6620   28.9900 C   0  0  0  0  0
   -9.4560   12.3560   30.6200 C   0  0  0  0  0
   -8.4270   11.4590   31.3670 C   0  0  0  0  0
   -7.0190   10.7720   30.7390 N   0  0  0  0  0
   -6.7980   10.4460   32.0170 C   0  0  0  0  0
   -7.6540   10.0120   32.7170 O   0  0  0  0  0
   -5.8320   11.2140   30.3050 C   0  0  0  0  0
   -4.7280   11.2320   31.3390 C   0  0  0  0  0
   -5.3900   10.6490   32.5500 C   0  0  0  0  0
   -5.6600   11.5900   29.1770 O   0  0  0  0  0
  -10.1890   13.4480   31.0350 O   0  0  0  0  0
   -4.1220   15.2210   29.6840 N   0  0  0  0  0
   -3.5770   14.5380   30.7920 C   0  0  0  0  0
   -3.2040   13.1780   30.9780 C   0  0  0  0  0
   -4.3590   12.5470   31.7840 C   0  0  0  0  0
   -4.1080   12.3270   33.0920 O   0  0  0  0  0
   -5.2450   11.6980   33.5110 C   0  0  0  0  0
   -6.0030   12.8980   33.2430 C   0  0  0  0  0
   -5.4680   13.4360   32.0610 C   0  0  0  0  0
   -2.1880   14.9870   30.9320 C   0  0  0  0  0
   -1.3620   14.9460   32.0110 O   0  0  0  0  0
   -1.4750   15.5390   29.7940 N   0  0  0  0  0
   -0.2030   16.2840   30.0500 C   0  0  0  0  0
   -0.4700   17.7200   30.4210 C   0  0  0  0  0
    0.4290   18.5300   30.3820 O   0  0  0  0  0
    0.5350   16.1950   28.7230 C   0  0  0  0  0
    0.6370   14.8210   28.0830 C   0  0  0  0  0
    0.4140   14.8710   26.6000 C   0  0  0  0  0
    1.9850   14.2180   28.3590 C   0  0  0  0  0
   -1.7530   18.0570   30.7660 N   0  0  0  0  0
   -2.1620   19.2680   31.3920 C   0  0  0  0  0
   -1.3860   20.5020   30.8970 C   0  0  0  0  0
   -1.7600   21.1430   29.9210 O   0  0  0  0  0
   -2.0620   19.1770   32.9280 C   0  0  0  0  0
   -1.1780   18.0750   33.4830 C   0  0  0  0  0
   -1.9820   16.9450   34.1060 C   0  0  0  0  0
   -3.1900   16.9120   33.9780 O   0  0  0  0  0
   -1.3030   16.0000   34.7740 N   0  0  0  0  0
   -0.3680   20.8860   31.4620 O   0  0  0  0  0
   -6.4375   16.3675   21.5367 H   0  0  0  0  0
   -8.0623   16.5728   21.2290 H   0  0  0  0  0
   -6.9684   17.7295   20.7369 H   0  0  0  0  0
   -6.4366   18.3257   22.8292 H   0  0  0  0  0
   -9.4306   18.3072   22.7792 H   0  0  0  0  0
   -8.3434   19.4134   23.6540 H   0  0  0  0  0
   -8.3839   19.4278   21.8738 H   0  0  0  0  0
   -8.1171   15.2314   22.8764 H   0  0  0  0  0
   -8.5905   15.1395   25.6545 H   0  0  0  0  0
   -7.7921   12.5962   24.3744 H   0  0  0  0  0
   -9.1607   13.5374   23.5899 H   0  0  0  0  0
   -9.7034   11.6701   25.2602 H   0  0  0  0  0
  -10.5111   13.2913   25.4292 H   0  0  0  0  0
   -9.4054   13.7859   27.3405 H   0  0  0  0  0
   -8.0130   12.6866   26.9412 H   0  0  0  0  0
   -9.3247   10.7769   27.4909 H   0  0  0  0  0
  -10.7724   11.8310   27.7996 H   0  0  0  0  0
   -8.5785   12.6007   29.0676 H   0  0  0  0  0
   -9.5625   10.9371   29.5175 H   0  0  0  0  0
   -5.7557   13.8733   23.9700 H   0  0  0  0  0
   -4.3867   12.8744   26.3184 H   0  0  0  0  0
   -2.7592   13.7100   24.1297 H   0  0  0  0  0
   -4.2364   12.5415   23.7175 H   0  0  0  0  0
   -3.2573   10.8865   24.7693 H   0  0  0  0  0
   -2.3787   11.2477   22.5209 H   0  0  0  0  0
   -1.1003   12.3078   23.1635 H   0  0  0  0  0
   -1.0965   10.5706   23.5547 H   0  0  0  0  0
   -1.0415   12.6640   25.7241 H   0  0  0  0  0
   -2.3128   11.8853   26.6980 H   0  0  0  0  0
   -1.0875   10.8901   25.8736 H   0  0  0  0  0
   -4.2508   15.7271   24.2714 H   0  0  0  0  0
   -2.3252   17.3089   25.4032 H   0  0  0  0  0
   -4.3545   19.0722   25.0397 H   0  0  0  0  0
   -4.9743   17.6160   24.1209 H   0  0  0  0  0
   -1.8001   19.9799   24.0285 H   0  0  0  0  0
   -2.5706   18.3630   20.1652 H   0  0  0  0  0
   -5.5482   16.5780   26.8377 H   0  0  0  0  0
   -4.7924   18.4815   28.9600 H   0  0  0  0  0
   -7.0984   18.4606   28.3537 H   0  0  0  0  0
   -7.2230   16.7280   28.7456 H   0  0  0  0  0
   -6.8971   17.9114   30.0357 H   0  0  0  0  0
  -10.3288   12.7398   31.1481 H   0  0  0  0  0
   -9.0256   10.5712   31.5709 H   0  0  0  0  0
   -8.0169   12.1622   32.0919 H   0  0  0  0  0
   -3.8502   10.7384   30.9220 H   0  0  0  0  0
   -5.0318    9.7255   33.0049 H   0  0  0  0  0
  -10.1337   13.5248   31.9903 H   0  0  0  0  0
   -4.2032   14.7273   28.7951 H   0  0  0  0  0
   -4.4665   14.7173   31.3960 H   0  0  0  0  0
   -2.2529   13.0906   31.5033 H   0  0  0  0  0
   -3.0535   12.6689   30.0260 H   0  0  0  0  0
   -5.4172   11.2329   34.4816 H   0  0  0  0  0
   -6.8225   13.3031   33.8366 H   0  0  0  0  0
   -5.8034   14.3047   31.4944 H   0  0  0  0  0
   -1.8317   15.4220   28.8456 H   0  0  0  0  0
    0.3638   15.8695   30.8837 H   0  0  0  0  0
    1.5595   16.5041   28.9304 H   0  0  0  0  0
   -0.0338   16.8080   28.0239 H   0  0  0  0  0
   -0.1464   14.2044   28.5236 H   0  0  0  0  0
   -0.5806   15.2679   26.3966 H   0  0  0  0  0
    1.1644   15.5158   26.1426 H   0  0  0  0  0
    0.4967   13.8655   26.1873 H   0  0  0  0  0
    2.7613   14.8626   27.9466 H   0  0  0  0  0
    2.1250   14.1217   29.4357 H   0  0  0  0  0
    2.0434   13.2338   27.8943 H   0  0  0  0  0
   -2.4827   17.3764   30.5544 H   0  0  0  0  0
   -3.2055   19.4000   31.1059 H   0  0  0  0  0
   -2.5606   20.7481   29.5679 H   0  0  0  0  0
   -3.0699   18.9649   33.2848 H   0  0  0  0  0
   -1.6182   20.1161   33.2585 H   0  0  0  0  0
   -0.5472   18.5078   34.2594 H   0  0  0  0  0
   -0.5976   17.6610   32.6585 H   0  0  0  0  0
   -1.8012   15.2170   35.1972 H   0  0  0  0  0
   -0.2886   16.0646   34.8587 H   0  0  0  0  0
  1  2  1  0  0  0
  2  3  1  0  0  0
  2  5  1  0  0  0
  3  4  2  0  0  0
  3  6  1  0  0  0
  6  7  1  0  0  0
  7  8  1  0  0  0
  7 10  1  0  0  0
  8  9  2  0  0  0
  8 15  1  0  0  0
 10 11  1  0  0  0
 11 12  1  0  0  0
 12 13  1  0  0  0
 13 14  1  0  0  0
 14 38  1  0  0  0
 15 16  1  0  0  0
 16 17  1  0  0  0
 16 19  1  0  0  0
 17 18  2  0  0  0
 17 23  1  0  0  0
 19 20  1  0  0  0
 20 21  1  0  0  0
 20 22  1  0  0  0
 23 24  1  0  0  0
 24 25  1  0  0  0
 24 27  1  0  0  0
 25 26  2  0  0  0
 25 33  1  0  0  0
 27 28  1  0  0  0
 28 29  4  0  0  0
 28 30  4  0  0  0
 29 31  4  0  0  0
 30 32  4  0  0  0
 31 32  4  0  0  0
 33 34  1  0  0  0
 34 35  1  0  0  0
 34 37  1  0  0  0
 35 36  2  0  0  0
 35 48  1  0  0  0
 38 39  1  0  0  0
 38 47  1  0  0  0
 39 40  1  0  0  0
 40 41  1  0  0  0
 40 43  1  0  0  0
 41 42  2  0  0  0
 41 45  1  0  0  0
 43 44  1  0  0  0
 43 46  2  0  0  0
 44 45  1  0  0  0
 44 51  1  0  0  0
 45 53  1  0  0  0
 48 49  1  0  0  0
 49 50  1  0  0  0
 49 56  1  0  0  0
 50 51  1  0  0  0
 51 52  1  0  0  0
 51 55  1  0  0  0
 52 53  1  0  0  0
 53 54  1  0  0  0
 54 55  2  0  0  0
 56 57  2  0  0  0
 56 58  1  0  0  0
 58 59  1  0  0  0
 59 60  1  0  0  0
 59 62  1  0  0  0
 60 61  2  0  0  0
 60 66  1  0  0  0
 62 63  1  0  0  0
 63 64  1  0  0  0
 63 65  1  0  0  0
 66 67  1  0  0  0
 67 68  1  0  0  0
 67 70  1  0  0  0
 68 69  1  0  0  0
 68 75  2  0  0  0
 70 71  1  0  0  0
 71 72  1  0  0  0
 72 73  2  0  0  0
 72 74  1  0  0  0
  1 76  1  0  0  0
  1 77  1  0  0  0
  1 78  1  0  0  0
  2 79  1  0  0  0
  5 80  1  0  0  0
  5 81  1  0  0  0
  5 82  1  0  0  0
  6 83  1  0  0  0
  7 84  1  0  0  0
 10 85  1  0  0  0
 10 86  1  0  0  0
 11 87  1  0  0  0
 11 88  1  0  0  0
 12 89  1  0  0  0
 12 90  1  0  0  0
 13 91  1  0  0  0
 13 92  1  0  0  0
 14 93  1  0  0  0
 14 94  1  0  0  0
 15 95  1  0  0  0
 16 96  1  0  0  0
 19 97  1  0  0  0
 19 98  1  0  0  0
 20 99  1  0  0  0
 21100  1  0  0  0
 21101  1  0  0  0
 21102  1  0  0  0
 22103  1  0  0  0
 22104  1  0  0  0
 22105  1  0  0  0
 23106  1  0  0  0
 24107  1  0  0  0
 27108  1  0  0  0
 27109  1  0  0  0
 30110  1  0  0  0
 31111  1  0  0  0
 33112  1  0  0  0
 34113  1  0  0  0
 37114  1  0  0  0
 37115  1  0  0  0
 37116  1  0  0  0
 38117  1  0  0  0
 39118  1  0  0  0
 39119  1  0  0  0
 44120  1  0  0  0
 45121  1  0  0  0
 47122  1  0  0  0
 48123  1  0  0  0
 49124  1  0  0  0
 50125  1  0  0  0
 50126  1  0  0  0
 53127  1  0  0  0
 54128  1  0  0  0
 55129  1  0  0  0
 58130  1  0  0  0
 59131  1  0  0  0
 62132  1  0  0  0
 62133  1  0  0  0
 63134  1  0  0  0
 64135  1  0  0  0
 64136  1  0  0  0
 64137  1  0  0  0
 65138  1  0  0  0
 65139  1  0  0  0
 65140  1  0  0  0
 66141  1  0  0  0
 67142  1  0  0  0
 69143  1  0  0  0
 70144  1  0  0  0
 70145  1  0  0  0
 71146  1  0  0  0
 71147  1  0  0  0
 74148  1  0  0  0
 74149  1  0  0  0
M  END
$$$$
