### 
### Created by X-TOOL on Mon Aug  2 16:11:48 2021
### 

@<TRIPOS>MOLECULE
6pit_ligand
  149   153     1     0     0
SMALL
GAST_HUCK


@<TRIPOS>ATOM
      1 N          -7.1920   17.0500   21.4640 N.4       1 LYS         0.2377
      2 CA         -7.3450   17.7320   22.7270 C.3       1 LYS         0.0621
      3 C          -7.3430   16.7360   23.9840 C.2       1 LYS         0.2264
      4 O          -6.8730   17.0630   25.0310 O.2       1 LYS        -0.3907
      5 CB         -8.4580   18.7990   22.7610 C.3       1 LYS        -0.0040
      6 N          -7.8260   15.5340   23.8060 N.am      1 LYS        -0.2610
      7 CA         -7.9460   14.6330   24.9360 C.3       1 LYS         0.1311
      8 C          -6.6450   14.3850   25.7020 C.2       1 LYS         0.2039
      9 O          -6.5960   14.5550   26.9010 O.2       1 LYS        -0.3944
     10 CB         -8.5960   13.3220   24.4970 C.3       1 LYS        -0.0122
     11 CG         -9.5820   12.7260   25.5020 C.3       1 LYS        -0.0440
     12 CD         -9.0950   12.8180   26.9470 C.3       1 LYS        -0.0123
     13 CE         -9.6870   11.7420   27.8450 C.3       1 LYS        -0.0311
     14 NZ         -9.2750   11.8870   29.2820 N.4       1 LYS         0.2508
     15 N          -5.6150   13.9540   24.9770 N.am      1 LYS        -0.2637
     16 CA         -4.3020   13.5870   25.4980 C.3       1 LYS         0.1312
     17 C          -3.6410   14.8630   25.9740 C.2       1 LYS         0.2040
     18 O          -3.0240   14.9060   26.9970 O.2       1 LYS        -0.3944
     19 CB         -3.4710   12.9270   24.3910 C.3       1 LYS        -0.0101
     20 CG         -2.5700   11.7150   24.5980 C.3       1 LYS        -0.0425
     21 CD1        -1.7270   11.4410   23.3730 C.3       1 LYS        -0.0625
     22 CD2        -1.6930   11.7940   25.8060 C.3       1 LYS        -0.0625
     23 N          -3.8070   15.8970   25.1740 N.am      1 LYS        -0.2625
     24 CA         -3.4110   17.2460   25.4750 C.3       1 LYS         0.1369
     25 C          -3.8210   17.6620   26.8750 C.2       1 LYS         0.2054
     26 O          -3.1030   18.3990   27.5220 O.2       1 LYS        -0.3942
     27 CB         -4.1080   18.1560   24.5030 C.3       1 LYS         0.0145
     28 CG         -3.2820   18.5420   23.3340 C.2       1 LYS        -0.0027
     29 ND1        -3.5110   18.0540   22.0720 N.2       1 LYS        -0.3252
     30 CD2        -2.2480   19.3980   23.2230 C.2       1 LYS         0.0291
     31 CE1        -2.6390   18.5760   21.2320 C.2       1 LYS         0.0907
     32 NE2        -1.8650   19.4000   21.9080 N.pl3     1 LYS        -0.2752
     33 N          -4.9270   17.1710   27.3880 N.am      1 LYS        -0.2639
     34 CA         -5.2290   17.5030   28.7600 C.3       1 LYS         0.1282
     35 C          -4.5510   16.5360   29.7570 C.2       1 LYS         0.2036
     36 O          -3.5790   16.9030   30.3700 O.2       1 LYS        -0.3944
     37 CB         -6.7170   17.6620   28.9900 C.3       1 LYS        -0.0244
     38 C21        -9.4560   12.3560   30.6200 C.3       1 LYS         0.1054
     39 C22        -8.4270   11.4590   31.3670 C.3       1 LYS         0.1271
     40 N23        -7.0190   10.7720   30.7390 N.am      1 LYS        -0.1774
     41 C24        -6.7980   10.4460   32.0170 C.2       1 LYS         0.2194
     42 O25        -7.6540   10.0120   32.7170 O.2       1 LYS        -0.3851
     43 C26        -5.8320   11.2140   30.3050 C.2       1 LYS         0.2031
     44 C27        -4.7280   11.2320   31.3390 C.3       1 LYS         0.0705
     45 C28        -5.3900   10.6490   32.5500 C.3       1 LYS         0.1166
     46 O29        -5.6600   11.5900   29.1770 O.2       1 LYS        -0.3868
     47 O30       -10.1890   13.4480   31.0350 O.3       1 LYS        -0.3506
     48 N52        -4.1220   15.2210   29.6840 N.am      1 LYS        -0.2648
     49 C53        -3.5770   14.5380   30.7920 C.3       1 LYS         0.1224
     50 C54        -3.2040   13.1780   30.9780 C.3       1 LYS        -0.0217
     51 C55        -4.3590   12.5470   31.7840 C.3       1 LYS         0.0609
     52 O56        -4.1080   12.3270   33.0920 O.3       1 LYS        -0.3918
     53 C57        -5.2450   11.6980   33.5110 C.3       1 LYS         0.1421
     54 C58        -6.0030   12.8980   33.2430 C.2       1 LYS         0.0163
     55 C59        -5.4680   13.4360   32.0610 C.2       1 LYS        -0.0542
     56 C60        -2.1880   14.9870   30.9320 C.2       1 LYS         0.2028
     57 O93        -1.3620   14.9460   32.0110 O.2       1 LYS        -0.3944
     58 N          -1.4750   15.5390   29.7940 N.am      1 LYS        -0.2638
     59 CA         -0.2030   16.2840   30.0500 C.3       1 LYS         0.1312
     60 C          -0.4700   17.7200   30.4210 C.2       1 LYS         0.2034
     61 O           0.4290   18.5300   30.3820 O.2       1 LYS        -0.3944
     62 CB          0.5350   16.1950   28.7230 C.3       1 LYS        -0.0101
     63 CG          0.6370   14.8210   28.0830 C.3       1 LYS        -0.0425
     64 CD1         0.4140   14.8710   26.6000 C.3       1 LYS        -0.0625
     65 CD2         1.9850   14.2180   28.3590 C.3       1 LYS        -0.0625
     66 N          -1.7530   18.0570   30.7660 N.am      1 LYS        -0.2693
     67 CA         -2.1620   19.2680   31.3920 C.3       1 LYS         0.0964
     68 C          -1.3860   20.5020   30.8970 C.2       1 LYS         0.0602
     69 O          -1.7600   21.1430   29.9210 O.co2     1 LYS        -0.5666
     70 CB         -2.0620   19.1770   32.9280 C.3       1 LYS        -0.0010
     71 CG         -1.1780   18.0750   33.4830 C.3       1 LYS         0.0407
     72 CD         -1.9820   16.9450   34.1060 C.2       1 LYS         0.1737
     73 OE1        -3.1900   16.9120   33.9780 O.2       1 LYS        -0.3973
     74 NE2        -1.3030   16.0000   34.7740 N.am      1 LYS        -0.3009
     75 OXT        -0.3680   20.8860   31.4620 O.co2     1 LYS        -0.5666
     76 H1         -7.2006   17.7243   20.7148 H         1 LYS         0.2015
     77 H2         -7.9518   16.3994   21.3392 H         1 LYS         0.2015
     78 H3         -6.3168   16.5501   21.4559 H         1 LYS         0.2015
     79 H4         -6.4167   18.3119   22.8363 H         1 LYS         0.1095
     80 H5         -8.4948   19.2587   23.7597 H         1 LYS         0.0310
     81 H6         -9.4261   18.3262   22.5391 H         1 LYS         0.0310
     82 H7         -8.2469   19.5732   22.0086 H         1 LYS         0.0310
     83 H8         -8.1114   15.2373   22.8947 H         1 LYS         0.1884
     84 H9         -8.6341   15.1139   25.6468 H         1 LYS         0.0800
     85 H10        -7.7975   12.5856   24.3235 H         1 LYS         0.0312
     86 H11        -9.1358   13.5060   23.5564 H         1 LYS         0.0312
     87 H12        -9.7386   11.6662   25.2523 H         1 LYS         0.0269
     88 H13       -10.5361   13.2671   25.4192 H         1 LYS         0.0269
     89 H14        -9.3752   13.8028   27.3490 H         1 LYS         0.0317
     90 H15        -7.9997   12.7169   26.9546 H         1 LYS         0.0317
     91 H16        -9.3528   10.7590   27.4818 H         1 LYS         0.0814
     92 H17       -10.7839   11.8009   27.7869 H         1 LYS         0.0814
     93 H18        -8.3635   12.2862   29.1214 H         1 LYS         0.2042
     94 H19        -9.1797   10.9063   29.4946 H         1 LYS         0.2042
     95 H20        -5.7529   13.8748   23.9897 H         1 LYS         0.1883
     96 H21        -4.4116   12.8861   26.3386 H         1 LYS         0.0800
     97 H22        -2.8163   13.7195   23.9994 H         1 LYS         0.0315
     98 H23        -4.1925   12.6308   23.6154 H         1 LYS         0.0315
     99 H24        -3.2350   10.8508   24.7422 H         1 LYS         0.0298
    100 H25        -1.0902   10.5627   23.5551 H         1 LYS         0.0232
    101 H26        -1.0939   12.3151   23.1605 H         1 LYS         0.0232
    102 H27        -2.3835   11.2457   22.5123 H         1 LYS         0.0232
    103 H28        -2.3100   11.9934   26.6946 H         1 LYS         0.0232
    104 H29        -0.9630   12.6066   25.6767 H         1 LYS         0.0232
    105 H30        -1.1607   10.8401   25.9357 H         1 LYS         0.0232
    106 H31        -4.2421   15.7305   24.2891 H         1 LYS         0.1885
    107 H32        -2.3200   17.3393   25.3703 H         1 LYS         0.0817
    108 H33        -4.4003   19.0723   25.0367 H         1 LYS         0.0420
    109 H34        -5.0087   17.6430   24.1348 H         1 LYS         0.0420
    110 H35        -1.8005   19.9794   24.0278 H         1 LYS         0.0729
    111 H36        -2.5707   18.3632   20.1662 H         1 LYS         0.1199
    112 H37        -1.0948   19.9569   21.5111 H         1 LYS         0.2361
    113 H38        -5.5360   16.5896   26.8485 H         1 LYS         0.1883
    114 H39        -4.7843   18.4920   28.9448 H         1 LYS         0.0797
    115 H40        -6.9001   17.9138   30.0450 H         1 LYS         0.0277
    116 H41        -7.2288   16.7200   28.7437 H         1 LYS         0.0277
    117 H42        -7.1032   18.4678   28.3485 H         1 LYS         0.0277
    118 H43       -10.3157   11.7069   30.8426 H         1 LYS         0.1208
    119 H44        -9.0144   10.6064   31.7385 H         1 LYS         0.0660
    120 H45        -8.0874   12.0686   32.2173 H         1 LYS         0.0660
    121 H46        -3.8506   10.6635   30.9970 H         1 LYS         0.0453
    122 H47        -4.9469    9.7083   32.9089 H         1 LYS         0.0644
    123 H48       -10.1343   13.5240   31.9803 H         1 LYS         0.2155
    124 H49        -4.2016   14.7370   28.8125 H         1 LYS         0.1883
    125 H50        -4.2116   14.8261   31.6430 H         1 LYS         0.0788
    126 H51        -2.2603   13.1103   31.5392 H         1 LYS         0.0191
    127 H52        -3.0905   12.6731   30.0073 H         1 LYS         0.0191
    128 H53        -5.2900   11.3367   34.5490 H         1 LYS         0.1052
    129 H54        -6.8218   13.3028   33.8361 H         1 LYS         0.1559
    130 H55        -5.8031   14.3039   31.4949 H         1 LYS         0.0490
    131 H56        -1.8247   15.4243   28.8642 H         1 LYS         0.1883
    132 H57         0.3753   15.8029   30.8526 H         1 LYS         0.0800
    133 H58         1.5590   16.5617   28.8872 H         1 LYS         0.0315
    134 H59         0.0187   16.8555   28.0109 H         1 LYS         0.0315
    135 H60        -0.1359   14.1773   28.5282 H         1 LYS         0.0298
    136 H61         0.4973   13.8568   26.1823 H         1 LYS         0.0232
    137 H62         1.1708   15.5214   26.1371 H         1 LYS         0.0232
    138 H63        -0.5895   15.2714   26.3934 H         1 LYS         0.0232
    139 H64         2.1537   14.1789   29.4453 H         1 LYS         0.0232
    140 H65         2.7655   14.8340   27.8887 H         1 LYS         0.0232
    141 H66         2.0228   13.1995   27.9453 H         1 LYS         0.0232
    142 H67        -2.4684   17.3898   30.5585 H         1 LYS         0.1875
    143 H68        -3.2204   19.4207   31.1344 H         1 LYS         0.0727
    144 H69        -3.0776   19.0210   33.3208 H         1 LYS         0.0330
    145 H70        -1.6703   20.1370   33.2953 H         1 LYS         0.0330
    146 H71        -0.5185   18.5046   34.2515 H         1 LYS         0.0504
    147 H72        -0.5685   17.6650   32.6642 H         1 LYS         0.0504
    148 H73        -1.7927   15.2389   35.1993 H         1 LYS         0.1814
    149 H74        -0.3073   16.0568   34.8466 H         1 LYS         0.1814
@<TRIPOS>BOND
     1    1    2 1  
     2    2    3 1  
     3    2    5 1  
     4    3    4 2  
     5    3    6 am 
     6    6    7 1  
     7    7    8 1  
     8    7   10 1  
     9    8    9 2  
    10    8   15 am 
    11   10   11 1  
    12   11   12 1  
    13   12   13 1  
    14   13   14 1  
    15   14   38 1  
    16   15   16 1  
    17   16   17 1  
    18   16   19 1  
    19   17   18 2  
    20   17   23 am 
    21   19   20 1  
    22   20   21 1  
    23   20   22 1  
    24   23   24 1  
    25   24   25 1  
    26   24   27 1  
    27   25   26 2  
    28   25   33 am 
    29   27   28 1  
    30   28   29 1  
    31   28   30 2  
    32   29   31 2  
    33   30   32 1  
    34   31   32 1  
    35   33   34 1  
    36   34   35 1  
    37   34   37 1  
    38   35   36 2  
    39   35   48 am 
    40   38   39 1  
    41   38   47 1  
    42   39   40 1  
    43   40   41 am 
    44   40   43 am 
    45   41   42 2  
    46   41   45 1  
    47   43   44 1  
    48   43   46 2  
    49   44   45 1  
    50   44   51 1  
    51   45   53 1  
    52   48   49 1  
    53   49   50 1  
    54   49   56 1  
    55   50   51 1  
    56   51   52 1  
    57   51   55 1  
    58   52   53 1  
    59   53   54 1  
    60   54   55 2  
    61   56   57 2  
    62   56   58 am 
    63   58   59 1  
    64   59   60 1  
    65   59   62 1  
    66   60   61 2  
    67   60   66 am 
    68   62   63 1  
    69   63   64 1  
    70   63   65 1  
    71   66   67 1  
    72   67   68 1  
    73   67   70 1  
    74   68   69 ar 
    75   68   75 ar 
    76   70   71 1  
    77   71   72 1  
    78   72   73 2  
    79   72   74 am 
    80    1   76 1  
    81    1   77 1  
    82    1   78 1  
    83    2   79 1  
    84    5   80 1  
    85    5   81 1  
    86    5   82 1  
    87    6   83 1  
    88    7   84 1  
    89   10   85 1  
    90   10   86 1  
    91   11   87 1  
    92   11   88 1  
    93   12   89 1  
    94   12   90 1  
    95   13   91 1  
    96   13   92 1  
    97   14   93 1  
    98   14   94 1  
    99   15   95 1  
   100   16   96 1  
   101   19   97 1  
   102   19   98 1  
   103   20   99 1  
   104   21  100 1  
   105   21  101 1  
   106   21  102 1  
   107   22  103 1  
   108   22  104 1  
   109   22  105 1  
   110   23  106 1  
   111   24  107 1  
   112   27  108 1  
   113   27  109 1  
   114   30  110 1  
   115   31  111 1  
   116   32  112 1  
   117   33  113 1  
   118   34  114 1  
   119   37  115 1  
   120   37  116 1  
   121   37  117 1  
   122   38  118 1  
   123   39  119 1  
   124   39  120 1  
   125   44  121 1  
   126   45  122 1  
   127   47  123 1  
   128   48  124 1  
   129   49  125 1  
   130   50  126 1  
   131   50  127 1  
   132   53  128 1  
   133   54  129 1  
   134   55  130 1  
   135   58  131 1  
   136   59  132 1  
   137   62  133 1  
   138   62  134 1  
   139   63  135 1  
   140   64  136 1  
   141   64  137 1  
   142   64  138 1  
   143   65  139 1  
   144   65  140 1  
   145   65  141 1  
   146   66  142 1  
   147   67  143 1  
   148   70  144 1  
   149   70  145 1  
   150   71  146 1  
   151   71  147 1  
   152   74  148 1  
   153   74  149 1  
@<TRIPOS>SUBSTRUCTURE
     1 LYS         1

