5uig_ligand
  -I-interpret- 

 45 47  0  0  0  0  0  0  0  0999 V2000
  145.7490   37.2340   17.0540 C   0  0  0  0  0
  146.1630   36.2760   18.0740 C   0  0  0  0  0
  147.5380   33.3340   19.2730 C   0  0  0  0  0
  147.8780   32.8940   20.5690 C   0  0  0  0  0
  148.5340   31.6660   20.7630 C   0  0  0  0  0
  148.8450   30.8510   19.6620 C   0  0  0  0  0
  148.5150   31.2790   18.3620 C   0  0  0  0  0
  148.8950   30.4430   17.1620 C   0  0  0  0  0
  147.8570   32.5110   18.1690 C   0  0  0  0  0
  145.9510   36.4090   19.4750 C   0  0  0  0  0
  146.3070   42.5970   17.2100 C   0  0  0  0  0
  147.3360   41.6260   17.2830 O   0  0  0  0  0
  147.6050   40.9540   16.1190 C   0  0  0  0  0
  148.8410   41.1980   15.4930 C   0  0  0  0  0
  149.2180   40.4980   14.3390 C   0  0  0  0  0
  148.3540   39.5300   13.8070 C   0  0  0  0  0
  147.1140   39.2760   14.4190 C   0  0  0  0  0
  146.7310   39.9780   15.5830 C   0  0  0  0  0
  145.4420   39.5950   16.2890 C   0  0  0  0  0
  145.6900   38.5570   17.2960 N   0  0  0  0  0
  145.4630   36.7650   15.8260 N   0  0  0  0  0
  146.7690   35.1420   17.8430 N   0  0  0  0  0
  146.9190   34.5970   19.0800 N   0  0  0  0  0
  146.4380   35.3670   20.0990 N   0  0  0  0  0
  145.3110   37.4570   20.1500 N   0  0  0  0  0
  147.6291   33.5136   21.4306 H   0  0  0  0  0
  148.8019   31.3456   21.7698 H   0  0  0  0  0
  149.3396   29.8915   19.8135 H   0  0  0  0  0
  149.9783   30.3265   17.1303 H   0  0  0  0  0
  148.4250   29.4627   17.2402 H   0  0  0  0  0
  148.5549   30.9389   16.2529 H   0  0  0  0  0
  147.5924   32.8311   17.1612 H   0  0  0  0  0
  146.5762   43.3553   16.4747 H   0  0  0  0  0
  145.3753   42.1156   16.9129 H   0  0  0  0  0
  146.1805   43.0646   18.1864 H   0  0  0  0  0
  149.5164   41.9437   15.9124 H   0  0  0  0  0
  150.1747   40.7042   13.8590 H   0  0  0  0  0
  148.6446   38.9729   12.9164 H   0  0  0  0  0
  146.4428   38.5311   13.9916 H   0  0  0  0  0
  144.7380   39.2092   15.5517 H   0  0  0  0  0
  145.0367   40.4770   16.7849 H   0  0  0  0  0
  145.8292   38.8631   18.2590 H   0  0  0  0  0
  145.2023   37.4113   15.0812 H   0  0  0  0  0
  144.9322   38.2455   19.6254 H   0  0  0  0  0
  145.2240   37.4314   21.1660 H   0  0  0  0  0
  2  1  1  0  0  0
  1 20  1  0  0  0
  1 21  2  0  0  0
  2 10  4  0  0  0
 22  2  4  0  0  0
  3  4  4  0  0  0
  3  9  4  0  0  0
 23  3  1  0  0  0
  4  5  4  0  0  0
  5  6  4  0  0  0
  7  6  4  0  0  0
  7  8  1  0  0  0
  9  7  4  0  0  0
 10 24  4  0  0  0
 10 25  1  0  0  0
 12 11  1  0  0  0
 13 12  1  0  0  0
 13 14  4  0  0  0
 18 13  4  0  0  0
 14 15  4  0  0  0
 16 15  4  0  0  0
 17 16  4  0  0  0
 18 17  4  0  0  0
 19 18  1  0  0  0
 20 19  1  0  0  0
 22 23  4  0  0  0
 23 24  4  0  0  0
  4 26  1  0  0  0
  5 27  1  0  0  0
  6 28  1  0  0  0
  8 29  1  0  0  0
  8 30  1  0  0  0
  8 31  1  0  0  0
  9 32  1  0  0  0
 11 33  1  0  0  0
 11 34  1  0  0  0
 11 35  1  0  0  0
 14 36  1  0  0  0
 15 37  1  0  0  0
 16 38  1  0  0  0
 17 39  1  0  0  0
 19 40  1  0  0  0
 19 41  1  0  0  0
 20 42  1  0  0  0
 21 43  1  0  0  0
 25 44  1  0  0  0
 25 45  1  0  0  0
M  END
$$$$
