3wch_ligand
  -I-interpret- 

 57 57  0  0  0  0  0  0  0  0999 V2000
  -12.5120   47.8440  -56.0390 O   0  0  0  0  0
  -12.5230   48.0560  -54.4430 P   0  0  0  0  0
  -11.5100   49.2740  -54.1580 O   0  0  0  0  0
  -12.1610   46.8260  -53.7050 O   0  0  0  0  0
  -14.2250   48.6860  -54.0140 C   0  0  0  0  0
  -14.7930   49.7950  -55.4070 P   0  0  0  0  0
  -16.0730   50.6090  -54.8660 O   0  0  0  0  0
  -13.6270   50.8880  -55.6080 O   0  0  0  0  0
  -15.0900   49.0480  -56.6470 O   0  0  0  0  0
  -15.1550   47.6450  -53.7080 O   0  0  0  0  0
  -14.0820   49.5550  -52.7610 C   0  0  0  0  0
  -13.3840   48.8360  -51.6670 N   0  3  0  0  0
  -13.8060   47.7540  -51.0170 C   0  0  0  0  0
  -12.2570   49.2400  -51.0890 C   0  0  0  0  0
  -11.9790   48.4070  -50.0900 C   0  0  0  0  0
  -12.9340   47.4820  -50.0480 N   0  0  0  0  0
  -12.9960   46.3280  -49.1190 C   0  0  0  0  0
  -13.6870   46.7090  -47.8070 C   0  0  0  0  0
  -13.8830   45.5030  -46.8830 C   0  0  0  0  0
  -12.5590   44.7630  -46.6820 C   0  0  0  0  0
  -12.3380   44.3670  -45.2180 C   0  0  0  0  0
  -13.4480   43.4810  -44.6450 C   0  0  0  0  0
  -13.0040   42.9890  -43.2650 C   0  0  0  0  0
  -14.0870   42.1670  -42.5610 C   0  0  0  0  0
  -13.5020   41.6350  -41.2490 C   0  0  0  0  0
  -14.6080   41.1070  -40.3330 C   0  0  0  0  0
  -12.7523   48.6666  -56.4716 H   0  0  0  0  0
  -11.7886   50.0443  -54.6586 H   0  0  0  0  0
  -15.8364   51.0778  -54.0624 H   0  0  0  0  0
  -13.4715   51.3447  -54.7780 H   0  0  0  0  0
  -15.2665   47.0809  -54.4768 H   0  0  0  0  0
  -15.0802   49.8209  -52.4133 H   0  0  0  0  0
  -13.4948   50.4358  -53.0207 H   0  0  0  0  0
  -14.7103   47.1876  -51.2396 H   0  0  0  0  0
  -11.6629   50.1052  -51.3832 H   0  0  0  0  0
  -11.1194   48.4711  -49.4228 H   0  0  0  0  0
  -11.9787   46.0065  -48.8956 H   0  0  0  0  0
  -13.5669   45.5299  -49.5936 H   0  0  0  0  0
  -14.6697   47.1147  -48.0473 H   0  0  0  0  0
  -13.0568   47.4327  -47.2901 H   0  0  0  0  0
  -14.6043   44.8227  -47.3359 H   0  0  0  0  0
  -14.2444   45.8523  -45.9158 H   0  0  0  0  0
  -11.7486   45.4278  -46.9810 H   0  0  0  0  0
  -12.5834   43.8527  -47.2810 H   0  0  0  0  0
  -12.3190   45.2855  -44.6314 H   0  0  0  0  0
  -11.4098   43.7974  -45.1712 H   0  0  0  0  0
  -13.6279   42.6324  -45.3050 H   0  0  0  0  0
  -14.3742   44.0493  -44.5597 H   0  0  0  0  0
  -12.7900   43.8623  -42.6488 H   0  0  0  0  0
  -12.1309   42.3506  -43.3998 H   0  0  0  0  0
  -14.4021   41.3385  -43.1954 H   0  0  0  0  0
  -14.9591   42.7888  -42.3590 H   0  0  0  0  0
  -12.9841   42.4483  -40.7407 H   0  0  0  0  0
  -12.8157   40.8193  -41.4763 H   0  0  0  0  0
  -15.3052   41.9133  -40.1052 H   0  0  0  0  0
  -15.1381   40.2976  -40.8349 H   0  0  0  0  0
  -14.1659   40.7353  -39.4086 H   0  0  0  0  0
  1  2  1  0  0  0
  2  3  1  0  0  0
  2  4  2  0  0  0
  2  5  1  0  0  0
  5  6  1  0  0  0
  5 10  1  0  0  0
  5 11  1  0  0  0
  6  7  1  0  0  0
  6  8  1  0  0  0
  6  9  2  0  0  0
 11 12  1  0  0  0
 12 13  4  0  0  0
 12 14  4  0  0  0
 13 16  4  0  0  0
 14 15  4  0  0  0
 15 16  4  0  0  0
 16 17  1  0  0  0
 17 18  1  0  0  0
 18 19  1  0  0  0
 19 20  1  0  0  0
 20 21  1  0  0  0
 21 22  1  0  0  0
 22 23  1  0  0  0
 23 24  1  0  0  0
 24 25  1  0  0  0
 25 26  1  0  0  0
  1 27  1  0  0  0
  3 28  1  0  0  0
  7 29  1  0  0  0
  8 30  1  0  0  0
 10 31  1  0  0  0
 11 32  1  0  0  0
 11 33  1  0  0  0
 13 34  1  0  0  0
 14 35  1  0  0  0
 15 36  1  0  0  0
 17 37  1  0  0  0
 17 38  1  0  0  0
 18 39  1  0  0  0
 18 40  1  0  0  0
 19 41  1  0  0  0
 19 42  1  0  0  0
 20 43  1  0  0  0
 20 44  1  0  0  0
 21 45  1  0  0  0
 21 46  1  0  0  0
 22 47  1  0  0  0
 22 48  1  0  0  0
 23 49  1  0  0  0
 23 50  1  0  0  0
 24 51  1  0  0  0
 24 52  1  0  0  0
 25 53  1  0  0  0
 25 54  1  0  0  0
 26 55  1  0  0  0
 26 56  1  0  0  0
 26 57  1  0  0  0
M  END
$$$$
