### 
### Created by X-TOOL on Mon Sep 10 21:13:18 2018
### 

@<TRIPOS>MOLECULE
3wch_ligand
   53    53     1     0     0
SMALL
GAST_HUCK


@<TRIPOS>ATOM
      1 OAE       -12.5120   47.8440  -56.0390 O.co2     1 8PH        -0.5594
      2 PAY       -12.5230   48.0560  -54.4430 P.3       1 8PH         0.1110
      3 OAF       -11.5100   49.2740  -54.1580 O.co2     1 8PH        -0.5594
      4 OAB       -12.1610   46.8260  -53.7050 O.co2     1 8PH        -0.5594
      5 CAX       -14.2250   48.6860  -54.0140 C.3       1 8PH         0.2171
      6 PAZ       -14.7930   49.7950  -55.4070 P.3       1 8PH         0.1110
      7 OAG       -16.0730   50.6090  -54.8660 O.co2     1 8PH        -0.5594
      8 OAH       -13.6270   50.8880  -55.6080 O.co2     1 8PH        -0.5594
      9 OAC       -15.0900   49.0480  -56.6470 O.co2     1 8PH        -0.5594
     10 OAD       -15.1550   47.6450  -53.7080 O.3       1 8PH        -0.3586
     11 CAU       -14.0820   49.5550  -52.7610 C.3       1 8PH         0.0809
     12 NAW       -13.3840   48.8360  -51.6670 N.2       1 8PH        -0.2649
     13 CAK       -13.8060   47.7540  -51.0170 C.2       1 8PH         0.1886
     14 CAJ       -12.2570   49.2400  -51.0890 C.2       1 8PH         0.1186
     15 CAI       -11.9790   48.4070  -50.0900 C.2       1 8PH         0.1816
     16 NAV       -12.9340   47.4820  -50.0480 N.pl3     1 8PH        -0.1380
     17 CAT       -12.9960   46.3280  -49.1190 C.3       1 8PH         0.0877
     18 CAS       -13.6870   46.7090  -47.8070 C.3       1 8PH        -0.0215
     19 CAR       -13.8830   45.5030  -46.8830 C.3       1 8PH        -0.0503
     20 CAQ       -12.5590   44.7630  -46.6820 C.3       1 8PH        -0.0530
     21 CAP       -12.3380   44.3670  -45.2180 C.3       1 8PH        -0.0531
     22 CAO       -13.4480   43.4810  -44.6450 C.3       1 8PH        -0.0531
     23 CAN       -13.0040   42.9890  -43.2650 C.3       1 8PH        -0.0531
     24 CAM       -14.0870   42.1670  -42.5610 C.3       1 8PH        -0.0533
     25 CAL       -13.5020   41.6350  -41.2490 C.3       1 8PH        -0.0559
     26 CAA       -14.6080   41.1070  -40.3330 C.3       1 8PH        -0.0653
     27 H         -14.8381   47.1477  -52.9632 H         1 8PH         0.2133
     28 H         -15.0843   49.8454  -52.4131 H         1 8PH         0.0476
     29 H         -13.5071   50.4571  -53.0173 H         1 8PH         0.0476
     30 H         -14.7095   47.1881  -51.2394 H         1 8PH         0.1987
     31 H         -11.6634   50.1044  -51.3829 H         1 8PH         0.1406
     32 H         -11.1202   48.4710  -49.4234 H         1 8PH         0.2017
     33 H         -11.9729   45.9884  -48.9000 H         1 8PH         0.0657
     34 H         -13.5586   45.5125  -49.5970 H         1 8PH         0.0657
     35 H         -14.6716   47.1415  -48.0381 H         1 8PH         0.0294
     36 H         -13.0709   47.4571  -47.2867 H         1 8PH         0.0294
     37 H         -14.6164   44.8175  -47.3327 H         1 8PH         0.0266
     38 H         -14.2554   45.8504  -45.9080 H         1 8PH         0.0266
     39 H         -11.7345   45.4176  -47.0009 H         1 8PH         0.0265
     40 H         -12.5640   43.8524  -47.2991 H         1 8PH         0.0265
     41 H         -12.2806   45.2851  -44.6149 H         1 8PH         0.0265
     42 H         -11.3859   43.8208  -45.1460 H         1 8PH         0.0265
     43 H         -13.6184   42.6212  -45.3096 H         1 8PH         0.0265
     44 H         -14.3773   44.0621  -44.5517 H         1 8PH         0.0265
     45 H         -12.7611   43.8613  -42.6405 H         1 8PH         0.0265
     46 H         -12.1076   42.3628  -43.3850 H         1 8PH         0.0265
     47 H         -14.3924   41.3262  -43.2012 H         1 8PH         0.0265
     48 H         -14.9595   42.8027  -42.3496 H         1 8PH         0.0265
     49 H         -12.9678   42.4487  -40.7366 H         1 8PH         0.0263
     50 H         -12.7993   40.8188  -41.4727 H         1 8PH         0.0263
     51 H         -14.1630   40.7315  -39.3997 H         1 8PH         0.0230
     52 H         -15.1438   40.2900  -40.8383 H         1 8PH         0.0230
     53 H         -15.3123   41.9199  -40.1023 H         1 8PH         0.0230
@<TRIPOS>BOND
     1    1    2 ar 
     2    2    3 ar 
     3    2    4 ar 
     4    2    5 1  
     5    5    6 1  
     6    5   10 1  
     7    5   11 1  
     8    6    7 ar 
     9    6    8 ar 
    10    6    9 ar 
    11   11   12 1  
    12   12   13 2  
    13   12   14 1  
    14   13   16 1  
    15   14   15 2  
    16   15   16 1  
    17   16   17 1  
    18   17   18 1  
    19   18   19 1  
    20   19   20 1  
    21   20   21 1  
    22   21   22 1  
    23   22   23 1  
    24   23   24 1  
    25   24   25 1  
    26   25   26 1  
    27   10   27 1  
    28   11   28 1  
    29   11   29 1  
    30   13   30 1  
    31   14   31 1  
    32   15   32 1  
    33   17   33 1  
    34   17   34 1  
    35   18   35 1  
    36   18   36 1  
    37   19   37 1  
    38   19   38 1  
    39   20   39 1  
    40   20   40 1  
    41   21   41 1  
    42   21   42 1  
    43   22   43 1  
    44   22   44 1  
    45   23   45 1  
    46   23   46 1  
    47   24   47 1  
    48   24   48 1  
    49   25   49 1  
    50   25   50 1  
    51   26   51 1  
    52   26   52 1  
    53   26   53 1  
@<TRIPOS>SUBSTRUCTURE
     1 8PH         1

