6fg6_ligand
  -I-interpret- 

 32 32  0  0  0  0  0  0  0  0999 V2000
   33.8630  -37.5910   29.3710 C   0  0  0  0  0
   35.9580  -39.0200   29.2300 C   0  0  0  0  0
   36.6790  -40.2660   28.7220 C   0  0  0  0  0
   35.9550  -41.2410   27.8470 C   0  0  0  0  0
   34.5180  -41.0080   27.4790 C   0  0  0  0  0
   33.7920  -39.7550   28.0020 C   0  0  0  0  0
   38.1400  -40.4650   29.1200 C   0  0  0  0  0
   40.2150  -39.4510   30.1630 C   0  0  0  0  0
   41.1390  -38.9320   29.0590 C   0  0  0  0  0
   34.5290  -38.7820   28.8690 N   0  0  0  0  0
   38.8270  -39.3480   29.7490 N   0  0  0  0  0
   42.3650  -39.7180   29.0490 N   0  3  0  0  0
   32.6540  -39.5570   27.7150 O   0  0  0  0  0
   38.6860  -41.4980   28.9090 O   0  0  0  0  0
   33.5234  -36.9849   28.5311 H   0  0  0  0  0
   33.0070  -37.8839   29.9790 H   0  0  0  0  0
   34.5611  -37.0145   29.9779 H   0  0  0  0  0
   36.4956  -38.1896   28.7724 H   0  0  0  0  0
   35.9488  -39.1345   30.3139 H   0  0  0  0  0
   36.6601  -41.3221   28.4531 H   0  0  0  0  0
   35.9387  -42.1636   28.4272 H   0  0  0  0  0
   36.4872  -41.1975   26.8968 H   0  0  0  0  0
   33.9801  -41.8445   27.9251 H   0  0  0  0  0
   34.5267  -40.8894   26.3955 H   0  0  0  0  0
   40.3635  -38.8523   31.0617 H   0  0  0  0  0
   40.4503  -40.4966   30.3614 H   0  0  0  0  0
   41.3781  -37.8850   29.2453 H   0  0  0  0  0
   40.6404  -39.0211   28.0938 H   0  0  0  0  0
   38.3235  -38.4743   29.9025 H   0  0  0  0  0
   42.9823  -39.3735   28.3137 H   0  0  0  0  0
   42.8299  -39.6321   29.9528 H   0  0  0  0  0
   42.1384  -40.6969   28.8735 H   0  0  0  0  0
 10  1  1  0  0  0
  3  2  1  0  0  0
  2 10  1  0  0  0
  3  4  1  0  0  0
  7  3  1  0  0  0
  4  5  1  0  0  0
  5  6  1  0  0  0
 10  6  1  0  0  0
  6 13  2  0  0  0
 11  7  1  0  0  0
  7 14  2  0  0  0
  8  9  1  0  0  0
  8 11  1  0  0  0
  9 12  1  0  0  0
  1 15  1  0  0  0
  1 16  1  0  0  0
  1 17  1  0  0  0
  2 18  1  0  0  0
  2 19  1  0  0  0
  3 20  1  0  0  0
  4 21  1  0  0  0
  4 22  1  0  0  0
  5 23  1  0  0  0
  5 24  1  0  0  0
  8 25  1  0  0  0
  8 26  1  0  0  0
  9 27  1  0  0  0
  9 28  1  0  0  0
 11 29  1  0  0  0
 12 30  1  0  0  0
 12 31  1  0  0  0
 12 32  1  0  0  0
M  END
$$$$
