4ryc_ligand
  -I-interpret- 

 77 79  0  0  0  0  0  0  0  0999 V2000
   70.5090    8.9850   47.8850 C   0  0  0  0  0
   72.0040   12.4860   47.7530 C   0  0  0  0  0
   72.7770   12.5180   48.9420 C   0  0  0  0  0
   72.0660   10.2430   49.4590 C   0  0  0  0  0
   68.2550    9.9880   48.1700 C   0  0  0  0  0
   72.7830   11.3950   49.8080 C   0  0  0  0  0
   67.6620    2.8620   43.1710 C   0  0  0  0  0
   67.8300    1.5720   45.2200 C   0  0  0  0  0
   68.2850    7.9860   44.7120 C   0  0  0  0  0
   67.0020    5.9890   44.8900 C   0  0  0  0  0
   66.5150    2.1240   42.8150 C   0  0  0  0  0
   66.6900    0.8340   44.8550 C   0  0  0  0  0
   66.0240    1.1070   43.6530 C   0  0  0  0  0
   70.0030   14.4300   45.8740 C   0  0  0  0  0
   69.7810    3.4820   44.8180 S   0  0  0  0  0
   69.1510    8.8890   47.7210 N   0  0  0  0  0
   69.2980    5.0210   44.6040 N   0  0  0  0  0
   68.5640    7.5890   47.2940 C   0  0  0  0  0
   68.8960    7.1360   45.8410 C   0  0  0  0  0
   71.2750   10.2260   48.2940 C   0  0  0  0  0
   68.3850    5.7140   45.5030 C   0  0  0  0  0
   68.3070    2.5950   44.3830 C   0  0  0  0  0
   71.2690   11.3230   47.4190 C   0  0  0  0  0
   70.8110    3.1790   43.8530 O   0  0  0  0  0
   70.1260    3.2640   46.1910 O   0  0  0  0  0
   67.2900    7.1400   44.0220 N   0  3  0  0  0
   71.2800    8.0730   47.6110 O   0  0  0  0  0
   72.0720   13.6400   46.9480 O   0  0  0  0  0
   73.5520   13.6730   49.1900 O   0  0  0  0  0
   69.7920   15.4010   43.6560 O   0  0  0  0  0
   71.4090   13.8180   45.6830 C   0  0  0  0  0
   69.2210   14.4300   44.5430 C   0  0  0  0  0
   67.1980   10.6260   47.2220 C   0  0  0  0  0
   67.7100    9.6440   49.5850 C   0  0  0  0  0
   64.7720    0.3080   43.2640 C   0  0  0  0  0
   74.2910   13.8500   50.4140 C   0  0  0  0  0
   69.9580   14.9080   42.3180 C   0  0  0  0  0
   72.1206    9.3569   50.0914 H   0  0  0  0  0
   68.9234   10.8490   48.1713 H   0  0  0  0  0
   73.3436   11.4280   50.7422 H   0  0  0  0  0
   68.0440    3.6362   42.5056 H   0  0  0  0  0
   68.3450    1.3499   46.1546 H   0  0  0  0  0
   69.0575    8.3160   44.0174 H   0  0  0  0  0
   67.8142    8.8820   45.1164 H   0  0  0  0  0
   66.2271    6.1845   45.6312 H   0  0  0  0  0
   66.5829    5.1351   44.3578 H   0  0  0  0  0
   66.0023    2.3443   41.8787 H   0  0  0  0  0
   66.3224    0.0450   45.5110 H   0  0  0  0  0
   70.1107   15.4584   46.2188 H   0  0  0  0  0
   69.4557   13.8333   46.6037 H   0  0  0  0  0
   69.6546    5.5292   43.7947 H   0  0  0  0  0
   67.4819    7.7123   47.3370 H   0  0  0  0  0
   68.9841    6.8310   47.9551 H   0  0  0  0  0
   69.9823    7.2233   45.8628 H   0  0  0  0  0
   68.3233    5.0451   46.3614 H   0  0  0  0  0
   70.7025   11.2800   46.4888 H   0  0  0  0  0
   67.6552    6.8241   43.1235 H   0  0  0  0  0
   66.4376    7.6703   43.8417 H   0  0  0  0  0
   72.0038   14.4945   45.0693 H   0  0  0  0  0
   71.3039   12.8446   45.2040 H   0  0  0  0  0
   68.1774   14.6801   44.7337 H   0  0  0  0  0
   69.2784   13.4417   44.0868 H   0  0  0  0  0
   67.7013   11.0577   46.3569 H   0  0  0  0  0
   66.4982    9.8585   46.8913 H   0  0  0  0  0
   66.6569   11.4069   47.7563 H   0  0  0  0  0
   67.1536    8.7078   49.5409 H   0  0  0  0  0
   68.5442    9.5400   50.2789 H   0  0  0  0  0
   67.0515   10.4439   49.9237 H   0  0  0  0  0
   63.9261    0.9877   43.1613 H   0  0  0  0  0
   64.9475   -0.2015   42.3165 H   0  0  0  0  0
   64.5566   -0.4275   44.0390 H   0  0  0  0  0
   73.6021   13.8332   51.2585 H   0  0  0  0  0
   75.0162   13.0431   50.5190 H   0  0  0  0  0
   74.8118   14.8072   50.3873 H   0  0  0  0  0
   70.6185   14.0410   42.3309 H   0  0  0  0  0
   68.9869   14.6205   41.9150 H   0  0  0  0  0
   70.3942   15.6894   41.6957 H   0  0  0  0  0
  1 16  1  0  0  0
 20  1  1  0  0  0
  1 27  2  0  0  0
  2  3  4  0  0  0
  2 23  4  0  0  0
 28  2  1  0  0  0
  3  6  4  0  0  0
  3 29  1  0  0  0
  6  4  4  0  0  0
 20  4  4  0  0  0
 16  5  1  0  0  0
  5 33  1  0  0  0
  5 34  1  0  0  0
  7 11  4  0  0  0
 22  7  4  0  0  0
  8 12  4  0  0  0
 22  8  4  0  0  0
 19  9  1  0  0  0
  9 26  1  0  0  0
 21 10  1  0  0  0
 10 26  1  0  0  0
 11 13  4  0  0  0
 12 13  4  0  0  0
 13 35  1  0  0  0
 31 14  1  0  0  0
 14 32  1  0  0  0
 17 15  1  0  0  0
 15 22  1  0  0  0
 15 24  2  0  0  0
 15 25  2  0  0  0
 16 18  1  0  0  0
 21 17  1  0  0  0
 18 19  1  0  0  0
 19 21  1  0  0  0
 23 20  4  0  0  0
 28 31  1  0  0  0
 29 36  1  0  0  0
 32 30  1  0  0  0
 30 37  1  0  0  0
  4 38  1  0  0  0
  5 39  1  0  0  0
  6 40  1  0  0  0
  7 41  1  0  0  0
  8 42  1  0  0  0
  9 43  1  0  0  0
  9 44  1  0  0  0
 10 45  1  0  0  0
 10 46  1  0  0  0
 11 47  1  0  0  0
 12 48  1  0  0  0
 14 49  1  0  0  0
 14 50  1  0  0  0
 17 51  1  0  0  0
 18 52  1  0  0  0
 18 53  1  0  0  0
 19 54  1  0  0  0
 21 55  1  0  0  0
 23 56  1  0  0  0
 26 57  1  0  0  0
 26 58  1  0  0  0
 31 59  1  0  0  0
 31 60  1  0  0  0
 32 61  1  0  0  0
 32 62  1  0  0  0
 33 63  1  0  0  0
 33 64  1  0  0  0
 33 65  1  0  0  0
 34 66  1  0  0  0
 34 67  1  0  0  0
 34 68  1  0  0  0
 35 69  1  0  0  0
 35 70  1  0  0  0
 35 71  1  0  0  0
 36 72  1  0  0  0
 36 73  1  0  0  0
 36 74  1  0  0  0
 37 75  1  0  0  0
 37 76  1  0  0  0
 37 77  1  0  0  0
M  END
$$$$
