3ryv_ligand
  -I-interpret- 

 27 27  0  0  0  0  0  0  0  0999 V2000
   15.0830   -0.0050   16.8010 S   0  0  0  0  0
   18.6830    4.7570   13.6040 N   0  0  0  0  0
   16.6900    5.7540   13.6820 O   0  0  0  0  0
   16.8540    3.6010   14.6440 C   0  0  0  0  0
   14.9090    2.4100   15.5030 C   0  0  0  0  0
   15.4640    3.5180   14.8420 C   0  0  0  0  0
   15.7320    1.3580   15.9510 C   0  0  0  0  0
   17.6880    2.5520   15.1200 C   0  0  0  0  0
   17.1360    1.4600   15.7910 C   0  0  0  0  0
   17.4400    4.7600   13.9120 C   0  0  0  0  0
   19.2990    5.8870   12.8630 C   0  0  0  0  0
   13.6680    0.0790   16.6480 O   0  0  0  0  0
   19.4690    6.9820   13.9400 C   0  0  0  0  0
   15.5900    0.0490   18.1750 O   0  0  0  0  0
   15.6990   -1.3180   16.0630 N   0  0  0  0  0
   19.2622    3.9617   13.8733 H   0  0  0  0  0
   13.8330    2.3637   15.6707 H   0  0  0  0  0
   14.8153    4.3162   14.4813 H   0  0  0  0  0
   18.7650    2.6013   14.9597 H   0  0  0  0  0
   17.7867    0.6835   16.1931 H   0  0  0  0  0
   18.6852    6.2190   12.0257 H   0  0  0  0  0
   20.2451    5.6120   12.3967 H   0  0  0  0  0
   18.4931    7.2401   14.3511 H   0  0  0  0  0
   20.1132    6.6096   14.7365 H   0  0  0  0  0
   19.9202    7.8660   13.4894 H   0  0  0  0  0
   15.0816   -1.9613   15.5676 H   0  0  0  0  0
   16.7025   -1.4977   16.0958 H   0  0  0  0  0
  7  1  1  0  0  0
  1 12  2  0  0  0
  1 14  2  0  0  0
  1 15  1  0  0  0
 10  2  1  0  0  0
  2 11  1  0  0  0
 10  3  2  0  0  0
  6  4  4  0  0  0
  4  8  4  0  0  0
  4 10  1  0  0  0
  5  6  4  0  0  0
  5  7  4  0  0  0
  7  9  4  0  0  0
  8  9  4  0  0  0
 11 13  1  0  0  0
  2 16  1  0  0  0
  5 17  1  0  0  0
  6 18  1  0  0  0
  8 19  1  0  0  0
  9 20  1  0  0  0
 11 21  1  0  0  0
 11 22  1  0  0  0
 13 23  1  0  0  0
 13 24  1  0  0  0
 13 25  1  0  0  0
 15 26  1  0  0  0
 15 27  1  0  0  0
M  END
$$$$
