6h7j_ligand
  -I-interpret- 

 33 33  0  0  0  0  0  0  0  0999 V2000
   15.5410  -32.4490   -8.9590 C   0  0  0  0  0
   15.6230  -31.8350  -10.3660 C   0  0  0  0  0
   15.4780  -30.2950  -10.3040 C   0  0  0  0  0
   16.8800  -32.2890  -11.0090 N   0  3  0  0  0
   16.9230  -31.9460  -12.4470 C   0  0  0  0  0
   18.0410  -32.7140  -13.1540 C   0  0  0  0  0
   19.2770  -32.3870  -12.5250 O   0  0  0  0  0
   18.0600  -32.3720  -14.6520 C   0  0  0  0  0
   17.0970  -32.9450  -15.4900 C   0  0  0  0  0
   19.0170  -31.5100  -15.1920 C   0  0  0  0  0
   19.0110  -31.2260  -16.5610 C   0  0  0  0  0
   18.0500  -31.8030  -17.3900 C   0  0  0  0  0
   18.0440  -31.5300  -18.7160 O   0  0  0  0  0
   17.0940  -32.6670  -16.8580 C   0  0  0  0  0
   16.1530  -33.2400  -17.6550 O   0  0  0  0  0
   15.5463  -33.5362   -9.0375 H   0  0  0  0  0
   16.3982  -32.1218   -8.3707 H   0  0  0  0  0
   14.6205  -32.1229   -8.4747 H   0  0  0  0  0
   14.7931  -32.1777  -10.9840 H   0  0  0  0  0
   16.3060  -29.8761   -9.7321 H   0  0  0  0  0
   15.4913  -29.8891  -11.3155 H   0  0  0  0  0
   14.5350  -30.0393   -9.8209 H   0  0  0  0  0
   16.9341  -33.3038  -10.9217 H   0  0  0  0  0
   17.6607  -31.8230  -10.5468 H   0  0  0  0  0
   17.1115  -30.8772  -12.5484 H   0  0  0  0  0
   15.9694  -32.2147  -12.9016 H   0  0  0  0  0
   17.8734  -33.7881  -13.0739 H   0  0  0  0  0
   19.2302  -32.6130  -11.5932 H   0  0  0  0  0
   16.3440  -33.6130  -15.0718 H   0  0  0  0  0
   19.7694  -31.0582  -14.5455 H   0  0  0  0  0
   19.7585  -30.5527  -16.9806 H   0  0  0  0  0
   17.3232  -32.0050  -19.1361 H   0  0  0  0  0
   16.2842  -32.9516  -18.5612 H   0  0  0  0  0
  1  2  1  0  0  0
  2  3  1  0  0  0
  2  4  1  0  0  0
  4  5  1  0  0  0
  5  6  1  0  0  0
  6  7  1  0  0  0
  6  8  1  0  0  0
  8  9  4  0  0  0
  8 10  4  0  0  0
  9 14  4  0  0  0
 10 11  4  0  0  0
 11 12  4  0  0  0
 12 13  1  0  0  0
 12 14  4  0  0  0
 14 15  1  0  0  0
  1 16  1  0  0  0
  1 17  1  0  0  0
  1 18  1  0  0  0
  2 19  1  0  0  0
  3 20  1  0  0  0
  3 21  1  0  0  0
  3 22  1  0  0  0
  4 23  1  0  0  0
  4 24  1  0  0  0
  5 25  1  0  0  0
  5 26  1  0  0  0
  6 27  1  0  0  0
  7 28  1  0  0  0
  9 29  1  0  0  0
 10 30  1  0  0  0
 11 31  1  0  0  0
 13 32  1  0  0  0
 15 33  1  0  0  0
M  END
$$$$
