5fni_ligand
  -I-interpret- 

 20 21  0  0  0  0  0  0  0  0999 V2000
   -5.5070    2.5130   12.5060 C   0  0  0  0  0
   -6.0710    3.7130   12.1320 C   0  0  0  0  0
   -5.0460    3.4080   14.6060 C   0  0  0  0  0
   -4.9540    2.3370   13.7450 C   0  0  0  0  0
   -6.1770    4.7270   13.0070 C   0  0  0  0  0
   -5.6350    4.5710   14.2160 C   0  0  0  0  0
   -4.9390    0.9310   16.3520 C   0  0  0  0  0
   -3.8810    0.8760   15.3190 C   0  0  0  0  0
   -5.8810    1.5540   18.1410 N   0  0  0  0  0
   -4.7800    1.7540   17.3880 N   0  0  0  0  0
   -6.0890    0.2550   16.4070 N   0  0  0  0  0
   -6.6990    0.6510   17.5620 N   0  0  0  0  0
   -4.4060    1.0780   14.0070 O   0  0  0  0  0
   -6.9370    6.2320   12.4920 Cl  0  0  0  0  0
   -5.7200    5.8580   15.3700 Cl  0  0  0  0  0
   -5.5012    1.6842   11.7981 H   0  0  0  0  0
   -6.4360    3.8414   11.1130 H   0  0  0  0  0
   -4.6411    3.3228   15.6144 H   0  0  0  0  0
   -3.4203   -0.1112   15.3542 H   0  0  0  0  0
   -3.1614    1.6685   15.5246 H   0  0  0  0  0
  1  2  4  0  0  0
  4  1  4  0  0  0
  2  5  4  0  0  0
  4  3  4  0  0  0
  3  6  4  0  0  0
 13  4  1  0  0  0
  6  5  4  0  0  0
  5 14  1  0  0  0
  6 15  1  0  0  0
  8  7  1  0  0  0
  7 10  4  0  0  0
  7 11  4  0  0  0
  8 13  1  0  0  0
 10  9  4  0  0  0
  9 12  4  0  0  0
 11 12  4  0  0  0
  1 16  1  0  0  0
  2 17  1  0  0  0
  3 18  1  0  0  0
  8 19  1  0  0  0
  8 20  1  0  0  0
M  END
$$$$
