1eoj_ligand
  -I-interpret- 

237241  0  0  0  0  0  0  0  0999 V2000
   15.3350   14.1640   22.4430 N   0  3  0  0  0
   15.5110   15.2400   21.2940 C   0  0  0  0  0
   16.5170   16.3800   21.5520 C   0  0  0  0  0
   16.6420   16.8230   22.7140 O   0  0  0  0  0
   14.1570   15.8090   20.9420 C   0  0  0  0  0
   13.6010   16.6040   22.1150 C   0  0  0  0  0
   12.2250   17.1540   21.7620 C   0  0  0  0  0
   11.4820   17.7290   22.9060 N   0  0  0  0  0
   11.7140   18.9240   23.4350 C   0  0  0  0  0
   12.6660   19.6990   22.9300 N   0  0  0  0  0
   11.0170   19.3240   24.4720 N   0  0  0  0  0
   17.3210   16.8250   20.5690 N   0  0  0  0  0
   18.0850   18.0750   20.7670 C   0  0  0  0  0
   19.5010   17.6610   20.7560 C   0  0  0  0  0
   19.6740   17.3120   19.4030 C   0  0  0  0  0
   18.8930   16.1650   18.9230 C   0  0  0  0  0
   17.3770   16.3170   19.1930 C   0  0  0  0  0
   16.6800   17.3050   18.2450 C   0  0  0  0  0
   15.8700   18.0690   18.7110 O   0  0  0  0  0
   17.0010   17.3000   16.9430 N   0  0  0  0  0
   16.2970   18.1940   16.0220 C   0  0  0  0  0
   15.6580   17.4070   14.8700 C   0  0  0  0  0
   15.8500   16.1880   14.7750 O   0  0  0  0  0
   17.1850   19.3420   15.5220 C   0  0  0  0  0
   18.4200   18.9060   14.7620 C   0  0  0  0  0
   18.7150   19.2650   13.4540 C   0  0  0  0  0
   20.0300   18.8360   13.0200 C   0  0  0  0  0
   20.7420   18.1300   14.0190 C   0  0  0  0  0
   19.7110   18.0740   15.3800 S   0  0  0  0  0
   14.8790   18.0830   14.0270 N   0  0  0  0  0
   14.1810   17.4840   12.8910 C   0  0  0  0  0
   14.4840   18.1530   11.5700 C   0  0  0  0  0
   13.2690   18.1360   10.6350 C   0  0  0  0  0
   13.1540   16.8750    9.7610 C   0  0  0  0  0
   12.0580   17.0340    8.6720 C   0  0  0  0  0
   11.7840   15.7170    7.9300 C   0  0  0  0  0
   10.6010   15.7900    6.9350 C   0  0  0  0  0
   10.9710   16.4690    5.6060 C   0  0  0  0  0
    9.9470   16.2000    4.4770 C   0  0  0  0  0
   10.3160   16.9830    3.2000 C   0  0  0  0  0
    9.6540   16.4440    1.9160 C   0  0  0  0  0
    8.3130   17.0920    1.5830 C   0  0  0  0  0
    8.0640   17.4730    0.4360 O   0  0  0  0  0
    7.4550   17.2130    2.5890 N   0  0  0  0  0
    6.1220   17.7970    2.4590 C   0  0  0  0  0
    6.1300   19.2300    1.8990 C   0  0  0  0  0
    5.1350   19.7060    1.3630 O   0  0  0  0  0
    5.4860   17.8030    3.8550 C   0  0  0  0  0
    3.9760   17.9080    3.8240 C   0  0  0  0  0
    3.3640   17.6440    4.8790 O   0  0  0  0  0
    3.3940   18.2460    2.7700 O   0  0  0  0  0
    7.2770   19.8850    1.9940 N   0  0  0  0  0
    7.4420   21.2730    1.5770 C   0  0  0  0  0
    7.3160   21.6180    0.1020 C   0  0  0  0  0
    7.7780   20.8670   -0.7630 O   0  0  0  0  0
    8.7610   21.8050    2.1540 C   0  0  0  0  0
    8.7860   21.6430    3.6550 C   0  0  0  0  0
    9.2100   20.4470    4.2380 C   0  0  0  0  0
    8.2400   22.6200    4.4850 C   0  0  0  0  0
    9.0680   20.2220    5.5970 C   0  0  0  0  0
    8.0970   22.4050    5.8500 C   0  0  0  0  0
    8.5060   21.2020    6.3970 C   0  0  0  0  0
    8.3040   20.9560    7.7340 O   0  0  0  0  0
    6.6460   22.7400   -0.1670 N   0  0  0  0  0
    6.4590   23.2500   -1.5260 C   0  0  0  0  0
    7.7460   23.9080   -1.9980 C   0  0  0  0  0
    8.3290   24.7370   -1.2970 O   0  0  0  0  0
    5.3390   24.2980   -1.5790 C   0  0  0  0  0
    5.3650   25.1750   -2.8380 C   0  0  0  0  0
    4.3970   26.3390   -2.8170 C   0  0  0  0  0
    4.7090   27.3980   -3.3940 O   0  0  0  0  0
    3.3140   26.2010   -2.2330 O   0  0  0  0  0
    8.2100   23.5500   -3.2010 N   0  0  0  0  0
    9.4420   24.1540   -3.7050 C   0  0  0  0  0
    9.3900   25.6800   -3.6420 C   0  0  0  0  0
    8.3530   26.2890   -3.8760 O   0  0  0  0  0
    9.4930   23.6480   -5.1400 C   0  0  0  0  0
    8.8800   22.2760   -5.0150 C   0  0  0  0  0
    7.6850   22.5470   -4.1480 C   0  0  0  0  0
   10.5080   26.2780   -3.2630 N   0  0  0  0  0
   10.6220   27.7160   -3.1640 C   0  0  0  0  0
   10.9990   28.2280   -4.5450 C   0  0  0  0  0
   11.9500   27.7340   -5.1550 O   0  0  0  0  0
   11.7350   28.1040   -2.1680 C   0  0  0  0  0
   11.3430   27.6970   -0.7470 C   0  0  0  0  0
   12.0280   29.5940   -2.2560 C   0  0  0  0  0
   12.4580   27.8490    0.2550 C   0  0  0  0  0
   10.2200   29.1790   -5.0860 N   0  0  0  0  0
   10.4910   29.7540   -6.4070 C   0  0  0  0  0
   11.8010   30.5320   -6.3540 C   0  0  0  0  0
   12.2820   30.8590   -5.2720 O   0  0  0  0  0
    9.3170   30.7100   -6.6070 C   0  0  0  0  0
    8.2240   30.0930   -5.7960 C   0  0  0  0  0
    8.9490   29.6890   -4.5480 C   0  0  0  0  0
   12.3610   30.8490   -7.5150 N   0  0  0  0  0
   13.6030   31.6120   -7.5850 C   0  0  0  0  0
   13.2840   33.0690   -7.2390 C   0  0  0  0  0
   13.3490   33.9570   -8.0880 O   0  0  0  0  0
   14.1930   31.5030   -8.9910 C   0  0  0  0  0
   14.4410   30.0600   -9.4420 C   0  0  0  0  0
   14.4910   29.9090  -10.9610 C   0  0  0  0  0
   15.6060   29.9030  -11.5320 O   0  0  0  0  0
   13.4100   29.7880  -11.5820 O   0  0  0  0  0
   12.8890   33.2840   -5.9900 N   0  0  0  0  0
   12.5290   34.5960   -5.4700 C   0  0  0  0  0
   13.3060   34.7510   -4.1680 C   0  0  0  0  0
   12.7120   34.8830   -3.0970 O   0  0  0  0  0
   11.0210   34.6560   -5.1890 C   0  0  0  0  0
   10.3040   35.8680   -5.7890 C   0  0  0  0  0
    9.6500   35.5880   -7.1460 C   0  0  0  0  0
    8.5700   36.1680   -7.4060 O   0  0  0  0  0
   10.2060   34.8010   -7.9520 O   0  0  0  0  0
   14.6310   34.6810   -4.3130 N   0  0  0  0  0
   15.6580   34.7780   -3.2670 C   0  0  0  0  0
   16.5500   33.5420   -3.3710 C   0  0  0  0  0
   17.7730   33.6810   -3.1730 O   0  0  0  0  0
   15.0600   34.8810   -1.8670 C   0  0  0  0  0
   16.0190   32.4510   -3.6760 O   0  0  0  0  0
   14.6476   13.4683   22.1533 H   0  0  0  0  0
   16.2297   13.7069   22.6191 H   0  0  0  0  0
   15.0148   14.6263   23.2939 H   0  0  0  0  0
   15.9576   14.6911   20.4649 H   0  0  0  0  0
   13.4752   14.9909   20.7098 H   0  0  0  0  0
   14.2598   16.4685   20.0802 H   0  0  0  0  0
   14.2730   17.4325   22.3388 H   0  0  0  0  0
   13.5155   15.9512   22.9837 H   0  0  0  0  0
   11.6345   16.3188   21.3854 H   0  0  0  0  0
   12.3780   17.9594   21.0437 H   0  0  0  0  0
   10.7377   17.1660   23.3176 H   0  0  0  0  0
   12.8579   20.6093   23.3483 H   0  0  0  0  0
   13.2056   19.3843   22.1237 H   0  0  0  0  0
   10.2996   18.7173   24.8690 H   0  0  0  0  0
   17.8156   18.5703   21.6998 H   0  0  0  0  0
   17.8716   18.8072   19.9883 H   0  0  0  0  0
   19.7271   16.8518   21.4504 H   0  0  0  0  0
   20.1871   18.4345   21.1009 H   0  0  0  0  0
   20.7220   17.0336   19.2926 H   0  0  0  0  0
   19.3397   18.1717   18.8223 H   0  0  0  0  0
   19.2397   15.2790   19.4548 H   0  0  0  0  0
   19.0345   16.0925   17.8447 H   0  0  0  0  0
   16.8587   15.3707   19.0380 H   0  0  0  0  0
   17.7309   16.6774   16.5966 H   0  0  0  0  0
   15.4902   18.6654   16.5833 H   0  0  0  0  0
   17.5305   19.8815   16.4038 H   0  0  0  0  0
   16.5810   19.9315   14.8322 H   0  0  0  0  0
   18.0248   19.8160   12.8151 H   0  0  0  0  0
   20.4296   19.0366   12.0259 H   0  0  0  0  0
   21.7437   17.7081   13.9367 H   0  0  0  0  0
   14.7620   19.0839   14.1845 H   0  0  0  0  0
   13.1115   17.5908   13.0726 H   0  0  0  0  0
   14.5114   16.4481   12.8150 H   0  0  0  0  0
   15.2965   17.6095   11.0878 H   0  0  0  0  0
   14.7538   19.1911   11.7643 H   0  0  0  0  0
   13.3751   18.9842    9.9587 H   0  0  0  0  0
   12.3806   18.1690   11.2657 H   0  0  0  0  0
   12.8848   16.0350   10.4013 H   0  0  0  0  0
   14.1109   16.7101    9.2658 H   0  0  0  0  0
   12.4057   17.7677    7.9447 H   0  0  0  0  0
   11.1356   17.3464    9.1615 H   0  0  0  0  0
   11.5292   14.9694    8.6812 H   0  0  0  0  0
   12.6776   15.4787    7.3532 H   0  0  0  0  0
    9.8128   16.3815    7.4007 H   0  0  0  0  0
   10.2937   14.7686    6.7106 H   0  0  0  0  0
   11.9306   16.0641    5.2845 H   0  0  0  0  0
   10.9949   17.5447    5.7804 H   0  0  0  0  0
    8.9618   16.5229    4.8135 H   0  0  0  0  0
    9.9503   15.1344    4.2477 H   0  0  0  0  0
   11.3943   16.8940    3.0681 H   0  0  0  0  0
    9.9664   18.0062    3.3374 H   0  0  0  0  0
    9.4674   15.3816    2.0724 H   0  0  0  0  0
   10.3304   16.6626    1.0897 H   0  0  0  0  0
    7.7439   16.8780    3.5081 H   0  0  0  0  0
    5.5575   17.1958    1.7463 H   0  0  0  0  0
    5.8662   18.6752    4.3867 H   0  0  0  0  0
    5.7410   16.8594    4.3375 H   0  0  0  0  0
    4.0452   18.4024    2.0822 H   0  0  0  0  0
    8.0850   19.3947    2.3777 H   0  0  0  0  0
    6.5639   21.7733    1.9854 H   0  0  0  0  0
    8.8522   22.8636    1.9108 H   0  0  0  0  0
    9.5885   21.2412    1.7234 H   0  0  0  0  0
    9.6608   19.6768    3.6122 H   0  0  0  0  0
    7.9196   23.5693    4.0559 H   0  0  0  0  0
    9.3967   19.2791    6.0340 H   0  0  0  0  0
    7.6657   23.1785    6.4854 H   0  0  0  0  0
    8.6418   20.0844    7.9524 H   0  0  0  0  0
    6.2459   23.2662    0.6098 H   0  0  0  0  0
    6.1911   22.4091   -2.1657 H   0  0  0  0  0
    5.4727   24.9581   -0.7220 H   0  0  0  0  0
    4.3914   23.7593   -1.5794 H   0  0  0  0  0
    5.0779   24.5382   -3.6747 H   0  0  0  0  0
    6.3675   25.5968   -2.9107 H   0  0  0  0  0
    5.5819   27.3043   -3.7825 H   0  0  0  0  0
   10.3245   23.8893   -3.1226 H   0  0  0  0  0
   10.5007   23.6327   -5.5552 H   0  0  0  0  0
    8.9649   24.2927   -5.8425 H   0  0  0  0  0
    8.6244   21.8279   -5.9752 H   0  0  0  0  0
    9.5602   21.5356   -4.5940 H   0  0  0  0  0
    6.8173   22.8962   -4.7078 H   0  0  0  0  0
    7.2972   21.6539   -3.6580 H   0  0  0  0  0
   11.3188   25.7037   -3.0323 H   0  0  0  0  0
    9.6828   28.1446   -2.8144 H   0  0  0  0  0
   12.6467   27.5674   -2.4304 H   0  0  0  0  0
   11.0697   26.6422   -0.7734 H   0  0  0  0  0
   10.5303   28.3518   -0.4326 H   0  0  0  0  0
   12.3533   29.8399   -3.2668 H   0  0  0  0  0
   11.1248   30.1553   -2.0169 H   0  0  0  0  0
   12.8152   29.8507   -1.5471 H   0  0  0  0  0
   13.2997   27.2235   -0.0423 H   0  0  0  0  0
   12.7733   28.8918    0.2904 H   0  0  0  0  0
   12.1048   27.5413    1.2392 H   0  0  0  0  0
   10.5845   29.0168   -7.2044 H   0  0  0  0  0
    9.0453   30.8248   -7.6563 H   0  0  0  0  0
    9.5480   31.7276   -6.2920 H   0  0  0  0  0
    7.3905   30.7704   -5.6100 H   0  0  0  0  0
    7.7330   29.2594   -6.2981 H   0  0  0  0  0
    9.0769   30.5065   -3.8385 H   0  0  0  0  0
    8.4068   28.9555   -3.9513 H   0  0  0  0  0
   11.9114   30.5515   -8.3809 H   0  0  0  0  0
   14.3377   31.2221   -6.8805 H   0  0  0  0  0
   15.1565   32.0126   -8.9815 H   0  0  0  0  0
   13.4737   31.9424   -9.6822 H   0  0  0  0  0
   13.6148   29.4510   -9.0750 H   0  0  0  0  0
   15.4080   29.7501   -9.0458 H   0  0  0  0  0
   16.3001   30.0083  -10.8773 H   0  0  0  0  0
   12.8345   32.4849   -5.3585 H   0  0  0  0  0
   12.7641   35.3890   -6.1798 H   0  0  0  0  0
   10.9030   34.7220   -4.1074 H   0  0  0  0  0
   10.5788   33.7696   -5.6438 H   0  0  0  0  0
   11.0519   36.6459   -5.9423 H   0  0  0  0  0
    9.5107   36.1523   -5.0976 H   0  0  0  0  0
   11.0171   34.4663   -7.5626 H   0  0  0  0  0
   14.9715   34.5436   -5.2646 H   0  0  0  0  0
   16.2318   35.6916   -3.4225 H   0  0  0  0  0
   14.4332   35.7706   -1.8056 H   0  0  0  0  0
   14.4573   33.9956   -1.6647 H   0  0  0  0  0
   15.8639   34.9501   -1.1341 H   0  0  0  0  0
   15.0727   32.5750   -3.7800 H   0  0  0  0  0
  2  1  1  0  0  0
  2  5  1  0  0  0
  3  2  1  0  0  0
  3  4  2  0  0  0
  5  6  1  0  0  0
  6  7  1  0  0  0
  7  8  1  0  0  0
  8  9  1  0  0  0
  9 11  2  0  0  0
  9 10  1  0  0  0
 44 45  1  0  0  0
 45 48  1  0  0  0
 45 46  1  0  0  0
 46 47  2  0  0  0
 48 49  1  0  0  0
 49 50  2  0  0  0
 49 51  1  0  0  0
 52 53  1  0  0  0
 53 56  1  0  0  0
 53 54  1  0  0  0
 54 55  2  0  0  0
 56 57  1  0  0  0
 57 58  4  0  0  0
 57 59  4  0  0  0
 59 61  4  0  0  0
 61 62  4  0  0  0
 62 63  1  0  0  0
 60 62  4  0  0  0
 58 60  4  0  0  0
 46 52  1  0  0  0
 64 65  1  0  0  0
 65 68  1  0  0  0
 65 66  1  0  0  0
 66 67  2  0  0  0
 68 69  1  0  0  0
 69 70  1  0  0  0
 70 72  2  0  0  0
 70 71  1  0  0  0
 54 64  1  0  0  0
 74 75  1  0  0  0
 74 77  1  0  0  0
 73 74  1  0  0  0
 73 79  1  0  0  0
 79 78  1  0  0  0
 78 77  1  0  0  0
 75 76  2  0  0  0
 66 73  1  0  0  0
 80 81  1  0  0  0
 81 84  1  0  0  0
 81 82  1  0  0  0
 82 83  2  0  0  0
 84 86  1  0  0  0
 84 85  1  0  0  0
 85 87  1  0  0  0
 75 80  1  0  0  0
 89 90  1  0  0  0
 89 92  1  0  0  0
 88 89  1  0  0  0
 88 94  1  0  0  0
 94 93  1  0  0  0
 93 92  1  0  0  0
 90 91  2  0  0  0
 82 88  1  0  0  0
 95 96  1  0  0  0
 96 99  1  0  0  0
 96 97  1  0  0  0
 97 98  2  0  0  0
 99100  1  0  0  0
100101  1  0  0  0
101103  2  0  0  0
101102  1  0  0  0
 90 95  1  0  0  0
104105  1  0  0  0
105108  1  0  0  0
105106  1  0  0  0
106107  2  0  0  0
108109  1  0  0  0
109110  1  0  0  0
110112  1  0  0  0
110111  2  0  0  0
 97104  1  0  0  0
113114  1  0  0  0
114117  1  0  0  0
114115  1  0  0  0
115116  2  0  0  0
115118  1  0  0  0
106113  1  0  0  0
 12 13  1  0  0  0
 17 12  1  0  0  0
 13 14  1  0  0  0
 15 14  1  0  0  0
 16 15  1  0  0  0
 17 16  1  0  0  0
 18 17  1  0  0  0
 18 19  2  0  0  0
 21 20  1  0  0  0
 22 21  1  0  0  0
 21 24  1  0  0  0
 22 23  2  0  0  0
 24 25  1  0  0  0
 25 26  4  0  0  0
 25 29  4  0  0  0
 26 27  4  0  0  0
 28 27  4  0  0  0
 29 28  4  0  0  0
 31 30  1  0  0  0
 32 31  1  0  0  0
 33 32  1  0  0  0
 34 33  1  0  0  0
 35 34  1  0  0  0
 36 35  1  0  0  0
 37 36  1  0  0  0
 38 37  1  0  0  0
 39 38  1  0  0  0
 40 39  1  0  0  0
 41 40  1  0  0  0
 42 41  1  0  0  0
 42 43  2  0  0  0
 20 18  1  0  0  0
 30 22  1  0  0  0
 12  3  1  0  0  0
 44 42  1  0  0  0
  1119  1  0  0  0
  1120  1  0  0  0
  1121  1  0  0  0
  2122  1  0  0  0
  5123  1  0  0  0
  5124  1  0  0  0
  6125  1  0  0  0
  6126  1  0  0  0
  7127  1  0  0  0
  7128  1  0  0  0
  8129  1  0  0  0
 10130  1  0  0  0
 10131  1  0  0  0
 11132  1  0  0  0
 13133  1  0  0  0
 13134  1  0  0  0
 14135  1  0  0  0
 14136  1  0  0  0
 15137  1  0  0  0
 15138  1  0  0  0
 16139  1  0  0  0
 16140  1  0  0  0
 17141  1  0  0  0
 20142  1  0  0  0
 21143  1  0  0  0
 24144  1  0  0  0
 24145  1  0  0  0
 26146  1  0  0  0
 27147  1  0  0  0
 28148  1  0  0  0
 30149  1  0  0  0
 31150  1  0  0  0
 31151  1  0  0  0
 32152  1  0  0  0
 32153  1  0  0  0
 33154  1  0  0  0
 33155  1  0  0  0
 34156  1  0  0  0
 34157  1  0  0  0
 35158  1  0  0  0
 35159  1  0  0  0
 36160  1  0  0  0
 36161  1  0  0  0
 37162  1  0  0  0
 37163  1  0  0  0
 38164  1  0  0  0
 38165  1  0  0  0
 39166  1  0  0  0
 39167  1  0  0  0
 40168  1  0  0  0
 40169  1  0  0  0
 41170  1  0  0  0
 41171  1  0  0  0
 44172  1  0  0  0
 45173  1  0  0  0
 48174  1  0  0  0
 48175  1  0  0  0
 51176  1  0  0  0
 52177  1  0  0  0
 53178  1  0  0  0
 56179  1  0  0  0
 56180  1  0  0  0
 58181  1  0  0  0
 59182  1  0  0  0
 60183  1  0  0  0
 61184  1  0  0  0
 63185  1  0  0  0
 64186  1  0  0  0
 65187  1  0  0  0
 68188  1  0  0  0
 68189  1  0  0  0
 69190  1  0  0  0
 69191  1  0  0  0
 71192  1  0  0  0
 74193  1  0  0  0
 77194  1  0  0  0
 77195  1  0  0  0
 78196  1  0  0  0
 78197  1  0  0  0
 79198  1  0  0  0
 79199  1  0  0  0
 80200  1  0  0  0
 81201  1  0  0  0
 84202  1  0  0  0
 85203  1  0  0  0
 85204  1  0  0  0
 86205  1  0  0  0
 86206  1  0  0  0
 86207  1  0  0  0
 87208  1  0  0  0
 87209  1  0  0  0
 87210  1  0  0  0
 89211  1  0  0  0
 92212  1  0  0  0
 92213  1  0  0  0
 93214  1  0  0  0
 93215  1  0  0  0
 94216  1  0  0  0
 94217  1  0  0  0
 95218  1  0  0  0
 96219  1  0  0  0
 99220  1  0  0  0
 99221  1  0  0  0
100222  1  0  0  0
100223  1  0  0  0
102224  1  0  0  0
104225  1  0  0  0
105226  1  0  0  0
108227  1  0  0  0
108228  1  0  0  0
109229  1  0  0  0
109230  1  0  0  0
112231  1  0  0  0
113232  1  0  0  0
114233  1  0  0  0
117234  1  0  0  0
117235  1  0  0  0
117236  1  0  0  0
118237  1  0  0  0
M  END
$$$$
