### 
### Created by X-TOOL on Mon Sep 10 21:12:47 2018
### 

@<TRIPOS>MOLECULE
1eoj_ligand
  233   237     1     0     0
SMALL
GAST_HUCK


@<TRIPOS>ATOM
      1 N          15.3350   14.1640   22.4430 N.4       1 ARG         0.2379
      2 CA         15.5110   15.2400   21.2940 C.3       1 ARG         0.0653
      3 C          16.5170   16.3800   21.5520 C.2       1 ARG         0.2292
      4 O          16.6420   16.8230   22.7140 O.2       1 ARG        -0.3905
      5 CB         14.1570   15.8090   20.9420 C.3       1 ARG         0.0110
      6 CG         13.6010   16.6040   22.1150 C.3       1 ARG        -0.0125
      7 CD         12.2250   17.1540   21.7620 C.3       1 ARG         0.0629
      8 NE         11.4820   17.7290   22.9060 N.pl3     1 ARG        -0.2723
      9 CZ         11.7140   18.9240   23.4350 C.cat     1 ARG         0.2882
     10 NH1        12.6660   19.6990   22.9300 N.pl3     1 ARG        -0.2849
     11 NH2        11.0170   19.3240   24.4720 N.pl3     1 ARG        -0.2849
     12 N1         17.3210   16.8250   20.5690 N.am      1 CPI        -0.2471
     13 C2         18.0850   18.0750   20.7670 C.3       1 CPI         0.0369
     14 C3         19.5010   17.6610   20.7560 C.3       1 CPI        -0.0321
     15 C4         19.6740   17.3120   19.4030 C.3       1 CPI        -0.0470
     16 C5         18.8930   16.1650   18.9230 C.3       1 CPI        -0.0121
     17 C6         17.3770   16.3170   19.1930 C.3       1 CPI         0.1338
     18 C          16.6800   17.3050   18.2450 C.2       1 CPI         0.2042
     19 O1         15.8700   18.0690   18.7110 O.2       1 CPI        -0.3944
     20 N          17.0010   17.3000   16.9430 N.am      1 TIH        -0.2617
     21 CA         16.2970   18.1940   16.0220 C.3       1 TIH         0.1420
     22 C          15.6580   17.4070   14.8700 C.2       1 TIH         0.2040
     23 O          15.8500   16.1880   14.7750 O.2       1 TIH        -0.3943
     24 CB         17.1850   19.3420   15.5220 C.3       1 TIH         0.0330
     25 CG         18.4200   18.9060   14.7620 C.2       1 TIH         0.0166
     26 CD         18.7150   19.2650   13.4540 C.2       1 TIH        -0.0815
     27 CE1        20.0300   18.8360   13.0200 C.2       1 TIH        -0.0932
     28 CE2        20.7420   18.1300   14.0190 C.2       1 TIH        -0.0196
     29 SD         19.7110   18.0740   15.3800 S.3       1 TIH        -0.0442
     30 N          14.8790   18.0830   14.0270 N.am      1 DOA        -0.2849
     31 CA         14.1810   17.4840   12.8910 C.3       1 DOA         0.0310
     32 C2         14.4840   18.1530   11.5700 C.3       1 DOA        -0.0327
     33 C3         13.2690   18.1360   10.6350 C.3       1 DOA        -0.0512
     34 C4         13.1540   16.8750    9.7610 C.3       1 DOA        -0.0530
     35 C5         12.0580   17.0340    8.6720 C.3       1 DOA        -0.0531
     36 C6         11.7840   15.7170    7.9300 C.3       1 DOA        -0.0531
     37 C7         10.6010   15.7900    6.9350 C.3       1 DOA        -0.0531
     38 C8         10.9710   16.4690    5.6060 C.3       1 DOA        -0.0529
     39 C9          9.9470   16.2000    4.4770 C.3       1 DOA        -0.0510
     40 C10        10.3160   16.9830    3.2000 C.3       1 DOA        -0.0361
     41 CA2         9.6540   16.4440    1.9160 C.3       1 DOA         0.0374
     42 C           8.3130   17.0920    1.5830 C.2       1 DOA         0.1783
     43 O           8.0640   17.4730    0.4360 O.2       1 DOA        -0.3969
     44 N           7.4550   17.2130    2.5890 N.am      1 ASP        -0.2641
     45 CA          6.1220   17.7970    2.4590 C.3       1 ASP         0.1422
     46 C           6.1300   19.2300    1.8990 C.2       1 ASP         0.2057
     47 O           5.1350   19.7060    1.3630 O.2       1 ASP        -0.3943
     48 CB          5.4860   17.8030    3.8550 C.3       1 ASP         0.0406
     49 CG          3.9760   17.9080    3.8240 C.2       1 ASP         0.0393
     50 OD1         3.3640   17.6440    4.8790 O.co2     1 ASP        -0.5688
     51 OD2         3.3940   18.2460    2.7700 O.co2     1 ASP        -0.5688
     52 N           7.2770   19.8850    1.9940 N.am      1 TYR        -0.2620
     53 CA          7.4420   21.2730    1.5770 C.3       1 TYR         0.1390
     54 C           7.3160   21.6180    0.1020 C.2       1 TYR         0.2057
     55 O           7.7780   20.8670   -0.7630 O.2       1 TYR        -0.3942
     56 CB          8.7610   21.8050    2.1540 C.3       1 TYR         0.0163
     57 CG          8.7860   21.6430    3.6550 C.ar      1 TYR        -0.0493
     58 CD1         9.2100   20.4470    4.2380 C.ar      1 TYR        -0.0685
     59 CD2         8.2400   22.6200    4.4850 C.ar      1 TYR        -0.0685
     60 CE1         9.0680   20.2220    5.5970 C.ar      1 TYR        -0.0398
     61 CE2         8.0970   22.4050    5.8500 C.ar      1 TYR        -0.0398
     62 CZ          8.5060   21.2020    6.3970 C.ar      1 TYR         0.0805
     63 OH          8.3040   20.9560    7.7340 O.3       1 TYR        -0.3376
     64 N           6.6460   22.7400   -0.1670 N.am      1 GLU        -0.2635
     65 CA          6.4590   23.2500   -1.5260 C.3       1 GLU         0.1327
     66 C           7.7460   23.9080   -1.9980 C.2       1 GLU         0.2065
     67 O           8.3290   24.7370   -1.2970 O.2       1 GLU        -0.3942
     68 CB          5.3390   24.2980   -1.5790 C.3       1 GLU        -0.0008
     69 CG          5.3650   25.1750   -2.8380 C.3       1 GLU         0.0044
     70 CD          4.3970   26.3390   -2.8170 C.2       1 GLU         0.0350
     71 OE1         4.7090   27.3980   -3.3940 O.co2     1 GLU        -0.5690
     72 OE2         3.3140   26.2010   -2.2330 O.co2     1 GLU        -0.5690
     73 N           8.2100   23.5500   -3.2010 N.am      1 PRO        -0.2498
     74 CA          9.4420   24.1540   -3.7050 C.3       1 PRO         0.1338
     75 C           9.3900   25.6800   -3.6420 C.2       1 PRO         0.2041
     76 O           8.3530   26.2890   -3.8760 O.2       1 PRO        -0.3944
     77 CB          9.4930   23.6480   -5.1400 C.3       1 PRO        -0.0104
     78 CG          8.8800   22.2760   -5.0150 C.3       1 PRO        -0.0281
     79 CD          7.6850   22.5470   -4.1480 C.3       1 PRO         0.0369
     80 N          10.5080   26.2780   -3.2630 N.am      1 ILE        -0.2634
     81 CA         10.6220   27.7160   -3.1640 C.3       1 ILE         0.1337
     82 C          10.9990   28.2280   -4.5450 C.2       1 ILE         0.2067
     83 O          11.9500   27.7340   -5.1550 O.2       1 ILE        -0.3942
     84 CB         11.7350   28.1040   -2.1680 C.3       1 ILE        -0.0037
     85 CG1        11.3430   27.6970   -0.7470 C.3       1 ILE        -0.0491
     86 CG2        12.0280   29.5940   -2.2560 C.3       1 ILE        -0.0582
     87 CD1        12.4580   27.8490    0.2550 C.3       1 ILE        -0.0648
     88 N          10.2200   29.1790   -5.0860 N.am      1 PRO        -0.2498
     89 CA         10.4910   29.7540   -6.4070 C.3       1 PRO         0.1338
     90 C          11.8010   30.5320   -6.3540 C.2       1 PRO         0.2041
     91 O          12.2820   30.8590   -5.2720 O.2       1 PRO        -0.3944
     92 CB          9.3170   30.7100   -6.6070 C.3       1 PRO        -0.0104
     93 CG          8.2240   30.0930   -5.7960 C.3       1 PRO        -0.0281
     94 CD          8.9490   29.6890   -4.5480 C.3       1 PRO         0.0369
     95 N          12.3610   30.8490   -7.5150 N.am      1 GLU        -0.2636
     96 CA         13.6030   31.6120   -7.5850 C.3       1 GLU         0.1325
     97 C          13.2840   33.0690   -7.2390 C.2       1 GLU         0.2040
     98 O          13.3490   33.9570   -8.0880 O.2       1 GLU        -0.3944
     99 CB         14.1930   31.5030   -8.9910 C.3       1 GLU        -0.0008
    100 CG         14.4410   30.0600   -9.4420 C.3       1 GLU         0.0044
    101 CD         14.4910   29.9090  -10.9610 C.2       1 GLU         0.0350
    102 OE1        15.6060   29.9030  -11.5320 O.co2     1 GLU        -0.5690
    103 OE2        13.4100   29.7880  -11.5820 O.co2     1 GLU        -0.5690
    104 N          12.8890   33.2840   -5.9900 N.am      1 GLU        -0.2636
    105 CA         12.5290   34.5960   -5.4700 C.3       1 GLU         0.1324
    106 C          13.3060   34.7510   -4.1680 C.2       1 GLU         0.2034
    107 O          12.7120   34.8830   -3.0970 O.2       1 GLU        -0.3944
    108 CB         11.0210   34.6560   -5.1890 C.3       1 GLU        -0.0008
    109 CG         10.3040   35.8680   -5.7890 C.3       1 GLU         0.0044
    110 CD          9.6500   35.5880   -7.1460 C.2       1 GLU         0.0350
    111 OE1         8.5700   36.1680   -7.4060 O.co2     1 GLU        -0.5690
    112 OE2        10.2060   34.8010   -7.9520 O.co2     1 GLU        -0.5690
    113 N          14.6310   34.6810   -4.3130 N.am      1 ALA        -0.2698
    114 CA         15.6580   34.7780   -3.2670 C.3       1 ALA         0.0916
    115 C          16.5500   33.5420   -3.3710 C.2       1 ALA         0.0598
    116 O          17.7730   33.6810   -3.1730 O.co2     1 ALA        -0.5666
    117 CB         15.0600   34.8810   -1.8670 C.3       1 ALA        -0.0300
    118 OXT        16.0190   32.4510   -3.6760 O.co2     1 ALA        -0.5666
    119 H1         14.6559   13.4759   22.1578 H         1 ARG         0.2015
    120 H2         15.0185   14.6197   23.2845 H         1 ARG         0.2015
    121 H3         16.2186   13.7115   22.6179 H         1 ARG         0.2015
    122 H4         15.8846   14.6958   20.4141 H         1 ARG         0.1098
    123 H5         13.4681   14.9859   20.7016 H         1 ARG         0.0347
    124 H6         14.2565   16.4707   20.0690 H         1 ARG         0.0347
    125 H7         14.2796   17.4387   22.3444 H         1 ARG         0.0302
    126 H8         13.5171   15.9475   22.9936 H         1 ARG         0.0302
    127 H9         11.6252   16.3342   21.3399 H         1 ARG         0.0689
    128 H10        12.3536   17.9417   21.0051 H         1 ARG         0.0689
    129 H11        10.7304   17.1604   23.3217 H         1 ARG         0.2642
    130 H12        12.8466   20.6265   23.3400 H         1 ARG         0.2615
    131 H13        13.2242   19.3729   22.1281 H         1 ARG         0.2615
    132 H14        10.2792   18.7195   24.8608 H         1 ARG         0.2615
    133 H15        11.2076   20.2425   24.8974 H         1 ARG         0.2615
    134 H16        17.8251   18.5389   21.7299 H         1 CPI         0.0524
    135 H17        17.8832   18.7851   19.9515 H         1 CPI         0.0524
    136 H18        19.6746   16.8009   21.4194 H         1 CPI         0.0285
    137 H19        20.1650   18.4883   21.0468 H         1 CPI         0.0285
    138 H20        20.7384   17.0805   19.2498 H         1 CPI         0.0268
    139 H21        19.3971   18.1848   18.7935 H         1 CPI         0.0268
    140 H22        19.2514   15.2580   19.4318 H         1 CPI         0.0312
    141 H23        19.0484   16.0629   17.8388 H         1 CPI         0.0312
    142 H24        16.8797   15.3389   19.1158 H         1 CPI         0.0802
    143 H25        17.7166   16.6896   16.6034 H         1 TIH         0.1885
    144 H26        15.4754   18.6553   16.5896 H         1 TIH         0.0827
    145 H27        17.5095   19.9283   16.3943 H         1 TIH         0.0500
    146 H28        16.5810   19.9771   14.8574 H         1 TIH         0.0500
    147 H29        18.0255   19.8155   12.8157 H         1 TIH         0.0277
    148 H30        20.4292   19.0364   12.0268 H         1 TIH         0.0371
    149 H31        21.7428   17.7085   13.9368 H         1 TIH         0.0598
    150 H32        14.7642   19.0643   14.1814 H         1 DOA         0.1851
    151 H33        13.0984   17.5512   13.0739 H         1 DOA         0.0520
    152 H34        14.4760   16.4267   12.8204 H         1 DOA         0.0520
    153 H35        15.3156   17.6220   11.0837 H         1 DOA         0.0285
    154 H36        14.7752   19.1971   11.7574 H         1 DOA         0.0285
    155 H37        13.3348   19.0099    9.9702 H         1 DOA         0.0266
    156 H38        12.3606   18.2112   11.2507 H         1 DOA         0.0266
    157 H39        12.8991   16.0181   10.4019 H         1 DOA         0.0265
    158 H40        14.1211   16.6910    9.2703 H         1 DOA         0.0265
    159 H41        12.3888   17.7890    7.9437 H         1 DOA         0.0265
    160 H42        11.1273   17.3706    9.1521 H         1 DOA         0.0265
    161 H43        11.5614   14.9396    8.6757 H         1 DOA         0.0265
    162 H44        12.6898   15.4400    7.3707 H         1 DOA         0.0265
    163 H45         9.7844   16.3591    7.4033 H         1 DOA         0.0265
    164 H46        10.2593   14.7664    6.7218 H         1 DOA         0.0265
    165 H47        11.9534   16.0936    5.2834 H         1 DOA         0.0265
    166 H48        11.0300   17.5547    5.7728 H         1 DOA         0.0265
    167 H49         8.9480   16.5128    4.8150 H         1 DOA         0.0267
    168 H50         9.9368   15.1239    4.2491 H         1 DOA         0.0267
    169 H51        11.4074   16.9379    3.0707 H         1 DOA         0.0290
    170 H52        10.0057   18.0296    3.3351 H         1 DOA         0.0290
    171 H53         9.4934   15.3627    2.0386 H         1 DOA         0.0502
    172 H54        10.3402   16.6197    1.0744 H         1 DOA         0.0502
    173 H55         7.7382   16.8846    3.4901 H         1 ASP         0.1884
    174 H56         5.5247   17.1656    1.7848 H         1 ASP         0.0819
    175 H57         5.8842   18.6609    4.4166 H         1 ASP         0.0478
    176 H58         5.7607   16.8695    4.3680 H         1 ASP         0.0478
    177 H59         8.0691   19.4043    2.3702 H         1 TYR         0.1885
    178 H60         6.6283   21.8256    2.0694 H         1 TYR         0.0821
    179 H61         8.8616   22.8713    1.9035 H         1 TYR         0.0453
    180 H62         9.5999   21.2446    1.7156 H         1 TYR         0.0453
    181 H63         9.6583   19.6810    3.6156 H         1 TYR         0.0530
    182 H64         7.9213   23.5641    4.0582 H         1 TYR         0.0530
    183 H65         9.3949   19.2843    6.0316 H         1 TYR         0.0525
    184 H66         7.6681   23.1743    6.4819 H         1 TYR         0.0525
    185 H67         8.6383   20.0935    7.9502 H         1 TYR         0.2458
    186 H68         6.2538   23.2559    0.5946 H         1 GLU         0.1883
    187 H69         6.2049   22.4125   -2.1923 H         1 GLU         0.0801
    188 H70         5.4351   24.9520   -0.6998 H         1 GLU         0.0330
    189 H71         4.3726   23.7739   -1.5423 H         1 GLU         0.0330
    190 H72         5.1198   24.5408   -3.7027 H         1 GLU         0.0433
    191 H73         6.3822   25.5771   -2.9548 H         1 GLU         0.0433
    192 H74        10.3135   23.8009   -3.1343 H         1 PRO         0.0802
    193 H75        10.5286   23.5904   -5.5062 H         1 PRO         0.0313
    194 H76         8.9021   24.2894   -5.8105 H         1 PRO         0.0313
    195 H77         8.5803   21.8811   -5.9969 H         1 PRO         0.0287
    196 H78         9.5727   21.5711   -4.5321 H         1 PRO         0.0287
    197 H79         6.8489   22.9528   -4.7364 H         1 PRO         0.0524
    198 H80         7.3572   21.6369   -3.6244 H         1 PRO         0.0524
    199 H81        11.3029   25.7149   -3.0369 H         1 ILE         0.1883
    200 H82         9.6647   28.1505   -2.8403 H         1 ILE         0.0803
    201 H83        12.6500   27.5579   -2.4409 H         1 ILE         0.0345
    202 H84        11.0302   26.6425   -0.7614 H         1 ILE         0.0267
    203 H85        10.4993   28.3254   -0.4258 H         1 ILE         0.0267
    204 H86        12.3060   29.8526   -3.2884 H         1 ILE         0.0235
    205 H87        12.8578   29.8452   -1.5790 H         1 ILE         0.0235
    206 H88        11.1321   30.1617   -1.9644 H         1 ILE         0.0235
    207 H89        12.1027   27.5388    1.2487 H         1 ILE         0.0230
    208 H90        12.7771   28.9010    0.2917 H         1 ILE         0.0230
    209 H91        13.3081   27.2181   -0.0438 H         1 ILE         0.0230
    210 H92        10.5301   28.9846   -7.1921 H         1 PRO         0.0802
    211 H93         9.0340   30.7688   -7.6683 H         1 PRO         0.0313
    212 H94         9.5616   31.7164   -6.2364 H         1 PRO         0.0313
    213 H95         7.4289   30.8212   -5.5779 H         1 PRO         0.0287
    214 H96         7.7917   29.2201   -6.3070 H         1 PRO         0.0287
    215 H97         9.1127   30.5505   -3.8840 H         1 PRO         0.0524
    216 H98         8.4019   28.9052   -4.0036 H         1 PRO         0.0524
    217 H99        11.9202   30.5573   -8.3639 H         1 GLU         0.1883
    218 H100       14.3257   31.2124   -6.8583 H         1 GLU         0.0801
    219 H101       15.1515   32.0424   -9.0087 H         1 GLU         0.0330
    220 H102       13.4944   31.9733   -9.6987 H         1 GLU         0.0330
    221 H103       13.6295   29.4271   -9.0535 H         1 GLU         0.0433
    222 H104       15.4011   29.7225   -9.0246 H         1 GLU         0.0433
    223 H105       12.8356   32.5005   -5.3709 H         1 GLU         0.1883
    224 H106       12.8066   35.3854   -6.1840 H         1 GLU         0.0801
    225 H107       10.8767   34.6782   -4.0987 H         1 GLU         0.0330
    226 H108       10.5596   33.7467   -5.6015 H         1 GLU         0.0330
    227 H109       11.0381   36.6770   -5.9178 H         1 GLU         0.0433
    228 H110        9.5215   36.1913   -5.0867 H         1 GLU         0.0433
    229 H111       14.9648   34.5463   -5.2460 H         1 ALA         0.1875
    230 H112       16.2641   35.6776   -3.4497 H         1 ALA         0.0723
    231 H113       15.8703   34.9508   -1.1264 H         1 ALA         0.0270
    232 H114       14.4515   33.9880   -1.6616 H         1 ALA         0.0270
    233 H115       14.4271   35.7785   -1.8037 H         1 ALA         0.0270
@<TRIPOS>BOND
     1    2    1 1  
     2    2    5 1  
     3    3    2 1  
     4    3    4 2  
     5    5    6 1  
     6    6    7 1  
     7    7    8 1  
     8    8    9 ar 
     9    9   11 ar 
    10    9   10 ar 
    11   44   45 1  
    12   45   48 1  
    13   45   46 1  
    14   46   47 2  
    15   48   49 1  
    16   49   50 ar 
    17   49   51 ar 
    18   52   53 1  
    19   53   56 1  
    20   53   54 1  
    21   54   55 2  
    22   56   57 1  
    23   57   58 ar 
    24   57   59 ar 
    25   59   61 ar 
    26   61   62 ar 
    27   62   63 1  
    28   60   62 ar 
    29   58   60 ar 
    30   46   52 am 
    31   64   65 1  
    32   65   68 1  
    33   65   66 1  
    34   66   67 2  
    35   68   69 1  
    36   69   70 1  
    37   70   72 ar 
    38   70   71 ar 
    39   54   64 am 
    40   74   75 1  
    41   74   77 1  
    42   73   74 1  
    43   73   79 1  
    44   79   78 1  
    45   78   77 1  
    46   75   76 2  
    47   66   73 am 
    48   80   81 1  
    49   81   84 1  
    50   81   82 1  
    51   82   83 2  
    52   84   86 1  
    53   84   85 1  
    54   85   87 1  
    55   75   80 am 
    56   89   90 1  
    57   89   92 1  
    58   88   89 1  
    59   88   94 1  
    60   94   93 1  
    61   93   92 1  
    62   90   91 2  
    63   82   88 am 
    64   95   96 1  
    65   96   99 1  
    66   96   97 1  
    67   97   98 2  
    68   99  100 1  
    69  100  101 1  
    70  101  103 ar 
    71  101  102 ar 
    72   90   95 am 
    73  104  105 1  
    74  105  108 1  
    75  105  106 1  
    76  106  107 2  
    77  108  109 1  
    78  109  110 1  
    79  110  112 ar 
    80  110  111 ar 
    81   97  104 am 
    82  113  114 1  
    83  114  117 1  
    84  114  115 1  
    85  115  116 ar 
    86  115  118 ar 
    87  106  113 am 
    88   12   13 1  
    89   17   12 1  
    90   13   14 1  
    91   15   14 1  
    92   16   15 1  
    93   17   16 1  
    94   18   17 1  
    95   18   19 2  
    96   21   20 1  
    97   22   21 1  
    98   21   24 1  
    99   22   23 2  
   100   24   25 1  
   101   25   26 2  
   102   25   29 1  
   103   26   27 1  
   104   28   27 2  
   105   29   28 1  
   106   31   30 1  
   107   32   31 1  
   108   33   32 1  
   109   34   33 1  
   110   35   34 1  
   111   36   35 1  
   112   37   36 1  
   113   38   37 1  
   114   39   38 1  
   115   40   39 1  
   116   41   40 1  
   117   42   41 1  
   118   42   43 2  
   119   20   18 am 
   120   30   22 am 
   121   12    3 am 
   122   44   42 am 
   123    1  119 1  
   124    1  120 1  
   125    1  121 1  
   126    2  122 1  
   127    5  123 1  
   128    5  124 1  
   129    6  125 1  
   130    6  126 1  
   131    7  127 1  
   132    7  128 1  
   133    8  129 1  
   134   10  130 1  
   135   10  131 1  
   136   11  132 1  
   137   11  133 1  
   138   13  134 1  
   139   13  135 1  
   140   14  136 1  
   141   14  137 1  
   142   15  138 1  
   143   15  139 1  
   144   16  140 1  
   145   16  141 1  
   146   17  142 1  
   147   20  143 1  
   148   21  144 1  
   149   24  145 1  
   150   24  146 1  
   151   26  147 1  
   152   27  148 1  
   153   28  149 1  
   154   30  150 1  
   155   31  151 1  
   156   31  152 1  
   157   32  153 1  
   158   32  154 1  
   159   33  155 1  
   160   33  156 1  
   161   34  157 1  
   162   34  158 1  
   163   35  159 1  
   164   35  160 1  
   165   36  161 1  
   166   36  162 1  
   167   37  163 1  
   168   37  164 1  
   169   38  165 1  
   170   38  166 1  
   171   39  167 1  
   172   39  168 1  
   173   40  169 1  
   174   40  170 1  
   175   41  171 1  
   176   41  172 1  
   177   44  173 1  
   178   45  174 1  
   179   48  175 1  
   180   48  176 1  
   181   52  177 1  
   182   53  178 1  
   183   56  179 1  
   184   56  180 1  
   185   58  181 1  
   186   59  182 1  
   187   60  183 1  
   188   61  184 1  
   189   63  185 1  
   190   64  186 1  
   191   65  187 1  
   192   68  188 1  
   193   68  189 1  
   194   69  190 1  
   195   69  191 1  
   196   74  192 1  
   197   77  193 1  
   198   77  194 1  
   199   78  195 1  
   200   78  196 1  
   201   79  197 1  
   202   79  198 1  
   203   80  199 1  
   204   81  200 1  
   205   84  201 1  
   206   85  202 1  
   207   85  203 1  
   208   86  204 1  
   209   86  205 1  
   210   86  206 1  
   211   87  207 1  
   212   87  208 1  
   213   87  209 1  
   214   89  210 1  
   215   92  211 1  
   216   92  212 1  
   217   93  213 1  
   218   93  214 1  
   219   94  215 1  
   220   94  216 1  
   221   95  217 1  
   222   96  218 1  
   223   99  219 1  
   224   99  220 1  
   225  100  221 1  
   226  100  222 1  
   227  104  223 1  
   228  105  224 1  
   229  108  225 1  
   230  108  226 1  
   231  109  227 1  
   232  109  228 1  
   233  113  229 1  
   234  114  230 1  
   235  117  231 1  
   236  117  232 1  
   237  117  233 1  
@<TRIPOS>SUBSTRUCTURE
     1 ARG         1

