3evf_ligand
  -I-interpret- 

 42 44  0  0  0  0  0  0  0  0999 V2000
   28.7050   25.0730  -51.7510 N   0  0  0  0  0
   31.1070   28.6800  -50.2540 O   0  0  0  0  0
   30.4680   27.6690  -49.9320 C   0  0  0  0  0
   30.2030   27.1680  -48.6310 C   0  0  0  0  0
   30.5630   27.6460  -47.3840 N   0  3  0  0  0
   31.3560   28.8600  -47.0870 C   0  0  0  0  0
   30.0600   26.8130  -46.5200 C   0  0  0  0  0
   29.3640   25.7920  -47.1330 N   0  0  0  0  0
   29.4630   26.0130  -48.5000 C   0  0  0  0  0
   28.9250   25.2430  -49.4670 N   0  0  0  0  0
   29.1750   25.7190  -50.6750 C   0  0  0  0  0
   29.9010   26.8610  -50.9130 N   0  0  0  0  0
   29.8650   23.0910  -43.4800 O   0  0  0  0  0
   28.6450   24.6940  -46.4910 C   0  0  0  0  0
   29.5500   23.6480  -45.8340 C   0  0  0  0  0
   29.5830   24.1440  -44.3940 C   0  0  0  0  0
   28.1700   24.6700  -44.1940 C   0  0  0  0  0
   28.0400   25.7420  -43.1410 C   0  0  0  0  0
   27.8160   25.2410  -45.4820 O   0  0  0  0  0
   28.9680   22.3680  -45.9670 O   0  0  0  0  0
   28.6640   28.2950  -42.9070 P   0  0  0  0  0
   29.3820   29.2700  -43.9680 O   0  0  0  0  0
   27.2240   28.6020  -42.7620 O   0  0  0  0  0
   29.4730   28.4810  -41.5280 O   0  0  0  0  0
   28.9620   26.7950  -43.4090 O   0  0  0  0  0
   28.1582   24.2198  -51.6351 H   0  0  0  0  0
   28.8941   25.4346  -52.6858 H   0  0  0  0  0
   32.3392   28.7723  -47.5493 H   0  0  0  0  0
   30.8423   29.7346  -47.4860 H   0  0  0  0  0
   31.4684   28.9640  -46.0078 H   0  0  0  0  0
   30.1750   26.9105  -45.4405 H   0  0  0  0  0
   30.0349   27.1384  -51.8854 H   0  0  0  0  0
   29.8777   23.4398  -42.5857 H   0  0  0  0  0
   28.0878   24.1848  -47.2774 H   0  0  0  0  0
   30.5468   23.5440  -46.2626 H   0  0  0  0  0
   30.3601   24.8876  -44.2171 H   0  0  0  0  0
   27.5283   23.8583  -43.8513 H   0  0  0  0  0
   28.2558   25.3141  -42.1620 H   0  0  0  0  0
   27.0250   26.1392  -43.1540 H   0  0  0  0  0
   29.5373   21.7144  -45.5543 H   0  0  0  0  0
   30.3117   29.0401  -44.0339 H   0  0  0  0  0
   30.3989   28.2714  -41.6707 H   0  0  0  0  0
 11  1  1  0  0  0
  3  2  2  0  0  0
  4  3  1  0  0  0
  3 12  1  0  0  0
  4  5  4  0  0  0
  9  4  4  0  0  0
  5  6  1  0  0  0
  7  5  4  0  0  0
  8  7  4  0  0  0
  8  9  4  0  0  0
 14  8  1  0  0  0
  9 10  1  0  0  0
 10 11  2  0  0  0
 11 12  1  0  0  0
 16 13  1  0  0  0
 14 15  1  0  0  0
 19 14  1  0  0  0
 16 15  1  0  0  0
 15 20  1  0  0  0
 17 16  1  0  0  0
 18 17  1  0  0  0
 17 19  1  0  0  0
 25 18  1  0  0  0
 21 22  1  0  0  0
 21 23  2  0  0  0
 21 24  1  0  0  0
 21 25  1  0  0  0
  1 26  1  0  0  0
  1 27  1  0  0  0
  6 28  1  0  0  0
  6 29  1  0  0  0
  6 30  1  0  0  0
  7 31  1  0  0  0
 12 32  1  0  0  0
 13 33  1  0  0  0
 14 34  1  0  0  0
 15 35  1  0  0  0
 16 36  1  0  0  0
 17 37  1  0  0  0
 18 38  1  0  0  0
 18 39  1  0  0  0
 20 40  1  0  0  0
 22 41  1  0  0  0
 24 42  1  0  0  0
M  END
$$$$
