### 
### Created by X-TOOL on Mon Sep 10 21:13:01 2018
### 

@<TRIPOS>MOLECULE
3evf_ligand
   40    42     1     0     0
SMALL
GAST_HUCK


@<TRIPOS>ATOM
      1 N2         28.7050   25.0730  -51.7510 N.pl3     1 GTA        -0.2552
      2 O6         31.1070   28.6800  -50.2540 O.2       1 GTA        -0.3308
      3 C6         30.4680   27.6690  -49.9320 C.2       1 GTA         0.3089
      4 C5         30.2030   27.1680  -48.6310 C.2       1 GTA         0.1910
      5 N7         30.5630   27.6460  -47.3840 N.2       1 GTA        -0.3076
      6 C7         31.3560   28.8600  -47.0870 C.3       1 GTA        -0.0039
      7 C8         30.0600   26.8130  -46.5200 C.2       1 GTA         0.1422
      8 N9         29.3640   25.7920  -47.1330 N.pl3     1 GTA        -0.1529
      9 C4         29.4630   26.0130  -48.5000 C.2       1 GTA         0.2331
     10 N3         28.9250   25.2430  -49.4670 N.2       1 GTA        -0.1481
     11 C2         29.1750   25.7190  -50.6750 C.2       1 GTA         0.3134
     12 N1         29.9010   26.8610  -50.9130 N.am      1 GTA        -0.1404
     13 O3A        29.8650   23.0910  -43.4800 O.3       1 GTA        -0.3864
     14 C1A        28.6450   24.6940  -46.4910 C.3       1 GTA         0.2101
     15 C2A        29.5500   23.6480  -45.8340 C.3       1 GTA         0.1397
     16 C3A        29.5830   24.1440  -44.3940 C.3       1 GTA         0.1150
     17 C4A        28.1700   24.6700  -44.1940 C.3       1 GTA         0.1182
     18 C5A        28.0400   25.7420  -43.1410 C.3       1 GTA         0.1072
     19 O4A        27.8160   25.2410  -45.4820 O.3       1 GTA        -0.3355
     20 O2A        28.9680   22.3680  -45.9670 O.3       1 GTA        -0.3835
     21 P1         28.6640   28.2950  -42.9070 P.3       1 GTA         0.2008
     22 O11        29.3820   29.2700  -43.9680 O.co2     1 GTA        -0.5537
     23 O12        27.2240   28.6020  -42.7620 O.co2     1 GTA        -0.5537
     24 O13        29.4730   28.4810  -41.5280 O.co2     1 GTA        -0.5537
     25 O15        28.9620   26.7950  -43.4090 O.3       1 GTA        -0.2734
     26 H1         28.1538   24.2108  -51.6340 H         1 GTA         0.2040
     27 H2         28.8950   25.4387  -52.6950 H         1 GTA         0.2040
     28 H4         31.4702   28.9660  -45.9981 H         1 GTA         0.0360
     29 H5         30.8386   29.7435  -47.4891 H         1 GTA         0.0360
     30 H6         32.3486   28.7727  -47.5529 H         1 GTA         0.0360
     31 H7         30.1749   26.9104  -45.4415 H         1 GTA         0.1610
     32 H8         30.0323   27.1330  -51.8663 H         1 GTA         0.2760
     33 H9         29.8776   23.4362  -42.5951 H         1 GTA         0.2100
     34 H10        28.0259   24.1930  -47.2497 H         1 GTA         0.1009
     35 H11        30.5577   23.6418  -46.2750 H         1 GTA         0.0677
     36 H12        30.3270   24.9446  -44.2694 H         1 GTA         0.0648
     37 H13        27.4989   23.8373  -43.9364 H         1 GTA         0.0650
     38 H14        28.2552   25.3109  -42.1522 H         1 GTA         0.0639
     39 H15        27.0154   26.1421  -43.1515 H         1 GTA         0.0639
     40 H16        28.9747   22.1118  -46.8818 H         1 GTA         0.2101
@<TRIPOS>BOND
     1   11    1 1  
     2    3    2 2  
     3    4    3 1  
     4    3   12 am 
     5    4    5 1  
     6    9    4 2  
     7    5    6 1  
     8    7    5 2  
     9    8    7 1  
    10    8    9 1  
    11   14    8 1  
    12    9   10 1  
    13   10   11 2  
    14   11   12 am 
    15   16   13 1  
    16   14   15 1  
    17   19   14 1  
    18   16   15 1  
    19   15   20 1  
    20   17   16 1  
    21   18   17 1  
    22   17   19 1  
    23   25   18 1  
    24   21   22 ar 
    25   21   23 ar 
    26   21   24 ar 
    27   21   25 1  
    28    1   26 1  
    29    1   27 1  
    30    6   28 1  
    31    6   29 1  
    32    6   30 1  
    33    7   31 1  
    34   12   32 1  
    35   13   33 1  
    36   14   34 1  
    37   15   35 1  
    38   16   36 1  
    39   17   37 1  
    40   18   38 1  
    41   18   39 1  
    42   20   40 1  
@<TRIPOS>SUBSTRUCTURE
     1 GTA         1

