6e8x_ligand
  -I-interpret- 

 54 57  0  0  0  0  0  0  0  0999 V2000
   -3.7340    0.9540   13.7720 C   0  0  0  0  0
   -3.3340    2.2520   13.4420 O   0  0  0  0  0
   -3.8580    3.4370   13.9600 C   0  0  0  0  0
   -3.2100    4.5790   13.5550 C   0  0  0  0  0
   -3.7780    5.7820   14.0190 C   0  0  0  0  0
   -3.2020    7.0030   13.6650 C   0  0  0  0  0
   -1.9400    7.0050   12.7610 C   0  0  0  0  0
   -1.4890    8.3660   12.1580 C   0  0  0  0  0
   -2.3030    9.6670   12.4420 C   0  0  0  0  0
   -3.2850   10.1140   11.3490 C   0  0  0  0  0
   -1.4940   10.8330   12.8560 C   0  0  0  0  0
   -0.9590   11.4400   11.7360 O   0  0  0  0  0
    0.6270   11.7580   11.6740 S   0  0  0  0  0
    1.1840   10.8560   10.4410 O   0  0  0  0  0
    1.3720   11.4500   13.0750 O   0  0  0  0  0
    0.8120   13.3560   11.1220 N   0  0  0  0  0
   -2.4590   11.7510   13.6610 C   0  0  0  0  0
   -3.4980   10.7350   14.4370 C   0  0  0  0  0
   -3.0140    9.4770   13.6870 C   0  0  0  0  0
   -3.7510    8.2330   14.1350 C   0  0  0  0  0
   -4.9330    8.1730   15.0150 C   0  0  0  0  0
   -5.4770    6.8440   15.3320 C   0  0  0  0  0
   -4.8970    5.7340   14.8070 C   0  0  0  0  0
   -5.5060    4.5830   15.2150 C   0  0  0  0  0
   -4.9150    3.4810   14.7660 C   0  0  0  0  0
   -5.5550    2.3470   15.1570 O   0  0  0  0  0
   -5.4410    1.3700   16.4720 S   0  0  0  0  0
   -6.9660    1.5080   16.9600 O   0  0  0  0  0
   -4.5850    1.6320   17.7380 O   0  0  0  0  0
   -4.8630   -0.1420   16.1790 N   0  0  0  0  0
   -3.5828    0.7887   14.8387 H   0  0  0  0  0
   -4.7891    0.8276   13.5294 H   0  0  0  0  0
   -3.1409    0.2370   13.2043 H   0  0  0  0  0
   -2.3229    4.5560   12.9221 H   0  0  0  0  0
   -2.1902    6.3750   11.9074 H   0  0  0  0  0
   -1.1198    6.6827   13.4024 H   0  0  0  0  0
   -1.5766    8.2244   11.0808 H   0  0  0  0  0
   -0.5169    8.5527   12.6143 H   0  0  0  0  0
   -2.7379   10.3003   10.4249 H   0  0  0  0  0
   -4.0239    9.3300   11.1835 H   0  0  0  0  0
   -3.7877   11.0279   11.6656 H   0  0  0  0  0
   -0.6416   10.5703   13.4825 H   0  0  0  0  0
    1.2025   13.5339   10.1967 H   0  0  0  0  0
    0.5324   14.1364   11.7163 H   0  0  0  0  0
   -2.9920   12.4394   13.0052 H   0  0  0  0  0
   -1.9144   12.3778   14.3672 H   0  0  0  0  0
   -4.5612   10.9707   14.3911 H   0  0  0  0  0
   -3.4643   10.7160   15.5263 H   0  0  0  0  0
   -2.0307    9.0789   13.9373 H   0  0  0  0  0
   -5.3864    9.0797   15.4154 H   0  0  0  0  0
   -6.3435    6.7502   15.9866 H   0  0  0  0  0
   -6.3927    4.5690   15.8488 H   0  0  0  0  0
   -5.4677   -0.9531   16.3084 H   0  0  0  0  0
   -3.8999   -0.2684   15.8679 H   0  0  0  0  0
  1  2  1  0  0  0
  2  3  1  0  0  0
  3  4  4  0  0  0
  3 25  4  0  0  0
  4  5  4  0  0  0
  5  6  4  0  0  0
  5 23  4  0  0  0
  6  7  1  0  0  0
  6 20  4  0  0  0
  7  8  1  0  0  0
  8  9  1  0  0  0
  9 10  1  0  0  0
  9 11  1  0  0  0
  9 19  1  0  0  0
 11 12  1  0  0  0
 11 17  1  0  0  0
 12 13  1  0  0  0
 13 14  2  0  0  0
 13 15  2  0  0  0
 13 16  1  0  0  0
 17 18  1  0  0  0
 18 19  1  0  0  0
 19 20  1  0  0  0
 20 21  4  0  0  0
 21 22  4  0  0  0
 22 23  4  0  0  0
 23 24  4  0  0  0
 24 25  4  0  0  0
 25 26  1  0  0  0
 26 27  1  0  0  0
 27 28  2  0  0  0
 27 29  2  0  0  0
 27 30  1  0  0  0
  1 31  1  0  0  0
  1 32  1  0  0  0
  1 33  1  0  0  0
  4 34  1  0  0  0
  7 35  1  0  0  0
  7 36  1  0  0  0
  8 37  1  0  0  0
  8 38  1  0  0  0
 10 39  1  0  0  0
 10 40  1  0  0  0
 10 41  1  0  0  0
 11 42  1  0  0  0
 16 43  1  0  0  0
 16 44  1  0  0  0
 17 45  1  0  0  0
 17 46  1  0  0  0
 18 47  1  0  0  0
 18 48  1  0  0  0
 19 49  1  0  0  0
 21 50  1  0  0  0
 22 51  1  0  0  0
 24 52  1  0  0  0
 30 53  1  0  0  0
 30 54  1  0  0  0
M  END
$$$$
