4f9v_ligand
  -I-interpret- 

 42 43  0  0  0  0  0  0  0  0999 V2000
   10.6100  138.7110  -18.9940 C   0  0  0  0  0
   15.7020  136.9410  -18.3690 C   0  0  0  0  0
   14.6340  136.8130  -11.3040 S   0  0  0  0  0
    8.0210  131.5800  -14.1040 C   0  0  0  0  0
   12.2100  138.4820  -15.0550 C   0  0  0  0  0
   11.6730  138.5980  -16.3500 C   0  0  0  0  0
    9.2110  131.9000  -13.5210 C   0  0  0  0  0
    7.7020  133.2020  -12.6720 C   0  0  0  0  0
   14.2280  137.5480  -16.0430 C   0  0  0  0  0
   10.8980  134.4090  -12.7100 C   0  0  0  0  0
   11.7890  135.3760  -11.9200 C   0  0  0  0  0
   10.0340  133.5180  -11.8160 C   0  0  0  0  0
    7.0860  132.4030  -13.5640 N   0  0  0  0  0
   12.4700  136.2820  -12.8650 N   0  0  0  0  0
   14.1200  137.7560  -13.6840 N   0  0  0  0  0
   11.9750  138.2940  -18.7630 O   0  0  0  0  0
   14.3320  137.3420  -18.4550 O   0  0  0  0  0
   13.6530  136.9510  -12.7090 C   0  0  0  0  0
   13.4950  137.9490  -14.9220 C   0  0  0  0  0
   12.4260  138.1980  -17.4610 C   0  0  0  0  0
   13.6770  137.6810  -17.3080 C   0  0  0  0  0
    8.9970  132.8810  -12.6340 N   0  0  0  0  0
    9.9302  138.0059  -18.5157 H   0  0  0  0  0
   10.4591  139.7053  -18.5736 H   0  0  0  0  0
   10.4153  138.7351  -20.0662 H   0  0  0  0  0
   16.2909  137.7531  -17.9427 H   0  0  0  0  0
   15.7820  136.0596  -17.7327 H   0  0  0  0  0
   16.0737  136.7057  -19.3663 H   0  0  0  0  0
    7.8526  130.8114  -14.8584 H   0  0  0  0  0
   11.6406  138.7985  -14.1811 H   0  0  0  0  0
   10.6693  138.9998  -16.4889 H   0  0  0  0  0
   10.1731  131.4365  -13.7394 H   0  0  0  0  0
    7.2227  133.9813  -12.0795 H   0  0  0  0  0
   15.2285  137.1325  -15.9228 H   0  0  0  0  0
   11.5513  133.7586  -13.2917 H   0  0  0  0  0
   10.2273  135.0072  -13.3268 H   0  0  0  0  0
   12.5295  134.8129  -11.3520 H   0  0  0  0  0
   11.1786  135.9570  -11.2287 H   0  0  0  0  0
    9.5679  134.1214  -11.0370 H   0  0  0  0  0
   10.6552  132.7532  -11.3499 H   0  0  0  0  0
   11.9942  136.4294  -13.7551 H   0  0  0  0  0
   14.9893  138.2597  -13.5077 H   0  0  0  0  0
 16  1  1  0  0  0
 17  2  1  0  0  0
 18  3  2  0  0  0
  7  4  4  0  0  0
 13  4  4  0  0  0
  5  6  4  0  0  0
 19  5  4  0  0  0
  6 20  4  0  0  0
 22  7  4  0  0  0
  8 13  4  0  0  0
 22  8  4  0  0  0
  9 19  4  0  0  0
 21  9  4  0  0  0
 11 10  1  0  0  0
 10 12  1  0  0  0
 14 11  1  0  0  0
 12 22  1  0  0  0
 18 14  1  0  0  0
 15 18  1  0  0  0
 19 15  1  0  0  0
 20 16  1  0  0  0
 17 21  1  0  0  0
 20 21  4  0  0  0
  1 23  1  0  0  0
  1 24  1  0  0  0
  1 25  1  0  0  0
  2 26  1  0  0  0
  2 27  1  0  0  0
  2 28  1  0  0  0
  4 29  1  0  0  0
  5 30  1  0  0  0
  6 31  1  0  0  0
  7 32  1  0  0  0
  8 33  1  0  0  0
  9 34  1  0  0  0
 10 35  1  0  0  0
 10 36  1  0  0  0
 11 37  1  0  0  0
 11 38  1  0  0  0
 12 39  1  0  0  0
 12 40  1  0  0  0
 14 41  1  0  0  0
 15 42  1  0  0  0
M  END
$$$$
