6cea_ligand
  -I-interpret- 

 26 27  0  0  0  0  0  0  0  0999 V2000
    3.2790    2.2380    8.1880 C   0  0  0  0  0
    3.0700    4.4140    9.1510 O   0  0  0  0  0
    2.2820    1.8210    7.1520 C   0  0  0  0  0
    0.8380    2.0940    7.4930 C   0  0  0  0  0
    0.1160    1.3380    8.4290 C   0  0  0  0  0
   -1.2140    1.5860    8.5950 C   0  0  0  0  0
   -1.8560    2.5900    7.8310 C   0  0  0  0  0
   -3.2120    2.9660    7.9860 C   0  0  0  0  0
   -3.7450    3.9940    7.2490 C   0  0  0  0  0
   -2.9800    4.6650    6.3240 C   0  0  0  0  0
   -1.6570    4.3430    6.1490 C   0  0  0  0  0
   -1.0640    3.3080    6.9140 C   0  0  0  0  0
    3.5470    3.7240    8.2370 C   0  0  0  0  0
    4.2450    4.1810    7.2650 O   0  0  0  0  0
    0.2860    3.0710    6.7620 N   0  0  0  0  0
    4.2218    1.7518    7.9374 H   0  0  0  0  0
    2.8687    1.9556    9.1576 H   0  0  0  0  0
    2.3771    0.7402    7.0471 H   0  0  0  0  0
    2.5043    2.4009    6.2562 H   0  0  0  0  0
    0.6115    0.5637    9.0148 H   0  0  0  0  0
   -1.7866    1.0079    9.3203 H   0  0  0  0  0
   -3.8404    2.4327    8.6993 H   0  0  0  0  0
   -4.7857    4.2816    7.3985 H   0  0  0  0  0
   -3.4274    5.4584    5.7253 H   0  0  0  0  0
   -1.0592    4.8866    5.4174 H   0  0  0  0  0
    4.5001    3.4575    6.6878 H   0  0  0  0  0
  1  3  1  0  0  0
  1 13  1  0  0  0
 13  2  2  0  0  0
  3  4  1  0  0  0
  4  5  4  0  0  0
  4 15  4  0  0  0
  5  6  4  0  0  0
  6  7  4  0  0  0
  7  8  4  0  0  0
  7 12  4  0  0  0
  8  9  4  0  0  0
  9 10  4  0  0  0
 10 11  4  0  0  0
 11 12  4  0  0  0
 12 15  4  0  0  0
 13 14  1  0  0  0
  1 16  1  0  0  0
  1 17  1  0  0  0
  3 18  1  0  0  0
  3 19  1  0  0  0
  5 20  1  0  0  0
  6 21  1  0  0  0
  8 22  1  0  0  0
  9 23  1  0  0  0
 10 24  1  0  0  0
 11 25  1  0  0  0
 14 26  1  0  0  0
M  END
$$$$
