3uw4_ligand
  -I-interpret- 

 70 73  0  0  0  0  0  0  0  0999 V2000
  -13.0590   -3.6920    0.5950 N   0  3  0  0  0
  -14.1980   -4.3870    1.2550 C   0  0  0  0  0
  -13.1320   -3.7330   -0.8860 C   0  0  0  0  0
  -12.2230   -2.6830   -1.5260 C   0  0  0  0  0
  -12.7600   -5.1160   -1.3480 C   0  0  0  0  0
  -12.1920   -5.8820   -0.5940 O   0  0  0  0  0
  -13.1140   -5.4590   -2.5960 N   0  0  0  0  0
  -12.9140   -6.7750   -3.2040 C   0  0  0  0  0
  -12.2310   -6.6030   -4.5200 C   0  0  0  0  0
  -12.6380   -5.7700   -5.3020 O   0  0  0  0  0
  -14.3000   -7.4020   -3.4990 C   0  0  0  0  0
  -15.2200   -7.3580   -2.2530 C   0  0  0  0  0
  -14.7780   -8.3650   -1.1700 C   0  0  0  0  0
  -14.7020   -9.7870   -1.7400 C   0  0  0  0  0
  -15.0270   -9.8150   -3.2350 C   0  0  0  0  0
  -14.1570   -8.8390   -4.0310 C   0  0  0  0  0
  -11.2100   -7.4010   -4.8760 N   0  0  0  0  0
  -10.5270   -7.2670   -6.1480 C   0  0  0  0  0
  -11.3460   -7.7120   -7.3160 C   0  0  0  0  0
  -12.2320   -8.5530   -7.1900 O   0  0  0  0  0
   -9.2750   -8.1830   -6.1230 C   0  0  0  0  0
   -9.1270   -8.6070   -4.6380 C   0  0  0  0  0
  -10.5700   -8.4690   -4.0880 C   0  0  0  0  0
  -11.0250   -7.1180   -8.4830 N   0  0  0  0  0
  -11.5930   -7.4940   -9.6840 C   0  0  0  0  0
  -11.9870   -6.8140  -10.8290 C   0  0  0  0  0
  -12.4350   -7.6060  -11.8060 N   0  0  0  0  0
  -12.4320   -8.8750  -11.6070 N   0  0  0  0  0
  -11.8040   -9.1630  -10.0390 S   0  0  0  0  0
  -11.9660   -5.3400  -11.0080 C   0  0  0  0  0
  -12.4480   -4.4810  -10.0140 C   0  0  0  0  0
  -12.4210   -3.1150  -10.2340 C   0  0  0  0  0
  -11.9270   -2.5990  -11.4310 C   0  0  0  0  0
  -11.4490   -3.4450  -12.4200 C   0  0  0  0  0
  -11.4780   -4.8180  -12.2140 C   0  0  0  0  0
  -12.2011   -4.1667    0.8764 H   0  0  0  0  0
  -13.0862   -2.7129    0.8798 H   0  0  0  0  0
  -15.1332   -3.9133    0.9565 H   0  0  0  0  0
  -14.2072   -5.4343    0.9530 H   0  0  0  0  0
  -14.0847   -4.3206    2.3371 H   0  0  0  0  0
  -14.1499   -3.4990   -1.1978 H   0  0  0  0  0
  -11.1883   -2.8809   -1.2461 H   0  0  0  0  0
  -12.3228   -2.7303   -2.6104 H   0  0  0  0  0
  -12.5122   -1.6920   -1.1761 H   0  0  0  0  0
  -13.5598   -4.7425   -3.1689 H   0  0  0  0  0
  -12.3264   -7.3998   -2.5314 H   0  0  0  0  0
  -14.7719   -6.8017   -4.2769 H   0  0  0  0  0
  -16.2309   -7.6180   -2.5671 H   0  0  0  0  0
  -15.1685   -6.3559   -1.8272 H   0  0  0  0  0
  -15.5081   -8.3512   -0.3607 H   0  0  0  0  0
  -13.7898   -8.0795   -0.8094 H   0  0  0  0  0
  -15.4318  -10.4059   -1.2180 H   0  0  0  0  0
  -13.6867  -10.1587   -1.6021 H   0  0  0  0  0
  -16.0695   -9.5231   -3.3621 H   0  0  0  0  0
  -14.8356  -10.8219   -3.6060 H   0  0  0  0  0
  -13.1150   -9.1434   -3.9332 H   0  0  0  0  0
  -14.4782   -8.8573   -5.0724 H   0  0  0  0  0
  -10.2979   -6.2082   -6.2687 H   0  0  0  0  0
   -8.3869   -7.6680   -6.4894 H   0  0  0  0  0
   -9.3875   -9.0436   -6.7824 H   0  0  0  0  0
   -8.4081   -7.9941   -4.0942 H   0  0  0  0  0
   -8.7274   -9.6148   -4.5251 H   0  0  0  0  0
  -11.1171   -9.4072   -4.1805 H   0  0  0  0  0
  -10.5639   -8.2238   -3.0259 H   0  0  0  0  0
  -10.3381   -6.3640   -8.4785 H   0  0  0  0  0
  -12.8394   -4.8824   -9.0792 H   0  0  0  0  0
  -12.7893   -2.4365   -9.4645 H   0  0  0  0  0
  -11.9164   -1.5208  -11.5909 H   0  0  0  0  0
  -11.0543   -3.0363  -13.3502 H   0  0  0  0  0
  -11.1202   -5.4919  -12.9924 H   0  0  0  0  0
  1  2  1  0  0  0
  1  3  1  0  0  0
  3  4  1  0  0  0
  3  5  1  0  0  0
  5  6  2  0  0  0
  5  7  1  0  0  0
  7  8  1  0  0  0
  8  9  1  0  0  0
  8 11  1  0  0  0
  9 10  2  0  0  0
  9 17  1  0  0  0
 11 12  1  0  0  0
 11 16  1  0  0  0
 12 13  1  0  0  0
 13 14  1  0  0  0
 14 15  1  0  0  0
 15 16  1  0  0  0
 17 18  1  0  0  0
 17 23  1  0  0  0
 18 19  1  0  0  0
 18 21  1  0  0  0
 19 20  2  0  0  0
 19 24  1  0  0  0
 21 22  1  0  0  0
 22 23  1  0  0  0
 24 25  1  0  0  0
 25 26  4  0  0  0
 25 29  4  0  0  0
 26 27  4  0  0  0
 26 30  1  0  0  0
 27 28  4  0  0  0
 28 29  4  0  0  0
 30 31  4  0  0  0
 30 35  4  0  0  0
 31 32  4  0  0  0
 32 33  4  0  0  0
 33 34  4  0  0  0
 34 35  4  0  0  0
  1 36  1  0  0  0
  1 37  1  0  0  0
  2 38  1  0  0  0
  2 39  1  0  0  0
  2 40  1  0  0  0
  3 41  1  0  0  0
  4 42  1  0  0  0
  4 43  1  0  0  0
  4 44  1  0  0  0
  7 45  1  0  0  0
  8 46  1  0  0  0
 11 47  1  0  0  0
 12 48  1  0  0  0
 12 49  1  0  0  0
 13 50  1  0  0  0
 13 51  1  0  0  0
 14 52  1  0  0  0
 14 53  1  0  0  0
 15 54  1  0  0  0
 15 55  1  0  0  0
 16 56  1  0  0  0
 16 57  1  0  0  0
 18 58  1  0  0  0
 21 59  1  0  0  0
 21 60  1  0  0  0
 22 61  1  0  0  0
 22 62  1  0  0  0
 23 63  1  0  0  0
 23 64  1  0  0  0
 24 65  1  0  0  0
 31 66  1  0  0  0
 32 67  1  0  0  0
 33 68  1  0  0  0
 34 69  1  0  0  0
 35 70  1  0  0  0
M  END
$$$$
