2va6_ligand
  -I-interpret- 

 45 47  0  0  0  0  0  0  0  0999 V2000
   71.3950   46.1950    1.0770 C   0  0  0  0  0
   71.2020   47.1960    2.0940 O   0  0  0  0  0
   71.9160   47.0710    3.2590 C   0  0  0  0  0
   72.9540   46.1640    3.4370 C   0  0  0  0  0
   73.6110   46.0870    4.6440 C   0  0  0  0  0
   73.2240   46.8950    5.6950 C   0  0  0  0  0
   72.1820   47.8100    5.5450 C   0  0  0  0  0
   71.5200   47.8750    4.3220 C   0  0  0  0  0
   71.7470   48.6410    6.7040 C   0  0  0  0  0
   72.6880   49.1000    7.6140 C   0  0  0  0  0
   72.2980   49.8250    8.7160 C   0  0  0  0  0
   70.9650   50.0730    8.9460 C   0  0  0  0  0
   69.9970   49.6180    8.0630 C   0  0  0  0  0
   68.5260   49.9240    8.3880 C   0  0  0  0  0
   68.3640   51.4040    8.7510 C   0  0  0  0  0
   68.0830   49.0930    9.5980 C   0  0  0  0  0
   67.7070   47.6880    9.2360 C   0  0  0  0  0
   68.1030   46.7320    9.8790 O   0  0  0  0  0
   66.9550   47.5510    8.1180 N   0  0  0  0  0
   66.4060   46.2200    7.8170 C   0  0  0  0  0
   66.8320   48.6430    7.2040 C   0  0  0  0  0
   65.8730   48.6290    6.2740 N   0  0  0  0  0
   67.6470   49.6740    7.2170 N   0  0  0  0  0
   70.3970   48.8890    6.9490 C   0  0  0  0  0
   72.4412   46.1864    0.7714 H   0  0  0  0  0
   71.1234   45.2173    1.4751 H   0  0  0  0  0
   70.7660   46.4262    0.2174 H   0  0  0  0  0
   73.2493   45.5102    2.6164 H   0  0  0  0  0
   74.4375   45.3877    4.7705 H   0  0  0  0  0
   73.7387   46.8168    6.6526 H   0  0  0  0  0
   70.6835   48.5625    4.1966 H   0  0  0  0  0
   73.7445   48.8845    7.4546 H   0  0  0  0  0
   73.0484   50.2044    9.4096 H   0  0  0  0  0
   70.6659   50.6332    9.8319 H   0  0  0  0  0
   68.9785   51.6326    9.6218 H   0  0  0  0  0
   68.6808   52.0200    7.9094 H   0  0  0  0  0
   67.3179   51.6084    8.9791 H   0  0  0  0  0
   67.2031   49.5727   10.0266 H   0  0  0  0  0
   68.9214   49.0443   10.2928 H   0  0  0  0  0
   65.3286   46.2973    7.6710 H   0  0  0  0  0
   66.8701   45.8337    6.9096 H   0  0  0  0  0
   66.6139   45.5462    8.6482 H   0  0  0  0  0
   65.2296   47.8396    6.2168 H   0  0  0  0  0
   67.6761   50.3068    6.4175 H   0  0  0  0  0
   69.6457   48.5064    6.2582 H   0  0  0  0  0
  1  2  1  0  0  0
  2  3  1  0  0  0
  3  4  4  0  0  0
  3  8  4  0  0  0
  4  5  4  0  0  0
  5  6  4  0  0  0
  6  7  4  0  0  0
  7  8  4  0  0  0
  7  9  1  0  0  0
  9 10  4  0  0  0
  9 24  4  0  0  0
 10 11  4  0  0  0
 11 12  4  0  0  0
 12 13  4  0  0  0
 13 14  1  0  0  0
 13 24  4  0  0  0
 14 15  1  0  0  0
 14 16  1  0  0  0
 14 23  1  0  0  0
 16 17  1  0  0  0
 17 18  2  0  0  0
 17 19  1  0  0  0
 19 20  1  0  0  0
 19 21  4  0  0  0
 21 22  2  0  0  0
 21 23  1  0  0  0
  1 25  1  0  0  0
  1 26  1  0  0  0
  1 27  1  0  0  0
  4 28  1  0  0  0
  5 29  1  0  0  0
  6 30  1  0  0  0
  8 31  1  0  0  0
 10 32  1  0  0  0
 11 33  1  0  0  0
 12 34  1  0  0  0
 15 35  1  0  0  0
 15 36  1  0  0  0
 15 37  1  0  0  0
 16 38  1  0  0  0
 16 39  1  0  0  0
 20 40  1  0  0  0
 20 41  1  0  0  0
 20 42  1  0  0  0
 22 43  1  0  0  0
 23 44  1  0  0  0
 24 45  1  0  0  0
M  END
$$$$
