5dqf_ligand
  -I-interpret- 

 54 56  0  0  0  0  0  0  0  0999 V2000
  -22.4100   15.3190  -15.5660 O   0  0  0  0  0
  -22.8430   15.3300  -16.7380 C   0  0  0  0  0
  -23.7330   16.0940  -17.1760 O   0  0  0  0  0
  -22.2100   14.3460  -17.7050 C   0  0  0  0  0
  -23.1530   14.1460  -18.7880 O   0  0  0  0  0
  -24.2240   13.1980  -18.6040 C   0  0  0  0  0
  -25.4400   13.6810  -19.3670 C   0  0  0  0  0
  -26.6450   12.8810  -19.0130 N   0  3  0  0  0
  -27.8030   13.3230  -19.7860 C   0  0  0  0  0
  -29.0570   12.5370  -19.3800 C   0  0  0  0  0
  -26.9620   13.0210  -17.5770 C   0  0  0  0  0
  -28.2620   12.3860  -17.1710 C   0  0  0  0  0
  -29.3200   12.8810  -18.0020 N   0  3  0  0  0
  -30.6280   12.1620  -17.5870 C   0  0  0  0  0
  -31.8820   12.6980  -18.2670 C   0  0  0  0  0
  -32.7870   11.8150  -18.8660 C   0  0  0  0  0
  -33.9430   12.3120  -19.4740 C   0  0  0  0  0
  -34.1920   13.6900  -19.4810 C   0  0  0  0  0
  -35.5890   14.3480  -20.2070 Cl  0  0  0  0  0
  -33.2940   14.5660  -18.8850 C   0  0  0  0  0
  -32.1490   14.0710  -18.2790 C   0  0  0  0  0
  -30.8690   12.1550  -16.0720 C   0  0  0  0  0
  -30.8350   13.3390  -15.3210 C   0  0  0  0  0
  -31.0400   13.3290  -13.9390 C   0  0  0  0  0
  -31.2950   12.1290  -13.2830 C   0  0  0  0  0
  -31.3320   10.9480  -14.0260 C   0  0  0  0  0
  -31.1210   10.9540  -15.4050 C   0  0  0  0  0
  -23.8867   15.9051  -18.1046 H   0  0  0  0  0
  -21.9918   13.4020  -17.2056 H   0  0  0  0  0
  -21.2647   14.7337  -18.0846 H   0  0  0  0  0
  -24.4632   13.1121  -17.5440 H   0  0  0  0  0
  -23.9193   12.2197  -18.9758 H   0  0  0  0  0
  -25.2490   13.5716  -20.4345 H   0  0  0  0  0
  -25.6240   14.7236  -19.1077 H   0  0  0  0  0
  -26.4382   11.9054  -19.2272 H   0  0  0  0  0
  -27.6067   13.1519  -20.8444 H   0  0  0  0  0
  -27.9727   14.3822  -19.5927 H   0  0  0  0  0
  -28.9023   11.4641  -19.4944 H   0  0  0  0  0
  -29.9039   12.7920  -20.0171 H   0  0  0  0  0
  -27.0447   14.0875  -17.3675 H   0  0  0  0  0
  -26.1702   12.5184  -17.0215 H   0  0  0  0  0
  -28.4747   12.6304  -16.1303 H   0  0  0  0  0
  -28.1878   11.3046  -17.2854 H   0  0  0  0  0
  -29.3933   13.8932  -17.8992 H   0  0  0  0  0
  -30.4574   11.1418  -17.9309 H   0  0  0  0  0
  -32.5910   10.7428  -18.8585 H   0  0  0  0  0
  -34.6503   11.6276  -19.9424 H   0  0  0  0  0
  -33.4884   15.6385  -18.8935 H   0  0  0  0  0
  -31.4489   14.7600  -17.8065 H   0  0  0  0  0
  -30.6448   14.2862  -15.8257 H   0  0  0  0  0
  -31.0002   14.2609  -13.3751 H   0  0  0  0  0
  -31.4632   12.1113  -12.2062 H   0  0  0  0  0
  -31.5295   10.0034  -13.5193 H   0  0  0  0  0
  -31.1529   10.0186  -15.9636 H   0  0  0  0  0
  1  2  2  0  0  0
  2  3  1  0  0  0
  2  4  1  0  0  0
  4  5  1  0  0  0
  5  6  1  0  0  0
  6  7  1  0  0  0
  7  8  1  0  0  0
  8  9  1  0  0  0
  8 11  1  0  0  0
  9 10  1  0  0  0
 10 13  1  0  0  0
 11 12  1  0  0  0
 12 13  1  0  0  0
 13 14  1  0  0  0
 14 15  1  0  0  0
 14 22  1  0  0  0
 15 16  4  0  0  0
 15 21  4  0  0  0
 16 17  4  0  0  0
 17 18  4  0  0  0
 18 19  1  0  0  0
 18 20  4  0  0  0
 20 21  4  0  0  0
 22 23  4  0  0  0
 22 27  4  0  0  0
 23 24  4  0  0  0
 24 25  4  0  0  0
 25 26  4  0  0  0
 26 27  4  0  0  0
  3 28  1  0  0  0
  4 29  1  0  0  0
  4 30  1  0  0  0
  6 31  1  0  0  0
  6 32  1  0  0  0
  7 33  1  0  0  0
  7 34  1  0  0  0
  8 35  1  0  0  0
  9 36  1  0  0  0
  9 37  1  0  0  0
 10 38  1  0  0  0
 10 39  1  0  0  0
 11 40  1  0  0  0
 11 41  1  0  0  0
 12 42  1  0  0  0
 12 43  1  0  0  0
 13 44  1  0  0  0
 14 45  1  0  0  0
 16 46  1  0  0  0
 17 47  1  0  0  0
 20 48  1  0  0  0
 21 49  1  0  0  0
 23 50  1  0  0  0
 24 51  1  0  0  0
 25 52  1  0  0  0
 26 53  1  0  0  0
 27 54  1  0  0  0
M  END
$$$$
