2zb0_ligand
  -I-interpret- 

 48 51  0  0  0  0  0  0  0  0999 V2000
   48.8280   37.7680   26.1990 N   0  0  0  0  0
   48.8270   36.5420   26.7180 C   0  0  0  0  0
   48.8050   35.1770   27.3020 C   0  0  0  0  0
   49.9450   34.3550   27.2360 C   0  0  0  0  0
   49.9010   33.0740   27.7910 C   0  0  0  0  0
   48.7190   32.6180   28.4020 C   0  0  0  0  0
   47.6260   34.7170   27.9190 C   0  0  0  0  0
   47.5690   33.4340   28.4860 C   0  0  0  0  0
   46.4430   32.9380   29.0880 N   0  0  0  0  0
   45.5340   33.6050   29.8330 C   0  0  0  0  0
   45.5840   34.9200   30.0670 O   0  0  0  0  0
   44.3250   32.8600   30.3680 C   0  0  0  0  0
   44.0670   31.5650   29.9120 C   0  0  0  0  0
   43.4430   33.4670   31.2770 C   0  0  0  0  0
   42.3180   32.7820   31.7420 C   0  0  0  0  0
   42.0780   31.4700   31.2990 C   0  0  0  0  0
   42.9480   30.8750   30.3710 C   0  0  0  0  0
   40.9290   30.7640   31.6750 C   0  0  0  0  0
   40.9170   29.8050   32.6880 C   0  0  0  0  0
   39.7100   29.1600   32.9570 C   0  0  0  0  0
   39.5280   28.1850   34.0660 C   0  0  0  0  0
   38.7310   27.2210   34.1440 O   0  0  0  0  0
   38.9620   26.7500   35.2680 C   0  0  0  0  0
   38.2060   25.5580   35.7720 C   0  0  0  0  0
   39.9080   27.3760   35.9760 N   0  0  0  0  0
   40.2930   28.3390   35.1660 N   0  0  0  0  0
   38.5450   29.4450   32.2370 C   0  0  0  0  0
   38.5510   30.3790   31.2280 C   0  0  0  0  0
   39.7410   31.0350   30.9400 C   0  0  0  0  0
   39.6660   32.0470   29.8220 C   0  0  0  0  0
   50.8549   34.7149   26.7558 H   0  0  0  0  0
   50.7795   32.4300   27.7508 H   0  0  0  0  0
   48.6897   31.6119   28.8203 H   0  0  0  0  0
   46.7491   35.3633   27.9568 H   0  0  0  0  0
   46.2690   31.9414   28.9578 H   0  0  0  0  0
   44.7417   31.0946   29.1968 H   0  0  0  0  0
   43.6382   34.4821   31.6228 H   0  0  0  0  0
   41.6328   33.2604   32.4418 H   0  0  0  0  0
   42.7462   29.8673   30.0079 H   0  0  0  0  0
   41.8202   29.5678   33.2502 H   0  0  0  0  0
   37.1420   25.7922   35.8067 H   0  0  0  0  0
   38.3720   24.7143   35.1022 H   0  0  0  0  0
   38.5561   25.3037   36.7724 H   0  0  0  0  0
   37.6209   28.9200   32.4789 H   0  0  0  0  0
   37.6428   30.5996   30.6670 H   0  0  0  0  0
   39.9266   33.0326   30.2077 H   0  0  0  0  0
   40.3646   31.7677   29.0333 H   0  0  0  0  0
   38.6528   32.0687   29.4207 H   0  0  0  0  0
  1  2  3  0  0  0
  2  3  1  0  0  0
  3  4  4  0  0  0
  3  7  4  0  0  0
  4  5  4  0  0  0
  5  6  4  0  0  0
  6  8  4  0  0  0
  7  8  4  0  0  0
  8  9  1  0  0  0
  9 10  1  0  0  0
 10 11  2  0  0  0
 10 12  1  0  0  0
 12 13  4  0  0  0
 12 14  4  0  0  0
 13 17  4  0  0  0
 14 15  4  0  0  0
 15 16  4  0  0  0
 16 17  4  0  0  0
 16 18  1  0  0  0
 18 19  4  0  0  0
 18 29  4  0  0  0
 19 20  4  0  0  0
 20 21  1  0  0  0
 20 27  4  0  0  0
 21 22  4  0  0  0
 21 26  4  0  0  0
 22 23  4  0  0  0
 23 24  1  0  0  0
 23 25  4  0  0  0
 25 26  4  0  0  0
 27 28  4  0  0  0
 28 29  4  0  0  0
 29 30  1  0  0  0
  4 31  1  0  0  0
  5 32  1  0  0  0
  6 33  1  0  0  0
  7 34  1  0  0  0
  9 35  1  0  0  0
 13 36  1  0  0  0
 14 37  1  0  0  0
 15 38  1  0  0  0
 17 39  1  0  0  0
 19 40  1  0  0  0
 24 41  1  0  0  0
 24 42  1  0  0  0
 24 43  1  0  0  0
 27 44  1  0  0  0
 28 45  1  0  0  0
 30 46  1  0  0  0
 30 47  1  0  0  0
 30 48  1  0  0  0
M  END
$$$$
