6gh9_ligand
  -I-interpret- 

 62 64  0  0  0  0  0  0  0  0999 V2000
  -99.0020   34.4560   45.6650 O   0  0  0  0  0
 -100.3390   34.0490   45.3470 C   0  0  0  0  0
 -101.1350   35.2440   44.8340 C   0  0  0  0  0
 -100.5710   35.8140   43.6240 N   0  3  0  0  0
 -101.2570   36.9000   42.9480 C   0  0  0  0  0
 -100.4950   38.2180   43.0460 C   0  0  0  0  0
  -99.3000   38.1880   42.2220 N   0  0  0  0  0
  -98.7560   39.3250   41.7320 C   0  0  0  0  0
  -97.9470   40.1470   42.5160 C   0  0  0  0  0
  -97.3770   41.3180   42.0100 C   0  0  0  0  0
  -99.0120   39.6780   40.3150 C   0  0  0  0  0
  -99.8650   38.8220   39.4480 C   0  0  0  0  0
 -100.3790   37.7740   39.8990 O   0  0  0  0  0
 -100.0960   39.2300   38.0340 C   0  0  0  0  0
 -100.9310   38.4180   37.1170 C   0  0  0  0  0
 -101.5060   37.2680   37.5620 O   0  0  0  0  0
 -101.1210   38.8400   35.8030 C   0  0  0  0  0
 -100.5490   40.0130   35.3040 C   0  0  0  0  0
  -99.7470   40.8420   36.0900 C   0  0  0  0  0
  -99.1990   41.9820   35.5800 O   0  0  0  0  0
  -99.4890   40.4740   37.5040 C   0  0  0  0  0
  -98.6410   41.3320   38.3710 C   0  0  0  0  0
  -98.1350   42.3800   37.9130 O   0  0  0  0  0
  -98.4100   40.9210   39.7840 C   0  0  0  0  0
  -97.5730   41.7410   40.6910 C   0  0  0  0  0
  -97.0280   42.8740   40.1870 N   0  0  0  0  0
  -96.2920   43.8250   40.9940 C   0  0  0  0  0
  -97.1560   44.6010   41.9770 C   0  0  0  0  0
  -96.4710   44.7010   43.2460 N   0  3  0  0  0
  -95.0550   45.0060   43.2470 C   0  0  0  0  0
  -94.6730   45.9770   44.3550 C   0  0  0  0  0
  -94.4870   45.2600   45.5770 O   0  0  0  0  0
  -98.5065   33.6995   45.9872 H   0  0  0  0  0
 -100.8183   33.6548   46.2431 H   0  0  0  0  0
 -100.3074   33.2794   44.5758 H   0  0  0  0  0
 -101.1189   36.0135   45.6058 H   0  0  0  0  0
 -102.1437   34.9008   44.6040 H   0  0  0  0  0
 -100.5807   35.0473   42.9514 H   0  0  0  0  0
  -99.6830   36.2181   43.9214 H   0  0  0  0  0
 -102.2278   37.0349   43.4249 H   0  0  0  0  0
 -101.3458   36.6389   41.8935 H   0  0  0  0  0
 -100.2014   38.3769   44.0836 H   0  0  0  0  0
 -101.1413   39.0234   42.6970 H   0  0  0  0  0
  -98.8622   37.2918   42.0085 H   0  0  0  0  0
  -97.7541   39.8683   43.5520 H   0  0  0  0  0
  -96.7557   41.9253   42.6683 H   0  0  0  0  0
 -102.0090   36.8666   36.8496 H   0  0  0  0  0
 -101.7381   38.2332   35.1403 H   0  0  0  0  0
 -100.7353   40.2899   34.2664 H   0  0  0  0  0
  -98.6828   42.4199   36.2607 H   0  0  0  0  0
  -97.1414   43.0665   39.1918 H   0  0  0  0  0
  -95.8456   44.5499   40.3133 H   0  0  0  0  0
  -95.5654   43.2599   41.5779 H   0  0  0  0  0
  -98.1042   44.0817   42.1159 H   0  0  0  0  0
  -97.3433   45.6009   41.5854 H   0  0  0  0  0
  -96.5433   43.7722   43.6613 H   0  0  0  0  0
  -96.9124   45.4856   43.7255 H   0  0  0  0  0
  -94.8087   45.4696   42.2918 H   0  0  0  0  0
  -94.5094   44.0765   43.4095 H   0  0  0  0  0
  -95.4681   46.7115   44.4832 H   0  0  0  0  0
  -93.7462   46.4848   44.0882 H   0  0  0  0  0
  -94.2462   45.8747   46.2739 H   0  0  0  0  0
  1  2  1  0  0  0
  2  3  1  0  0  0
  3  4  1  0  0  0
  4  5  1  0  0  0
  5  6  1  0  0  0
  6  7  1  0  0  0
  7  8  1  0  0  0
  8  9  4  0  0  0
  8 11  4  0  0  0
  9 10  4  0  0  0
 10 25  4  0  0  0
 11 12  1  0  0  0
 11 24  4  0  0  0
 12 13  2  0  0  0
 12 14  1  0  0  0
 14 15  4  0  0  0
 14 21  4  0  0  0
 15 16  1  0  0  0
 15 17  4  0  0  0
 17 18  4  0  0  0
 18 19  4  0  0  0
 19 20  1  0  0  0
 19 21  4  0  0  0
 21 22  1  0  0  0
 22 23  2  0  0  0
 22 24  1  0  0  0
 24 25  4  0  0  0
 25 26  1  0  0  0
 26 27  1  0  0  0
 27 28  1  0  0  0
 28 29  1  0  0  0
 29 30  1  0  0  0
 30 31  1  0  0  0
 31 32  1  0  0  0
  1 33  1  0  0  0
  2 34  1  0  0  0
  2 35  1  0  0  0
  3 36  1  0  0  0
  3 37  1  0  0  0
  4 38  1  0  0  0
  4 39  1  0  0  0
  5 40  1  0  0  0
  5 41  1  0  0  0
  6 42  1  0  0  0
  6 43  1  0  0  0
  7 44  1  0  0  0
  9 45  1  0  0  0
 10 46  1  0  0  0
 16 47  1  0  0  0
 17 48  1  0  0  0
 18 49  1  0  0  0
 20 50  1  0  0  0
 26 51  1  0  0  0
 27 52  1  0  0  0
 27 53  1  0  0  0
 28 54  1  0  0  0
 28 55  1  0  0  0
 29 56  1  0  0  0
 29 57  1  0  0  0
 30 58  1  0  0  0
 30 59  1  0  0  0
 31 60  1  0  0  0
 31 61  1  0  0  0
 32 62  1  0  0  0
M  END
$$$$
