2e2p_ligand
  -I-interpret- 

 42 44  0  0  0  0  0  0  0  0999 V2000
    6.6670   -5.0820   28.7580 P   0  0  0  0  0
    6.8300   -4.5560   27.3790 O   0  0  0  0  0
    7.3750   -4.2660   29.7990 O   0  0  0  0  0
    5.1520   -5.3240   29.1150 O   0  0  0  0  0
    8.3280   -7.2220   27.7080 P   0  0  0  0  0
    9.2910   -6.2070   27.1310 O   0  0  0  0  0
    8.9700   -8.4390   28.3270 O   0  0  0  0  0
    7.3980   -6.5140   28.7590 O   0  0  0  0  0
    7.3590   -7.5360   26.4880 O   0  0  0  0  0
    6.6750   -8.8270   26.3900 C   0  0  0  0  0
    5.7130   -8.8750   25.2120 C   0  0  0  0  0
    6.3840   -9.3200   24.0110 O   0  0  0  0  0
    4.4580   -9.7750   25.3390 C   0  0  0  0  0
    3.3240   -8.9820   24.9460 O   0  0  0  0  0
    4.7480  -10.9770   24.4310 C   0  0  0  0  0
    3.6140  -11.4300   23.6680 O   0  0  0  0  0
    5.8340  -10.5090   23.4760 C   0  0  0  0  0
    6.8770  -11.5650   23.2290 N   0  0  0  0  0
    7.7410  -12.1380   24.1060 C   0  0  0  0  0
    8.5360  -13.0580   23.5230 N   0  0  0  0  0
    8.1390  -13.0560   22.2210 C   0  0  0  0  0
    8.5990  -13.8130   21.0660 C   0  0  0  0  0
    9.5290  -14.7100   21.0600 N   0  0  0  0  0
    7.9260  -13.5100   19.8890 N   0  0  0  0  0
    6.9100  -12.5620   19.8030 C   0  0  0  0  0
    6.4810  -11.8590   20.8550 N   0  0  0  0  0
    7.1200  -12.1290   22.0220 C   0  0  0  0  0
    7.2306   -4.6574   30.6636 H   0  0  0  0  0
    5.0857   -5.6628   30.0108 H   0  0  0  0  0
    8.7961   -5.4720   26.7615 H   0  0  0  0  0
    6.1016   -8.9790   27.3045 H   0  0  0  0  0
    7.4283   -9.6016   26.2464 H   0  0  0  0  0
    5.3677   -7.8416   25.1813 H   0  0  0  0  0
    4.2353  -10.1435   26.3403 H   0  0  0  0  0
    2.5260   -9.5114   25.0132 H   0  0  0  0  0
    5.0347  -11.8268   25.0505 H   0  0  0  0  0
    3.8724  -12.1801   23.1275 H   0  0  0  0  0
    5.4054  -10.3113   22.4935 H   0  0  0  0  0
    7.7869  -11.8824   25.1646 H   0  0  0  0  0
   10.0169  -14.9446   21.9245 H   0  0  0  0  0
    9.7753  -15.1835   20.1908 H   0  0  0  0  0
    6.4436  -12.3854   18.8338 H   0  0  0  0  0
  1  2  2  0  0  0
  1  3  1  0  0  0
  1  4  1  0  0  0
  8  1  1  0  0  0
  5  6  1  0  0  0
  5  7  2  0  0  0
  5  8  1  0  0  0
  5  9  1  0  0  0
  9 10  1  0  0  0
 10 11  1  0  0  0
 11 12  1  0  0  0
 11 13  1  0  0  0
 12 17  1  0  0  0
 13 14  1  0  0  0
 13 15  1  0  0  0
 15 16  1  0  0  0
 15 17  1  0  0  0
 17 18  1  0  0  0
 18 19  4  0  0  0
 18 27  4  0  0  0
 19 20  4  0  0  0
 20 21  4  0  0  0
 21 22  4  0  0  0
 21 27  4  0  0  0
 22 23  1  0  0  0
 22 24  4  0  0  0
 24 25  4  0  0  0
 25 26  4  0  0  0
 26 27  4  0  0  0
  3 28  1  0  0  0
  4 29  1  0  0  0
  6 30  1  0  0  0
 10 31  1  0  0  0
 10 32  1  0  0  0
 11 33  1  0  0  0
 13 34  1  0  0  0
 14 35  1  0  0  0
 15 36  1  0  0  0
 16 37  1  0  0  0
 17 38  1  0  0  0
 19 39  1  0  0  0
 23 40  1  0  0  0
 23 41  1  0  0  0
 25 42  1  0  0  0
M  END
$$$$
