3rx5_ligand
  -I-interpret- 

 66 68  0  0  0  0  0  0  0  0999 V2000
  -12.6100   35.4870  -23.4860 O   0  0  0  0  0
  -13.2970   34.5110  -22.6830 C   0  0  0  0  0
  -13.4700   33.2110  -23.5000 C   0  0  0  0  0
  -14.6760   33.3680  -24.5190 C   0  0  0  0  0
  -15.0560   32.0110  -25.0500 N   0  3  0  0  0
  -13.9450   31.6990  -26.0560 C   0  0  0  0  0
  -12.6610   31.4260  -25.1410 C   0  0  0  0  0
  -11.5330   31.1070  -25.9020 O   0  0  0  0  0
  -12.2130   32.7130  -24.3150 C   0  0  0  0  0
  -11.2050   32.2420  -23.3600 O   0  0  0  0  0
  -10.1400   33.1380  -23.2280 C   0  0  0  0  0
   -9.3070   32.8070  -21.9410 C   0  0  0  0  0
  -10.1620   33.2390  -20.9540 O   0  0  0  0  0
   -8.0170   33.6820  -22.0180 C   0  0  0  0  0
   -7.1600   33.3380  -20.8730 O   0  0  0  0  0
   -9.3290   32.8900  -24.4050 O   0  0  0  0  0
   -8.2190   33.7590  -24.5400 C   0  0  0  0  0
   -7.8140   33.8460  -26.1240 C   0  0  0  0  0
   -7.1840   32.6260  -26.3280 O   0  0  0  0  0
   -7.2380   33.4070  -23.4300 C   0  0  0  0  0
   -6.4730   34.5190  -23.5310 O   0  0  0  0  0
   -5.1390   34.3510  -23.1170 C   0  0  0  0  0
   -4.0450   35.3450  -23.8130 C   0  0  0  0  0
   -4.0110   35.1740  -25.0600 O   0  0  0  0  0
   -2.6320   35.2760  -23.2910 C   0  0  0  0  0
   -1.8060   36.3770  -23.7200 O   0  0  0  0  0
   -2.7110   35.3680  -21.7570 C   0  0  0  0  0
   -1.4700   34.9170  -21.3700 O   0  0  0  0  0
   -5.0330   34.5940  -21.7150 O   0  0  0  0  0
   -3.7400   34.2660  -21.1630 C   0  0  0  0  0
   -3.8290   34.1790  -19.5940 C   0  0  0  0  0
   -5.0470   33.5700  -19.2190 O   0  0  0  0  0
  -12.5011   36.2960  -22.9808 H   0  0  0  0  0
  -14.2758   34.8962  -22.3972 H   0  0  0  0  0
  -12.7167   34.3033  -21.7840 H   0  0  0  0  0
  -13.6495   32.4537  -22.7368 H   0  0  0  0  0
  -14.3753   34.0127  -25.3448 H   0  0  0  0  0
  -15.5301   33.8133  -24.0089 H   0  0  0  0  0
  -15.9831   32.0025  -25.4753 H   0  0  0  0  0
  -15.1265   31.3083  -24.3141 H   0  0  0  0  0
  -13.7845   32.5147  -26.7609 H   0  0  0  0  0
  -14.1891   30.8471  -26.6906 H   0  0  0  0  0
  -12.9722   30.6092  -24.4898 H   0  0  0  0  0
  -11.7183   30.3320  -26.4374 H   0  0  0  0  0
  -11.8306   33.5108  -24.9517 H   0  0  0  0  0
  -10.4721   34.1726  -23.1419 H   0  0  0  0  0
   -8.9962   31.7724  -21.7958 H   0  0  0  0  0
   -9.7598   33.0887  -20.0954 H   0  0  0  0  0
   -8.2724   34.7409  -21.9791 H   0  0  0  0  0
   -6.3597   33.8673  -20.9033 H   0  0  0  0  0
   -8.3638   34.8221  -24.3478 H   0  0  0  0  0
   -7.1835   34.7027  -26.3620 H   0  0  0  0  0
   -8.6696   34.0052  -26.7803 H   0  0  0  0  0
   -6.8976   32.5639  -27.2422 H   0  0  0  0  0
   -6.7872   32.4158  -23.4783 H   0  0  0  0  0
   -4.9064   33.3288  -23.4155 H   0  0  0  0  0
   -4.4136   36.3338  -23.5399 H   0  0  0  0  0
   -3.3626   35.7676  -25.4457 H   0  0  0  0  0
   -2.1907   34.3526  -23.6661 H   0  0  0  0  0
   -0.9237   36.2745  -23.3558 H   0  0  0  0  0
   -3.0082   36.3648  -21.4311 H   0  0  0  0  0
   -1.4093   34.9331  -20.4121 H   0  0  0  0  0
   -3.3731   33.2805  -21.4498 H   0  0  0  0  0
   -3.7829   35.1835  -19.1734 H   0  0  0  0  0
   -2.9968   33.5842  -19.2174 H   0  0  0  0  0
   -5.0966   33.5192  -18.2616 H   0  0  0  0  0
  1  2  1  0  0  0
  2  3  1  0  0  0
  3  4  1  0  0  0
  3  9  1  0  0  0
  4  5  1  0  0  0
  5  6  1  0  0  0
  6  7  1  0  0  0
  7  8  1  0  0  0
  7  9  1  0  0  0
  9 10  1  0  0  0
 10 11  1  0  0  0
 11 12  1  0  0  0
 11 16  1  0  0  0
 12 13  1  0  0  0
 12 14  1  0  0  0
 14 15  1  0  0  0
 14 20  1  0  0  0
 16 17  1  0  0  0
 17 18  1  0  0  0
 17 20  1  0  0  0
 18 19  1  0  0  0
 20 21  1  0  0  0
 21 22  1  0  0  0
 22 23  1  0  0  0
 22 29  1  0  0  0
 23 24  1  0  0  0
 23 25  1  0  0  0
 25 26  1  0  0  0
 25 27  1  0  0  0
 27 28  1  0  0  0
 27 30  1  0  0  0
 29 30  1  0  0  0
 30 31  1  0  0  0
 31 32  1  0  0  0
  1 33  1  0  0  0
  2 34  1  0  0  0
  2 35  1  0  0  0
  3 36  1  0  0  0
  4 37  1  0  0  0
  4 38  1  0  0  0
  5 39  1  0  0  0
  5 40  1  0  0  0
  6 41  1  0  0  0
  6 42  1  0  0  0
  7 43  1  0  0  0
  8 44  1  0  0  0
  9 45  1  0  0  0
 11 46  1  0  0  0
 12 47  1  0  0  0
 13 48  1  0  0  0
 14 49  1  0  0  0
 15 50  1  0  0  0
 17 51  1  0  0  0
 18 52  1  0  0  0
 18 53  1  0  0  0
 19 54  1  0  0  0
 20 55  1  0  0  0
 22 56  1  0  0  0
 23 57  1  0  0  0
 24 58  1  0  0  0
 25 59  1  0  0  0
 26 60  1  0  0  0
 27 61  1  0  0  0
 28 62  1  0  0  0
 30 63  1  0  0  0
 31 64  1  0  0  0
 31 65  1  0  0  0
 32 66  1  0  0  0
M  END
$$$$
