1hqg_ligand
  -I-interpret- 

 23 22  0  0  0  0  0  0  0  0999 V2000
   38.3360   21.3750   -6.6450 N   0  3  0  0  0
   38.3270   21.1860   -8.1300 C   0  0  0  0  0
   37.1650   21.9990   -8.7040 C   0  0  0  0  0
   37.1180   23.4270   -8.2780 C   0  0  0  0  0
   36.0610   24.2230   -8.9920 C   0  0  0  0  0
   36.0380   25.6340   -8.5570 N   0  3  0  0  0
   39.6380   21.7130   -8.7660 C   0  0  0  0  0
   40.5320   22.2300   -7.9660 O   0  0  0  0  0
   39.8790   21.6530  -10.0680 O   0  0  0  0  0
   37.4636   21.0204   -6.2530 H   0  0  0  0  0
   39.1227   20.8650   -6.2433 H   0  0  0  0  0
   38.4278   22.3679   -6.4304 H   0  0  0  0  0
   38.2284   20.1230   -8.3498 H   0  0  0  0  0
   36.2483   21.5339   -8.3414 H   0  0  0  0  0
   37.2881   21.9994   -9.7870 H   0  0  0  0  0
   38.0838   23.8741   -8.5134 H   0  0  0  0  0
   36.8841   23.4468   -7.2136 H   0  0  0  0  0
   35.0910   23.7814   -8.7635 H   0  0  0  0  0
   36.2817   24.2002  -10.0592 H   0  0  0  0  0
   35.3086   26.1335   -9.0658 H   0  0  0  0  0
   35.8463   25.6769   -7.5561 H   0  0  0  0  0
   36.9432   26.0628   -8.7497 H   0  0  0  0  0
   39.1300   21.2495  -10.5127 H   0  0  0  0  0
  1  2  1  0  0  0
  2  3  1  0  0  0
  2  7  1  0  0  0
  3  4  1  0  0  0
  4  5  1  0  0  0
  5  6  1  0  0  0
  7  8  2  0  0  0
  7  9  1  0  0  0
  1 10  1  0  0  0
  1 11  1  0  0  0
  1 12  1  0  0  0
  2 13  1  0  0  0
  3 14  1  0  0  0
  3 15  1  0  0  0
  4 16  1  0  0  0
  4 17  1  0  0  0
  5 18  1  0  0  0
  5 19  1  0  0  0
  6 20  1  0  0  0
  6 21  1  0  0  0
  6 22  1  0  0  0
  9 23  1  0  0  0
M  END
$$$$
