6guh_ligand
  -I-interpret- 

 47 49  0  0  0  0  0  0  0  0999 V2000
   -1.5590   -5.7250  -26.6670 C   0  0  0  0  0
    3.4520   -9.0920  -27.6430 C   0  0  0  0  0
   -0.5450   -5.1420  -27.5290 C   0  0  0  0  0
   -0.5790   -3.7740  -27.8020 C   0  0  0  0  0
    4.6250   -8.8880  -29.7140 C   0  0  0  0  0
    0.4720   -3.2850  -28.5530 C   0  0  0  0  0
    1.3510   -5.3730  -28.8230 C   0  0  0  0  0
    2.9900   -7.2340  -29.1050 C   0  0  0  0  0
    3.9750   -7.7010  -29.9610 C   0  0  0  0  0
    4.3870   -9.5510  -28.5380 C   0  0  0  0  0
    5.9920  -11.5330  -29.6910 C   0  0  0  0  0
   -3.5280   -6.0890  -25.6260 N   0  0  0  0  0
    1.3940   -4.0620  -29.1270 N   0  0  0  0  0
   -2.8300   -5.2680  -26.4740 C   0  0  0  0  0
    2.3730   -6.0140  -29.4260 N   0  0  0  0  0
   -3.0190   -8.1490  -24.3230 C   0  0  0  0  0
   -2.6810   -7.0360  -25.2610 C   0  0  0  0  0
    5.3050  -11.0090  -28.1800 S   0  0  0  0  0
    6.4390  -10.5820  -27.3880 O   0  0  0  0  0
    4.3560  -11.9550  -27.6670 O   0  0  0  0  0
    2.7460   -7.9430  -27.9220 C   0  0  0  0  0
    0.4170   -5.9440  -28.0270 N   0  0  0  0  0
   -1.4610   -6.9200  -25.9080 N   0  0  0  0  0
   -0.2660   -7.7030  -25.7170 C   0  0  0  0  0
    0.1410   -7.6110  -24.2260 C   0  0  0  0  0
   -0.4770   -9.0690  -26.2870 C   0  0  0  0  0
    3.2694   -9.6349  -26.7156 H   0  0  0  0  0
   -1.3842   -3.1318  -27.4451 H   0  0  0  0  0
    5.3219   -9.2970  -30.4456 H   0  0  0  0  0
    0.5533   -2.2060  -28.6843 H   0  0  0  0  0
    4.2388   -7.1186  -30.8438 H   0  0  0  0  0
    6.5206  -10.7010  -30.1563 H   0  0  0  0  0
    6.6888  -12.3509  -29.5076 H   0  0  0  0  0
    5.1953  -11.8741  -30.3520 H   0  0  0  0  0
   -3.2374   -4.3677  -26.9339 H   0  0  0  0  0
    2.7577   -5.5386  -30.2423 H   0  0  0  0  0
   -3.3154   -7.7334  -23.3599 H   0  0  0  0  0
   -3.8408   -8.7338  -24.7362 H   0  0  0  0  0
   -2.1465   -8.7888  -24.1910 H   0  0  0  0  0
    1.9942   -7.5838  -27.2192 H   0  0  0  0  0
    0.5966   -7.3237  -26.2649 H   0  0  0  0  0
    0.3298   -6.5695  -23.9658 H   0  0  0  0  0
   -0.6659   -8.0012  -23.6057 H   0  0  0  0  0
    1.0446   -8.1977  -24.0605 H   0  0  0  0  0
   -1.3140   -9.5480  -25.7790 H   0  0  0  0  0
   -0.6952   -8.9873  -27.3518 H   0  0  0  0  0
    0.4250   -9.6641  -26.1443 H   0  0  0  0  0
  3  1  1  0  0  0
  1 14  4  0  0  0
  1 23  4  0  0  0
 10  2  4  0  0  0
  2 21  4  0  0  0
  3  4  4  0  0  0
 22  3  4  0  0  0
  6  4  4  0  0  0
  9  5  4  0  0  0
  5 10  4  0  0  0
 13  6  4  0  0  0
  7 13  4  0  0  0
 15  7  1  0  0  0
  7 22  4  0  0  0
  8  9  4  0  0  0
  8 15  1  0  0  0
  8 21  4  0  0  0
 10 18  1  0  0  0
 18 11  1  0  0  0
 14 12  4  0  0  0
 12 17  4  0  0  0
 17 16  1  0  0  0
 17 23  4  0  0  0
 18 19  2  0  0  0
 18 20  2  0  0  0
 23 24  1  0  0  0
 24 25  1  0  0  0
 24 26  1  0  0  0
  2 27  1  0  0  0
  4 28  1  0  0  0
  5 29  1  0  0  0
  6 30  1  0  0  0
  9 31  1  0  0  0
 11 32  1  0  0  0
 11 33  1  0  0  0
 11 34  1  0  0  0
 14 35  1  0  0  0
 15 36  1  0  0  0
 16 37  1  0  0  0
 16 38  1  0  0  0
 16 39  1  0  0  0
 21 40  1  0  0  0
 24 41  1  0  0  0
 25 42  1  0  0  0
 25 43  1  0  0  0
 25 44  1  0  0  0
 26 45  1  0  0  0
 26 46  1  0  0  0
 26 47  1  0  0  0
M  END
$$$$
