### 
### Created by X-TOOL on Mon Aug  2 16:11:40 2021
### 

@<TRIPOS>MOLECULE
6q36_ligand
  291   299     1     0     0
SMALL
GAST_HUCK


@<TRIPOS>ATOM
      1 C         165.6490    5.0670    3.4040 C.2       1 ACE         0.1776
      2 O         165.8120    4.5130    4.4840 O.2       1 ACE        -0.3970
      3 CH3       164.2600    5.0100    2.8140 C.3       1 ACE         0.0260
      4 N         166.6750    5.7110    2.7750 N.am      1 ACE        -0.2520
      5 CA        168.0140    5.7570    3.3710 C.3       1 ACE         0.1337
      6 C         168.0230    6.3880    4.7530 C.2       1 ACE         0.2042
      7 O         167.2880    7.3400    5.0000 O.2       1 ACE        -0.3944
      8 CB        168.7690    6.6630    2.3640 C.3       1 ACE        -0.0104
      9 CG        167.6720    7.3940    1.5610 C.3       1 ACE        -0.0281
     10 CD        166.5150    6.3730    1.4850 C.3       1 ACE         0.0369
     11 N         168.8890    5.8380    5.6440 N.am      1 ACE        -0.2627
     12 CA        169.0710    6.2840    7.0270 C.3       1 ACE         0.1352
     13 CB        170.2570    5.5240    7.6610 C.3       1 ACE         0.0043
     14 CG        169.9050    4.1130    8.0460 C.2       1 ACE        -0.0416
     15 CD2       169.2270    3.7010    9.3260 C.ar      1 ACE        -0.0212
     16 CE3       168.7300    4.3810   10.4430 C.ar      1 ACE        -0.0742
     17 CE2       169.1620    2.3170    9.2010 C.ar      1 ACE         0.0608
     18 NE1       169.7180    1.9480    8.0260 N.pl3     1 ACE        -0.2889
     19 CD1       170.1570    2.9860    7.3530 C.2       1 ACE         0.0169
     20 CZ2       168.5870    1.5210   10.1980 C.ar      1 ACE        -0.0305
     21 CH2       168.0790    2.1950   11.3310 C.ar      1 ACE         0.0251
     22 CLL       167.3440    1.2830   12.6320 Cl        1 ACE        -0.0799
     23 CZ3       168.1510    3.5940   11.4480 C.ar      1 ACE        -0.0654
     24 C         169.4150    7.7580    7.0390 C.2       1 ACE         0.2052
     25 O         168.9390    8.4280    7.9460 O.2       1 ACE        -0.3942
     26 N         170.2280    8.2470    6.0620 N.am      1 ACE        -0.2636
     27 CA        170.6590    9.6470    5.9610 C.3       1 ACE         0.1311
     28 C         169.5130   10.6220    5.7690 C.2       1 ACE         0.2039
     29 O         169.7580   11.7920    6.0200 O.2       1 ACE        -0.3944
     30 CB        171.6780    9.7650    4.7880 C.3       1 ACE        -0.0092
     31 CG        173.1550    9.6290    5.2630 C.3       1 ACE        -0.0156
     32 CD        173.8790   11.0010    5.3720 C.3       1 ACE         0.0627
     33 NE        174.0300   11.4080    6.7750 N.pl3     1 ACE        -0.2723
     34 CZ        174.1370   12.6470    7.2100 C.cat     1 ACE         0.2882
     35 NH1       173.0690   13.3100    7.4380 N.pl3     1 ACE        -0.2849
     36 NH2       175.3160   13.1960    7.4170 N.pl3     1 ACE        -0.2849
     37 N         168.2950   10.1870    5.3490 N.am      1 ACE        -0.2637
     38 CA        167.1650   11.1140    5.1590 C.3       1 ACE         0.1312
     39 C         166.1750   11.0020    6.3070 C.2       1 ACE         0.2039
     40 O         165.2020   11.7470    6.3070 O.2       1 ACE        -0.3944
     41 CB        166.4380   10.8380    3.8040 C.3       1 ACE        -0.0101
     42 CG        167.3140   11.0120    2.5220 C.3       1 ACE        -0.0425
     43 CD1       166.4520   10.7300    1.2590 C.3       1 ACE        -0.0625
     44 CD2       167.9640   12.4240    2.4000 C.3       1 ACE        -0.0625
     45 N         166.4220   10.0910    7.2860 N.am      1 ACE        -0.2637
     46 CA        165.5370    9.9080    8.4360 C.3       1 ACE         0.1311
     47 C         165.7740   10.9940    9.4650 C.2       1 ACE         0.2039
     48 O         166.8720   11.5250    9.5350 O.2       1 ACE        -0.3944
     49 CB        165.7810    8.5080    9.0660 C.3       1 ACE        -0.0092
     50 CG        165.0780    7.3980    8.2400 C.3       1 ACE        -0.0156
     51 CD        165.5690    5.9820    8.6370 C.3       1 ACE         0.0627
     52 NE        165.2900    5.0060    7.5830 N.pl3     1 ACE        -0.2723
     53 CZ        164.3580    4.0770    7.6580 C.cat     1 ACE         0.2882
     54 NH1       163.9840    3.4890    6.5860 N.pl3     1 ACE        -0.2849
     55 NH2       163.8340    3.7550    8.8220 N.pl3     1 ACE        -0.2849
     56 N         164.7420   11.3290   10.2740 N.am      1 ACE        -0.2637
     57 CA        164.8540   12.3520   11.3120 C.3       1 ACE         0.1310
     58 C         165.5750   11.6870   12.4660 C.2       1 ACE         0.2039
     59 O         164.9590   10.8990   13.1680 O.2       1 ACE        -0.3944
     60 CB        163.4050   12.7950   11.6540 C.3       1 ACE        -0.0122
     61 CG        163.3110   13.8870   12.7540 C.3       1 ACE        -0.0440
     62 CD        161.8350   14.0700   13.2060 C.3       1 ACE        -0.0124
     63 CE        161.3150   12.8160   13.9610 C.3       1 ACE        -0.0354
     64 NZ        160.3050   13.2020   14.9670 N.4       1 ACE         0.2185
     65 N         166.8840   11.9870   12.6390 N.am      1 ACE        -0.2637
     66 CA        167.7110   11.3930   13.6920 C.3       1 ACE         0.1314
     67 CB        168.5590   10.2400   13.0500 C.3       1 ACE        -0.0096
     68 C1        168.6810   12.4300   14.2130 C.2       1 ACE         0.2065
     69 O         168.9550   13.3340   13.4340 O.2       1 ACE        -0.3942
     70 CG        167.7050    9.0640   12.4870 C.3       1 ACE        -0.0368
     71 CD1       168.4530    7.7460   12.1360 C.3       1 ACE        -0.0500
     72 CD2       166.8500    8.2670   13.5040 C.3       1 ACE        -0.0500
     73 CE        167.2220    6.9920   12.6980 C.3       1 ACE        -0.0525
     74 N         169.2450   12.3470   15.4540 N.am      1 ACE        -0.2473
     75 CA        170.1940   13.3580   15.9050 C.3       1 ACE         0.1362
     76 C         171.4480   13.3650   15.0540 C.2       1 ACE         0.2043
     77 O         171.7560   12.3460   14.4450 O.2       1 ACE        -0.3944
     78 CB        170.5320   12.8350   17.3270 C.3       1 ACE         0.0158
     79 CG        169.3190   11.9590   17.7150 C.3       1 ACE         0.0799
     80 CD        168.9330   11.2700   16.3900 C.3       1 ACE         0.0629
     81 OD1       168.2350   12.7280   18.2570 O.3       1 ACE        -0.3896
     82 N         172.1810   14.5100   15.0410 N.am      1 ACE        -0.2622
     83 CA        173.4260   14.6610   14.2840 C.3       1 ACE         0.1423
     84 C         174.4690   13.6300   14.6850 C.2       1 ACE         0.2057
     85 O         175.2020   13.1650   13.8170 O.2       1 ACE        -0.3943
     86 CB        174.1020   16.0360   14.5630 C.3       1 ACE         0.0406
     87 CG        173.4780   17.2790   13.9660 C.2       1 ACE         0.0393
     88 OD1       172.4510   17.0990   13.1280 O.co2     1 ACE        -0.5688
     89 OD2       173.9120   18.3900   14.2550 O.co2     1 ACE        -0.5688
     90 N         174.5440   13.2810   16.0050 N.am      1 ACE        -0.2615
     91 CA        175.5200   12.3140   16.5380 C.3       1 ACE         0.1539
     92 C         175.4260   10.9570   15.8530 C.2       1 ACE         0.2063
     93 O         176.4660   10.3160   15.7620 O.2       1 ACE        -0.3943
     94 CB        175.3680   12.2110   18.0780 C.3       1 ACE         0.0843
     95 OG        173.9830   12.0140   18.4080 O.3       1 ACE        -0.3903
     96 N         174.2330   10.5270   15.3680 N.am      1 ACE        -0.2619
     97 CA        174.0520    9.2300   14.6950 C.3       1 ACE         0.1404
     98 C         175.0380    9.0280   13.5640 C.2       1 ACE         0.2061
     99 O         175.3810    7.8730   13.3280 O.2       1 ACE        -0.3942
    100 CB        172.5810    9.1720   14.2200 C.3       1 ACE         0.0214
    101 CG        172.1210    7.7720   13.7680 C.ar      1 ACE        -0.0386
    102 CD1       172.2780    7.3630   12.4280 C.ar      1 ACE        -0.0601
    103 CD2       171.5000    6.9020   14.6830 C.ar      1 ACE        -0.0601
    104 CE1       171.8340    6.0990   12.0120 C.ar      1 ACE        -0.0686
    105 CE2       171.0560    5.6330   14.2670 C.ar      1 ACE        -0.0686
    106 CZ        171.2210    5.2290   12.9290 C.ar      1 ACE        -0.0687
    107 N         175.5040   10.1190   12.8950 N.am      1 ACE        -0.2616
    108 CA        176.4630    9.9930   11.7930 C.3       1 ACE         0.1411
    109 C         177.8340   10.4910   12.1830 C.2       1 ACE         0.2061
    110 O         178.6300   10.7150   11.2870 O.2       1 ACE        -0.3942
    111 CB        175.9320   10.7360   10.5340 C.3       1 ACE         0.0237
    112 CG1       174.6650   10.0030   10.0380 C.ar      1 ACE        -0.0279
    113 CD1       174.8480    8.7630    9.3960 C.ar      1 ACE        -0.0605
    114 CE1       173.7610    8.0220    8.9210 C.ar      1 ACE        -0.0707
    115 CD2       173.3640   10.5120   10.2040 C.ar      1 ACE        -0.0119
    116 CE2       172.2710    9.7650    9.7180 C.ar      1 ACE        -0.0243
    117 CZ1       172.4690    8.5300    9.0820 C.ar      1 ACE        -0.0631
    118 CG2       173.0990   11.7470   10.8340 C.ar      1 ACE        -0.0548
    119 CD3       171.7950   12.2330   10.9820 C.ar      1 ACE        -0.0625
    120 CE3       170.7260   11.4810   10.4900 C.ar      1 ACE        -0.0629
    121 CZ2       170.9620   10.2500    9.8650 C.ar      1 ACE        -0.0569
    122 N         178.1330   10.6570   13.4960 N.am      1 ACE        -0.2636
    123 CA        179.4560   11.1340   13.9030 C.3       1 ACE         0.1310
    124 C         180.0440   10.1220   14.8610 C.2       1 ACE         0.2039
    125 O         179.6310   10.1010   16.0200 O.2       1 ACE        -0.3944
    126 CB        179.3590   12.5430   14.5570 C.3       1 ACE        -0.0122
    127 CG        179.0930   13.6530   13.5050 C.3       1 ACE        -0.0440
    128 CD        180.4190   14.3220   13.0440 C.3       1 ACE        -0.0124
    129 CE        180.4780   14.4530   11.4970 C.3       1 ACE        -0.0354
    130 NZ        180.9150   13.1690   10.9050 N.4       1 ACE         0.2185
    131 N         180.9930    9.2830   14.3670 N.am      1 ACE        -0.2636
    132 CA        181.6010    8.2660   15.2200 C.3       1 ACE         0.1327
    133 C         182.3400    8.9240   16.3770 C.2       1 ACE         0.2065
    134 O         183.2180    9.7110   16.0430 O.2       1 ACE        -0.3942
    135 CB        182.5820    7.3680   14.4120 C.3       1 ACE        -0.0008
    136 CG        183.2580    6.3200   15.3450 C.3       1 ACE         0.0044
    137 CD        184.0190    5.2080   14.6730 C.2       1 ACE         0.0350
    138 OE1       184.2740    5.3640   13.3710 O.co2     1 ACE        -0.5690
    139 OE2       184.3830    4.2190   15.2970 O.co2     1 ACE        -0.5690
    140 N         182.0580    8.6470   17.6950 N.am      1 ACE        -0.2498
    141 CA        182.8010    9.2740   18.7910 C.3       1 ACE         0.1334
    142 C         184.2850    8.9980   18.6830 C.2       1 ACE         0.1994
    143 O         184.6900    8.0400   18.0320 O.2       1 ACE        -0.3947
    144 CB        182.2380    8.5150   20.0200 C.3       1 ACE        -0.0104
    145 CG        180.8450    8.0300   19.5840 C.3       1 ACE        -0.0281
    146 CD        181.0160    7.7020   18.0860 C.3       1 ACE         0.0369
    147 N         185.1310    9.8360   19.3210 N.am      1 ACE        -0.2990
    148 H1        164.2487    5.5412    1.8508 H         1 ACE         0.0467
    149 H2        163.5486    5.4871    3.5041 H         1 ACE         0.0467
    150 H3        163.9710    3.9603    2.6572 H         1 ACE         0.0467
    151 H4        168.4581    4.7521    3.4252 H         1 ACE         0.0802
    152 H5        169.3944    6.0547    1.6941 H         1 ACE         0.0313
    153 H6        169.4011    7.3876    2.8983 H         1 ACE         0.0313
    154 H7        168.0318    7.6517    0.5540 H         1 ACE         0.0287
    155 H8        167.3516    8.3087    2.0812 H         1 ACE         0.0287
    156 H9        165.5373    6.8698    1.3998 H         1 ACE         0.0524
    157 H10       166.6441    5.6716    0.6476 H         1 ACE         0.0524
    158 H11       169.4456    5.0685    5.3309 H         1 ACE         0.1884
    159 H12       168.1513    6.1028    7.6026 H         1 ACE         0.0815
    160 H13       170.5792    6.0646    8.5632 H         1 ACE         0.0397
    161 H14       171.0838    5.4948    6.9361 H         1 ACE         0.0397
    162 H15       168.7896    5.4601   10.5269 H         1 ACE         0.0541
    163 H16       169.7885    0.9738    7.6992 H         1 ACE         0.2216
    164 H17       170.6496    2.9425    6.3828 H         1 ACE         0.0797
    165 H18       168.5341    0.4422   10.1057 H         1 ACE         0.0547
    166 H19       167.7505    4.0740   12.3336 H         1 ACE         0.0515
    167 H20       170.5541    7.6083    5.3650 H         1 ACE         0.1883
    168 H21       171.1696    9.9141    6.8980 H         1 ACE         0.0800
    169 H22       171.5511   10.7467    4.3082 H         1 ACE         0.0313
    170 H23       171.4681    8.9699    4.0574 H         1 ACE         0.0313
    171 H24       173.6996    8.9999    4.5435 H         1 ACE         0.0301
    172 H25       173.1638    9.1470    6.2517 H         1 ACE         0.0301
    173 H26       173.2901   11.7616    4.8385 H         1 ACE         0.0689
    174 H27       174.8750   10.9194    4.9123 H         1 ACE         0.0689
    175 H28       174.0544   10.6587    7.4813 H         1 ACE         0.2642
    176 H29       173.1280   14.2803    7.7786 H         1 ACE         0.2615
    177 H30       172.1490   12.8742    7.2813 H         1 ACE         0.2615
    178 H31       176.1744   12.6577    7.2318 H         1 ACE         0.2615
    179 H32       175.3797   14.1637    7.7641 H         1 ACE         0.2615
    180 H33       168.1626    9.2132    5.1643 H         1 ACE         0.1883
    181 H34       167.5608   12.1401    5.1389 H         1 ACE         0.0800
    182 H35       165.5867   11.5306    3.7291 H         1 ACE         0.0315
    183 H36       166.0676    9.8024    3.8231 H         1 ACE         0.0315
    184 H37       168.1253   10.2705    2.5661 H         1 ACE         0.0298
    185 H38       167.0707   10.8531    0.3579 H         1 ACE         0.0232
    186 H39       165.6097   11.4366    1.2247 H         1 ACE         0.0232
    187 H40       166.0659    9.7009    1.3009 H         1 ACE         0.0232
    188 H41       168.5742   12.6251    3.2928 H         1 ACE         0.0232
    189 H42       167.1743   13.1852    2.3166 H         1 ACE         0.0232
    190 H43       168.6020   12.4578    1.5046 H         1 ACE         0.0232
    191 H44       167.2422    9.5231    7.2168 H         1 ACE         0.1883
    192 H45       164.4932    9.9674    8.0939 H         1 ACE         0.0800
    193 H46       165.3830    8.5003   10.0914 H         1 ACE         0.0313
    194 H47       166.8623    8.3079    9.0909 H         1 ACE         0.0313
    195 H48       165.2893    7.5612    7.1729 H         1 ACE         0.0301
    196 H49       163.9934    7.4594    8.4126 H         1 ACE         0.0301
    197 H50       165.0556    5.6703    9.5585 H         1 ACE         0.0689
    198 H51       166.6539    6.0161    8.8152 H         1 ACE         0.0689
    199 H52       165.8596    5.0477    6.7258 H         1 ACE         0.2642
    200 H53       163.2569    2.7605    6.6250 H         1 ACE         0.2615
    201 H54       164.4098    3.7439    5.6834 H         1 ACE         0.2615
    202 H55       164.1447    4.2369    9.6776 H         1 ACE         0.2615
    203 H56       163.1133    3.0212    8.8770 H         1 ACE         0.2615
    204 H57       163.8678   10.8577   10.1569 H         1 ACE         0.1883
    205 H58       165.4328   13.2183   10.9592 H         1 ACE         0.0800
    206 H59       162.8472   11.9115   11.9978 H         1 ACE         0.0312
    207 H60       162.9403   13.1885   10.7380 H         1 ACE         0.0312
    208 H61       163.6888   14.8393   12.3535 H         1 ACE         0.0269
    209 H62       163.9206   13.5851   13.6184 H         1 ACE         0.0269
    210 H63       161.2072   14.2397   12.3188 H         1 ACE         0.0317
    211 H64       161.7703   14.9421   13.8733 H         1 ACE         0.0317
    212 H65       162.1581   12.3212   14.4654 H         1 ACE         0.0813
    213 H66       160.8605   12.1212   13.2394 H         1 ACE         0.0813
    214 H67       159.9778   12.3786   15.4477 H         1 ACE         0.1994
    215 H68       159.5294   13.6537   14.5083 H         1 ACE         0.1994
    216 H69       160.7184   13.8370   15.6317 H         1 ACE         0.1994
    217 H70       167.3069   12.6464   12.0174 H         1 ACE         0.1883
    218 H71       167.0798   11.0090   14.5069 H         1 ACE         0.0800
    219 H72       169.2359    9.8390   13.8187 H         1 ACE         0.0315
    220 H73       169.1508   10.6637   12.2252 H         1 ACE         0.0315
    221 H74       167.1143    9.4564   11.6462 H         1 ACE         0.0303
    222 H75       169.3868    7.5837   12.6943 H         1 ACE         0.0268
    223 H76       168.6363    7.5924   11.0623 H         1 ACE         0.0268
    224 H77       165.7789    8.5173   13.5008 H         1 ACE         0.0268
    225 H78       167.2278    8.2850   14.5369 H         1 ACE         0.0268
    226 H79       167.4695    6.1186   13.3193 H         1 ACE         0.0265
    227 H80       166.4809    6.7033   11.9381 H         1 ACE         0.0265
    228 H81       169.7442   14.3616   15.9258 H         1 ACE         0.0803
    229 H82       170.6487   13.6716   18.0316 H         1 ACE         0.0338
    230 H83       171.4549   12.2366   17.3122 H         1 ACE         0.0338
    231 H84       169.6188   11.2077   18.4604 H         1 ACE         0.0616
    232 H85       169.5425   10.3739   16.2015 H         1 ACE         0.0550
    233 H86       167.8669   11.0005   16.3638 H         1 ACE         0.0550
    234 H87       167.4950   12.1562   18.4240 H         1 ACE         0.2099
    235 H88       171.8534   15.2890   15.5756 H         1 ACE         0.1884
    236 H89       173.1975   14.5647   13.2123 H         1 ACE         0.0819
    237 H90       175.1325   15.9749   14.1831 H         1 ACE         0.0478
    238 H91       174.1210   16.1737   15.6542 H         1 ACE         0.0478
    239 H92       173.9016   13.7050   16.6434 H         1 ACE         0.1884
    240 H93       176.5251   12.7097   16.3305 H         1 ACE         0.0823
    241 H94       175.7283   13.1392   18.5454 H         1 ACE         0.0606
    242 H95       175.9584   11.3603   18.4492 H         1 ACE         0.0606
    243 H96       173.8893   11.9508   19.3512 H         1 ACE         0.2097
    244 H97       173.4361   11.1219   15.4733 H         1 ACE         0.1885
    245 H98       174.2170    8.4261   15.4274 H         1 ACE         0.0823
    246 H99       172.4637    9.8643   13.3733 H         1 ACE         0.0474
    247 H100      171.9366    9.4960   15.0505 H         1 ACE         0.0474
    248 H101      172.7456    8.0306   11.7134 H         1 ACE         0.0557
    249 H102      171.3629    7.2106   15.7131 H         1 ACE         0.0557
    250 H103      171.9642    5.7928   10.9803 H         1 ACE         0.0599
    251 H104      170.5856    4.9648   14.9792 H         1 ACE         0.0599
    252 H105      170.8772    4.2524   12.6079 H         1 ACE         0.0559
    253 H106      175.1843   11.0282   13.1619 H         1 ACE         0.1885
    254 H107      176.5537    8.9253   11.5446 H         1 ACE         0.0825
    255 H108      176.6992   10.7279    9.7458 H         1 ACE         0.0486
    256 H109      175.6831   11.7757   10.7928 H         1 ACE         0.0486
    257 H110      175.8519    8.3749    9.2673 H         1 ACE         0.0530
    258 H111      173.9186    7.0663    8.4344 H         1 ACE         0.0595
    259 H112      171.6177    7.9685    8.7146 H         1 ACE         0.0542
    260 H113      173.9274   12.3345   11.2132 H         1 ACE         0.0628
    261 H114      171.6167   13.1828   11.4732 H         1 ACE         0.0601
    262 H115      169.7121   11.8506   10.5920 H         1 ACE         0.0616
    263 H116      170.1274    9.6674    9.4920 H         1 ACE         0.0609
    264 H117      177.4442   10.4519   14.1913 H         1 ACE         0.1883
    265 H118      180.1022   11.2054   13.0157 H         1 ACE         0.0800
    266 H119      180.3057   12.7615   15.0727 H         1 ACE         0.0312
    267 H120      178.5360   12.5403   15.2868 H         1 ACE         0.0312
    268 H121      178.4404   14.4191   13.9492 H         1 ACE         0.0269
    269 H122      178.5938   13.2074   12.6319 H         1 ACE         0.0269
    270 H123      181.2666   13.7089   13.3841 H         1 ACE         0.0317
    271 H124      180.4888   15.3245   13.4912 H         1 ACE         0.0317
    272 H125      181.1923   15.2437   11.2238 H         1 ACE         0.0813
    273 H126      179.4801   14.7118   11.1134 H         1 ACE         0.0813
    274 H127      180.9523   13.2571    9.9016 H         1 ACE         0.1994
    275 H128      180.2607   12.4440   11.1545 H         1 ACE         0.1994
    276 H129      181.8297   12.9314   11.2556 H         1 ACE         0.1994
    277 H130      181.2769    9.3632   13.4115 H         1 ACE         0.1883
    278 H131      180.8011    7.6305   15.6279 H         1 ACE         0.0801
    279 H132      183.3581    7.9997   13.9553 H         1 ACE         0.0330
    280 H133      182.0248    6.8430   13.6221 H         1 ACE         0.0330
    281 H134      182.4683    5.8607   15.9577 H         1 ACE         0.0433
    282 H135      183.9614    6.8587   15.9970 H         1 ACE         0.0433
    283 H136      182.6150   10.3568   18.8454 H         1 ACE         0.0802
    284 H137      182.1594    9.1873   20.8870 H         1 ACE         0.0313
    285 H138      182.8823    7.6609   20.2755 H         1 ACE         0.0313
    286 H139      180.0932    8.8199   19.7279 H         1 ACE         0.0287
    287 H140      180.5483    7.1341   20.1490 H         1 ACE         0.0287
    288 H141      181.3414    6.6618   17.9376 H         1 ACE         0.0524
    289 H142      180.0846    7.8780   17.5279 H         1 ACE         0.0524
    290 H143      186.1181    9.6836   19.2711 H         1 ACE         0.1815
    291 H144      184.7702   10.6087   19.8432 H         1 ACE         0.1815
@<TRIPOS>BOND
     1    1    2 2  
     2    1    3 1  
     3    1    4 am 
     4    4    5 1  
     5    4   10 1  
     6    5    6 1  
     7    5    8 1  
     8    6    7 2  
     9    6   11 am 
    10    8    9 1  
    11    9   10 1  
    12   11   12 1  
    13   12   13 1  
    14   12   24 1  
    15   13   14 1  
    16   14   15 1  
    17   14   19 2  
    18   15   16 ar 
    19   15   17 ar 
    20   16   23 ar 
    21   17   18 1  
    22   17   20 ar 
    23   18   19 1  
    24   20   21 ar 
    25   21   22 1  
    26   21   23 ar 
    27   24   25 2  
    28   24   26 am 
    29   26   27 1  
    30   27   28 1  
    31   27   30 1  
    32   28   29 2  
    33   28   37 am 
    34   30   31 1  
    35   31   32 1  
    36   32   33 1  
    37   33   34 ar 
    38   34   35 ar 
    39   34   36 ar 
    40   37   38 1  
    41   38   39 1  
    42   38   41 1  
    43   39   40 2  
    44   39   45 am 
    45   41   42 1  
    46   42   43 1  
    47   42   44 1  
    48   45   46 1  
    49   46   47 1  
    50   46   49 1  
    51   47   48 2  
    52   47   56 am 
    53   49   50 1  
    54   50   51 1  
    55   51   52 1  
    56   52   53 ar 
    57   53   54 ar 
    58   53   55 ar 
    59   56   57 1  
    60   57   58 1  
    61   57   60 1  
    62   58   59 2  
    63   58   65 am 
    64   60   61 1  
    65   61   62 1  
    66   62   63 1  
    67   63   64 1  
    68   65   66 1  
    69   66   67 1  
    70   66   68 1  
    71   67   70 1  
    72   68   69 2  
    73   68   74 am 
    74   70   71 1  
    75   70   72 1  
    76   71   73 1  
    77   72   73 1  
    78   74   75 1  
    79   74   80 1  
    80   75   76 1  
    81   75   78 1  
    82   76   77 2  
    83   76   82 am 
    84   78   79 1  
    85   79   80 1  
    86   79   81 1  
    87   82   83 1  
    88   83   84 1  
    89   83   86 1  
    90   84   85 2  
    91   84   90 am 
    92   86   87 1  
    93   87   88 ar 
    94   87   89 ar 
    95   90   91 1  
    96   91   92 1  
    97   91   94 1  
    98   92   93 2  
    99   92   96 am 
   100   94   95 1  
   101   96   97 1  
   102   97   98 1  
   103   97  100 1  
   104   98   99 2  
   105   98  107 am 
   106  100  101 1  
   107  101  102 ar 
   108  101  103 ar 
   109  102  104 ar 
   110  103  105 ar 
   111  104  106 ar 
   112  105  106 ar 
   113  107  108 1  
   114  108  109 1  
   115  108  111 1  
   116  109  110 2  
   117  109  122 am 
   118  111  112 1  
   119  112  113 ar 
   120  112  115 ar 
   121  113  114 ar 
   122  114  117 ar 
   123  115  116 ar 
   124  115  118 ar 
   125  116  117 ar 
   126  116  121 ar 
   127  118  119 ar 
   128  119  120 ar 
   129  120  121 ar 
   130  122  123 1  
   131  123  124 1  
   132  123  126 1  
   133  124  125 2  
   134  124  131 am 
   135  126  127 1  
   136  127  128 1  
   137  128  129 1  
   138  129  130 1  
   139  131  132 1  
   140  132  133 1  
   141  132  135 1  
   142  133  134 2  
   143  133  140 am 
   144  135  136 1  
   145  136  137 1  
   146  137  138 ar 
   147  137  139 ar 
   148  140  141 1  
   149  140  146 1  
   150  141  142 1  
   151  141  144 1  
   152  142  143 2  
   153  142  147 am 
   154  144  145 1  
   155  145  146 1  
   156    3  148 1  
   157    3  149 1  
   158    3  150 1  
   159    5  151 1  
   160    8  152 1  
   161    8  153 1  
   162    9  154 1  
   163    9  155 1  
   164   10  156 1  
   165   10  157 1  
   166   11  158 1  
   167   12  159 1  
   168   13  160 1  
   169   13  161 1  
   170   16  162 1  
   171   18  163 1  
   172   19  164 1  
   173   20  165 1  
   174   23  166 1  
   175   26  167 1  
   176   27  168 1  
   177   30  169 1  
   178   30  170 1  
   179   31  171 1  
   180   31  172 1  
   181   32  173 1  
   182   32  174 1  
   183   33  175 1  
   184   35  176 1  
   185   35  177 1  
   186   36  178 1  
   187   36  179 1  
   188   37  180 1  
   189   38  181 1  
   190   41  182 1  
   191   41  183 1  
   192   42  184 1  
   193   43  185 1  
   194   43  186 1  
   195   43  187 1  
   196   44  188 1  
   197   44  189 1  
   198   44  190 1  
   199   45  191 1  
   200   46  192 1  
   201   49  193 1  
   202   49  194 1  
   203   50  195 1  
   204   50  196 1  
   205   51  197 1  
   206   51  198 1  
   207   52  199 1  
   208   54  200 1  
   209   54  201 1  
   210   55  202 1  
   211   55  203 1  
   212   56  204 1  
   213   57  205 1  
   214   60  206 1  
   215   60  207 1  
   216   61  208 1  
   217   61  209 1  
   218   62  210 1  
   219   62  211 1  
   220   63  212 1  
   221   63  213 1  
   222   64  214 1  
   223   64  215 1  
   224   64  216 1  
   225   65  217 1  
   226   66  218 1  
   227   67  219 1  
   228   67  220 1  
   229   70  221 1  
   230   71  222 1  
   231   71  223 1  
   232   72  224 1  
   233   72  225 1  
   234   73  226 1  
   235   73  227 1  
   236   75  228 1  
   237   78  229 1  
   238   78  230 1  
   239   79  231 1  
   240   80  232 1  
   241   80  233 1  
   242   81  234 1  
   243   82  235 1  
   244   83  236 1  
   245   86  237 1  
   246   86  238 1  
   247   90  239 1  
   248   91  240 1  
   249   94  241 1  
   250   94  242 1  
   251   95  243 1  
   252   96  244 1  
   253   97  245 1  
   254  100  246 1  
   255  100  247 1  
   256  102  248 1  
   257  103  249 1  
   258  104  250 1  
   259  105  251 1  
   260  106  252 1  
   261  107  253 1  
   262  108  254 1  
   263  111  255 1  
   264  111  256 1  
   265  113  257 1  
   266  114  258 1  
   267  117  259 1  
   268  118  260 1  
   269  119  261 1  
   270  120  262 1  
   271  121  263 1  
   272  122  264 1  
   273  123  265 1  
   274  126  266 1  
   275  126  267 1  
   276  127  268 1  
   277  127  269 1  
   278  128  270 1  
   279  128  271 1  
   280  129  272 1  
   281  129  273 1  
   282  130  274 1  
   283  130  275 1  
   284  130  276 1  
   285  131  277 1  
   286  132  278 1  
   287  135  279 1  
   288  135  280 1  
   289  136  281 1  
   290  136  282 1  
   291  141  283 1  
   292  144  284 1  
   293  144  285 1  
   294  145  286 1  
   295  145  287 1  
   296  146  288 1  
   297  146  289 1  
   298  147  290 1  
   299  147  291 1  
@<TRIPOS>SUBSTRUCTURE
     1 ACE         1

