6q36_ligand
  -I-interpret- 

290298  0  0  0  0  0  0  0  0999 V2000
  165.6490    5.0670    3.4040 C   0  0  0  0  0
  165.8120    4.5130    4.4840 O   0  0  0  0  0
  164.2600    5.0100    2.8140 C   0  0  0  0  0
  166.6750    5.7110    2.7750 N   0  0  0  0  0
  168.0140    5.7570    3.3710 C   0  0  0  0  0
  168.0230    6.3880    4.7530 C   0  0  0  0  0
  167.2880    7.3400    5.0000 O   0  0  0  0  0
  168.7690    6.6630    2.3640 C   0  0  0  0  0
  167.6720    7.3940    1.5610 C   0  0  0  0  0
  166.5150    6.3730    1.4850 C   0  0  0  0  0
  168.8890    5.8380    5.6440 N   0  0  0  0  0
  169.0710    6.2840    7.0270 C   0  0  0  0  0
  170.2570    5.5240    7.6610 C   0  0  0  0  0
  169.9050    4.1130    8.0460 C   0  0  0  0  0
  169.2270    3.7010    9.3260 C   0  0  0  0  0
  168.7300    4.3810   10.4430 C   0  0  0  0  0
  169.1620    2.3170    9.2010 C   0  0  0  0  0
  169.7180    1.9480    8.0260 N   0  0  0  0  0
  170.1570    2.9860    7.3530 C   0  0  0  0  0
  168.5870    1.5210   10.1980 C   0  0  0  0  0
  168.0790    2.1950   11.3310 C   0  0  0  0  0
  167.3440    1.2830   12.6320 Cl  0  0  0  0  0
  168.1510    3.5940   11.4480 C   0  0  0  0  0
  169.4150    7.7580    7.0390 C   0  0  0  0  0
  168.9390    8.4280    7.9460 O   0  0  0  0  0
  170.2280    8.2470    6.0620 N   0  0  0  0  0
  170.6590    9.6470    5.9610 C   0  0  0  0  0
  169.5130   10.6220    5.7690 C   0  0  0  0  0
  169.7580   11.7920    6.0200 O   0  0  0  0  0
  171.6780    9.7650    4.7880 C   0  0  0  0  0
  173.1550    9.6290    5.2630 C   0  0  0  0  0
  173.8790   11.0010    5.3720 C   0  0  0  0  0
  174.0300   11.4080    6.7750 N   0  0  0  0  0
  174.1370   12.6470    7.2100 C   0  0  0  0  0
  173.0690   13.3100    7.4380 N   0  0  0  0  0
  175.3160   13.1960    7.4170 N   0  0  0  0  0
  168.2950   10.1870    5.3490 N   0  0  0  0  0
  167.1650   11.1140    5.1590 C   0  0  0  0  0
  166.1750   11.0020    6.3070 C   0  0  0  0  0
  165.2020   11.7470    6.3070 O   0  0  0  0  0
  166.4380   10.8380    3.8040 C   0  0  0  0  0
  167.3140   11.0120    2.5220 C   0  0  0  0  0
  166.4520   10.7300    1.2590 C   0  0  0  0  0
  167.9640   12.4240    2.4000 C   0  0  0  0  0
  166.4220   10.0910    7.2860 N   0  0  0  0  0
  165.5370    9.9080    8.4360 C   0  0  0  0  0
  165.7740   10.9940    9.4650 C   0  0  0  0  0
  166.8720   11.5250    9.5350 O   0  0  0  0  0
  165.7810    8.5080    9.0660 C   0  0  0  0  0
  165.0780    7.3980    8.2400 C   0  0  0  0  0
  165.5690    5.9820    8.6370 C   0  0  0  0  0
  165.2900    5.0060    7.5830 N   0  0  0  0  0
  164.3580    4.0770    7.6580 C   0  0  0  0  0
  163.9840    3.4890    6.5860 N   0  0  0  0  0
  163.8340    3.7550    8.8220 N   0  0  0  0  0
  164.7420   11.3290   10.2740 N   0  0  0  0  0
  164.8540   12.3520   11.3120 C   0  0  0  0  0
  165.5750   11.6870   12.4660 C   0  0  0  0  0
  164.9590   10.8990   13.1680 O   0  0  0  0  0
  163.4050   12.7950   11.6540 C   0  0  0  0  0
  163.3110   13.8870   12.7540 C   0  0  0  0  0
  161.8350   14.0700   13.2060 C   0  0  0  0  0
  161.3150   12.8160   13.9610 C   0  0  0  0  0
  160.3050   13.2020   14.9670 N   0  3  0  0  0
  166.8840   11.9870   12.6390 N   0  0  0  0  0
  167.7110   11.3930   13.6920 C   0  0  0  0  0
  168.5590   10.2400   13.0500 C   0  0  0  0  0
  168.6810   12.4300   14.2130 C   0  0  0  0  0
  168.9550   13.3340   13.4340 O   0  0  0  0  0
  167.7050    9.0640   12.4870 C   0  0  0  0  0
  168.4530    7.7460   12.1360 C   0  0  0  0  0
  166.8500    8.2670   13.5040 C   0  0  0  0  0
  167.2220    6.9920   12.6980 C   0  0  0  0  0
  169.2450   12.3470   15.4540 N   0  0  0  0  0
  170.1940   13.3580   15.9050 C   0  0  0  0  0
  171.4480   13.3650   15.0540 C   0  0  0  0  0
  171.7560   12.3460   14.4450 O   0  0  0  0  0
  170.5320   12.8350   17.3270 C   0  0  0  0  0
  169.3190   11.9590   17.7150 C   0  0  0  0  0
  168.9330   11.2700   16.3900 C   0  0  0  0  0
  168.2350   12.7280   18.2570 O   0  0  0  0  0
  172.1810   14.5100   15.0410 N   0  0  0  0  0
  173.4260   14.6610   14.2840 C   0  0  0  0  0
  174.4690   13.6300   14.6850 C   0  0  0  0  0
  175.2020   13.1650   13.8170 O   0  0  0  0  0
  174.1020   16.0360   14.5630 C   0  0  0  0  0
  173.4780   17.2790   13.9660 C   0  0  0  0  0
  172.4510   17.0990   13.1280 O   0  0  0  0  0
  173.9120   18.3900   14.2550 O   0  0  0  0  0
  174.5440   13.2810   16.0050 N   0  0  0  0  0
  175.5200   12.3140   16.5380 C   0  0  0  0  0
  175.4260   10.9570   15.8530 C   0  0  0  0  0
  176.4660   10.3160   15.7620 O   0  0  0  0  0
  175.3680   12.2110   18.0780 C   0  0  0  0  0
  173.9830   12.0140   18.4080 O   0  0  0  0  0
  174.2330   10.5270   15.3680 N   0  0  0  0  0
  174.0520    9.2300   14.6950 C   0  0  0  0  0
  175.0380    9.0280   13.5640 C   0  0  0  0  0
  175.3810    7.8730   13.3280 O   0  0  0  0  0
  172.5810    9.1720   14.2200 C   0  0  0  0  0
  172.1210    7.7720   13.7680 C   0  0  0  0  0
  172.2780    7.3630   12.4280 C   0  0  0  0  0
  171.5000    6.9020   14.6830 C   0  0  0  0  0
  171.8340    6.0990   12.0120 C   0  0  0  0  0
  171.0560    5.6330   14.2670 C   0  0  0  0  0
  171.2210    5.2290   12.9290 C   0  0  0  0  0
  175.5040   10.1190   12.8950 N   0  0  0  0  0
  176.4630    9.9930   11.7930 C   0  0  0  0  0
  177.8340   10.4910   12.1830 C   0  0  0  0  0
  178.6300   10.7150   11.2870 O   0  0  0  0  0
  175.9320   10.7360   10.5340 C   0  0  0  0  0
  174.6650   10.0030   10.0380 C   0  0  0  0  0
  174.8480    8.7630    9.3960 C   0  0  0  0  0
  173.7610    8.0220    8.9210 C   0  0  0  0  0
  173.3640   10.5120   10.2040 C   0  0  0  0  0
  172.2710    9.7650    9.7180 C   0  0  0  0  0
  172.4690    8.5300    9.0820 C   0  0  0  0  0
  173.0990   11.7470   10.8340 C   0  0  0  0  0
  171.7950   12.2330   10.9820 C   0  0  0  0  0
  170.7260   11.4810   10.4900 C   0  0  0  0  0
  170.9620   10.2500    9.8650 C   0  0  0  0  0
  178.1330   10.6570   13.4960 N   0  0  0  0  0
  179.4560   11.1340   13.9030 C   0  0  0  0  0
  180.0440   10.1220   14.8610 C   0  0  0  0  0
  179.6310   10.1010   16.0200 O   0  0  0  0  0
  179.3590   12.5430   14.5570 C   0  0  0  0  0
  179.0930   13.6530   13.5050 C   0  0  0  0  0
  180.4190   14.3220   13.0440 C   0  0  0  0  0
  180.4780   14.4530   11.4970 C   0  0  0  0  0
  180.9150   13.1690   10.9050 N   0  3  0  0  0
  180.9930    9.2830   14.3670 N   0  0  0  0  0
  181.6010    8.2660   15.2200 C   0  0  0  0  0
  182.3400    8.9240   16.3770 C   0  0  0  0  0
  183.2180    9.7110   16.0430 O   0  0  0  0  0
  182.5820    7.3680   14.4120 C   0  0  0  0  0
  183.2580    6.3200   15.3450 C   0  0  0  0  0
  184.0190    5.2080   14.6730 C   0  0  0  0  0
  184.2740    5.3640   13.3710 O   0  0  0  0  0
  184.3830    4.2190   15.2970 O   0  0  0  0  0
  182.0580    8.6470   17.6950 N   0  0  0  0  0
  182.8010    9.2740   18.7910 C   0  0  0  0  0
  184.2850    8.9980   18.6830 C   0  0  0  0  0
  184.6900    8.0400   18.0320 O   0  0  0  0  0
  182.2380    8.5150   20.0200 C   0  0  0  0  0
  180.8450    8.0300   19.5840 C   0  0  0  0  0
  181.0160    7.7020   18.0860 C   0  0  0  0  0
  185.1310    9.8360   19.3210 N   0  0  0  0  0
  163.9748    3.9694    2.6592 H   0  0  0  0  0
  163.5561    5.4830    3.4988 H   0  0  0  0  0
  164.2501    5.5366    1.8597 H   0  0  0  0  0
  168.4440    4.7666    3.5205 H   0  0  0  0  0
  169.4184    6.0792    1.7117 H   0  0  0  0  0
  169.4249    7.3674    2.8756 H   0  0  0  0  0
  168.0184    7.6977    0.5732 H   0  0  0  0  0
  167.3672    8.3268    2.0354 H   0  0  0  0  0
  165.5324    6.8173    1.3260 H   0  0  0  0  0
  166.5617    5.7030    0.6265 H   0  0  0  0  0
  169.4567    5.0531    5.3246 H   0  0  0  0  0
  168.1519    6.0969    7.5822 H   0  0  0  0  0
  170.5480    6.0550    8.5674 H   0  0  0  0  0
  171.0579    5.4791    6.9231 H   0  0  0  0  0
  168.7899    5.4661   10.5274 H   0  0  0  0  0
  170.6501    2.9425    6.3819 H   0  0  0  0  0
  168.5338    0.4363   10.1052 H   0  0  0  0  0
  167.7483    4.0767   12.3385 H   0  0  0  0  0
  170.5606    7.5955    5.3511 H   0  0  0  0  0
  171.1212    9.9218    6.9091 H   0  0  0  0  0
  171.5594   10.7507    4.3381 H   0  0  0  0  0
  171.4757    8.9570    4.0849 H   0  0  0  0  0
  173.6888    9.0263    4.5282 H   0  0  0  0  0
  173.1475    9.1749    6.2539 H   0  0  0  0  0
  173.2838   11.7521    4.8527 H   0  0  0  0  0
  174.8696   10.9095    4.9264 H   0  0  0  0  0
  174.0542   10.6659    7.4744 H   0  0  0  0  0
  172.1579   12.8785    7.2828 H   0  0  0  0  0
  175.3791   14.1543    7.7607 H   0  0  0  0  0
  176.1661   12.6629    7.2336 H   0  0  0  0  0
  168.1599    9.1937    5.1606 H   0  0  0  0  0
  167.5680   12.1266    5.1396 H   0  0  0  0  0
  165.6320   11.5681    3.7302 H   0  0  0  0  0
  166.1256    9.7940    3.8268 H   0  0  0  0  0
  168.1308   10.2950    2.6039 H   0  0  0  0  0
  166.0700    9.7100    1.3017 H   0  0  0  0  0
  165.6177   11.4307    1.2262 H   0  0  0  0  0
  167.0661   10.8523    0.3668 H   0  0  0  0  0
  167.1809   13.1814    2.3662 H   0  0  0  0  0
  168.6068   12.6024    3.2620 H   0  0  0  0  0
  168.5571   12.4719    1.4868 H   0  0  0  0  0
  167.2586    9.5117    7.2154 H   0  0  0  0  0
  164.5022    9.9739    8.0999 H   0  0  0  0  0
  165.3739    8.5031   10.0771 H   0  0  0  0  0
  166.8530    8.3108    9.0768 H   0  0  0  0  0
  165.3102    7.5571    7.1870 H   0  0  0  0  0
  164.0069    7.4548    8.4338 H   0  0  0  0  0
  165.0445    5.6744    9.5416 H   0  0  0  0  0
  166.6465    6.0211    8.7966 H   0  0  0  0  0
  165.8541    5.0473    6.7342 H   0  0  0  0  0
  164.4056    3.7414    5.6922 H   0  0  0  0  0
  163.1203    3.0283    8.8765 H   0  0  0  0  0
  164.1417    4.2322    9.6693 H   0  0  0  0  0
  163.8503   10.8483   10.1546 H   0  0  0  0  0
  165.4116   13.2444   11.0277 H   0  0  0  0  0
  162.8821   11.9158   12.0305 H   0  0  0  0  0
  162.9771   13.2185   10.7454 H   0  0  0  0  0
  163.6801   14.8305   12.3519 H   0  0  0  0  0
  163.9109   13.5817   13.6113 H   0  0  0  0  0
  161.2178   14.2221   12.3206 H   0  0  0  0  0
  161.7822   14.9261   13.8786 H   0  0  0  0  0
  162.1519   12.3333   14.4656 H   0  0  0  0  0
  160.8586   12.1339   13.2437 H   0  0  0  0  0
  159.9747   12.3681   15.4527 H   0  0  0  0  0
  160.7245   13.8446   15.6390 H   0  0  0  0  0
  159.5208   13.6590   14.5017 H   0  0  0  0  0
  167.3153   12.6596   12.0050 H   0  0  0  0  0
  167.0758   11.0266   14.4984 H   0  0  0  0  0
  169.1955    9.8310   13.8346 H   0  0  0  0  0
  169.1089   10.6702   12.2130 H   0  0  0  0  0
  167.2350    9.6623   11.7065 H   0  0  0  0  0
  169.4617    7.5459   12.4973 H   0  0  0  0  0
  168.8346    7.5532   11.1333 H   0  0  0  0  0
  165.8130    8.5310   13.7113 H   0  0  0  0  0
  167.0245    8.3368   14.5777 H   0  0  0  0  0
  167.3391    6.0313   13.1993 H   0  0  0  0  0
  166.4997    6.5277   12.0266 H   0  0  0  0  0
  169.8032   14.3745   15.8602 H   0  0  0  0  0
  170.6916   13.6486   18.0345 H   0  0  0  0  0
  171.4651   12.2719   17.3443 H   0  0  0  0  0
  169.5578   11.2495   18.5073 H   0  0  0  0  0
  169.4571   10.3342   16.1958 H   0  0  0  0  0
  167.9033   10.9152   16.3464 H   0  0  0  0  0
  167.5089   12.1415   18.4814 H   0  0  0  0  0
  171.8469   15.3046   15.5863 H   0  0  0  0  0
  173.1321   14.5504   13.2402 H   0  0  0  0  0
  175.0904   15.9660   14.1089 H   0  0  0  0  0
  174.0361   16.1732   15.6423 H   0  0  0  0  0
  172.2725   16.1599   13.0395 H   0  0  0  0  0
  173.8888   13.7135   16.6562 H   0  0  0  0  0
  176.5221   12.6813   16.3167 H   0  0  0  0  0
  175.7258   13.1303   18.5417 H   0  0  0  0  0
  175.9537   11.3687   18.4464 H   0  0  0  0  0
  173.8883   11.9502   19.3612 H   0  0  0  0  0
  173.4202   11.1338   15.4754 H   0  0  0  0  0
  174.2560    8.4105   15.3841 H   0  0  0  0  0
  172.4937    9.8341   13.3585 H   0  0  0  0  0
  171.9570    9.4590   15.0664 H   0  0  0  0  0
  172.7482    8.0343   11.7094 H   0  0  0  0  0
  171.3622    7.2123   15.7188 H   0  0  0  0  0
  171.9650    5.7911   10.9746 H   0  0  0  0  0
  170.5830    4.9611   14.9831 H   0  0  0  0  0
  170.8753    4.2470   12.6062 H   0  0  0  0  0
  175.1779   11.0463   13.1672 H   0  0  0  0  0
  176.5666    8.9342   11.5555 H   0  0  0  0  0
  176.6923   10.7396    9.7530 H   0  0  0  0  0
  175.6931   11.7701   10.7825 H   0  0  0  0  0
  175.8575    8.3727    9.2666 H   0  0  0  0  0
  173.9195    7.0610    8.4317 H   0  0  0  0  0
  171.6129    7.9654    8.7126 H   0  0  0  0  0
  173.9319   12.3377   11.2153 H   0  0  0  0  0
  171.6157   13.1880   11.4759 H   0  0  0  0  0
  169.7065   11.8526   10.5925 H   0  0  0  0  0
  170.1228    9.6642    9.4899 H   0  0  0  0  0
  177.4304   10.4478   14.2052 H   0  0  0  0  0
  180.1040   11.2346   13.0323 H   0  0  0  0  0
  180.3083   12.7579   15.0477 H   0  0  0  0  0
  178.5286   12.5354   15.2630 H   0  0  0  0  0
  178.4581   14.4151   13.9569 H   0  0  0  0  0
  178.6117   13.2014   12.6375 H   0  0  0  0  0
  181.2528   13.7010   13.3714 H   0  0  0  0  0
  180.4732   15.3201   13.4788 H   0  0  0  0  0
  181.1870   15.2356   11.2271 H   0  0  0  0  0
  179.4885   14.7080   11.1176 H   0  0  0  0  0
  180.9524   13.2593    9.8897 H   0  0  0  0  0
  181.8406   12.9296   11.2605 H   0  0  0  0  0
  180.2522   12.4362   11.1582 H   0  0  0  0  0
  181.2826    9.3648   13.3924 H   0  0  0  0  0
  180.8025    7.6361   15.6122 H   0  0  0  0  0
  183.3539    7.9971   13.9687 H   0  0  0  0  0
  182.0241    6.8434   13.6364 H   0  0  0  0  0
  182.4480    5.8403   15.8944 H   0  0  0  0  0
  183.9902    6.8712   15.9350 H   0  0  0  0  0
  183.9073    6.1994   13.0721 H   0  0  0  0  0
  182.6922   10.3582   18.8173 H   0  0  0  0  0
  182.1857    9.1548   20.9009 H   0  0  0  0  0
  182.8816    7.6853   20.3122 H   0  0  0  0  0
  180.0734    8.7801   19.7573 H   0  0  0  0  0
  180.5087    7.1679   20.1600 H   0  0  0  0  0
  181.2785    6.6614   17.8956 H   0  0  0  0  0
  180.0963    7.8054   17.5101 H   0  0  0  0  0
  186.1378    9.6810   19.2694 H   0  0  0  0  0
  184.7629   10.6237   19.8543 H   0  0  0  0  0
  1  2  2  0  0  0
  1  3  1  0  0  0
  1  4  1  0  0  0
  4  5  1  0  0  0
  4 10  1  0  0  0
  5  6  1  0  0  0
  5  8  1  0  0  0
  6  7  2  0  0  0
  6 11  1  0  0  0
  8  9  1  0  0  0
  9 10  1  0  0  0
 11 12  1  0  0  0
 12 13  1  0  0  0
 12 24  1  0  0  0
 13 14  1  0  0  0
 14 15  4  0  0  0
 14 19  4  0  0  0
 15 16  4  0  0  0
 15 17  4  0  0  0
 16 23  4  0  0  0
 17 18  4  0  0  0
 17 20  4  0  0  0
 18 19  4  0  0  0
 20 21  4  0  0  0
 21 22  1  0  0  0
 21 23  4  0  0  0
 24 25  2  0  0  0
 24 26  1  0  0  0
 26 27  1  0  0  0
 27 28  1  0  0  0
 27 30  1  0  0  0
 28 29  2  0  0  0
 28 37  1  0  0  0
 30 31  1  0  0  0
 31 32  1  0  0  0
 32 33  1  0  0  0
 33 34  1  0  0  0
 34 35  2  0  0  0
 34 36  1  0  0  0
 37 38  1  0  0  0
 38 39  1  0  0  0
 38 41  1  0  0  0
 39 40  2  0  0  0
 39 45  1  0  0  0
 41 42  1  0  0  0
 42 43  1  0  0  0
 42 44  1  0  0  0
 45 46  1  0  0  0
 46 47  1  0  0  0
 46 49  1  0  0  0
 47 48  2  0  0  0
 47 56  1  0  0  0
 49 50  1  0  0  0
 50 51  1  0  0  0
 51 52  1  0  0  0
 52 53  1  0  0  0
 53 54  2  0  0  0
 53 55  1  0  0  0
 56 57  1  0  0  0
 57 58  1  0  0  0
 57 60  1  0  0  0
 58 59  2  0  0  0
 58 65  1  0  0  0
 60 61  1  0  0  0
 61 62  1  0  0  0
 62 63  1  0  0  0
 63 64  1  0  0  0
 65 66  1  0  0  0
 66 67  1  0  0  0
 66 68  1  0  0  0
 67 70  1  0  0  0
 68 69  2  0  0  0
 68 74  1  0  0  0
 70 71  1  0  0  0
 70 72  1  0  0  0
 71 73  1  0  0  0
 72 73  1  0  0  0
 74 75  1  0  0  0
 74 80  1  0  0  0
 75 76  1  0  0  0
 75 78  1  0  0  0
 76 77  2  0  0  0
 76 82  1  0  0  0
 78 79  1  0  0  0
 79 80  1  0  0  0
 79 81  1  0  0  0
 82 83  1  0  0  0
 83 84  1  0  0  0
 83 86  1  0  0  0
 84 85  2  0  0  0
 84 90  1  0  0  0
 86 87  1  0  0  0
 87 88  1  0  0  0
 87 89  2  0  0  0
 90 91  1  0  0  0
 91 92  1  0  0  0
 91 94  1  0  0  0
 92 93  2  0  0  0
 92 96  1  0  0  0
 94 95  1  0  0  0
 96 97  1  0  0  0
 97 98  1  0  0  0
 97100  1  0  0  0
 98 99  2  0  0  0
 98107  1  0  0  0
100101  1  0  0  0
101102  4  0  0  0
101103  4  0  0  0
102104  4  0  0  0
103105  4  0  0  0
104106  4  0  0  0
105106  4  0  0  0
107108  1  0  0  0
108109  1  0  0  0
108111  1  0  0  0
109110  2  0  0  0
109122  1  0  0  0
111112  1  0  0  0
112113  4  0  0  0
112115  4  0  0  0
113114  4  0  0  0
114117  4  0  0  0
115116  4  0  0  0
115118  4  0  0  0
116117  4  0  0  0
116121  4  0  0  0
118119  4  0  0  0
119120  4  0  0  0
120121  4  0  0  0
122123  1  0  0  0
123124  1  0  0  0
123126  1  0  0  0
124125  2  0  0  0
124131  1  0  0  0
126127  1  0  0  0
127128  1  0  0  0
128129  1  0  0  0
129130  1  0  0  0
131132  1  0  0  0
132133  1  0  0  0
132135  1  0  0  0
133134  2  0  0  0
133140  1  0  0  0
135136  1  0  0  0
136137  1  0  0  0
137138  1  0  0  0
137139  2  0  0  0
140141  1  0  0  0
140146  1  0  0  0
141142  1  0  0  0
141144  1  0  0  0
142143  2  0  0  0
142147  1  0  0  0
144145  1  0  0  0
145146  1  0  0  0
  3148  1  0  0  0
  3149  1  0  0  0
  3150  1  0  0  0
  5151  1  0  0  0
  8152  1  0  0  0
  8153  1  0  0  0
  9154  1  0  0  0
  9155  1  0  0  0
 10156  1  0  0  0
 10157  1  0  0  0
 11158  1  0  0  0
 12159  1  0  0  0
 13160  1  0  0  0
 13161  1  0  0  0
 16162  1  0  0  0
 19163  1  0  0  0
 20164  1  0  0  0
 23165  1  0  0  0
 26166  1  0  0  0
 27167  1  0  0  0
 30168  1  0  0  0
 30169  1  0  0  0
 31170  1  0  0  0
 31171  1  0  0  0
 32172  1  0  0  0
 32173  1  0  0  0
 33174  1  0  0  0
 35175  1  0  0  0
 36176  1  0  0  0
 36177  1  0  0  0
 37178  1  0  0  0
 38179  1  0  0  0
 41180  1  0  0  0
 41181  1  0  0  0
 42182  1  0  0  0
 43183  1  0  0  0
 43184  1  0  0  0
 43185  1  0  0  0
 44186  1  0  0  0
 44187  1  0  0  0
 44188  1  0  0  0
 45189  1  0  0  0
 46190  1  0  0  0
 49191  1  0  0  0
 49192  1  0  0  0
 50193  1  0  0  0
 50194  1  0  0  0
 51195  1  0  0  0
 51196  1  0  0  0
 52197  1  0  0  0
 54198  1  0  0  0
 55199  1  0  0  0
 55200  1  0  0  0
 56201  1  0  0  0
 57202  1  0  0  0
 60203  1  0  0  0
 60204  1  0  0  0
 61205  1  0  0  0
 61206  1  0  0  0
 62207  1  0  0  0
 62208  1  0  0  0
 63209  1  0  0  0
 63210  1  0  0  0
 64211  1  0  0  0
 64212  1  0  0  0
 64213  1  0  0  0
 65214  1  0  0  0
 66215  1  0  0  0
 67216  1  0  0  0
 67217  1  0  0  0
 70218  1  0  0  0
 71219  1  0  0  0
 71220  1  0  0  0
 72221  1  0  0  0
 72222  1  0  0  0
 73223  1  0  0  0
 73224  1  0  0  0
 75225  1  0  0  0
 78226  1  0  0  0
 78227  1  0  0  0
 79228  1  0  0  0
 80229  1  0  0  0
 80230  1  0  0  0
 81231  1  0  0  0
 82232  1  0  0  0
 83233  1  0  0  0
 86234  1  0  0  0
 86235  1  0  0  0
 88236  1  0  0  0
 90237  1  0  0  0
 91238  1  0  0  0
 94239  1  0  0  0
 94240  1  0  0  0
 95241  1  0  0  0
 96242  1  0  0  0
 97243  1  0  0  0
100244  1  0  0  0
100245  1  0  0  0
102246  1  0  0  0
103247  1  0  0  0
104248  1  0  0  0
105249  1  0  0  0
106250  1  0  0  0
107251  1  0  0  0
108252  1  0  0  0
111253  1  0  0  0
111254  1  0  0  0
113255  1  0  0  0
114256  1  0  0  0
117257  1  0  0  0
118258  1  0  0  0
119259  1  0  0  0
120260  1  0  0  0
121261  1  0  0  0
122262  1  0  0  0
123263  1  0  0  0
126264  1  0  0  0
126265  1  0  0  0
127266  1  0  0  0
127267  1  0  0  0
128268  1  0  0  0
128269  1  0  0  0
129270  1  0  0  0
129271  1  0  0  0
130272  1  0  0  0
130273  1  0  0  0
130274  1  0  0  0
131275  1  0  0  0
132276  1  0  0  0
135277  1  0  0  0
135278  1  0  0  0
136279  1  0  0  0
136280  1  0  0  0
138281  1  0  0  0
141282  1  0  0  0
144283  1  0  0  0
144284  1  0  0  0
145285  1  0  0  0
145286  1  0  0  0
146287  1  0  0  0
146288  1  0  0  0
147289  1  0  0  0
147290  1  0  0  0
M  END
$$$$
