6e4f_ligand
  -I-interpret- 

 56 60  0  0  0  0  0  0  0  0999 V2000
   23.8790    6.5670    1.5660 C   0  0  0  0  0
   25.0200    6.9740    0.7160 C   0  0  0  0  0
   24.7100    8.2950    0.0590 C   0  0  0  0  0
   22.3030    7.8490    0.0760 C   0  0  0  0  0
   19.2590    7.0610    6.6360 C   0  0  0  0  0
   18.7940    7.1060    7.9480 C   0  0  0  0  0
   18.4320    5.9270    8.5760 C   0  0  0  0  0
   19.0060    4.6800    6.6050 C   0  0  0  0  0
   19.3670    5.8590    5.9240 C   0  0  0  0  0
   19.8360    5.9250    4.5590 C   0  0  0  0  0
   17.7210    5.0930    3.6650 C   0  0  0  0  0
   19.0100    5.4950    3.4770 C   0  0  0  0  0
   20.3140    5.6110    1.2030 C   0  0  0  0  0
   18.0910    4.8890    1.5430 C   0  0  0  0  0
   25.9130    8.5590   -0.8160 C   0  0  0  0  0
   25.5690    9.6770   -1.6020 O   0  0  0  0  0
   23.4440    8.2430   -0.6760 O   0  0  0  0  0
   22.6030    6.4860    0.7210 C   0  0  0  0  0
   21.5030    6.0950    1.6140 N   0  0  0  0  0
   19.2620    5.3760    2.0920 C   0  0  0  0  0
   20.1800    5.3620   -0.1090 N   0  0  0  0  0
   18.9980    4.8600   -0.5760 C   0  0  0  0  0
   17.9250    4.6200    0.2300 N   0  0  0  0  0
   17.1720    4.7470    2.4980 N   0  0  0  0  0
   20.9610    6.4060    4.3380 O   0  0  0  0  0
   19.1110    3.1350    5.8640 Cl  0  0  0  0  0
   18.5450    4.7220    7.9070 C   0  0  0  0  0
   17.9780    5.9330    9.8550 O   0  0  0  0  0
   16.9630    6.8070   10.1990 C   0  0  0  0  0
   16.9750    7.3320   11.5010 C   0  0  0  0  0
   15.9830    8.2280   11.9140 C   0  0  0  0  0
   14.9580    8.5920   11.0260 C   0  0  0  0  0
   14.9350    8.0610    9.7310 C   0  0  0  0  0
   15.9360    7.1740    9.3100 C   0  0  0  0  0
   23.7399    7.3028    2.3581 H   0  0  0  0  0
   24.0852    5.5891    2.0010 H   0  0  0  0  0
   25.1905    6.2179   -0.0503 H   0  0  0  0  0
   25.9141    7.0748    1.3313 H   0  0  0  0  0
   24.5583    9.1072    0.7700 H   0  0  0  0  0
   21.4321    7.7729   -0.5750 H   0  0  0  0  0
   22.0867    8.5895    0.8461 H   0  0  0  0  0
   19.5484    7.9912    6.1470 H   0  0  0  0  0
   18.7161    8.0577    8.4736 H   0  0  0  0  0
   17.2122    5.0590    4.6284 H   0  0  0  0  0
   26.1540    7.6947   -1.4349 H   0  0  0  0  0
   26.8059    8.7490   -0.2205 H   0  0  0  0  0
   26.3007    9.8949   -2.1840 H   0  0  0  0  0
   22.7232    5.7566   -0.0800 H   0  0  0  0  0
   21.6501    6.1974    2.6181 H   0  0  0  0  0
   18.9091    4.6418   -1.6402 H   0  0  0  0  0
   18.2678    3.7964    8.4116 H   0  0  0  0  0
   17.7628    7.0394   12.1951 H   0  0  0  0  0
   16.0058    8.6422   12.9220 H   0  0  0  0  0
   14.1812    9.2871   11.3446 H   0  0  0  0  0
   14.1341    8.3387    9.0458 H   0  0  0  0  0
   15.9186    6.7702    8.2977 H   0  0  0  0  0
  1  2  1  0  0  0
 18  1  1  0  0  0
  2  3  1  0  0  0
  3 15  1  0  0  0
 17  3  1  0  0  0
  4 17  1  0  0  0
 18  4  1  0  0  0
  5  6  4  0  0  0
  9  5  4  0  0  0
  6  7  4  0  0  0
 27  7  4  0  0  0
  7 28  1  0  0  0
  9  8  4  0  0  0
  8 26  1  0  0  0
  8 27  4  0  0  0
 10  9  1  0  0  0
 12 10  1  0  0  0
 10 25  2  0  0  0
 12 11  4  0  0  0
 24 11  4  0  0  0
 20 12  4  0  0  0
 19 13  1  0  0  0
 13 20  4  0  0  0
 13 21  4  0  0  0
 20 14  4  0  0  0
 14 23  4  0  0  0
 14 24  4  0  0  0
 15 16  1  0  0  0
 18 19  1  0  0  0
 21 22  4  0  0  0
 22 23  4  0  0  0
 28 29  1  0  0  0
 29 30  4  0  0  0
 29 34  4  0  0  0
 30 31  4  0  0  0
 31 32  4  0  0  0
 32 33  4  0  0  0
 33 34  4  0  0  0
  1 35  1  0  0  0
  1 36  1  0  0  0
  2 37  1  0  0  0
  2 38  1  0  0  0
  3 39  1  0  0  0
  4 40  1  0  0  0
  4 41  1  0  0  0
  5 42  1  0  0  0
  6 43  1  0  0  0
 11 44  1  0  0  0
 15 45  1  0  0  0
 15 46  1  0  0  0
 16 47  1  0  0  0
 18 48  1  0  0  0
 19 49  1  0  0  0
 22 50  1  0  0  0
 27 51  1  0  0  0
 30 52  1  0  0  0
 31 53  1  0  0  0
 32 54  1  0  0  0
 33 55  1  0  0  0
 34 56  1  0  0  0
M  END
$$$$
