5yg4_ligand
  -I-interpret- 

 61 65  0  0  0  0  0  0  0  0999 V2000
   80.2250   16.9070   97.0950 C   0  0  0  0  0
   80.5590   15.6010   97.3030 C   0  0  0  0  0
   80.3110   14.5570   96.1930 C   0  0  0  0  0
   80.2600   15.2140   94.8350 C   0  0  0  0  0
   79.9600   16.6320   94.6900 C   0  0  0  0  0
   80.3840   17.8770   97.9940 N   0  0  0  0  0
   81.0280   15.2040   98.4320 C   0  0  0  0  0
   80.4470   14.8000   93.3970 C   0  0  0  0  0
   80.7990   13.4590   92.7630 C   0  0  0  0  0
   78.3470   13.0340   95.3470 C   0  0  0  0  0
   81.4130   13.5600   96.1620 C   0  0  0  0  0
   81.0510   12.4540   96.8590 C   0  0  0  0  0
   81.9070   11.3880   96.9780 C   0  0  0  0  0
   82.6690   13.6780   95.5510 C   0  0  0  0  0
   89.7190   10.8910   92.5200 O   0  0  0  0  0
   89.0250   11.7350   91.8840 C   0  0  0  0  0
   88.8410   11.6750   90.6240 O   0  0  0  0  0
   88.4180   12.8890   92.6870 C   0  0  0  0  0
   87.1310   12.5430   93.4670 C   0  0  0  0  0
   87.2860   12.6980   94.9680 C   0  0  0  0  0
   86.0220   12.1640   95.6740 C   0  0  0  0  0
   86.0320   13.4370   92.9950 C   0  0  0  0  0
   84.7020   12.9300   93.5250 C   0  0  0  0  0
   84.8160   12.6340   94.9700 N   0  0  0  0  0
   83.5750   12.6210   95.6470 C   0  0  0  0  0
   83.1700   11.4780   96.3660 C   0  0  0  0  0
   81.5210   10.3090   97.6850 F   0  0  0  0  0
   79.6580   12.5690   97.4400 C   0  0  0  0  0
   79.0490   13.6890   96.5600 C   0  0  0  0  0
   77.9420   14.4250   97.3470 C   0  0  0  0  0
   81.4590   14.8480   99.4740 N   0  0  0  0  0
   80.2350   15.9420   92.6820 N   0  0  0  0  0
   79.9550   17.0810   93.4400 N   0  0  0  0  0
   79.7030   17.3470   95.8120 O   0  0  0  0  0
   80.7793   17.6638   98.9098 H   0  0  0  0  0
   80.1105   18.8330   97.7666 H   0  0  0  0  0
   81.7688   13.1268   93.1334 H   0  0  0  0  0
   80.0377   12.7240   93.0243 H   0  0  0  0  0
   80.8413   13.5707   91.6796 H   0  0  0  0  0
   79.0759   12.4632   94.7717 H   0  0  0  0  0
   77.5595   12.3684   95.7004 H   0  0  0  0  0
   77.9128   13.8105   94.7173 H   0  0  0  0  0
   82.9348   14.5846   95.0074 H   0  0  0  0  0
   88.2871   12.4087   90.3473 H   0  0  0  0  0
   88.1492   13.6628   91.9679 H   0  0  0  0  0
   89.1632   13.1808   93.4271 H   0  0  0  0  0
   86.9046   11.4940   93.2761 H   0  0  0  0  0
   87.4207   13.7517   95.2123 H   0  0  0  0  0
   88.1555   12.1329   95.3036 H   0  0  0  0  0
   86.0032   12.5289   96.7009 H   0  0  0  0  0
   86.0401   11.0742   95.6666 H   0  0  0  0  0
   86.0105   13.4411   91.9052 H   0  0  0  0  0
   86.2058   14.4493   93.3599 H   0  0  0  0  0
   84.4259   12.0201   92.9922 H   0  0  0  0  0
   83.9396   13.6942   93.3735 H   0  0  0  0  0
   83.8580   10.6368   96.4503 H   0  0  0  0  0
   79.6468   12.7964   98.5060 H   0  0  0  0  0
   79.0946   11.6363   97.4116 H   0  0  0  0  0
   77.4803   15.1760   96.7060 H   0  0  0  0  0
   77.1878   13.7067   97.6686 H   0  0  0  0  0
   78.3795   14.9097   98.2198 H   0  0  0  0  0
  2  1  2  0  0  0
  1  6  1  0  0  0
  1 34  1  0  0  0
  3  2  1  0  0  0
  2  7  1  0  0  0
  3  4  1  0  0  0
 11  3  1  0  0  0
  3 29  1  0  0  0
  4  5  4  0  0  0
  4  8  4  0  0  0
  5 33  4  0  0  0
  5 34  1  0  0  0
  7 31  3  0  0  0
  8  9  1  0  0  0
  8 32  4  0  0  0
 29 10  1  0  0  0
 11 12  4  0  0  0
 14 11  4  0  0  0
 12 13  4  0  0  0
 12 28  1  0  0  0
 13 26  4  0  0  0
 13 27  1  0  0  0
 25 14  4  0  0  0
 16 15  2  0  0  0
 16 17  1  0  0  0
 18 16  1  0  0  0
 19 18  1  0  0  0
 20 19  1  0  0  0
 22 19  1  0  0  0
 21 20  1  0  0  0
 24 21  1  0  0  0
 23 22  1  0  0  0
 24 23  1  0  0  0
 24 25  1  0  0  0
 25 26  4  0  0  0
 28 29  1  0  0  0
 29 30  1  0  0  0
 32 33  4  0  0  0
  6 35  1  0  0  0
  6 36  1  0  0  0
  9 37  1  0  0  0
  9 38  1  0  0  0
  9 39  1  0  0  0
 10 40  1  0  0  0
 10 41  1  0  0  0
 10 42  1  0  0  0
 14 43  1  0  0  0
 17 44  1  0  0  0
 18 45  1  0  0  0
 18 46  1  0  0  0
 19 47  1  0  0  0
 20 48  1  0  0  0
 20 49  1  0  0  0
 21 50  1  0  0  0
 21 51  1  0  0  0
 22 52  1  0  0  0
 22 53  1  0  0  0
 23 54  1  0  0  0
 23 55  1  0  0  0
 26 56  1  0  0  0
 28 57  1  0  0  0
 28 58  1  0  0  0
 30 59  1  0  0  0
 30 60  1  0  0  0
 30 61  1  0  0  0
M  END
$$$$
