1aze_ligand
  -I-interpret- 

175179  0  0  0  0  0  0  0  0999 V2000
   -8.2450  -17.4670    4.6460 N   0  3  0  0  0
   -8.5770  -16.0670    4.9970 C   0  0  0  0  0
   -7.8090  -15.0810    4.0930 C   0  0  0  0  0
   -6.5860  -15.1910    4.0010 O   0  0  0  0  0
   -8.3300  -15.7940    6.4980 C   0  0  0  0  0
   -8.5050  -14.3130    6.8840 C   0  0  0  0  0
   -9.2920  -16.6310    7.3580 C   0  0  0  0  0
   -8.4930  -14.1370    3.4140 N   0  0  0  0  0
   -7.8730  -13.2060    2.4740 C   0  0  0  0  0
   -7.1450  -12.0590    3.2060 C   0  0  0  0  0
   -7.4680  -11.7630    4.3580 O   0  0  0  0  0
   -9.0370  -12.6850    1.6190 C   0  0  0  0  0
  -10.2080  -12.6870    2.6010 C   0  0  0  0  0
   -9.9340  -13.9180    3.4690 C   0  0  0  0  0
   -6.1730  -11.3940    2.5500 N   0  0  0  0  0
   -5.4400  -10.2600    3.1090 C   0  0  0  0  0
   -6.3870   -9.0520    3.2720 C   0  0  0  0  0
   -6.9620   -8.6030    2.2800 O   0  0  0  0  0
   -4.3010   -9.9800    2.1170 C   0  0  0  0  0
   -4.8530  -10.4880    0.7840 C   0  0  0  0  0
   -5.7160  -11.6810    1.1970 C   0  0  0  0  0
   -6.5930   -8.5340    4.5010 N   0  0  0  0  0
   -7.5870   -7.5020    4.7820 C   0  0  0  0  0
   -7.0930   -6.0990    4.3860 C   0  0  0  0  0
   -5.8930   -5.8220    4.4010 O   0  0  0  0  0
   -7.8430   -7.6000    6.2910 C   0  0  0  0  0
   -6.4790   -8.0290    6.8320 C   0  0  0  0  0
   -5.9660   -8.9740    5.7420 C   0  0  0  0  0
   -8.0450   -5.2110    4.0620 N   0  0  0  0  0
   -7.8260   -3.7940    3.7750 C   0  0  0  0  0
   -8.2920   -2.9850    5.0040 C   0  0  0  0  0
   -9.4910   -2.9760    5.2880 O   0  0  0  0  0
   -8.6100   -3.4030    2.4990 C   0  0  0  0  0
   -8.4730   -1.9020    2.1990 C   0  0  0  0  0
   -8.1150   -4.1940    1.2750 C   0  0  0  0  0
   -7.3920   -2.2870    5.7290 N   0  0  0  0  0
   -7.7460   -1.4450    6.8750 C   0  0  0  0  0
   -8.6920   -0.2810    6.5110 C   0  0  0  0  0
   -8.7330    0.1310    5.3520 O   0  0  0  0  0
   -6.4100   -0.9080    7.4120 C   0  0  0  0  0
   -5.3850   -1.9370    6.9470 C   0  0  0  0  0
   -5.9440   -2.3580    5.5900 C   0  0  0  0  0
   -9.4230    0.2980    7.4830 N   0  0  0  0  0
  -10.2370    1.4940    7.2700 C   0  0  0  0  0
   -9.3400    2.7240    7.0370 C   0  0  0  0  0
   -8.3090    2.8770    7.6940 O   0  0  0  0  0
  -11.0850    1.6340    8.5410 C   0  0  0  0  0
  -10.1930    1.0170    9.6200 C   0  0  0  0  0
   -9.4920   -0.1230    8.8760 C   0  0  0  0  0
   -9.7230    3.5950    6.0900 N   0  0  0  0  0
   -8.9500    4.7830    5.7080 C   0  0  0  0  0
   -8.7890    5.8070    6.8450 C   0  0  0  0  0
   -7.7730    6.5000    6.8830 O   0  0  0  0  0
   -9.5430    5.4450    4.4520 C   0  0  0  0  0
   -9.5620    4.4880    3.2460 C   0  0  0  0  0
   -9.4060    5.2400    1.9190 C   0  0  0  0  0
  -10.4820    6.2160    1.6830 N   0  0  0  0  0
  -10.4810    7.1590    0.7230 C   0  0  0  0  0
   -9.4370    7.3270   -0.0940 N   0  0  0  0  0
  -11.5440    7.9540    0.5730 N   0  0  0  0  0
   -9.7740    5.8910    7.7560 N   0  0  0  0  0
   -9.7880    6.7320    8.9570 C   0  0  0  0  0
  -10.2530    8.1610    8.6310 C   0  0  0  0  0
   -9.7400    8.7860    7.7030 O   0  0  0  0  0
   -8.4200    6.7220    9.6690 C   0  0  0  0  0
   -8.4980    7.1230   11.1510 C   0  0  0  0  0
   -7.0990    7.2890   11.7700 C   0  0  0  0  0
   -6.2570    6.0900   11.5830 N   0  0  0  0  0
   -5.3750    5.8670   10.5910 C   0  0  0  0  0
   -5.0990    6.7900    9.6620 N   0  0  0  0  0
   -4.7540    4.6880   10.5160 N   0  0  0  0  0
  -11.2180    8.6780    9.4060 N   0  0  0  0  0
  -11.7100   10.0540    9.3060 C   0  0  0  0  0
  -10.7200   11.0650    9.9140 C   0  0  0  0  0
  -10.6750   12.1990    9.3890 O   0  0  0  0  0
  -13.1120   10.1680    9.9350 C   0  0  0  0  0
  -13.1390    9.9270   11.4560 C   0  0  0  0  0
  -14.5590   10.0520   12.0320 C   0  0  0  0  0
  -15.4850    9.0530   11.4680 N   0  0  0  0  0
  -15.5340    7.7450   11.7760 C   0  0  0  0  0
  -14.7130    7.2090   12.6860 N   0  0  0  0  0
  -16.4220    6.9580   11.1610 N   0  0  0  0  0
  -10.0390   10.7030   10.9010 O   0  0  0  0  0
   -8.4175  -17.6171    3.6520 H   0  0  0  0  0
   -7.2619  -17.6440    4.8522 H   0  0  0  0  0
   -8.8278  -18.1007    5.1930 H   0  0  0  0  0
   -9.6409  -15.9109    4.8183 H   0  0  0  0  0
   -7.2926  -16.0717    6.6844 H   0  0  0  0  0
   -9.5353  -14.0097    6.6981 H   0  0  0  0  0
   -8.2721  -14.1844    7.9410 H   0  0  0  0  0
   -7.8309  -13.7007    6.2850 H   0  0  0  0  0
   -9.0539  -16.4871    8.4119 H   0  0  0  0  0
  -10.3171  -16.3124    7.1689 H   0  0  0  0  0
   -9.1843  -17.6847    7.1005 H   0  0  0  0  0
   -7.1052  -13.6872    1.8681 H   0  0  0  0  0
   -9.2225  -13.2982    0.7372 H   0  0  0  0  0
   -8.8426  -11.7005    1.1935 H   0  0  0  0  0
  -11.1758  -12.7315    2.1015 H   0  0  0  0  0
  -10.2705  -11.7675    3.1829 H   0  0  0  0  0
  -10.2703  -13.7608    4.4938 H   0  0  0  0  0
  -10.4795  -14.7879    3.1032 H   0  0  0  0  0
   -5.0381  -10.4632    4.1016 H   0  0  0  0  0
   -3.3713  -10.4743    2.3990 H   0  0  0  0  0
   -4.0291   -8.9251    2.0810 H   0  0  0  0  0
   -4.0673  -10.7605    0.0793 H   0  0  0  0  0
   -5.4169   -9.7271    0.2444 H   0  0  0  0  0
   -6.5563  -11.8160    0.5160 H   0  0  0  0  0
   -5.1489  -12.6111    1.1600 H   0  0  0  0  0
   -8.4960   -7.6553    4.2003 H   0  0  0  0  0
   -8.6410   -8.2981    6.5439 H   0  0  0  0  0
   -8.1994   -6.6657    6.7248 H   0  0  0  0  0
   -6.5403   -8.5034    7.8114 H   0  0  0  0  0
   -5.8104   -7.1877    7.0143 H   0  0  0  0  0
   -4.8790   -8.9395    5.6690 H   0  0  0  0  0
   -6.2192  -10.0101    5.9665 H   0  0  0  0  0
   -9.0043   -5.5539    4.0115 H   0  0  0  0  0
   -6.7728   -3.5827    3.5902 H   0  0  0  0  0
   -9.6563   -3.6427    2.6884 H   0  0  0  0  0
   -8.8656   -1.3278    3.0382 H   0  0  0  0  0
   -7.4214   -1.6571    2.0499 H   0  0  0  0  0
   -9.0351   -1.6603    1.2970 H   0  0  0  0  0
   -7.0580   -3.9841    1.1116 H   0  0  0  0  0
   -8.2515   -5.2605    1.4538 H   0  0  0  0  0
   -8.6862   -3.8956    0.3959 H   0  0  0  0  0
   -8.2959   -2.0291    7.6130 H   0  0  0  0  0
   -6.4169   -0.7924    8.4958 H   0  0  0  0  0
   -6.1881    0.0928    7.0414 H   0  0  0  0  0
   -5.2666   -2.7697    7.6404 H   0  0  0  0  0
   -4.3718   -1.5393    6.8900 H   0  0  0  0  0
   -5.5864   -1.7086    4.7910 H   0  0  0  0  0
   -5.6170   -3.3611    5.3162 H   0  0  0  0  0
  -10.8680    1.4165    6.3846 H   0  0  0  0  0
  -12.0528    1.1393    8.4595 H   0  0  0  0  0
  -11.3551    2.6677    8.7567 H   0  0  0  0  0
  -10.7558    0.6724   10.4875 H   0  0  0  0  0
   -9.4937    1.7335   10.0509 H   0  0  0  0  0
   -8.4989   -0.3118    9.2836 H   0  0  0  0  0
  -10.0377   -1.0607    8.9810 H   0  0  0  0  0
  -10.6042    3.4208    5.6068 H   0  0  0  0  0
   -7.9454    4.4265    5.4804 H   0  0  0  0  0
   -8.9220    6.3031    4.1950 H   0  0  0  0  0
  -10.5707    5.7334    4.6730 H   0  0  0  0  0
  -10.5209    3.9698    3.2352 H   0  0  0  0  0
   -8.7275    3.7941    3.3464 H   0  0  0  0  0
   -9.4408    4.5055    1.1144 H   0  0  0  0  0
   -8.4634    5.7862    1.9550 H   0  0  0  0  0
  -11.2951    6.1742    2.2974 H   0  0  0  0  0
   -9.4631    8.0502   -0.8128 H   0  0  0  0  0
   -8.6140    6.7321    0.0012 H   0  0  0  0  0
  -12.3527    7.8451    1.1850 H   0  0  0  0  0
  -10.5965    5.3097    7.5951 H   0  0  0  0  0
  -10.5124    6.3062    9.6513 H   0  0  0  0  0
   -7.7830    7.4493    9.1656 H   0  0  0  0  0
   -8.0348    5.7033    9.6248 H   0  0  0  0  0
   -9.0220    6.3356   11.6927 H   0  0  0  0  0
   -9.0202    8.0771   11.2216 H   0  0  0  0  0
   -7.2204    7.4531   12.8407 H   0  0  0  0  0
   -6.6080    8.1273   11.2758 H   0  0  0  0  0
   -6.3543    5.3519   12.2803 H   0  0  0  0  0
   -4.4288    6.5836    8.9213 H   0  0  0  0  0
   -5.5588    7.6999    9.6947 H   0  0  0  0  0
   -4.9492    3.9639   11.2074 H   0  0  0  0  0
  -11.6371    8.0727   10.1119 H   0  0  0  0  0
  -11.7935   10.3075    8.2492 H   0  0  0  0  0
  -13.7354    9.4011    9.4754 H   0  0  0  0  0
  -13.4612   11.1861    9.7631 H   0  0  0  0  0
  -12.5099   10.6791   11.9321 H   0  0  0  0  0
  -12.7805    8.9157   11.6479 H   0  0  0  0  0
  -14.9384   11.0426   11.7812 H   0  0  0  0  0
  -14.5017    9.8886   13.1082 H   0  0  0  0  0
  -16.1550    9.3872   10.7754 H   0  0  0  0  0
  -14.7705    6.2136   12.9013 H   0  0  0  0  0
  -14.0295    7.7957   13.1646 H   0  0  0  0  0
  -17.0553    7.3507   10.4645 H   0  0  0  0  0
  -10.2499    9.7917   11.1170 H   0  0  0  0  0
  1  2  1  0  0  0
  2  3  1  0  0  0
  2  5  1  0  0  0
  3  4  2  0  0  0
  3  8  1  0  0  0
  5  6  1  0  0  0
  5  7  1  0  0  0
  8  9  1  0  0  0
  8 14  1  0  0  0
  9 10  1  0  0  0
  9 12  1  0  0  0
 10 11  2  0  0  0
 10 15  1  0  0  0
 12 13  1  0  0  0
 13 14  1  0  0  0
 15 16  1  0  0  0
 15 21  1  0  0  0
 16 17  1  0  0  0
 16 19  1  0  0  0
 17 18  2  0  0  0
 17 22  1  0  0  0
 19 20  1  0  0  0
 20 21  1  0  0  0
 22 23  1  0  0  0
 22 28  1  0  0  0
 23 24  1  0  0  0
 23 26  1  0  0  0
 24 25  2  0  0  0
 24 29  1  0  0  0
 26 27  1  0  0  0
 27 28  1  0  0  0
 29 30  1  0  0  0
 30 31  1  0  0  0
 30 33  1  0  0  0
 31 32  2  0  0  0
 31 36  1  0  0  0
 33 34  1  0  0  0
 33 35  1  0  0  0
 36 37  1  0  0  0
 36 42  1  0  0  0
 37 38  1  0  0  0
 37 40  1  0  0  0
 38 39  2  0  0  0
 38 43  1  0  0  0
 40 41  1  0  0  0
 41 42  1  0  0  0
 43 44  1  0  0  0
 43 49  1  0  0  0
 44 45  1  0  0  0
 44 47  1  0  0  0
 45 46  2  0  0  0
 45 50  1  0  0  0
 47 48  1  0  0  0
 48 49  1  0  0  0
 50 51  1  0  0  0
 51 52  1  0  0  0
 51 54  1  0  0  0
 52 53  2  0  0  0
 52 61  1  0  0  0
 54 55  1  0  0  0
 55 56  1  0  0  0
 56 57  1  0  0  0
 57 58  1  0  0  0
 58 59  1  0  0  0
 58 60  2  0  0  0
 61 62  1  0  0  0
 62 63  1  0  0  0
 62 65  1  0  0  0
 63 64  2  0  0  0
 63 72  1  0  0  0
 65 66  1  0  0  0
 66 67  1  0  0  0
 67 68  1  0  0  0
 68 69  1  0  0  0
 69 70  1  0  0  0
 69 71  2  0  0  0
 72 73  1  0  0  0
 73 74  1  0  0  0
 73 76  1  0  0  0
 74 75  2  0  0  0
 74 83  1  0  0  0
 76 77  1  0  0  0
 77 78  1  0  0  0
 78 79  1  0  0  0
 79 80  1  0  0  0
 80 81  1  0  0  0
 80 82  2  0  0  0
  1 84  1  0  0  0
  1 85  1  0  0  0
  1 86  1  0  0  0
  2 87  1  0  0  0
  5 88  1  0  0  0
  6 89  1  0  0  0
  6 90  1  0  0  0
  6 91  1  0  0  0
  7 92  1  0  0  0
  7 93  1  0  0  0
  7 94  1  0  0  0
  9 95  1  0  0  0
 12 96  1  0  0  0
 12 97  1  0  0  0
 13 98  1  0  0  0
 13 99  1  0  0  0
 14100  1  0  0  0
 14101  1  0  0  0
 16102  1  0  0  0
 19103  1  0  0  0
 19104  1  0  0  0
 20105  1  0  0  0
 20106  1  0  0  0
 21107  1  0  0  0
 21108  1  0  0  0
 23109  1  0  0  0
 26110  1  0  0  0
 26111  1  0  0  0
 27112  1  0  0  0
 27113  1  0  0  0
 28114  1  0  0  0
 28115  1  0  0  0
 29116  1  0  0  0
 30117  1  0  0  0
 33118  1  0  0  0
 34119  1  0  0  0
 34120  1  0  0  0
 34121  1  0  0  0
 35122  1  0  0  0
 35123  1  0  0  0
 35124  1  0  0  0
 37125  1  0  0  0
 40126  1  0  0  0
 40127  1  0  0  0
 41128  1  0  0  0
 41129  1  0  0  0
 42130  1  0  0  0
 42131  1  0  0  0
 44132  1  0  0  0
 47133  1  0  0  0
 47134  1  0  0  0
 48135  1  0  0  0
 48136  1  0  0  0
 49137  1  0  0  0
 49138  1  0  0  0
 50139  1  0  0  0
 51140  1  0  0  0
 54141  1  0  0  0
 54142  1  0  0  0
 55143  1  0  0  0
 55144  1  0  0  0
 56145  1  0  0  0
 56146  1  0  0  0
 57147  1  0  0  0
 59148  1  0  0  0
 59149  1  0  0  0
 60150  1  0  0  0
 61151  1  0  0  0
 62152  1  0  0  0
 65153  1  0  0  0
 65154  1  0  0  0
 66155  1  0  0  0
 66156  1  0  0  0
 67157  1  0  0  0
 67158  1  0  0  0
 68159  1  0  0  0
 70160  1  0  0  0
 70161  1  0  0  0
 71162  1  0  0  0
 72163  1  0  0  0
 73164  1  0  0  0
 76165  1  0  0  0
 76166  1  0  0  0
 77167  1  0  0  0
 77168  1  0  0  0
 78169  1  0  0  0
 78170  1  0  0  0
 79171  1  0  0  0
 81172  1  0  0  0
 81173  1  0  0  0
 82174  1  0  0  0
 83175  1  0  0  0
M  END
$$$$
