4uzh_ligand
  -I-interpret- 

 34 37  0  0  0  0  0  0  0  0999 V2000
   26.7620   -5.7270    7.7610 C   0  0  0  0  0
   26.9500   -4.2600    7.7620 N   0  3  0  0  0
   27.9860   -3.7950    8.7070 C   0  0  0  0  0
   27.7050   -4.2720   10.1430 C   0  0  0  0  0
   26.4680   -6.2330    9.1710 C   0  0  0  0  0
   26.8980   -5.5640   10.3150 C   0  0  0  0  0
   26.5880   -6.0850   11.7670 C   0  0  0  0  0
   28.1090   -3.6520   11.0810 O   0  0  0  0  0
   25.8280   -5.0710   12.6700 C   0  0  0  0  0
   26.0370   -5.0140   14.0820 C   0  0  0  0  0
   24.8780   -4.1480   12.1200 C   0  0  0  0  0
   25.3510   -4.0980   14.9140 C   0  0  0  0  0
   26.9100   -5.8460   14.6760 F   0  0  0  0  0
   24.1840   -3.2230   12.9430 C   0  0  0  0  0
   24.4200   -3.2000   14.3380 C   0  0  0  0  0
   25.3940   -8.0120   10.4910 C   0  0  0  0  0
   25.7810   -7.4020   11.7430 C   0  0  0  0  0
   24.7140   -9.1320   10.6950 N   0  0  0  0  0
   25.6900   -7.5020    9.2820 N   0  0  0  0  0
   25.2990   -8.2090   12.7040 C   0  0  0  0  0
   24.5870   -9.3670   12.1070 N   0  0  0  0  0
   27.6755   -6.1995    7.3999 H   0  0  0  0  0
   25.9199   -5.9744    7.1146 H   0  0  0  0  0
   26.0657   -3.8393    8.0474 H   0  0  0  0  0
   27.2486   -3.9900    6.8248 H   0  0  0  0  0
   27.9895   -2.7050    8.7025 H   0  0  0  0  0
   28.9459   -4.2041    8.3917 H   0  0  0  0  0
   27.5752   -6.2430   12.2013 H   0  0  0  0  0
   24.6849   -4.1571   11.0473 H   0  0  0  0  0
   25.5374   -4.0837   15.9879 H   0  0  0  0  0
   23.4688   -2.5299   12.5001 H   0  0  0  0  0
   23.8849   -2.4907   14.9694 H   0  0  0  0  0
   25.3816   -7.9843    8.4378 H   0  0  0  0  0
   25.4149   -8.0369   13.7741 H   0  0  0  0  0
  1  2  1  0  0  0
  1  5  1  0  0  0
  2  3  1  0  0  0
  3  4  1  0  0  0
  4  6  1  0  0  0
  4  8  2  0  0  0
  5  6  2  0  0  0
  5 19  1  0  0  0
  6  7  1  0  0  0
  7  9  1  0  0  0
  7 17  1  0  0  0
  9 10  4  0  0  0
  9 11  4  0  0  0
 10 12  4  0  0  0
 10 13  1  0  0  0
 11 14  4  0  0  0
 12 15  4  0  0  0
 14 15  4  0  0  0
 17 16  4  0  0  0
 16 18  4  0  0  0
 16 19  1  0  0  0
 17 20  4  0  0  0
 18 21  4  0  0  0
 20 21  4  0  0  0
  1 22  1  0  0  0
  1 23  1  0  0  0
  2 24  1  0  0  0
  2 25  1  0  0  0
  3 26  1  0  0  0
  3 27  1  0  0  0
  7 28  1  0  0  0
 11 29  1  0  0  0
 12 30  1  0  0  0
 14 31  1  0  0  0
 15 32  1  0  0  0
 19 33  1  0  0  0
 20 34  1  0  0  0
M  END
$$$$
