1jak_ligand
  -I-interpret- 

 31 31  0  0  0  0  0  0  0  0999 V2000
   -4.9210   66.0730   10.1950 N   0  3  0  0  0
   -5.3230   66.5970    8.8640 C   0  0  0  0  0
   -4.1330   66.9630    7.8870 C   0  0  0  0  0
   -2.9250   67.6140    8.5930 C   0  0  0  0  0
   -2.5140   66.7250    9.7690 C   0  0  0  0  0
   -1.2940   67.1970   10.5530 C   0  0  0  0  0
   -5.8370   64.3160    8.0960 C   0  0  0  0  0
   -6.6540   63.2520    7.4090 C   0  0  0  0  0
   -3.6480   66.5190   10.7820 C   0  0  0  0  0
   -6.2190   65.6240    8.2000 N   0  0  0  0  0
   -4.7800   63.9530    8.5930 O   0  0  0  0  0
   -4.6120   67.8320    6.8690 O   0  0  0  0  0
   -3.3200   68.8920    9.0900 O   0  0  0  0  0
   -0.6840   66.1220   11.2590 O   0  0  0  0  0
   -4.8101   65.0682   10.0593 H   0  0  0  0  0
   -5.6386   66.4089   10.8374 H   0  0  0  0  0
   -5.8283   67.5405    9.0702 H   0  0  0  0  0
   -3.7743   66.0234    7.4667 H   0  0  0  0  0
   -2.0921   67.7268    7.8989 H   0  0  0  0  0
   -2.2577   65.7915    9.2680 H   0  0  0  0  0
   -1.6152   67.9478   11.2750 H   0  0  0  0  0
   -0.5680   67.6067    9.8508 H   0  0  0  0  0
   -6.0731   62.8188    6.5948 H   0  0  0  0  0
   -6.9121   62.4737    8.1271 H   0  0  0  0  0
   -7.5656   63.6968    7.0100 H   0  0  0  0  0
   -3.3231   65.7369   11.4681 H   0  0  0  0  0
   -3.8352   67.4853   11.2504 H   0  0  0  0  0
   -7.1164   65.9279    7.8222 H   0  0  0  0  0
   -5.3634   67.4259    6.4306 H   0  0  0  0  0
   -3.5789   69.4536    8.3557 H   0  0  0  0  0
    0.0787   66.4494   11.7414 H   0  0  0  0  0
  2  1  1  0  0  0
  1  9  1  0  0  0
  2  3  1  0  0  0
 10  2  1  0  0  0
  3  4  1  0  0  0
  3 12  1  0  0  0
  4  5  1  0  0  0
  4 13  1  0  0  0
  5  6  1  0  0  0
  9  5  1  0  0  0
  6 14  1  0  0  0
  7  8  1  0  0  0
  7 10  1  0  0  0
  7 11  2  0  0  0
  1 15  1  0  0  0
  1 16  1  0  0  0
  2 17  1  0  0  0
  3 18  1  0  0  0
  4 19  1  0  0  0
  5 20  1  0  0  0
  6 21  1  0  0  0
  6 22  1  0  0  0
  8 23  1  0  0  0
  8 24  1  0  0  0
  8 25  1  0  0  0
  9 26  1  0  0  0
  9 27  1  0  0  0
 10 28  1  0  0  0
 12 29  1  0  0  0
 13 30  1  0  0  0
 14 31  1  0  0  0
M  END
$$$$
