6h14_ligand
  -I-interpret- 

 81 88  0  0  0  0  0  0  0  0999 V2000
  -13.8960  224.0880   79.3570 O   0  0  0  0  0
  -13.1280  223.2130   78.9640 C   0  0  0  0  0
  -12.6390  223.1560   77.7400 N   0  0  0  0  0
  -12.7640  224.0840   76.5990 C   0  0  0  0  0
  -11.3700  224.5000   76.1390 C   0  0  0  0  0
  -10.4510  223.2780   76.0770 C   0  0  0  0  0
  -10.3910  222.6000   77.4490 C   0  0  0  0  0
  -11.7550  222.0110   77.7060 C   0  0  0  0  0
  -11.8770  221.4220   78.9800 C   0  0  0  0  0
  -12.7210  222.1800   79.7030 C   0  0  0  0  0
  -13.0400  221.8570   80.9540 C   0  0  0  0  0
  -12.5090  220.7240   81.5500 C   0  0  0  0  0
  -11.6480  219.9360   80.8090 C   0  0  0  0  0
  -11.3440  220.3020   79.5010 C   0  0  0  0  0
  -10.5070  219.6260   78.6850 N   0  0  0  0  0
   -9.6330  218.6540   79.0740 C   0  0  0  0  0
   -9.5290  218.2510   80.2330 O   0  0  0  0  0
   -8.8970  218.1550   78.0500 N   0  0  0  0  0
   -7.9130  217.2280   78.1080 C   0  0  0  0  0
   -7.5590  216.3970   79.1860 C   0  0  0  0  0
   -7.1990  217.1480   76.9700 N   0  0  0  0  0
   -6.1360  216.2690   76.8140 C   0  0  0  0  0
   -5.7750  215.4470   77.8600 C   0  0  0  0  0
   -6.4800  215.5040   79.0570 C   0  0  0  0  0
   -6.0570  214.6680   80.0170 C   0  0  0  0  0
   -6.7830  214.0530   80.9440 C   0  0  0  0  0
   -4.7830  214.3010   80.1670 N   0  0  0  0  0
   -4.7160  213.5250   81.1240 N   0  0  0  0  0
   -5.8880  213.3390   81.6300 N   0  0  0  0  0
   -6.1200  212.4390   82.7820 C   0  0  0  0  0
   -4.7720  211.9230   83.2620 C   0  0  0  0  0
   -4.6560  210.4500   83.2610 N   0  0  0  0  0
   -3.8880  209.6810   82.4550 C   0  0  0  0  0
   -2.4870  209.8260   82.3300 C   0  0  0  0  0
   -1.7420  210.8190   83.0120 C   0  0  0  0  0
   -0.2690  210.5090   83.0730 C   0  0  0  0  0
    0.1780  210.2700   81.6470 C   0  0  0  0  0
   -0.4520  208.9610   81.2210 C   0  0  0  0  0
   -1.8370  208.9410   81.4540 C   0  0  0  0  0
   -2.5300  207.9920   80.8040 N   0  0  0  0  0
   -3.8540  207.8380   80.9220 C   0  0  0  0  0
   -4.5670  208.6810   81.7620 C   0  0  0  0  0
   -5.9410  208.5260   81.8970 C   0  0  0  0  0
   -6.6000  207.5250   81.1910 C   0  0  0  0  0
   -5.8810  206.6800   80.3480 C   0  0  0  0  0
   -4.5030  206.8310   80.2140 C   0  0  0  0  0
  -13.3280  224.9656   76.9034 H   0  0  0  0  0
  -13.2882  223.5905   75.7806 H   0  0  0  0  0
  -10.9599  225.2208   76.8464 H   0  0  0  0  0
  -11.4388  224.9468   75.1472 H   0  0  0  0  0
   -9.4490  223.5962   75.7894 H   0  0  0  0  0
  -10.8411  222.5719   75.3440 H   0  0  0  0  0
  -10.1277  223.3191   78.2247 H   0  0  0  0  0
   -9.6255  221.8242   77.4640 H   0  0  0  0  0
  -11.9611  221.2509   76.9524 H   0  0  0  0  0
  -13.7263  222.4904   81.5160 H   0  0  0  0  0
  -12.7637  220.4609   82.5767 H   0  0  0  0  0
  -11.2117  219.0372   81.2447 H   0  0  0  0  0
  -10.5304  219.8625   77.6931 H   0  0  0  0  0
   -9.1113  218.5233   77.1233 H   0  0  0  0  0
   -8.1197  216.4449   80.1195 H   0  0  0  0  0
   -5.5906  216.2291   75.8711 H   0  0  0  0  0
   -4.9401  214.7550   77.7491 H   0  0  0  0  0
   -7.8589  214.1166   81.1065 H   0  0  0  0  0
   -6.7555  211.6052   82.4837 H   0  0  0  0  0
   -6.6213  212.9798   83.5847 H   0  0  0  0  0
   -4.6470  212.2560   84.2923 H   0  0  0  0  0
   -4.0166  212.3068   82.5764 H   0  0  0  0  0
   -5.2220  209.9540   83.9495 H   0  0  0  0  0
   -2.1140  210.8698   84.0353 H   0  0  0  0  0
   -1.8625  211.7566   82.4694 H   0  0  0  0  0
   -0.0794  209.6334   83.6938 H   0  0  0  0  0
    0.2852  211.3325   83.5234 H   0  0  0  0  0
    1.2649  210.2239   81.5783 H   0  0  0  0  0
   -0.1333  211.0865   80.9954 H   0  0  0  0  0
    0.0024  208.1594   81.8033 H   0  0  0  0  0
   -0.2853  208.8356   80.1512 H   0  0  0  0  0
   -6.5023  209.1885   82.5559 H   0  0  0  0  0
   -7.6778  207.4017   81.2971 H   0  0  0  0  0
   -6.3986  205.8985   79.7918 H   0  0  0  0  0
   -3.9379  206.1664   79.5604 H   0  0  0  0  0
  1  2  2  0  0  0
  2  3  1  0  0  0
  2 10  1  0  0  0
  3  4  1  0  0  0
  3  8  1  0  0  0
  4  5  1  0  0  0
  5  6  1  0  0  0
  6  7  1  0  0  0
  7  8  1  0  0  0
  8  9  1  0  0  0
  9 10  4  0  0  0
  9 14  4  0  0  0
 10 11  4  0  0  0
 11 12  4  0  0  0
 12 13  4  0  0  0
 13 14  4  0  0  0
 14 15  1  0  0  0
 15 16  1  0  0  0
 16 17  2  0  0  0
 16 18  1  0  0  0
 18 19  1  0  0  0
 19 20  4  0  0  0
 19 21  4  0  0  0
 20 24  4  0  0  0
 21 22  4  0  0  0
 22 23  4  0  0  0
 23 24  4  0  0  0
 24 25  1  0  0  0
 25 26  4  0  0  0
 25 27  4  0  0  0
 26 29  4  0  0  0
 27 28  4  0  0  0
 28 29  4  0  0  0
 29 30  1  0  0  0
 30 31  1  0  0  0
 31 32  1  0  0  0
 32 33  1  0  0  0
 33 34  4  0  0  0
 33 42  4  0  0  0
 34 35  1  0  0  0
 34 39  4  0  0  0
 35 36  1  0  0  0
 36 37  1  0  0  0
 37 38  1  0  0  0
 38 39  1  0  0  0
 39 40  4  0  0  0
 40 41  4  0  0  0
 41 42  4  0  0  0
 41 46  4  0  0  0
 42 43  4  0  0  0
 43 44  4  0  0  0
 44 45  4  0  0  0
 45 46  4  0  0  0
  4 47  1  0  0  0
  4 48  1  0  0  0
  5 49  1  0  0  0
  5 50  1  0  0  0
  6 51  1  0  0  0
  6 52  1  0  0  0
  7 53  1  0  0  0
  7 54  1  0  0  0
  8 55  1  0  0  0
 11 56  1  0  0  0
 12 57  1  0  0  0
 13 58  1  0  0  0
 15 59  1  0  0  0
 18 60  1  0  0  0
 20 61  1  0  0  0
 22 62  1  0  0  0
 23 63  1  0  0  0
 26 64  1  0  0  0
 30 65  1  0  0  0
 30 66  1  0  0  0
 31 67  1  0  0  0
 31 68  1  0  0  0
 32 69  1  0  0  0
 35 70  1  0  0  0
 35 71  1  0  0  0
 36 72  1  0  0  0
 36 73  1  0  0  0
 37 74  1  0  0  0
 37 75  1  0  0  0
 38 76  1  0  0  0
 38 77  1  0  0  0
 43 78  1  0  0  0
 44 79  1  0  0  0
 45 80  1  0  0  0
 46 81  1  0  0  0
M  END
$$$$
