3mtw_ligand
  -I-interpret- 

 33 32  0  0  0  0  0  0  0  0999 V2000
   26.8330  115.0640    9.5040 C   0  0  0  0  0
   27.7320  116.5770    9.2810 P   0  0  0  0  0
   28.1990  117.1880   10.6490 O   0  0  0  0  0
   26.8770  117.6000    8.6010 O   0  0  0  0  0
   29.1240  116.4370    8.4560 N   0  0  0  0  0
   29.7760  117.6810    7.9090 C   0  0  0  0  0
   29.5640  117.7860    6.4100 C   0  0  0  0  0
   29.5870  116.7750    5.7160 O   0  0  0  0  0
   31.2730  117.7990    8.2400 C   0  0  0  0  0
   31.9310  119.1310    7.8890 C   0  0  0  0  0
   33.3250  118.5610    7.8140 C   0  0  0  0  0
   34.3380  119.6160    7.6730 N   0  0  0  0  0
   34.9490  120.7240    8.0870 C   0  0  0  0  0
   34.5240  121.2910    9.2010 N   0  0  0  0  0
   35.9830  121.2500    7.4280 N   0  0  0  0  0
   29.3340  118.8510    5.8730 O   0  0  0  0  0
   25.9517  115.2534   10.1168 H   0  0  0  0  0
   26.5252  114.6791    8.5318 H   0  0  0  0  0
   27.4717  114.3331    9.9999 H   0  0  0  0  0
   28.7514  116.5525   11.1101 H   0  0  0  0  0
   29.5502  115.5218    8.3104 H   0  0  0  0  0
   29.2840  118.5140    8.4112 H   0  0  0  0  0
   29.7788  116.0135    6.2682 H   0  0  0  0  0
   31.7797  117.0400    7.6440 H   0  0  0  0  0
   31.3576  117.6906    9.3213 H   0  0  0  0  0
   31.7668  119.9661    8.5699 H   0  0  0  0  0
   31.5574  119.6590    7.0117 H   0  0  0  0  0
   33.3832  117.9108    6.9411 H   0  0  0  0  0
   33.5230  118.0166    8.7373 H   0  0  0  0  0
   34.8263  119.3739    6.8108 H   0  0  0  0  0
   33.7477  120.8792    9.7188 H   0  0  0  0  0
   36.4426  122.0876    7.7851 H   0  0  0  0  0
   36.3139  120.8145    6.5671 H   0  0  0  0  0
  1  2  1  0  0  0
  2  3  1  0  0  0
  2  4  2  0  0  0
  2  5  1  0  0  0
  5  6  1  0  0  0
  6  7  1  0  0  0
  6  9  1  0  0  0
  7  8  1  0  0  0
  7 16  2  0  0  0
  9 10  1  0  0  0
 10 11  1  0  0  0
 11 12  1  0  0  0
 12 13  1  0  0  0
 13 14  2  0  0  0
 13 15  1  0  0  0
  1 17  1  0  0  0
  1 18  1  0  0  0
  1 19  1  0  0  0
  3 20  1  0  0  0
  5 21  1  0  0  0
  6 22  1  0  0  0
  8 23  1  0  0  0
  9 24  1  0  0  0
  9 25  1  0  0  0
 10 26  1  0  0  0
 10 27  1  0  0  0
 11 28  1  0  0  0
 11 29  1  0  0  0
 12 30  1  0  0  0
 14 31  1  0  0  0
 15 32  1  0  0  0
 15 33  1  0  0  0
M  END
$$$$
