3vp2_ligand
  -I-interpret- 

 14 14  0  0  0  0  0  0  0  0999 V2000
    7.8500   -7.8500    0.0000 S   0  0  0  0  0
    4.4170   -9.9210    0.5100 N   0  0  0  0  0
    2.2780  -10.1450   -2.3510 N   0  0  0  0  0
    3.2510   -9.9970   -0.1400 N   0  0  0  0  0
    6.8220   -9.8370    0.3300 C   0  0  0  0  0
    3.4230  -10.0650   -1.5340 C   0  0  0  0  0
    7.1740   -8.7380    0.4610 C   0  0  0  0  0
    5.5100   -9.9290   -0.3830 C   0  0  0  0  0
    5.0700  -10.0330   -1.9540 S   0  0  0  0  0
    1.3496  -10.1526   -1.9286 H   0  0  0  0  0
    2.3774  -10.1953   -3.3649 H   0  0  0  0  0
    6.7009  -10.2747    1.3209 H   0  0  0  0  0
    7.5686  -10.3637   -0.2643 H   0  0  0  0  0
    6.7043   -8.3522    1.3658 H   0  0  0  0  0
  7  1  2  0  0  0
  2  4  4  0  0  0
  8  2  4  0  0  0
  6  3  1  0  0  0
  4  6  4  0  0  0
  5  7  1  0  0  0
  5  8  1  0  0  0
  6  9  4  0  0  0
  8  9  4  0  0  0
  3 10  1  0  0  0
  3 11  1  0  0  0
  5 12  1  0  0  0
  5 13  1  0  0  0
  7 14  1  0  0  0
M  END
$$$$
