6ahi_ligand
  -I-interpret- 

 21 20  0  0  0  0  0  0  0  0999 V2000
    3.7640  -17.0580    3.8420 N   0  3  0  0  0
    4.3280  -17.0670    2.4650 C   0  0  0  0  0
    5.3980  -15.9760    2.3500 C   0  0  0  0  0
    5.6260  -15.5150    1.2220 O   0  0  0  0  0
    3.2330  -16.8160    1.4240 C   0  0  0  0  0
    1.8310  -17.0540    1.9520 C   0  0  0  0  0
    1.5770  -16.3400    3.5970 S   0  0  0  0  0
    1.0860  -17.7980    4.5170 C   0  0  0  0  0
    5.9800  -15.6060    3.3700 O   0  0  0  0  0
    4.5113  -17.2270    4.5153 H   0  0  0  0  0
    3.3367  -16.1505    4.0272 H   0  0  0  0  0
    3.0588  -17.7903    3.9241 H   0  0  0  0  0
    4.7675  -18.0463    2.2755 H   0  0  0  0  0
    5.0589  -15.9483    0.5799 H   0  0  0  0  0
    3.3964  -17.5128    0.6019 H   0  0  0  0  0
    3.2978  -15.7696    1.1259 H   0  0  0  0  0
    1.6784  -18.1307    2.0261 H   0  0  0  0  0
    1.1290  -16.5780    1.2673 H   0  0  0  0  0
    0.1814  -18.2167    4.0761 H   0  0  0  0  0
    1.8863  -18.5370    4.4783 H   0  0  0  0  0
    0.8928  -17.5237    5.5541 H   0  0  0  0  0
  1  2  1  0  0  0
  2  3  1  0  0  0
  2  5  1  0  0  0
  3  4  1  0  0  0
  3  9  2  0  0  0
  5  6  1  0  0  0
  6  7  1  0  0  0
  7  8  1  0  0  0
  1 10  1  0  0  0
  1 11  1  0  0  0
  1 12  1  0  0  0
  2 13  1  0  0  0
  4 14  1  0  0  0
  5 15  1  0  0  0
  5 16  1  0  0  0
  6 17  1  0  0  0
  6 18  1  0  0  0
  8 19  1  0  0  0
  8 20  1  0  0  0
  8 21  1  0  0  0
M  END
$$$$
