3p5l_ligand
  -I-interpret- 

 31 32  0  0  0  0  0  0  0  0999 V2000
   -4.6910    4.1960   10.8940 N   0  0  0  0  0
   -5.2930    2.5690   14.8150 N   0  0  0  0  0
   -4.9140    0.1470   15.9500 S   0  0  0  0  0
   -7.2240    1.8800   16.6470 S   0  0  0  0  0
   -4.4160    4.3790   11.9910 C   0  0  0  0  0
   -1.1950    7.9350   13.6880 C   0  0  0  0  0
   -1.0450    6.9260   12.6740 C   0  0  0  0  0
   -2.2550    7.8440   14.6250 C   0  0  0  0  0
   -1.9570    5.8840   12.6210 C   0  0  0  0  0
   -3.1830    6.7990   14.5820 C   0  0  0  0  0
   -6.1170    3.7260   14.4730 C   0  0  0  0  0
   -4.2210    2.2350   13.9030 C   0  0  0  0  0
   -5.2580    4.9220   14.2010 C   0  0  0  0  0
   -3.3410    3.4160   13.9020 C   0  0  0  0  0
   -5.6800    1.7120   15.8590 C   0  0  0  0  0
   -3.0460    5.8060   13.5610 C   0  0  0  0  0
   -4.0430    4.6290   13.4630 C   0  0  0  0  0
   -7.6693    3.1228   16.4858 H   0  0  0  0  0
   -0.4945    8.7687   13.7360 H   0  0  0  0  0
   -0.2255    6.9802   11.9573 H   0  0  0  0  0
   -2.3488    8.6071   15.3976 H   0  0  0  0  0
   -1.8490    5.1131   11.8580 H   0  0  0  0  0
   -3.9924    6.7421   15.3098 H   0  0  0  0  0
   -6.7783    3.9489   15.3103 H   0  0  0  0  0
   -6.6957    3.4957   13.5785 H   0  0  0  0  0
   -4.5953    2.0088   12.9046 H   0  0  0  0  0
   -3.6902    1.3355   14.2150 H   0  0  0  0  0
   -4.9568    5.3271   15.1671 H   0  0  0  0  0
   -5.8464    5.6076   13.5911 H   0  0  0  0  0
   -2.5214    3.2282   13.2084 H   0  0  0  0  0
   -2.9883    3.5776   14.9206 H   0  0  0  0  0
  5  1  3  0  0  0
 11  2  1  0  0  0
 12  2  1  0  0  0
  2 15  1  0  0  0
 15  3  2  0  0  0
 15  4  1  0  0  0
 17  5  1  0  0  0
  7  6  4  0  0  0
  8  6  4  0  0  0
  9  7  4  0  0  0
 10  8  4  0  0  0
 16  9  4  0  0  0
 16 10  4  0  0  0
 13 11  1  0  0  0
 14 12  1  0  0  0
 17 13  1  0  0  0
 17 14  1  0  0  0
 16 17  1  0  0  0
  4 18  1  0  0  0
  6 19  1  0  0  0
  7 20  1  0  0  0
  8 21  1  0  0  0
  9 22  1  0  0  0
 10 23  1  0  0  0
 11 24  1  0  0  0
 11 25  1  0  0  0
 12 26  1  0  0  0
 12 27  1  0  0  0
 13 28  1  0  0  0
 13 29  1  0  0  0
 14 30  1  0  0  0
 14 31  1  0  0  0
M  END
$$$$
