5mw6_ligand
  -I-interpret- 

 35 37  0  0  0  0  0  0  0  0999 V2000
   18.8390   20.4310    9.6120 N   0  0  0  0  0
   19.1510   19.2200   11.5770 N   0  0  0  0  0
   19.6320   18.1930   12.2630 C   0  0  0  0  0
   17.7880   21.2160   10.0120 C   0  0  0  0  0
   17.5450   22.0920    9.0180 C   0  0  0  0  0
   18.4670   21.8350    7.9980 C   0  0  0  0  0
   18.8090   19.1380   14.3350 C   0  0  0  0  0
   17.6480   21.1660   15.8610 C   0  0  0  0  0
   17.0150   21.1640   11.3120 C   0  0  0  0  0
   17.1300   19.8760   15.9100 C   0  0  0  0  0
   18.7630   21.4330   15.0750 C   0  0  0  0  0
   18.5400   22.5360    6.6870 C   0  0  0  0  0
   19.4110   19.3630   10.2880 C   0  0  0  0  0
   19.2430   20.8550    8.3490 N   0  0  0  0  0
   20.0970   18.4350    9.6100 N   0  0  0  0  0
   20.3630   17.2070   11.5780 C   0  0  0  0  0
   19.3780   18.0700   13.6180 N   0  0  0  0  0
   20.5860   17.3560   10.2180 C   0  0  0  0  0
   21.0110   15.8150   12.3870 Cl  0  0  0  0  0
   16.9510   22.4270   16.8380 Cl  0  0  0  0  0
   19.3560   20.4250   14.3270 C   0  0  0  0  0
   17.7060   18.8690   15.1470 C   0  0  0  0  0
   16.7717   22.8602    9.0100 H   0  0  0  0  0
   16.5539   20.1823   11.4200 H   0  0  0  0  0
   17.6953   21.3410   12.1451 H   0  0  0  0  0
   16.2410   21.9315   11.3040 H   0  0  0  0  0
   16.2730   19.6559   16.5466 H   0  0  0  0  0
   19.1749   22.4417   15.0457 H   0  0  0  0  0
   17.6009   22.3996    6.1507 H   0  0  0  0  0
   18.7134   23.5991    6.8540 H   0  0  0  0  0
   19.3590   22.1209    6.0996 H   0  0  0  0  0
   19.6047   17.1998   14.0994 H   0  0  0  0  0
   21.1483   16.6076    9.6595 H   0  0  0  0  0
   20.2462   20.6363   13.7346 H   0  0  0  0  0
   17.2936   17.8606   15.1824 H   0  0  0  0  0
  1  4  4  0  0  0
 13  1  1  0  0  0
  1 14  4  0  0  0
  3  2  4  0  0  0
  2 13  4  0  0  0
  3 16  4  0  0  0
 17  3  1  0  0  0
  4  5  4  0  0  0
  4  9  1  0  0  0
  6  5  4  0  0  0
  6 12  1  0  0  0
 14  6  4  0  0  0
  7 17  1  0  0  0
  7 21  4  0  0  0
 22  7  4  0  0  0
 10  8  4  0  0  0
  8 11  4  0  0  0
  8 20  1  0  0  0
 10 22  4  0  0  0
 11 21  4  0  0  0
 13 15  4  0  0  0
 15 18  4  0  0  0
 16 18  4  0  0  0
 16 19  1  0  0  0
  5 23  1  0  0  0
  9 24  1  0  0  0
  9 25  1  0  0  0
  9 26  1  0  0  0
 10 27  1  0  0  0
 11 28  1  0  0  0
 12 29  1  0  0  0
 12 30  1  0  0  0
 12 31  1  0  0  0
 17 32  1  0  0  0
 18 33  1  0  0  0
 21 34  1  0  0  0
 22 35  1  0  0  0
M  END
$$$$
