3r5m_ligand
  -I-interpret- 

 38 39  0  0  0  0  0  0  0  0999 V2000
   13.6480   15.9580   21.3520 C   0  0  0  0  0
    8.1480   13.5200   15.3360 C   0  0  0  0  0
   16.6340   13.0950   15.4950 O   0  0  0  0  0
   15.6120   15.5820   14.4830 O   0  0  0  0  0
   14.5560   14.9270   21.1440 C   0  0  0  0  0
    9.5080   13.6920   14.8950 C   0  0  0  0  0
   17.4190   13.4560   17.7060 C   0  0  0  0  0
   13.3620   15.1520   13.8910 C   0  0  0  0  0
   17.2330   13.9680   18.9900 C   0  0  0  0  0
   12.1040   14.6250   14.1880 C   0  0  0  0  0
   15.0530   14.8040   18.3060 C   0  0  0  0  0
   12.9440   13.9090   16.3200 C   0  0  0  0  0
   15.8410   15.2140   20.6960 C   0  0  0  0  0
   10.5260   13.3870   15.8030 C   0  0  0  0  0
   16.4250   13.6130   16.7300 C   0  0  0  0  0
   14.4070   15.0580   14.8080 C   0  0  0  0  0
   16.0450   14.6430   19.2880 C   0  0  0  0  0
   11.8880   13.9950   15.4130 C   0  0  0  0  0
   15.2300   14.2980   17.0100 C   0  0  0  0  0
   14.2120   14.4360   16.0430 C   0  0  0  0  0
   13.9431   16.9903   21.1641 H   0  0  0  0  0
   12.6406   15.7345   21.7031 H   0  0  0  0  0
    7.9857   12.4779   15.6114 H   0  0  0  0  0
    7.9641   14.1584   16.2001 H   0  0  0  0  0
    7.4683   13.7939   14.5291 H   0  0  0  0  0
   15.8734   13.2794   14.9390 H   0  0  0  0  0
   16.2264   15.4421   15.2072 H   0  0  0  0  0
   14.2615   13.8945   21.3317 H   0  0  0  0  0
    9.7353   14.0471   13.8898 H   0  0  0  0  0
   18.3421   12.9310   17.4601 H   0  0  0  0  0
   13.5286   15.6422   12.9318 H   0  0  0  0  0
   18.0033   13.8437   19.7511 H   0  0  0  0  0
   11.2929   14.7057   13.4644 H   0  0  0  0  0
   14.1316   15.3303   18.5553 H   0  0  0  0  0
   12.7769   13.4148   17.2771 H   0  0  0  0  0
   16.5661   14.7639   21.3741 H   0  0  0  0  0
   15.9779   16.2950   20.6679 H   0  0  0  0  0
   10.3725   12.7810   16.6959 H   0  0  0  0  0
  5  1  2  0  0  0
  6  2  1  0  0  0
 15  3  1  0  0  0
 16  4  1  0  0  0
 13  5  1  0  0  0
 14  6  2  0  0  0
  7  9  4  0  0  0
 15  7  4  0  0  0
  8 10  4  0  0  0
 16  8  4  0  0  0
 17  9  4  0  0  0
 18 10  4  0  0  0
 11 17  4  0  0  0
 19 11  4  0  0  0
 12 18  4  0  0  0
 20 12  4  0  0  0
 17 13  1  0  0  0
 18 14  1  0  0  0
 19 15  4  0  0  0
 20 16  4  0  0  0
 19 20  1  0  0  0
  1 21  1  0  0  0
  1 22  1  0  0  0
  2 23  1  0  0  0
  2 24  1  0  0  0
  2 25  1  0  0  0
  3 26  1  0  0  0
  4 27  1  0  0  0
  5 28  1  0  0  0
  6 29  1  0  0  0
  7 30  1  0  0  0
  8 31  1  0  0  0
  9 32  1  0  0  0
 10 33  1  0  0  0
 11 34  1  0  0  0
 12 35  1  0  0  0
 13 36  1  0  0  0
 13 37  1  0  0  0
 14 38  1  0  0  0
M  END
$$$$
