4xx4_ligand
  -I-interpret- 

 61 64  0  0  0  0  0  0  0  0999 V2000
   37.3340   57.0100   46.9510 C   0  0  0  0  0
   37.5060   55.6450   46.8470 C   0  0  0  0  0
   38.1970   54.9750   47.8320 C   0  0  0  0  0
   38.7270   55.6680   48.8980 C   0  0  0  0  0
   34.0490   57.4610   45.4390 C   0  0  0  0  0
   38.5370   57.0310   48.9990 C   0  0  0  0  0
   37.8330   57.7250   48.0300 C   0  0  0  0  0
   36.9930   59.9190   46.9920 C   0  0  0  0  0
   37.6340   59.2180   48.1830 C   0  0  0  0  0
   39.3020   60.3730   46.9610 C   0  0  0  0  0
   34.6250   59.8970   42.2150 C   0  0  0  0  0
   32.8470   59.2580   43.9800 C   0  0  0  0  0
   33.6260   58.8880   42.7280 C   0  0  0  0  0
   31.5410   58.5040   43.8700 C   0  0  0  0  0
   38.8990   62.8500   43.5520 C   0  0  0  0  0
   38.9870   62.1190   44.7140 C   0  0  0  0  0
   37.9250   61.3440   45.1440 C   0  0  0  0  0
   36.7460   61.3460   44.4060 C   0  0  0  0  0
   32.9860   59.3860   46.5720 C   0  0  0  0  0
   32.4980   60.6680   43.9140 N   0  0  0  0  0
   34.3910   61.2040   42.6040 N   0  0  0  0  0
   33.1410   61.5690   43.0890 C   0  0  0  0  0
   32.6190   62.6980   42.7400 N   0  0  0  0  0
   35.5520   59.5310   41.5050 O   0  0  0  0  0
   35.4170   62.1960   42.3830 C   0  0  0  0  0
   33.6230   58.9220   45.2760 C   0  0  0  0  0
   36.6390   62.0960   43.2420 C   0  0  0  0  0
   37.7280   62.8280   42.8190 C   0  0  0  0  0
   38.0810   60.6130   46.3510 N   0  0  0  0  0
   38.9920   59.8600   48.3270 C   0  0  0  0  0
   40.4510   60.4770   46.5320 O   0  0  0  0  0
   36.7931   57.5393   46.1665 H   0  0  0  0  0
   37.0990   55.1023   45.9938 H   0  0  0  0  0
   38.3248   53.8944   47.7680 H   0  0  0  0  0
   39.2968   55.1394   49.6622 H   0  0  0  0  0
   33.1646   56.8239   45.4395 H   0  0  0  0  0
   34.7007   57.1795   44.6119 H   0  0  0  0  0
   34.5840   57.3428   46.3813 H   0  0  0  0  0
   38.9470   57.5688   49.8538 H   0  0  0  0  0
   36.1991   60.6000   47.2985 H   0  0  0  0  0
   36.5053   59.2145   46.3182 H   0  0  0  0  0
   36.9694   59.3274   49.0400 H   0  0  0  0  0
   34.2064   58.0035   42.9906 H   0  0  0  0  0
   32.8829   58.7787   41.9381 H   0  0  0  0  0
   31.0185   58.8150   42.9654 H   0  0  0  0  0
   31.7434   57.4339   43.8246 H   0  0  0  0  0
   30.9229   58.7215   44.7411 H   0  0  0  0  0
   39.7479   63.4430   43.2116 H   0  0  0  0  0
   39.9039   62.1508   45.3025 H   0  0  0  0  0
   35.8969   60.7525   44.7449 H   0  0  0  0  0
   32.8794   60.4706   46.5550 H   0  0  0  0  0
   32.0041   58.9247   46.6783 H   0  0  0  0  0
   33.6183   59.0949   47.4108 H   0  0  0  0  0
   31.7407   61.0082   44.5065 H   0  0  0  0  0
   33.1243   63.3202   42.1092 H   0  0  0  0  0
   34.9617   63.1584   42.6168 H   0  0  0  0  0
   35.7570   62.0552   41.3570 H   0  0  0  0  0
   34.5168   59.5218   45.1044 H   0  0  0  0  0
   37.6642   63.3981   41.8922 H   0  0  0  0  0
   39.7441   59.1554   48.6819 H   0  0  0  0  0
   38.9943   60.6535   49.0743 H   0  0  0  0  0
  1  2  4  0  0  0
  7  1  4  0  0  0
  2  3  4  0  0  0
  4  3  4  0  0  0
  6  4  4  0  0  0
 26  5  1  0  0  0
  7  6  4  0  0  0
  9  7  1  0  0  0
  8  9  1  0  0  0
 29  8  1  0  0  0
 30  9  1  0  0  0
 29 10  1  0  0  0
 10 30  1  0  0  0
 10 31  2  0  0  0
 11 13  1  0  0  0
 21 11  1  0  0  0
 11 24  2  0  0  0
 13 12  1  0  0  0
 12 14  1  0  0  0
 20 12  1  0  0  0
 12 26  1  0  0  0
 16 15  4  0  0  0
 15 28  4  0  0  0
 17 16  4  0  0  0
 18 17  4  0  0  0
 17 29  1  0  0  0
 27 18  4  0  0  0
 26 19  1  0  0  0
 22 20  1  0  0  0
 21 22  4  0  0  0
 25 21  1  0  0  0
 22 23  2  0  0  0
 25 27  1  0  0  0
 27 28  4  0  0  0
  1 32  1  0  0  0
  2 33  1  0  0  0
  3 34  1  0  0  0
  4 35  1  0  0  0
  5 36  1  0  0  0
  5 37  1  0  0  0
  5 38  1  0  0  0
  6 39  1  0  0  0
  8 40  1  0  0  0
  8 41  1  0  0  0
  9 42  1  0  0  0
 13 43  1  0  0  0
 13 44  1  0  0  0
 14 45  1  0  0  0
 14 46  1  0  0  0
 14 47  1  0  0  0
 15 48  1  0  0  0
 16 49  1  0  0  0
 18 50  1  0  0  0
 19 51  1  0  0  0
 19 52  1  0  0  0
 19 53  1  0  0  0
 20 54  1  0  0  0
 23 55  1  0  0  0
 25 56  1  0  0  0
 25 57  1  0  0  0
 26 58  1  0  0  0
 28 59  1  0  0  0
 30 60  1  0  0  0
 30 61  1  0  0  0
M  END
$$$$
