6i75_ligand
  -I-interpret- 

 53 56  0  0  0  0  0  0  0  0999 V2000
  -19.4800    6.2670   -0.4690 C   0  0  0  0  0
  -13.2160    8.6400   -1.8770 C   0  0  0  0  0
  -10.5210    9.2210    0.7580 C   0  0  0  0  0
  -25.2080    9.6570   -5.6070 C   0  0  0  0  0
  -23.9450    9.9120   -4.7840 C   0  0  0  0  0
  -23.2160    8.8730   -4.1840 C   0  0  0  0  0
  -22.0610    9.1570   -3.4120 C   0  0  0  0  0
  -21.5840   10.4800   -3.2960 C   0  0  0  0  0
  -19.0450    9.2180   -2.4080 C   0  0  0  0  0
  -18.8740    7.1150   -1.5060 C   0  0  0  0  0
  -17.3220    7.2300   -1.3600 C   0  0  0  0  0
  -16.8220    8.2110   -2.4370 C   0  0  0  0  0
  -14.5290    8.7950   -1.4430 C   0  0  0  0  0
  -11.9300    8.9770   -1.2310 C   0  0  0  0  0
  -11.7000    8.9290    0.0890 C   0  0  0  0  0
   -9.3660    9.5200    0.0090 C   0  0  0  0  0
   -9.5490    9.5620   -1.3780 C   0  0  0  0  0
  -10.8000    9.2360   -1.9320 C   0  0  0  0  0
  -17.5420    9.5100   -2.3410 C   0  0  0  0  0
  -22.2880   11.5070   -3.8720 C   0  0  0  0  0
  -23.4350   11.2190   -4.6040 C   0  0  0  0  0
  -12.7610    8.6040    0.7680 F   0  0  0  0  0
  -10.4570    9.1310    2.0800 F   0  0  0  0  0
   -8.5160    9.8720   -2.1640 F   0  0  0  0  0
  -10.9740    9.2810   -3.2460 F   0  0  0  0  0
  -15.3910    8.2910   -2.3810 N   0  0  0  0  0
  -13.3630    8.0390   -3.1760 N   0  0  0  0  0
  -14.6360    7.8920   -3.4660 N   0  0  0  0  0
  -19.4530    8.3670   -1.3910 O   0  0  0  0  0
  -20.8250    6.0250   -0.6600 O   0  0  0  0  0
  -17.0040    7.7240   -0.0820 O   0  0  0  0  0
   -8.1460    9.7810    0.5770 O   0  0  0  0  0
  -17.1740   10.3470   -3.4370 O   0  0  0  0  0
  -20.0900   10.8100   -2.3740 S   0  0  0  0  0
  -19.3768    6.7924    0.4805 H   0  0  0  0  0
  -18.9700    5.3041   -0.4988 H   0  0  0  0  0
  -24.9651    9.0142   -6.4531 H   0  0  0  0  0
  -25.9555    9.1693   -4.9813 H   0  0  0  0  0
  -25.6006   10.6064   -5.9712 H   0  0  0  0  0
  -23.5403    7.8403   -4.3126 H   0  0  0  0  0
  -21.5375    8.3470   -2.9042 H   0  0  0  0  0
  -19.2110    8.7211   -3.3639 H   0  0  0  0  0
  -19.0542    6.6697   -2.4844 H   0  0  0  0  0
  -16.8506    6.2550   -1.4836 H   0  0  0  0  0
  -17.0578    7.8476   -3.4372 H   0  0  0  0  0
  -14.8271    9.2494   -0.4981 H   0  0  0  0  0
  -17.2879   10.0168   -1.4100 H   0  0  0  0  0
  -21.9520   12.5376   -3.7572 H   0  0  0  0  0
  -23.9717   12.0480   -5.0654 H   0  0  0  0  0
  -21.1528    5.4682    0.0500 H   0  0  0  0  0
  -16.0505    7.7936    0.0048 H   0  0  0  0  0
   -7.5038    9.9583   -0.1142 H   0  0  0  0  0
  -16.2326   10.5306   -3.3960 H   0  0  0  0  0
 10  1  1  0  0  0
  1 30  1  0  0  0
  2 13  4  0  0  0
 14  2  1  0  0  0
  2 27  4  0  0  0
 15  3  4  0  0  0
  3 16  4  0  0  0
  3 23  1  0  0  0
  5  4  1  0  0  0
  6  5  4  0  0  0
  5 21  4  0  0  0
  7  6  4  0  0  0
  8  7  4  0  0  0
  8 20  4  0  0  0
 34  8  1  0  0  0
 19  9  1  0  0  0
  9 29  1  0  0  0
  9 34  1  0  0  0
 11 10  1  0  0  0
 10 29  1  0  0  0
 12 11  1  0  0  0
 11 31  1  0  0  0
 12 19  1  0  0  0
 26 12  1  0  0  0
 13 26  4  0  0  0
 14 15  4  0  0  0
 14 18  4  0  0  0
 15 22  1  0  0  0
 16 17  4  0  0  0
 16 32  1  0  0  0
 17 18  4  0  0  0
 17 24  1  0  0  0
 18 25  1  0  0  0
 19 33  1  0  0  0
 20 21  4  0  0  0
 26 28  4  0  0  0
 27 28  4  0  0  0
  1 35  1  0  0  0
  1 36  1  0  0  0
  4 37  1  0  0  0
  4 38  1  0  0  0
  4 39  1  0  0  0
  6 40  1  0  0  0
  7 41  1  0  0  0
  9 42  1  0  0  0
 10 43  1  0  0  0
 11 44  1  0  0  0
 12 45  1  0  0  0
 13 46  1  0  0  0
 19 47  1  0  0  0
 20 48  1  0  0  0
 21 49  1  0  0  0
 30 50  1  0  0  0
 31 51  1  0  0  0
 32 52  1  0  0  0
 33 53  1  0  0  0
M  END
$$$$
