5c1m_ligand
  -I-interpret- 

 66 72  0  0  0  0  0  0  0  0999 V2000
    2.3670   15.4790  -57.7720 C   0  0  0  0  0
    1.9260   15.5610  -56.2920 C   0  0  0  0  0
    1.1310   16.7970  -56.0740 N   0  3  0  0  0
    0.7860   16.9300  -54.6350 C   0  0  0  0  0
   -0.0920   16.8030  -56.9170 C   0  0  0  0  0
   -1.0260   15.5760  -56.6780 C   0  0  0  0  0
   -0.7240   14.4520  -57.4860 C   0  0  0  0  0
   -1.4980   13.3080  -57.3180 C   0  0  0  0  0
   -1.2710   12.1570  -58.0720 C   0  0  0  0  0
   -0.2530   12.1530  -59.0150 C   0  0  0  0  0
   -0.0150   11.0300  -59.7590 O   0  0  0  0  0
    0.5220   13.2940  -59.1890 C   0  0  0  0  0
    0.2990   14.4640  -58.4550 C   0  0  0  0  0
    1.1300   15.6050  -58.6990 C   0  0  0  0  0
    1.5630   15.7190  -60.2190 C   0  0  0  0  0
    2.9110   16.3220  -60.5050 N   0  3  0  0  0
    0.7060   16.8040  -60.9230 C   0  0  0  0  0
    0.9270   16.7990  -62.3580 O   0  0  0  0  0
    0.5320   15.5530  -62.9460 C   0  0  0  0  0
   -0.6630   16.7450  -60.5930 C   0  0  0  0  0
   -0.8980   16.7960  -59.2190 C   0  0  0  0  0
    0.2500   16.8410  -58.4010 C   0  0  0  0  0
    0.9020   18.1530  -58.7940 C   0  0  0  0  0
    1.2960   18.0670  -60.2780 C   0  0  0  0  0
    0.8330   19.3270  -61.0260 C   0  0  0  0  0
    2.8120   17.7520  -60.1860 C   0  0  0  0  0
    3.7260   18.8390  -60.1830 C   0  0  0  0  0
    4.0280   19.6960  -61.2230 C   0  0  0  0  0
    4.9290   20.7350  -61.0030 C   0  0  0  0  0
    5.5380   20.9230  -59.7670 C   0  0  0  0  0
    5.2390   20.0640  -58.7180 C   0  0  0  0  0
    4.3370   19.0320  -58.9380 C   0  0  0  0  0
    2.8532   14.5198  -57.9497 H   0  0  0  0  0
    3.0609   16.2919  -57.9860 H   0  0  0  0  0
    2.8086   15.5817  -55.6527 H   0  0  0  0  0
    1.3159   14.6913  -56.0481 H   0  0  0  0  0
    1.6967   17.5995  -56.3504 H   0  0  0  0  0
    0.2550   17.8684  -54.4752 H   0  0  0  0  0
    0.1507   16.0962  -54.3364 H   0  0  0  0  0
    1.7001   16.9227  -54.0413 H   0  0  0  0  0
   -0.6226   17.7069  -56.6177 H   0  0  0  0  0
   -2.0397   15.8893  -56.9277 H   0  0  0  0  0
   -0.8970   15.2704  -55.6397 H   0  0  0  0  0
   -2.3002   13.3115  -56.5801 H   0  0  0  0  0
   -1.8866   11.2700  -57.9222 H   0  0  0  0  0
    0.7165   11.1939  -60.3587 H   0  0  0  0  0
    1.3295   13.2765  -59.9210 H   0  0  0  0  0
    1.4916   14.6791  -60.5379 H   0  0  0  0  0
    3.1696   16.1853  -61.4822 H   0  0  0  0  0
    3.6352   15.8743  -59.9434 H   0  0  0  0  0
    1.1132   14.7437  -62.5040 H   0  0  0  0  0
   -0.5286   15.3845  -62.7591 H   0  0  0  0  0
    0.7120   15.5865  -64.0205 H   0  0  0  0  0
   -1.4570   16.6674  -61.3357 H   0  0  0  0  0
   -1.9057   16.8008  -58.8036 H   0  0  0  0  0
    1.7855   18.3312  -58.1811 H   0  0  0  0  0
    0.2077   18.9786  -58.6375 H   0  0  0  0  0
    1.1630   19.2739  -62.0635 H   0  0  0  0  0
   -0.2547   19.3890  -60.9921 H   0  0  0  0  0
    1.2635   20.2086  -60.5511 H   0  0  0  0  0
    3.5711   17.7672  -59.4039 H   0  0  0  0  0
    3.5679   19.5612  -62.2019 H   0  0  0  0  0
    5.1626   21.4178  -61.8199 H   0  0  0  0  0
    6.2455   21.7395  -59.6227 H   0  0  0  0  0
    5.7034   20.1973  -57.7409 H   0  0  0  0  0
    4.0979   18.3534  -58.1192 H   0  0  0  0  0
  1  2  1  0  0  0
  1 14  1  0  0  0
  2  3  1  0  0  0
  3  4  1  0  0  0
  3  5  1  0  0  0
  5  6  1  0  0  0
  5 22  1  0  0  0
  6  7  1  0  0  0
  7  8  4  0  0  0
  7 13  4  0  0  0
  8  9  4  0  0  0
  9 10  4  0  0  0
 10 11  1  0  0  0
 10 12  4  0  0  0
 12 13  4  0  0  0
 13 14  1  0  0  0
 14 15  1  0  0  0
 14 22  1  0  0  0
 15 16  1  0  0  0
 15 17  1  0  0  0
 16 26  1  0  0  0
 17 18  1  0  0  0
 17 20  1  0  0  0
 17 24  1  0  0  0
 18 19  1  0  0  0
 20 21  2  0  0  0
 21 22  1  0  0  0
 22 23  1  0  0  0
 23 24  1  0  0  0
 24 25  1  0  0  0
 24 26  1  0  0  0
 26 27  1  0  0  0
 27 28  4  0  0  0
 27 32  4  0  0  0
 28 29  4  0  0  0
 29 30  4  0  0  0
 30 31  4  0  0  0
 31 32  4  0  0  0
  1 33  1  0  0  0
  1 34  1  0  0  0
  2 35  1  0  0  0
  2 36  1  0  0  0
  3 37  1  0  0  0
  4 38  1  0  0  0
  4 39  1  0  0  0
  4 40  1  0  0  0
  5 41  1  0  0  0
  6 42  1  0  0  0
  6 43  1  0  0  0
  8 44  1  0  0  0
  9 45  1  0  0  0
 11 46  1  0  0  0
 12 47  1  0  0  0
 15 48  1  0  0  0
 16 49  1  0  0  0
 16 50  1  0  0  0
 19 51  1  0  0  0
 19 52  1  0  0  0
 19 53  1  0  0  0
 20 54  1  0  0  0
 21 55  1  0  0  0
 23 56  1  0  0  0
 23 57  1  0  0  0
 25 58  1  0  0  0
 25 59  1  0  0  0
 25 60  1  0  0  0
 26 61  1  0  0  0
 28 62  1  0  0  0
 29 63  1  0  0  0
 30 64  1  0  0  0
 31 65  1  0  0  0
 32 66  1  0  0  0
M  END
$$$$
