4wq2_ligand
  -I-interpret- 

 25 26  0  0  0  0  0  0  0  0999 V2000
    4.4870    9.1370   35.2340 O   0  0  0  0  0
    5.1840    8.6020   34.3580 C   0  0  0  0  0
    4.6600    8.2460   33.2860 O   0  0  0  0  0
    6.6660    8.3430   34.6330 C   0  0  0  0  0
    7.2580    8.9170   36.1150 S   0  0  0  0  0
    7.5650    7.7910   33.5050 C   0  0  0  0  0
    8.8520    7.4140   33.6480 C   0  0  0  0  0
    9.4770    6.6760   32.7030 C   0  0  0  0  0
    9.1060    6.2270   31.4970 C   0  0  0  0  0
   10.0050    5.5130   30.6660 C   0  0  0  0  0
   11.2430    5.3180   31.1610 C   0  0  0  0  0
   12.4400    4.2430   30.3440 Br  0  0  0  0  0
   11.5730    5.7730   32.4340 C   0  0  0  0  0
   10.7270    6.4930   33.1540 C   0  0  0  0  0
   10.8500    7.0480   34.3730 N   0  0  0  0  0
    9.6740    7.6110   34.6960 C   0  0  0  0  0
    5.3280    7.8529   32.7196 H   0  0  0  0  0
    6.9251    7.3138   34.8816 H   0  0  0  0  0
    6.2407    9.3219   36.8701 H   0  0  0  0  0
    7.6493    8.6486   32.8376 H   0  0  0  0  0
    7.0750    6.8485   33.2608 H   0  0  0  0  0
    8.0909    6.4147   31.1471 H   0  0  0  0  0
    9.7120    5.1431   29.6835 H   0  0  0  0  0
   12.5517    5.5307   32.8483 H   0  0  0  0  0
    9.4323    8.1268   35.6253 H   0  0  0  0  0
  1  2  2  0  0  0
  2  3  1  0  0  0
  2  4  1  0  0  0
  4  5  1  0  0  0
  4  6  1  0  0  0
  6  7  1  0  0  0
  7  8  4  0  0  0
  7 16  4  0  0  0
  8  9  4  0  0  0
  8 14  4  0  0  0
  9 10  4  0  0  0
 10 11  4  0  0  0
 11 12  1  0  0  0
 11 13  4  0  0  0
 13 14  4  0  0  0
 14 15  4  0  0  0
 15 16  4  0  0  0
  3 17  1  0  0  0
  4 18  1  0  0  0
  5 19  1  0  0  0
  6 20  1  0  0  0
  6 21  1  0  0  0
  9 22  1  0  0  0
 10 23  1  0  0  0
 13 24  1  0  0  0
 16 25  1  0  0  0
M  END
$$$$
