6q5b_ligand
  -I-interpret- 

 31 31  0  0  0  0  0  0  0  0999 V2000
    3.8450   24.5080   -1.4540 O   0  0  0  0  0
    3.7010   24.7680   -2.6140 C   0  0  0  0  0
    4.3460   25.8970   -3.1810 N   0  0  0  0  0
    4.2540   26.2040   -4.6520 C   0  0  0  0  0
    5.2390   26.7620   -2.3960 C   0  0  0  0  0
    4.5950   28.1550   -2.2510 C   0  0  0  0  0
    3.5670   28.3900   -1.6420 O   0  0  0  0  0
    5.2920   29.3060   -2.8040 N   0  0  0  0  0
    6.5950   26.8510   -3.0490 C   0  0  0  0  0
    6.5440   27.0410   -4.5520 C   0  0  0  0  0
    5.6180   26.1770   -5.3210 C   0  0  0  0  0
    6.3170   24.8480   -5.4350 N   0  3  0  0  0
    5.7820   23.9380   -4.5600 O   0  0  0  0  0
    6.7610   22.6140   -4.5610 S   0  0  0  0  0
    8.0670   22.7000   -5.3440 O   0  0  0  0  0
    6.0050   21.5600   -5.1000 O   0  0  0  0  0
    7.1960   22.3200   -3.2500 O   0  0  0  0  0
    3.0709   24.1337   -3.2375 H   0  0  0  0  0
    3.8356   27.2039   -4.7676 H   0  0  0  0  0
    3.6273   25.4458   -5.1215 H   0  0  0  0  0
    5.3820   26.3361   -1.4029 H   0  0  0  0  0
    4.9135   30.2438   -2.6708 H   0  0  0  0  0
    6.1591   29.1752   -3.3249 H   0  0  0  0  0
    7.1078   25.9080   -2.8594 H   0  0  0  0  0
    7.0993   27.7217   -2.6299 H   0  0  0  0  0
    7.5426   26.7940   -4.9125 H   0  0  0  0  0
    6.1900   28.0603   -4.7065 H   0  0  0  0  0
    5.3976   26.5012   -6.3381 H   0  0  0  0  0
    7.3042   24.9761   -5.2126 H   0  0  0  0  0
    6.2013   24.4967   -6.3856 H   0  0  0  0  0
    8.6026   23.4153   -4.9932 H   0  0  0  0  0
  1  2  2  0  0  0
  2  3  1  0  0  0
  3  4  1  0  0  0
  3  5  1  0  0  0
  4 11  1  0  0  0
  5  6  1  0  0  0
  5  9  1  0  0  0
  6  7  2  0  0  0
  6  8  1  0  0  0
  9 10  1  0  0  0
 10 11  1  0  0  0
 11 12  1  0  0  0
 12 13  1  0  0  0
 13 14  1  0  0  0
 14 15  1  0  0  0
 14 16  2  0  0  0
 14 17  2  0  0  0
  2 18  1  0  0  0
  4 19  1  0  0  0
  4 20  1  0  0  0
  5 21  1  0  0  0
  8 22  1  0  0  0
  8 23  1  0  0  0
  9 24  1  0  0  0
  9 25  1  0  0  0
 10 26  1  0  0  0
 10 27  1  0  0  0
 11 28  1  0  0  0
 12 29  1  0  0  0
 12 30  1  0  0  0
 15 31  1  0  0  0
M  END
$$$$
