4rsc_ligand
  -I-interpret- 

 45 46  0  0  0  0  0  0  0  0999 V2000
  -35.4840  133.9560    9.0630 O   0  0  0  0  0
  -36.6370  133.2270    9.4840 C   0  0  0  0  0
  -37.1620  132.4070    8.3250 C   0  0  0  0  0
  -36.1940  131.3730    7.7880 C   0  0  0  0  0
  -34.8290  131.7640    7.5580 N   0  3  0  0  0
  -37.6790  134.1300   10.1220 C   0  0  0  0  0
  -38.4680  135.0140    9.3870 C   0  0  0  0  0
  -39.3330  135.8960   10.0500 C   0  0  0  0  0
  -39.4290  135.8720   11.4190 C   0  0  0  0  0
  -38.6720  134.9730   12.1310 C   0  0  0  0  0
  -37.7990  134.1220   11.4940 C   0  0  0  0  0
  -40.1100  136.7970    9.3800 O   0  0  0  0  0
  -40.1020  136.8590    7.9570 C   0  0  0  0  0
  -40.9470  138.0730    7.6400 C   0  0  0  0  0
  -40.2710  139.3510    8.1480 C   0  0  0  0  0
  -41.0480  140.6300    7.8310 C   0  0  0  0  0
  -41.4060  140.7270    6.3630 C   0  0  0  0  0
  -42.0800  139.4520    5.8820 C   0  0  0  0  0
  -41.2170  138.2220    6.1590 C   0  0  0  0  0
  -34.8519  133.3519    8.6667 H   0  0  0  0  0
  -36.3590  132.5311   10.2755 H   0  0  0  0  0
  -37.3648  133.1032    7.5112 H   0  0  0  0  0
  -38.0338  131.8644    8.6906 H   0  0  0  0  0
  -36.5821  131.1026    6.8060 H   0  0  0  0  0
  -36.1438  130.6031    8.5579 H   0  0  0  0  0
  -34.3040  130.9665    7.1992 H   0  0  0  0  0
  -34.8041  132.5230    6.8771 H   0  0  0  0  0
  -34.4143  132.0788    8.4351 H   0  0  0  0  0
  -38.4124  135.0193    8.2984 H   0  0  0  0  0
  -40.0989  136.5590   11.9361 H   0  0  0  0  0
  -38.7646  134.9337   13.2163 H   0  0  0  0  0
  -37.1943  133.4323   12.0828 H   0  0  0  0  0
  -40.4958  135.9505    7.5012 H   0  0  0  0  0
  -39.0932  136.9401    7.5522 H   0  0  0  0  0
  -41.8996  137.9223    8.1480 H   0  0  0  0  0
  -39.3043  139.4267    7.6501 H   0  0  0  0  0
  -40.2032  139.2730    9.2331 H   0  0  0  0  0
  -40.4189  141.4830    8.0855 H   0  0  0  0  0
  -41.9731  140.6186    8.4074 H   0  0  0  0  0
  -40.4917  140.8775    5.7890 H   0  0  0  0  0
  -42.0948  141.5605    6.2251 H   0  0  0  0  0
  -42.2353  139.5290    4.8059 H   0  0  0  0  0
  -43.0236  139.3384    6.4157 H   0  0  0  0  0
  -41.7472  137.3363    5.8089 H   0  0  0  0  0
  -40.2657  138.3376    5.6396 H   0  0  0  0  0
  1  2  1  0  0  0
  2  3  1  0  0  0
  2  6  1  0  0  0
  3  4  1  0  0  0
  4  5  1  0  0  0
  6  7  4  0  0  0
  6 11  4  0  0  0
  7  8  4  0  0  0
  8  9  4  0  0  0
  8 12  1  0  0  0
  9 10  4  0  0  0
 10 11  4  0  0  0
 12 13  1  0  0  0
 13 14  1  0  0  0
 14 15  1  0  0  0
 14 19  1  0  0  0
 15 16  1  0  0  0
 16 17  1  0  0  0
 17 18  1  0  0  0
 18 19  1  0  0  0
  1 20  1  0  0  0
  2 21  1  0  0  0
  3 22  1  0  0  0
  3 23  1  0  0  0
  4 24  1  0  0  0
  4 25  1  0  0  0
  5 26  1  0  0  0
  5 27  1  0  0  0
  5 28  1  0  0  0
  7 29  1  0  0  0
  9 30  1  0  0  0
 10 31  1  0  0  0
 11 32  1  0  0  0
 13 33  1  0  0  0
 13 34  1  0  0  0
 14 35  1  0  0  0
 15 36  1  0  0  0
 15 37  1  0  0  0
 16 38  1  0  0  0
 16 39  1  0  0  0
 17 40  1  0  0  0
 17 41  1  0  0  0
 18 42  1  0  0  0
 18 43  1  0  0  0
 19 44  1  0  0  0
 19 45  1  0  0  0
M  END
$$$$
