6pf5_ligand
  -I-interpret- 

 52 55  0  0  0  0  0  0  0  0999 V2000
  -36.1950   -5.8270   27.4190 O   0  0  0  0  0
  -40.5670   -5.2220   27.1920 C   0  0  0  0  0
  -38.7460   -4.1420   28.6440 C   0  0  0  0  0
  -38.1260   -2.5530   26.7390 C   0  0  0  0  0
  -37.4610   -1.4030   26.2650 C   0  0  0  0  0
  -36.7060   -0.6130   27.1660 C   0  0  0  0  0
  -36.6300   -0.9840   28.5240 C   0  0  0  0  0
  -37.2910   -2.1270   28.9930 C   0  0  0  0  0
  -35.9610    0.6260   26.7750 C   0  0  0  0  0
  -35.5070    2.3130   25.0770 C   0  0  0  0  0
  -36.2400    3.3710   24.4700 C   0  0  0  0  0
  -34.1530    4.6350   24.2160 C   0  0  0  0  0
  -34.1100    2.4470   25.2500 C   0  0  0  0  0
  -31.4090    4.7180   24.1610 C   0  0  0  0  0
  -37.7510    3.3180   24.2500 C   0  0  0  0  0
  -38.1330    2.4180   23.0730 C   0  0  0  0  0
  -39.3500   -6.6570   25.9720 C   0  0  0  0  0
  -35.5450    4.5230   24.0420 C   0  0  0  0  0
  -33.4210    3.5980   24.8220 C   0  0  0  0  0
  -38.4870   -5.9990   26.8050 C   0  0  0  0  0
  -37.0550   -6.3540   26.7160 C   0  0  0  0  0
  -37.7380   -7.9150   25.0040 C   0  0  0  0  0
  -39.2560   -5.0780   27.5820 C   0  0  0  0  0
  -38.0430   -2.9150   28.1020 C   0  0  0  0  0
  -39.0090   -7.6310   25.0480 N   0  0  0  0  0
  -36.7590   -7.3060   25.8090 N   0  0  0  0  0
  -40.6180   -6.1860   26.2050 N   0  0  0  0  0
  -37.1890   -8.8550   24.1580 N   0  0  0  0  0
  -36.1610    1.1400   25.5450 N   0  0  0  0  0
  -35.2110    1.1250   27.6140 O   0  0  0  0  0
  -32.0620    3.7570   24.9700 O   0  0  0  0  0
  -38.6960    2.8440   22.0630 O   0  0  0  0  0
  -37.7770    1.1170   23.2850 O   0  0  0  0  0
  -41.4178   -4.6709   27.5925 H   0  0  0  0  0
  -38.0179   -4.6945   29.2379 H   0  0  0  0  0
  -39.6106   -3.7945   29.2095 H   0  0  0  0  0
  -38.7071   -3.1658   26.0499 H   0  0  0  0  0
  -37.5276   -1.1244   25.2133 H   0  0  0  0  0
  -36.0502   -0.3745   29.2172 H   0  0  0  0  0
  -37.2229   -2.4049   30.0448 H   0  0  0  0  0
  -33.6373    5.5338   23.8780 H   0  0  0  0  0
  -33.5531    1.6399   25.7261 H   0  0  0  0  0
  -31.5504    4.4633   23.1107 H   0  0  0  0  0
  -31.8313    5.7035   24.3572 H   0  0  0  0  0
  -30.3443    4.7245   24.3945 H   0  0  0  0  0
  -38.0972    4.3280   24.0307 H   0  0  0  0  0
  -38.2106    2.9113   25.1508 H   0  0  0  0  0
  -36.0945    5.3374   23.5700 H   0  0  0  0  0
  -39.6972   -8.0889   24.4504 H   0  0  0  0  0
  -36.1843   -9.0304   24.1738 H   0  0  0  0  0
  -36.8124    0.6650   24.9202 H   0  0  0  0  0
  -37.3541    1.0379   24.1432 H   0  0  0  0  0
 21  1  2  0  0  0
  2 23  4  0  0  0
 27  2  4  0  0  0
 23  3  1  0  0  0
  3 24  1  0  0  0
  4  5  4  0  0  0
 24  4  4  0  0  0
  5  6  4  0  0  0
  7  6  4  0  0  0
  6  9  1  0  0  0
  8  7  4  0  0  0
 24  8  4  0  0  0
  9 29  1  0  0  0
  9 30  2  0  0  0
 10 11  4  0  0  0
 10 13  4  0  0  0
 29 10  1  0  0  0
 11 15  1  0  0  0
 11 18  4  0  0  0
 18 12  4  0  0  0
 19 12  4  0  0  0
 13 19  4  0  0  0
 31 14  1  0  0  0
 15 16  1  0  0  0
 16 32  2  0  0  0
 16 33  1  0  0  0
 20 17  4  0  0  0
 17 25  1  0  0  0
 17 27  4  0  0  0
 19 31  1  0  0  0
 20 21  1  0  0  0
 20 23  4  0  0  0
 21 26  1  0  0  0
 25 22  1  0  0  0
 22 26  4  0  0  0
 22 28  2  0  0  0
  2 34  1  0  0  0
  3 35  1  0  0  0
  3 36  1  0  0  0
  4 37  1  0  0  0
  5 38  1  0  0  0
  7 39  1  0  0  0
  8 40  1  0  0  0
 12 41  1  0  0  0
 13 42  1  0  0  0
 14 43  1  0  0  0
 14 44  1  0  0  0
 14 45  1  0  0  0
 15 46  1  0  0  0
 15 47  1  0  0  0
 18 48  1  0  0  0
 25 49  1  0  0  0
 28 50  1  0  0  0
 29 51  1  0  0  0
 33 52  1  0  0  0
M  END
$$$$
