2p3b_ligand
  -I-interpret- 

130133  0  0  0  0  0  0  0  0999 V2000
   19.1050    1.5230    2.5720 N   0  0  0  0  0
   19.0010    1.4000    1.1110 C   0  0  0  0  0
   17.7470    2.3440    5.5670 N   0  0  0  0  0
   19.9170    0.3010    0.5580 C   0  0  0  0  0
   19.3040    2.7190    0.3850 C   0  0  0  0  0
   18.5000    3.8510    0.9740 C   0  0  0  0  0
   19.0740    4.7180    1.9090 C   0  0  0  0  0
   21.2460    0.5860    0.9080 O   0  0  0  0  0
   18.3270    5.7700    2.4510 C   0  0  0  0  0
   16.9930    5.9360    2.0700 C   0  0  0  0  0
   16.9750    0.9450    3.0290 O   0  0  0  0  0
   16.4220    5.0550    1.1450 C   0  0  0  0  0
   17.1690    4.0210    0.5890 C   0  0  0  0  0
   18.4270    1.2580    4.8880 C   0  0  0  0  0
   18.1060    1.2250    3.4140 C   0  0  0  0  0
   18.0900   -0.0610    5.6110 C   0  0  0  0  0
   13.3660    6.4650   11.4220 C   0  0  0  0  0
   12.4290    7.4580   11.1280 C   0  0  0  0  0
   17.7130    4.8450    8.0860 N   0  0  0  0  0
   12.7040    8.3800   10.1230 C   0  0  0  0  0
   13.9180    8.3160    9.4420 C   0  0  0  0  0
   14.8540    7.3220    9.7540 C   0  0  0  0  0
   19.5710    3.1260    6.6190 O   0  0  0  0  0
   17.5940    4.4730    6.6870 C   0  0  0  0  0
   18.4000    3.2580    6.2910 C   0  0  0  0  0
   17.9610    5.6430    5.7940 C   0  0  0  0  0
   14.5470   -4.2180   -7.3560 O   0  0  0  0  0
   15.7220   -4.4510   -7.5800 C   0  0  0  0  0
   16.0620   -5.0780   -8.8290 O   0  0  0  0  0
   15.0850   -5.4240   -9.8190 C   0  0  0  0  0
   14.1950   -6.5710   -9.3900 C   0  0  0  0  0
   13.0460   -6.8660  -10.1410 C   0  0  0  0  0
   12.1950   -7.9080   -9.7670 C   0  0  0  0  0
   12.5080   -8.6630   -8.6390 C   0  0  0  0  0
   13.6480   -8.3780   -7.8840 C   0  0  0  0  0
   14.4930   -7.3300   -8.2620 C   0  0  0  0  0
   16.7390   -4.1720   -6.7660 N   0  0  0  0  0
   16.7230   -4.2260   -5.3210 C   0  0  0  0  0
   17.1010   -5.6250   -4.8540 C   0  0  0  0  0
   17.6760   -3.1990   -4.7340 C   0  0  0  0  0
   18.8650   -3.1800   -5.0270 O   0  0  0  0  0
   17.1230   -2.3130   -3.9050 N   0  0  0  0  0
   17.8180   -1.2070   -3.2570 C   0  0  0  0  0
   17.4310    0.1090   -3.9360 C   0  0  0  0  0
   17.6890    0.0490   -5.4340 C   0  0  0  0  0
   18.1630    1.3140   -3.3410 C   0  0  0  0  0
   17.5180   -1.1860   -1.7760 C   0  0  0  0  0
   16.4810   -0.7110   -1.3510 O   0  0  0  0  0
   18.4460   -1.7280   -0.9840 N   0  0  0  0  0
   18.4020   -1.7950    0.4780 C   0  0  0  0  0
   18.4400   -3.2430    0.9910 C   0  0  0  0  0
   17.3180   -4.1040    0.4640 C   0  0  0  0  0
   17.3790   -4.6740   -0.8090 C   0  0  0  0  0
   16.3440   -5.4800   -1.2880 C   0  0  0  0  0
   15.2480   -5.7110   -0.4600 C   0  0  0  0  0
   15.1880   -5.1450    0.8200 C   0  0  0  0  0
   16.2260   -4.3470    1.2860 C   0  0  0  0  0
   19.6260   -1.1120    1.0700 C   0  0  0  0  0
   20.7310   -1.9100    0.7100 O   0  0  0  0  0
   18.6220   -0.0890    7.0330 C   0  0  0  0  0
   18.6450   -1.2820    4.8830 C   0  0  0  0  0
   16.6670    4.6770    8.9030 C   0  0  0  0  0
   15.6560    4.1020    8.5660 O   0  0  0  0  0
   16.7360    5.1730   10.2590 O   0  0  0  0  0
   15.5850    5.2870   11.1190 C   0  0  0  0  0
   14.5930    6.3850   10.7430 C   0  0  0  0  0
   19.9857    1.8532    2.9665 H   0  0  0  0  0
   17.9630    1.1289    0.9182 H   0  0  0  0  0
   16.7323    2.4129    5.4891 H   0  0  0  0  0
   19.7354    0.3050   -0.5168 H   0  0  0  0  0
   19.0398    2.6101   -0.6669 H   0  0  0  0  0
   20.3643    2.9459    0.4959 H   0  0  0  0  0
   20.1094    4.5736    2.2175 H   0  0  0  0  0
   21.4735    1.4680    0.6048 H   0  0  0  0  0
   18.7828    6.4553    3.1656 H   0  0  0  0  0
   16.4001    6.7478    2.4913 H   0  0  0  0  0
   15.3785    5.1803    0.8562 H   0  0  0  0  0
   16.7184    3.3490   -0.1414 H   0  0  0  0  0
   19.5050    1.4121    4.9354 H   0  0  0  0  0
   17.0009   -0.1044    5.6223 H   0  0  0  0  0
   13.1394    5.7337   12.1979 H   0  0  0  0  0
   11.4910    7.5102   11.6807 H   0  0  0  0  0
   18.5871    5.2312    8.4427 H   0  0  0  0  0
   11.9736    9.1484    9.8697 H   0  0  0  0  0
   14.1405    9.0439    8.6618 H   0  0  0  0  0
   15.7994    7.2842    9.2129 H   0  0  0  0  0
   16.5476    4.2005    6.5498 H   0  0  0  0  0
   17.2907    6.4780    5.9976 H   0  0  0  0  0
   18.9893    5.9435    5.9952 H   0  0  0  0  0
   17.8659    5.3453    4.7498 H   0  0  0  0  0
   15.6169   -5.7330  -10.7189 H   0  0  0  0  0
   14.4510   -4.5523   -9.9809 H   0  0  0  0  0
   12.8154   -6.2743  -11.0269 H   0  0  0  0  0
   11.2996   -8.1272  -10.3487 H   0  0  0  0  0
   11.8564   -9.4849   -8.3424 H   0  0  0  0  0
   13.8790   -8.9726   -7.0001 H   0  0  0  0  0
   15.3836   -7.1078   -7.6742 H   0  0  0  0  0
   17.6160   -3.8926   -7.2056 H   0  0  0  0  0
   15.7165   -3.9928   -4.9736 H   0  0  0  0  0
   16.3850   -6.3449   -5.2505 H   0  0  0  0  0
   18.1006   -5.8690   -5.2137 H   0  0  0  0  0
   17.0871   -5.6591   -3.7646 H   0  0  0  0  0
   16.1279   -2.4180   -3.7071 H   0  0  0  0  0
   18.8945   -1.3406   -3.3637 H   0  0  0  0  0
   16.3642    0.2414   -3.7556 H   0  0  0  0  0
   18.7481   -0.1374   -5.6118 H   0  0  0  0  0
   17.0986   -0.7563   -5.8711 H   0  0  0  0  0
   17.4045    0.9979   -5.8887 H   0  0  0  0  0
   17.9200    1.3984   -2.2818 H   0  0  0  0  0
   19.2382    1.1788   -3.4587 H   0  0  0  0  0
   17.8504    2.2200   -3.8601 H   0  0  0  0  0
   19.2629   -2.1338   -1.4405 H   0  0  0  0  0
   17.4722   -1.3106    0.7762 H   0  0  0  0  0
   18.3406   -3.2068    2.0759 H   0  0  0  0  0
   19.3766   -3.6845    0.6506 H   0  0  0  0  0
   18.2485   -4.4869   -1.4392 H   0  0  0  0  0
   16.3926   -5.9175   -2.2852 H   0  0  0  0  0
   14.4289   -6.3384   -0.8115 H   0  0  0  0  0
   14.3216   -5.3317    1.4546 H   0  0  0  0  0
   16.1832   -3.9164    2.2864 H   0  0  0  0  0
   19.4408   -1.0116    2.1395 H   0  0  0  0  0
   21.5344   -1.5197    1.0619 H   0  0  0  0  0
   19.7063    0.0207    7.0161 H   0  0  0  0  0
   18.1814    0.7307    7.6006 H   0  0  0  0  0
   18.3588   -1.0383    7.4994 H   0  0  0  0  0
   18.2208   -1.3294    3.8801 H   0  0  0  0  0
   19.7300   -1.2017    4.8165 H   0  0  0  0  0
   18.3793   -2.1840    5.4343 H   0  0  0  0  0
   15.9614    5.5341   12.1117 H   0  0  0  0  0
   15.0464    4.3422   11.0451 H   0  0  0  0  0
  1  2  1  0  0  0
 15  1  1  0  0  0
  2  4  1  0  0  0
  2  5  1  0  0  0
  3 14  1  0  0  0
 25  3  1  0  0  0
  4  8  1  0  0  0
  4 58  1  0  0  0
  5  6  1  0  0  0
  6  7  4  0  0  0
  6 13  4  0  0  0
  7  9  4  0  0  0
  9 10  4  0  0  0
 12 10  4  0  0  0
 15 11  2  0  0  0
 13 12  4  0  0  0
 14 15  1  0  0  0
 14 16  1  0  0  0
 16 60  1  0  0  0
 16 61  1  0  0  0
 17 18  4  0  0  0
 66 17  4  0  0  0
 18 20  4  0  0  0
 19 24  1  0  0  0
 62 19  1  0  0  0
 21 20  4  0  0  0
 22 21  4  0  0  0
 66 22  4  0  0  0
 25 23  2  0  0  0
 24 25  1  0  0  0
 24 26  1  0  0  0
 28 27  2  0  0  0
 28 29  1  0  0  0
 37 28  1  0  0  0
 29 30  1  0  0  0
 30 31  1  0  0  0
 31 32  4  0  0  0
 31 36  4  0  0  0
 32 33  4  0  0  0
 33 34  4  0  0  0
 35 34  4  0  0  0
 36 35  4  0  0  0
 38 37  1  0  0  0
 38 39  1  0  0  0
 40 38  1  0  0  0
 40 41  2  0  0  0
 42 40  1  0  0  0
 43 42  1  0  0  0
 43 44  1  0  0  0
 47 43  1  0  0  0
 44 45  1  0  0  0
 44 46  1  0  0  0
 47 48  2  0  0  0
 49 47  1  0  0  0
 50 49  1  0  0  0
 50 51  1  0  0  0
 58 50  1  0  0  0
 51 52  1  0  0  0
 52 53  4  0  0  0
 52 57  4  0  0  0
 53 54  4  0  0  0
 54 55  4  0  0  0
 56 55  4  0  0  0
 57 56  4  0  0  0
 58 59  1  0  0  0
 62 63  2  0  0  0
 64 62  1  0  0  0
 65 64  1  0  0  0
 65 66  1  0  0  0
  1 67  1  0  0  0
  2 68  1  0  0  0
  3 69  1  0  0  0
  4 70  1  0  0  0
  5 71  1  0  0  0
  5 72  1  0  0  0
  7 73  1  0  0  0
  8 74  1  0  0  0
  9 75  1  0  0  0
 10 76  1  0  0  0
 12 77  1  0  0  0
 13 78  1  0  0  0
 14 79  1  0  0  0
 16 80  1  0  0  0
 17 81  1  0  0  0
 18 82  1  0  0  0
 19 83  1  0  0  0
 20 84  1  0  0  0
 21 85  1  0  0  0
 22 86  1  0  0  0
 24 87  1  0  0  0
 26 88  1  0  0  0
 26 89  1  0  0  0
 26 90  1  0  0  0
 30 91  1  0  0  0
 30 92  1  0  0  0
 32 93  1  0  0  0
 33 94  1  0  0  0
 34 95  1  0  0  0
 35 96  1  0  0  0
 36 97  1  0  0  0
 37 98  1  0  0  0
 38 99  1  0  0  0
 39100  1  0  0  0
 39101  1  0  0  0
 39102  1  0  0  0
 42103  1  0  0  0
 43104  1  0  0  0
 44105  1  0  0  0
 45106  1  0  0  0
 45107  1  0  0  0
 45108  1  0  0  0
 46109  1  0  0  0
 46110  1  0  0  0
 46111  1  0  0  0
 49112  1  0  0  0
 50113  1  0  0  0
 51114  1  0  0  0
 51115  1  0  0  0
 53116  1  0  0  0
 54117  1  0  0  0
 55118  1  0  0  0
 56119  1  0  0  0
 57120  1  0  0  0
 58121  1  0  0  0
 59122  1  0  0  0
 60123  1  0  0  0
 60124  1  0  0  0
 60125  1  0  0  0
 61126  1  0  0  0
 61127  1  0  0  0
 61128  1  0  0  0
 65129  1  0  0  0
 65130  1  0  0  0
M  END
$$$$
