3peq_ligand
  -I-interpret- 

 69 72  0  0  0  0  0  0  0  0999 V2000
   31.6240    0.1810   60.9360 C   0  0  0  0  0
   32.5840    0.8410   59.9750 C   0  0  0  0  0
   32.6520    2.3400   60.1770 C   0  0  0  0  0
   33.7940    2.8790   59.3350 C   0  0  0  0  0
   33.8360    4.3690   59.2570 N   0  0  0  0  0
   32.7260    4.9510   58.5280 C   0  0  0  0  0
   31.6490    5.4990   59.1920 C   0  0  0  0  0
   30.5960    6.0290   58.4770 C   0  0  0  0  0
   30.6200    5.9880   57.1000 C   0  0  0  0  0
   31.6790    5.4320   56.4120 C   0  0  0  0  0
   32.7430    4.9130   57.1420 C   0  0  0  0  0
   33.9270    4.2950   56.4640 C   0  0  0  0  0
   31.5960    5.3970   54.9590 C   0  0  0  0  0
   31.2290    6.5070   54.2250 C   0  0  0  0  0
   31.1290    6.4580   52.8510 C   0  0  0  0  0
   31.3940    5.2930   52.1670 C   0  0  0  0  0
   31.2640    5.2580   50.3880 S   0  0  0  0  0
   32.0740    3.6850   50.0730 C   0  0  0  0  0
   31.7600    4.1800   52.8940 C   0  0  0  0  0
   31.8530    4.2290   54.2670 C   0  0  0  0  0
   34.2960    5.0500   60.7570 S   0  0  0  0  0
   35.3690    4.2350   61.2910 O   0  0  0  0  0
   33.1260    5.2470   61.5970 O   0  0  0  0  0
   35.0150    6.6580   60.4440 C   0  0  0  0  0
   34.4060    7.7220   61.0710 C   0  0  0  0  0
   34.8990    8.9990   60.9080 C   0  0  0  0  0
   36.0100    9.2080   60.1180 C   0  0  0  0  0
   36.5460   10.4800   59.9330 O   0  0  0  0  0
   35.6150   11.4680   60.3820 C   0  0  0  0  0
   35.8700   11.9090   61.8230 C   0  0  0  0  0
   35.1810   12.8990   62.1740 O   0  0  0  0  0
   36.6980   11.2520   62.5080 O   0  0  0  0  0
   36.6250    8.1380   59.4930 C   0  0  0  0  0
   37.7380    8.3530   58.7050 C   0  0  0  0  0
   38.3620    7.3030   58.0690 C   0  0  0  0  0
   37.8750    6.0230   58.2190 C   0  0  0  0  0
   36.7630    5.8090   59.0050 C   0  0  0  0  0
   36.1280    6.8520   59.6490 C   0  0  0  0  0
   31.9475    0.3719   61.9592 H   0  0  0  0  0
   30.6246    0.5898   60.7873 H   0  0  0  0  0
   31.6095   -0.8934   60.7526 H   0  0  0  0  0
   32.2342    0.6503   58.9604 H   0  0  0  0  0
   33.5777    0.4289   60.1505 H   0  0  0  0  0
   32.8205    2.5697   61.2291 H   0  0  0  0  0
   31.7123    2.8024   59.8750 H   0  0  0  0  0
   33.6541    2.5048   58.3208 H   0  0  0  0  0
   34.7234    2.5522   59.8014 H   0  0  0  0  0
   31.6301    5.5132   60.2817 H   0  0  0  0  0
   29.7500    6.4776   58.9977 H   0  0  0  0  0
   29.7824    6.4048   56.5407 H   0  0  0  0  0
   34.8288    4.8407   56.7416 H   0  0  0  0  0
   34.0201    3.2545   56.7752 H   0  0  0  0  0
   33.7907    4.3416   55.3836 H   0  0  0  0  0
   31.0138    7.4418   54.7427 H   0  0  0  0  0
   30.8368    7.3518   52.2998 H   0  0  0  0  0
   33.0965    3.7226   50.4487 H   0  0  0  0  0
   31.5284    2.8890   50.5797 H   0  0  0  0  0
   32.0866    3.4927   49.0002 H   0  0  0  0  0
   31.9790    3.2474   52.3741 H   0  0  0  0  0
   32.1341    3.3311   54.8173 H   0  0  0  0  0
   33.5308    7.5539   61.6986 H   0  0  0  0  0
   34.4126    9.8403   61.4016 H   0  0  0  0  0
   34.6172   11.0315   60.3377 H   0  0  0  0  0
   35.7212   12.3431   59.7409 H   0  0  0  0  0
   37.0704   10.5494   61.9702 H   0  0  0  0  0
   38.1268    9.3642   58.5850 H   0  0  0  0  0
   39.2394    7.4842   57.4482 H   0  0  0  0  0
   38.3648    5.1866   57.7204 H   0  0  0  0  0
   36.3774    4.7960   59.1203 H   0  0  0  0  0
  1  2  1  0  0  0
  2  3  1  0  0  0
  3  4  1  0  0  0
  4  5  1  0  0  0
  5  6  1  0  0  0
  5 21  1  0  0  0
  6  7  4  0  0  0
  6 11  4  0  0  0
  7  8  4  0  0  0
  8  9  4  0  0  0
  9 10  4  0  0  0
 10 11  4  0  0  0
 10 13  1  0  0  0
 11 12  1  0  0  0
 13 14  4  0  0  0
 13 20  4  0  0  0
 14 15  4  0  0  0
 15 16  4  0  0  0
 16 17  1  0  0  0
 16 19  4  0  0  0
 17 18  1  0  0  0
 19 20  4  0  0  0
 21 22  2  0  0  0
 21 23  2  0  0  0
 21 24  1  0  0  0
 24 25  4  0  0  0
 24 38  4  0  0  0
 25 26  4  0  0  0
 26 27  4  0  0  0
 27 28  1  0  0  0
 27 33  4  0  0  0
 28 29  1  0  0  0
 29 30  1  0  0  0
 30 31  2  0  0  0
 30 32  1  0  0  0
 33 34  4  0  0  0
 33 38  4  0  0  0
 34 35  4  0  0  0
 35 36  4  0  0  0
 36 37  4  0  0  0
 37 38  4  0  0  0
  1 39  1  0  0  0
  1 40  1  0  0  0
  1 41  1  0  0  0
  2 42  1  0  0  0
  2 43  1  0  0  0
  3 44  1  0  0  0
  3 45  1  0  0  0
  4 46  1  0  0  0
  4 47  1  0  0  0
  7 48  1  0  0  0
  8 49  1  0  0  0
  9 50  1  0  0  0
 12 51  1  0  0  0
 12 52  1  0  0  0
 12 53  1  0  0  0
 14 54  1  0  0  0
 15 55  1  0  0  0
 18 56  1  0  0  0
 18 57  1  0  0  0
 18 58  1  0  0  0
 19 59  1  0  0  0
 20 60  1  0  0  0
 25 61  1  0  0  0
 26 62  1  0  0  0
 29 63  1  0  0  0
 29 64  1  0  0  0
 32 65  1  0  0  0
 34 66  1  0  0  0
 35 67  1  0  0  0
 36 68  1  0  0  0
 37 69  1  0  0  0
M  END
$$$$
