5kdr_ligand
  -I-interpret- 

 68 69  0  0  0  0  0  0  0  0999 V2000
    8.9190   -8.9130   19.8790 C   0  0  0  0  0
    8.8970   -7.6020   20.6530 C   0  0  0  0  0
    7.6520   -7.0050   20.5590 C   0  0  0  0  0
    6.6060   -7.5870   20.8610 O   0  0  0  0  0
    7.7400   -5.7080   20.2580 N   0  0  0  0  0
    9.0190   -5.3860   20.0840 C   0  0  0  0  0
    9.3630   -4.2510   19.7450 O   0  0  0  0  0
    9.8450   -6.5390   20.0760 C   0  0  0  0  0
   11.1320   -6.4030   20.6730 C   0  0  0  0  0
   11.7700   -5.3590   20.5770 O   0  0  0  0  0
   11.7880   -7.6430   21.3120 C   0  0  0  0  0
   12.4710   -7.2620   22.6270 C   0  0  0  0  0
   12.7420   -8.5470   23.4180 C   0  0  0  0  0
   11.6000   -6.3270   23.4730 C   0  0  0  0  0
   12.8320   -8.2220   20.4430 N   0  0  0  0  0
   12.7710   -9.4820   19.9710 C   0  0  0  0  0
   11.8360  -10.2510   20.1780 O   0  0  0  0  0
   13.9720   -9.9530   19.1300 C   0  0  0  0  0
   14.8080  -10.9680   19.9410 C   0  0  0  0  0
   15.7380  -11.6440   19.1300 C   0  0  0  0  0
   15.6440  -13.0240   18.9260 C   0  0  0  0  0
   16.5780  -13.6770   18.1250 C   0  0  0  0  0
   17.6180  -12.9630   17.5320 C   0  0  0  0  0
   17.7260  -11.5890   17.7390 C   0  0  0  0  0
   16.7910  -10.9370   18.5390 C   0  0  0  0  0
   15.5770  -10.3120   21.0140 N   0  0  0  0  0
   15.8820  -11.0000   22.1270 C   0  0  0  0  0
   15.5400  -12.1700   22.3220 O   0  0  0  0  0
   16.7380  -10.2570   23.1180 C   0  0  0  0  0
   16.5070  -10.9270   24.4650 C   0  0  0  0  0
   17.7930  -10.6390   25.2200 C   0  0  0  0  0
   17.5540  -11.2280   26.5950 C   0  0  0  0  0
   18.8220  -10.9240   27.4020 C   0  0  0  0  0
    8.6184   -8.7295   18.8475 H   0  0  0  0  0
    9.9271   -9.3271   19.8968 H   0  0  0  0  0
    8.2272   -9.6176   20.3406 H   0  0  0  0  0
    9.1829   -7.8812   21.6671 H   0  0  0  0  0
    6.9520   -5.0657   20.1746 H   0  0  0  0  0
   10.2119   -6.8073   19.0853 H   0  0  0  0  0
   10.9897   -8.3683   21.4694 H   0  0  0  0  0
   13.3968   -6.7349   22.3966 H   0  0  0  0  0
   11.7984   -9.0541   23.6192 H   0  0  0  0  0
   13.3903   -9.2011   22.8350 H   0  0  0  0  0
   13.2293   -8.2962   24.3602 H   0  0  0  0  0
   11.4008   -5.4129   22.9136 H   0  0  0  0  0
   10.6584   -6.8232   23.7078 H   0  0  0  0  0
   12.1235   -6.0821   24.3972 H   0  0  0  0  0
   13.6329   -7.6435   20.1895 H   0  0  0  0  0
   14.5934   -9.0948   18.8744 H   0  0  0  0  0
   13.6108  -10.4285   18.2181 H   0  0  0  0  0
   14.0857  -11.6677   20.3615 H   0  0  0  0  0
   14.8386  -13.5897   19.3945 H   0  0  0  0  0
   16.4952  -14.7514   17.9611 H   0  0  0  0  0
   18.3465  -13.4791   16.9066 H   0  0  0  0  0
   18.5381  -11.0276   17.2771 H   0  0  0  0  0
   16.8805   -9.8637   18.7067 H   0  0  0  0  0
   15.8756   -9.3420   20.9121 H   0  0  0  0  0
   16.4712   -9.2008   23.1536 H   0  0  0  0  0
   17.7900  -10.2955   22.8352 H   0  0  0  0  0
   16.3020  -11.9937   24.3747 H   0  0  0  0  0
   15.6237  -10.5468   24.9781 H   0  0  0  0  0
   18.0166   -9.5730   25.2615 H   0  0  0  0  0
   18.6643  -11.0745   24.7309 H   0  0  0  0  0
   17.3643  -12.3000   26.5410 H   0  0  0  0  0
   16.6704  -10.7959   27.0647 H   0  0  0  0  0
   19.6805  -11.3869   26.9154 H   0  0  0  0  0
   18.9692   -9.8452   27.4522 H   0  0  0  0  0
   18.7144  -11.3246   28.4100 H   0  0  0  0  0
  1  2  1  0  0  0
  2  3  1  0  0  0
  2  8  1  0  0  0
  3  4  2  0  0  0
  3  5  1  0  0  0
  5  6  1  0  0  0
  6  7  2  0  0  0
  6  8  1  0  0  0
  8  9  1  0  0  0
  9 10  2  0  0  0
  9 11  1  0  0  0
 11 12  1  0  0  0
 11 15  1  0  0  0
 12 13  1  0  0  0
 12 14  1  0  0  0
 15 16  1  0  0  0
 16 17  2  0  0  0
 16 18  1  0  0  0
 18 19  1  0  0  0
 19 20  1  0  0  0
 19 26  1  0  0  0
 20 21  4  0  0  0
 20 25  4  0  0  0
 21 22  4  0  0  0
 22 23  4  0  0  0
 23 24  4  0  0  0
 24 25  4  0  0  0
 26 27  1  0  0  0
 27 28  2  0  0  0
 27 29  1  0  0  0
 29 30  1  0  0  0
 30 31  1  0  0  0
 31 32  1  0  0  0
 32 33  1  0  0  0
  1 34  1  0  0  0
  1 35  1  0  0  0
  1 36  1  0  0  0
  2 37  1  0  0  0
  5 38  1  0  0  0
  8 39  1  0  0  0
 11 40  1  0  0  0
 12 41  1  0  0  0
 13 42  1  0  0  0
 13 43  1  0  0  0
 13 44  1  0  0  0
 14 45  1  0  0  0
 14 46  1  0  0  0
 14 47  1  0  0  0
 15 48  1  0  0  0
 18 49  1  0  0  0
 18 50  1  0  0  0
 19 51  1  0  0  0
 21 52  1  0  0  0
 22 53  1  0  0  0
 23 54  1  0  0  0
 24 55  1  0  0  0
 25 56  1  0  0  0
 26 57  1  0  0  0
 29 58  1  0  0  0
 29 59  1  0  0  0
 30 60  1  0  0  0
 30 61  1  0  0  0
 31 62  1  0  0  0
 31 63  1  0  0  0
 32 64  1  0  0  0
 32 65  1  0  0  0
 33 66  1  0  0  0
 33 67  1  0  0  0
 33 68  1  0  0  0
M  END
$$$$
