1gx8_ligand
  -I-interpret- 

 51 51  0  0  0  0  0  0  0  0999 V2000
   12.1920   -2.0580   56.5960 C   0  0  0  0  0
   13.6660   -2.1210   57.0700 C   0  0  0  0  0
   13.8270   -2.4290   58.5320 C   0  0  0  0  0
   13.2170   -1.2960   59.3320 C   0  0  0  0  0
   11.8380   -0.9510   58.8370 C   0  0  0  0  0
   11.2990   -1.3880   57.6630 C   0  0  0  0  0
   10.0610   -0.7270   57.2060 C   0  0  0  0  0
    8.7950   -1.1080   57.1830 C   0  0  0  0  0
    7.5610   -0.5020   56.7350 C   0  0  0  0  0
    6.4290   -1.2150   56.9020 C   0  0  0  0  0
    5.0900   -0.8210   56.5200 C   0  0  0  0  0
    3.9760   -1.5590   56.6580 C   0  0  0  0  0
    2.6270   -1.1300   56.2950 C   0  0  0  0  0
    2.0180   -0.2960   57.1490 C   0  0  0  0  0
    0.6750    0.3290   57.0320 C   0  0  0  0  0
   -0.2350   -0.3640   57.7090 O   0  0  0  0  0
   12.2170   -1.2010   55.3060 C   0  0  0  0  0
   11.7030   -3.4620   56.2220 C   0  0  0  0  0
   11.2360    0.1590   59.6770 C   0  0  0  0  0
    7.5950    0.9030   56.1510 C   0  0  0  0  0
    2.0350   -1.6590   55.0290 C   0  0  0  0  0
   14.1028   -1.1374   56.8974 H   0  0  0  0  0
   14.1492   -2.9255   56.5156 H   0  0  0  0  0
   14.8844   -2.5301   58.7767 H   0  0  0  0  0
   13.3253   -3.3664   58.7722 H   0  0  0  0  0
   13.8522   -0.4167   59.2249 H   0  0  0  0  0
   13.1415   -1.6100   60.3730 H   0  0  0  0  0
   10.2225    0.2749   56.8082 H   0  0  0  0  0
    8.6482   -2.1061   57.5957 H   0  0  0  0  0
    6.5334   -2.1916   57.3748 H   0  0  0  0  0
    4.9743    0.1687   56.0783 H   0  0  0  0  0
    4.0874   -2.5599   57.0749 H   0  0  0  0  0
    2.5816   -0.0430   58.0470 H   0  0  0  0  0
    0.3888    0.3472   55.9804 H   0  0  0  0  0
    0.7223    1.3376   57.4426 H   0  0  0  0  0
   -1.0916    0.0597   57.6174 H   0  0  0  0  0
   12.8935   -1.6557   54.5823 H   0  0  0  0  0
   11.2128   -1.1510   54.8850 H   0  0  0  0  0
   12.5622   -0.1954   55.5460 H   0  0  0  0  0
   10.7027   -3.3950   55.7942 H   0  0  0  0  0
   12.3834   -3.8997   55.4915 H   0  0  0  0  0
   11.6765   -4.0861   57.1153 H   0  0  0  0  0
   11.1964    1.0765   59.0899 H   0  0  0  0  0
   10.2280   -0.1231   59.9810 H   0  0  0  0  0
   11.8525    0.3185   60.5617 H   0  0  0  0  0
    7.1869    0.8850   55.1405 H   0  0  0  0  0
    6.9973    1.5685   56.7738 H   0  0  0  0  0
    8.6251    1.2582   56.1219 H   0  0  0  0  0
    1.1299   -2.2209   55.2597 H   0  0  0  0  0
    1.7894   -0.8271   54.3689 H   0  0  0  0  0
    2.7554   -2.3135   54.5383 H   0  0  0  0  0
  1  2  1  0  0  0
  1  6  1  0  0  0
  1 17  1  0  0  0
  1 18  1  0  0  0
  2  3  1  0  0  0
  3  4  1  0  0  0
  4  5  1  0  0  0
  5  6  2  0  0  0
  5 19  1  0  0  0
  6  7  1  0  0  0
  7  8  2  0  0  0
  8  9  1  0  0  0
  9 10  2  0  0  0
  9 20  1  0  0  0
 10 11  1  0  0  0
 11 12  2  0  0  0
 12 13  1  0  0  0
 13 14  2  0  0  0
 13 21  1  0  0  0
 14 15  1  0  0  0
 15 16  1  0  0  0
  2 22  1  0  0  0
  2 23  1  0  0  0
  3 24  1  0  0  0
  3 25  1  0  0  0
  4 26  1  0  0  0
  4 27  1  0  0  0
  7 28  1  0  0  0
  8 29  1  0  0  0
 10 30  1  0  0  0
 11 31  1  0  0  0
 12 32  1  0  0  0
 14 33  1  0  0  0
 15 34  1  0  0  0
 15 35  1  0  0  0
 16 36  1  0  0  0
 17 37  1  0  0  0
 17 38  1  0  0  0
 17 39  1  0  0  0
 18 40  1  0  0  0
 18 41  1  0  0  0
 18 42  1  0  0  0
 19 43  1  0  0  0
 19 44  1  0  0  0
 19 45  1  0  0  0
 20 46  1  0  0  0
 20 47  1  0  0  0
 20 48  1  0  0  0
 21 49  1  0  0  0
 21 50  1  0  0  0
 21 51  1  0  0  0
M  END
$$$$
