5n1v_ligand
  -I-interpret- 

 63 68  0  0  0  0  0  0  0  0999 V2000
  -70.2850   21.1170   -1.0090 C   0  0  0  0  0
  -69.1030   20.8180   -1.6850 C   0  0  0  0  0
  -69.0720   20.8470   -3.0690 C   0  0  0  0  0
  -70.2850   21.0470    0.4000 N   0  0  0  0  0
  -72.2150   22.5870   -5.2480 C   0  0  0  0  0
  -71.1020   21.8750   -5.9670 C   0  0  0  0  0
  -67.4210   19.2840   -3.8840 C   0  0  0  0  0
  -66.4730   18.9930   -2.7810 C   0  0  0  0  0
  -65.6250   17.9800   -2.7080 C   0  0  0  0  0
  -65.9290   16.5460   -2.4810 C   0  0  0  0  0
  -66.8030   15.4990   -0.5240 C   0  0  0  0  0
  -66.4930   14.9710    0.8670 C   0  0  0  0  0
  -66.7150   16.1770    1.7910 C   0  0  0  0  0
  -67.9850   16.4380   -0.2950 C   0  0  0  0  0
  -69.5780   20.1410    1.1960 C   0  0  0  0  0
  -68.7130   19.5190    3.3350 C   0  0  0  0  0
  -68.7630   20.0590    4.6340 C   0  0  0  0  0
  -69.4860   21.2550    4.5010 C   0  0  0  0  0
  -65.4230   16.8640    2.2020 C   0  0  0  0  0
  -67.7200   19.1260    6.7900 N   0  0  0  0  0
  -68.1730   19.5250    5.8220 C   0  0  0  0  0
  -69.8670   21.5090    3.2270 N   0  0  0  0  0
  -69.3980   20.4140    2.5200 N   0  0  0  0  0
  -69.0240   18.9620    0.7040 C   0  0  0  0  0
  -68.1700   18.3740    2.8830 N   0  0  0  0  0
  -68.2790   18.1320    1.5500 C   0  0  0  0  0
  -67.7300   16.9570    1.0630 N   0  0  0  0  0
  -64.6880   16.0150    3.0790 O   0  0  0  0  0
  -65.6690   16.1400   -1.1210 O   0  0  0  0  0
  -67.9420   20.6240   -3.8170 O   0  0  0  0  0
  -70.2010   21.2550   -3.7990 C   0  0  0  0  0
  -70.1660   21.2870   -5.1900 N   0  0  0  0  0
  -71.0240   21.8550   -7.1940 O   0  0  0  0  0
  -72.6040   21.9560   -3.9140 C   0  0  0  0  0
  -71.3890   21.5440   -3.1170 C   0  0  0  0  0
  -71.4210   21.4890   -1.7250 C   0  0  0  0  0
  -68.2040   20.5616   -1.1245 H   0  0  0  0  0
  -70.8624   21.7302    0.8902 H   0  0  0  0  0
  -73.0932   22.5433   -5.8922 H   0  0  0  0  0
  -71.8655   23.5974   -5.0356 H   0  0  0  0  0
  -68.2584   18.5910   -3.8020 H   0  0  0  0  0
  -66.8857   19.1760   -4.8274 H   0  0  0  0  0
  -67.1554   18.7649   -1.9622 H   0  0  0  0  0
  -65.7926   19.8418   -2.8494 H   0  0  0  0  0
  -65.0845   18.2259   -1.7939 H   0  0  0  0  0
  -65.2435   17.9533   -3.7287 H   0  0  0  0  0
  -65.2896   15.9565   -3.1381 H   0  0  0  0  0
  -66.9882   16.3884   -2.6844 H   0  0  0  0  0
  -67.0465   14.7121   -1.2379 H   0  0  0  0  0
  -65.4780   14.5804    0.9401 H   0  0  0  0  0
  -67.1280   14.1268    1.1356 H   0  0  0  0  0
  -67.0840   15.9399    2.7888 H   0  0  0  0  0
  -68.9490   15.9371   -0.3843 H   0  0  0  0  0
  -68.0531   17.2259   -1.0451 H   0  0  0  0  0
  -69.7172   21.9127    5.3389 H   0  0  0  0  0
  -65.6563   17.7979    2.7133 H   0  0  0  0  0
  -64.8254   17.0722    1.3145 H   0  0  0  0  0
  -69.1705   18.6853   -0.3401 H   0  0  0  0  0
  -63.8728   16.4517    3.3366 H   0  0  0  0  0
  -69.3788   20.8350   -5.6553 H   0  0  0  0  0
  -73.2010   21.0665   -4.1154 H   0  0  0  0  0
  -73.1617   22.6921   -3.3350 H   0  0  0  0  0
  -72.3394   21.7383   -1.1935 H   0  0  0  0  0
  2  1  4  0  0  0
  1  4  1  0  0  0
  1 36  4  0  0  0
  3  2  4  0  0  0
  3 30  1  0  0  0
 31  3  4  0  0  0
  4 15  1  0  0  0
  6  5  1  0  0  0
  5 34  1  0  0  0
 32  6  1  0  0  0
  6 33  2  0  0  0
  7  8  1  0  0  0
 30  7  1  0  0  0
  8  9  1  0  0  0
  9 10  1  0  0  0
 10 29  1  0  0  0
 11 12  1  0  0  0
 11 14  1  0  0  0
 29 11  1  0  0  0
 12 13  1  0  0  0
 13 19  1  0  0  0
 27 13  1  0  0  0
 27 14  1  0  0  0
 15 23  4  0  0  0
 15 24  4  0  0  0
 16 17  4  0  0  0
 23 16  4  0  0  0
 16 25  4  0  0  0
 18 17  4  0  0  0
 17 21  1  0  0  0
 22 18  4  0  0  0
 19 28  1  0  0  0
 21 20  3  0  0  0
 23 22  4  0  0  0
 24 26  4  0  0  0
 26 25  4  0  0  0
 26 27  1  0  0  0
 31 32  1  0  0  0
 31 35  4  0  0  0
 34 35  1  0  0  0
 35 36  4  0  0  0
  2 37  1  0  0  0
  4 38  1  0  0  0
  5 39  1  0  0  0
  5 40  1  0  0  0
  7 41  1  0  0  0
  7 42  1  0  0  0
  8 43  1  0  0  0
  8 44  1  0  0  0
  9 45  1  0  0  0
  9 46  1  0  0  0
 10 47  1  0  0  0
 10 48  1  0  0  0
 11 49  1  0  0  0
 12 50  1  0  0  0
 12 51  1  0  0  0
 13 52  1  0  0  0
 14 53  1  0  0  0
 14 54  1  0  0  0
 18 55  1  0  0  0
 19 56  1  0  0  0
 19 57  1  0  0  0
 24 58  1  0  0  0
 28 59  1  0  0  0
 32 60  1  0  0  0
 34 61  1  0  0  0
 34 62  1  0  0  0
 36 63  1  0  0  0
M  END
$$$$
