3lxg_ligand
  -I-interpret- 

 38 40  0  0  0  0  0  0  0  0999 V2000
   14.4540   15.2040  -11.0020 C   0  0  0  0  0
   14.3880   15.6980   -9.6930 C   0  0  0  0  0
   13.6970   15.8320  -12.0020 N   0  0  0  0  0
   13.6040   16.7480   -9.4040 N   0  0  0  0  0
   12.8950   16.9260  -11.6630 C   0  0  0  0  0
   12.8650   17.3780  -10.3370 C   0  0  0  0  0
   11.3270   19.1390  -10.9570 C   0  0  0  0  0
   12.0860   18.4710  -10.0020 N   0  0  0  0  0
   11.3520   18.6900  -12.2750 C   0  0  0  0  0
   12.1360   17.5940  -12.6190 C   0  0  0  0  0
   13.7320   17.0210   -8.0890 C   0  0  0  0  0
   14.5840   16.1380   -7.5120 N   0  0  0  0  0
   15.0050   15.3150   -8.4930 C   0  0  0  0  0
   15.3100   14.0200  -11.3770 C   0  0  0  0  0
   15.9790   14.1920   -8.2360 C   0  0  0  0  0
   13.0310   18.0920   -7.3100 C   0  0  0  0  0
   11.6980   17.4430   -6.8970 C   0  0  0  0  0
   10.7420   18.3330   -6.0940 C   0  0  0  0  0
   10.5670   20.2170  -10.5740 O   0  0  0  0  0
   10.3430   20.4910   -9.1860 C   0  0  0  0  0
   10.7581   19.1967  -13.0357 H   0  0  0  0  0
   12.1562   17.2528  -13.6540 H   0  0  0  0  0
   16.3531   14.2414  -11.1512 H   0  0  0  0  0
   14.9908   13.1475  -10.8070 H   0  0  0  0  0
   15.2025   13.8186  -12.4428 H   0  0  0  0  0
   15.5131   13.2418   -8.4970 H   0  0  0  0  0
   16.8710   14.3400   -8.8447 H   0  0  0  0  0
   16.2542   14.1857   -7.1813 H   0  0  0  0  0
   12.8839   18.9991   -7.8962 H   0  0  0  0  0
   13.6123   18.4236   -6.4496 H   0  0  0  0  0
   11.9522   16.6031   -6.2505 H   0  0  0  0  0
   11.1793   17.1906   -7.8219 H   0  0  0  0  0
   11.2283   18.6453   -5.1698 H   0  0  0  0  0
   10.4832   19.2117   -6.6847 H   0  0  0  0  0
    9.8373   17.7725   -5.8586 H   0  0  0  0  0
    9.8386   19.6412   -8.7260 H   0  0  0  0  0
   11.2996   20.6588   -8.6911 H   0  0  0  0  0
    9.7209   21.3807   -9.0884 H   0  0  0  0  0
  1  2  4  0  0  0
  1  3  4  0  0  0
  1 14  1  0  0  0
  2  4  4  0  0  0
  2 13  4  0  0  0
  3  5  4  0  0  0
  4  6  4  0  0  0
  4 11  4  0  0  0
  5  6  4  0  0  0
  5 10  4  0  0  0
  6  8  4  0  0  0
  8  7  4  0  0  0
  7  9  4  0  0  0
  7 19  1  0  0  0
  9 10  4  0  0  0
 11 12  4  0  0  0
 11 16  1  0  0  0
 12 13  4  0  0  0
 13 15  1  0  0  0
 16 17  1  0  0  0
 17 18  1  0  0  0
 19 20  1  0  0  0
  9 21  1  0  0  0
 10 22  1  0  0  0
 14 23  1  0  0  0
 14 24  1  0  0  0
 14 25  1  0  0  0
 15 26  1  0  0  0
 15 27  1  0  0  0
 15 28  1  0  0  0
 16 29  1  0  0  0
 16 30  1  0  0  0
 17 31  1  0  0  0
 17 32  1  0  0  0
 18 33  1  0  0  0
 18 34  1  0  0  0
 18 35  1  0  0  0
 20 36  1  0  0  0
 20 37  1  0  0  0
 20 38  1  0  0  0
M  END
$$$$
