6c9v_ligand
  -I-interpret- 

 54 58  0  0  0  0  0  0  0  0999 V2000
    2.9420   -2.4880   11.3390 N   0  0  0  0  0
    4.7270   -2.3290    9.8370 N   0  0  0  0  0
    5.1000   -3.6180   10.0850 C   0  0  0  0  0
    4.4120   -4.3690   10.9880 C   0  0  0  0  0
    3.2710   -3.7510   11.6290 C   0  0  0  0  0
    6.0220   -5.6070   10.1780 C   0  0  0  0  0
    2.7730   -5.8030   13.0320 C   0  0  0  0  0
    2.3230   -5.9680   14.4900 C   0  0  0  0  0
    1.0540   -4.1000   12.7610 C   0  0  0  0  0
   -1.3370   -6.2390   13.9410 C   0  0  0  0  0
   -2.0830   -8.5080   14.2480 C   0  0  0  0  0
    7.0300   -3.9570    8.5530 C   0  0  0  0  0
    3.6560   -1.8130   10.4460 C   0  0  0  0  0
    8.4800   -4.4480    8.6760 C   0  0  0  0  0
    0.6800   -4.2290   14.2370 C   0  0  0  0  0
   -0.1360   -6.5900   14.5450 C   0  0  0  0  0
   -2.3160   -7.1980   13.7820 C   0  0  0  0  0
   -0.8790   -8.8480   14.8580 C   0  0  0  0  0
    8.8450   -4.8970    7.2310 C   0  0  0  0  0
    0.1020   -7.9000   15.0190 C   0  0  0  0  0
    7.5880   -4.6090    6.4190 C   0  0  0  0  0
    7.2570   -5.6740    5.3960 C   0  0  0  0  0
    2.4630   -4.4610   12.5850 N   0  0  0  0  0
    0.9180   -5.5840   14.7090 N   0  0  0  0  0
    5.0010   -5.6150   11.0280 N   0  0  0  0  0
    6.1200   -4.3710    9.6130 N   0  0  0  0  0
    9.3130   -3.4530    9.2130 O   0  0  0  0  0
    9.9480   -4.1530    6.6830 O   0  0  0  0  0
    6.5280   -4.5660    7.3720 O   0  0  0  0  0
    6.1370   -5.2840    4.5970 O   0  0  0  0  0
    6.6760   -6.4530    9.9666 H   0  0  0  0  0
    2.2516   -6.5262   12.4049 H   0  0  0  0  0
    3.8473   -5.9727   12.9601 H   0  0  0  0  0
    2.9439   -5.3154   15.1038 H   0  0  0  0  0
    2.4223   -7.0220   14.7496 H   0  0  0  0  0
    0.8970   -3.0723   12.4333 H   0  0  0  0  0
    0.4295   -4.7671   12.1668 H   0  0  0  0  0
   -1.5037   -5.2183   13.5969 H   0  0  0  0  0
   -2.8573   -9.2659   14.1288 H   0  0  0  0  0
    7.0657   -2.8679    8.5782 H   0  0  0  0  0
    3.3555   -0.7947   10.1994 H   0  0  0  0  0
    8.6101   -5.2741    9.3751 H   0  0  0  0  0
   -0.3780   -3.9947   14.3550 H   0  0  0  0  0
    1.2928   -3.5399   14.8181 H   0  0  0  0  0
   -3.2607   -6.9452   13.3006 H   0  0  0  0  0
   -0.7145   -9.8670   15.2081 H   0  0  0  0  0
    9.1528   -5.9425    7.2156 H   0  0  0  0  0
    1.0454   -8.1531   15.5028 H   0  0  0  0  0
    7.7347   -3.6864    5.8573 H   0  0  0  0  0
    7.0095   -6.5976    5.9192 H   0  0  0  0  0
    8.1198   -5.8147    4.7450 H   0  0  0  0  0
   10.2101   -3.7887    9.2774 H   0  0  0  0  0
   10.1336   -4.4658    5.7946 H   0  0  0  0  0
    5.9463   -5.9736    3.9570 H   0  0  0  0  0
  5  1  4  0  0  0
  1 13  4  0  0  0
  3  2  4  0  0  0
 13  2  4  0  0  0
  4  3  4  0  0  0
  3 26  4  0  0  0
  5  4  4  0  0  0
  4 25  4  0  0  0
 23  5  1  0  0  0
 25  6  4  0  0  0
  6 26  4  0  0  0
  8  7  1  0  0  0
  7 23  1  0  0  0
 24  8  1  0  0  0
 15  9  1  0  0  0
  9 23  1  0  0  0
 16 10  4  0  0  0
 10 17  4  0  0  0
 17 11  4  0  0  0
 11 18  4  0  0  0
 12 14  1  0  0  0
 26 12  1  0  0  0
 12 29  1  0  0  0
 14 19  1  0  0  0
 14 27  1  0  0  0
 24 15  1  0  0  0
 16 20  4  0  0  0
 16 24  1  0  0  0
 18 20  4  0  0  0
 19 21  1  0  0  0
 19 28  1  0  0  0
 21 22  1  0  0  0
 21 29  1  0  0  0
 22 30  1  0  0  0
  6 31  1  0  0  0
  7 32  1  0  0  0
  7 33  1  0  0  0
  8 34  1  0  0  0
  8 35  1  0  0  0
  9 36  1  0  0  0
  9 37  1  0  0  0
 10 38  1  0  0  0
 11 39  1  0  0  0
 12 40  1  0  0  0
 13 41  1  0  0  0
 14 42  1  0  0  0
 15 43  1  0  0  0
 15 44  1  0  0  0
 17 45  1  0  0  0
 18 46  1  0  0  0
 19 47  1  0  0  0
 20 48  1  0  0  0
 21 49  1  0  0  0
 22 50  1  0  0  0
 22 51  1  0  0  0
 27 52  1  0  0  0
 28 53  1  0  0  0
 30 54  1  0  0  0
M  END
$$$$
