5mqy_ligand
  -I-interpret- 

 48 51  0  0  0  0  0  0  0  0999 V2000
   56.6100   45.0620   19.7000 C   0  0  0  0  0
   57.5930   45.7040   20.3800 C   0  0  0  0  0
   59.1080   46.2900   21.8890 C   0  0  0  0  0
   55.3180   47.2520   19.5420 C   0  0  0  0  0
   54.1270   48.0080   19.0560 C   0  0  0  0  0
   53.6690   52.5890   20.0610 C   0  0  0  0  0
   54.3120   53.4200   20.9910 C   0  0  0  0  0
   55.4900   53.9830   20.5170 C   0  0  0  0  0
   56.1180   53.7470   19.3770 C   0  0  0  0  0
   53.8810   47.7710   16.5470 C   0  0  0  0  0
   53.3040   46.4190   16.4720 C   0  0  0  0  0
   55.5010   45.8420   19.3400 C   0  0  0  0  0
   58.8110   45.3310   20.8800 O   0  0  0  0  0
   58.5530   47.4570   21.2930 O   0  0  0  0  0
   57.4380   47.0980   20.5860 C   0  0  0  0  0
   56.2870   47.8350   20.2050 C   0  0  0  0  0
   55.5800   52.8550   18.4980 C   0  0  0  0  0
   54.2670   52.3690   18.8370 C   0  0  0  0  0
   53.5340   51.4730   18.0200 O   0  0  0  0  0
   54.0430   50.9140   16.9130 C   0  0  0  0  0
   55.0180   49.7390   17.4110 C   0  0  0  0  0
   54.3360   48.3810   17.6300 N   0  0  0  0  0
   54.0010   48.3640   15.3800 N   0  0  0  0  0
   53.4050   48.1830   11.8760 N   0  0  0  0  0
   53.7790   48.6100   13.0430 C   0  0  0  0  0
   53.5960   47.8340   14.2120 C   0  0  0  0  0
   53.0430   46.6120   14.0890 N   0  0  0  0  0
   52.9480   45.9840   15.2410 C   0  0  0  0  0
   53.1600   45.6440   17.6050 F   0  0  0  0  0
   56.6779   44.0036   19.4485 H   0  0  0  0  0
   60.1667   46.3706   22.1356 H   0  0  0  0  0
   58.7019   46.0499   22.8716 H   0  0  0  0  0
   53.9947   48.9088   19.6552 H   0  0  0  0  0
   53.2362   47.3863   19.1458 H   0  0  0  0  0
   52.7126   52.1247   20.3015 H   0  0  0  0  0
   53.9233   53.6064   21.9921 H   0  0  0  0  0
   55.9595   54.7172   21.1717 H   0  0  0  0  0
   57.0520   54.2583   19.1440 H   0  0  0  0  0
   54.6820   45.3161   18.8493 H   0  0  0  0  0
   56.2081   48.8907   20.4647 H   0  0  0  0  0
   56.1070   52.5317   17.6003 H   0  0  0  0  0
   54.5851   51.6476   16.3163 H   0  0  0  0  0
   53.2530   50.5233   16.2716 H   0  0  0  0  0
   55.4188   50.0497   18.3759 H   0  0  0  0  0
   55.7632   49.5949   16.6286 H   0  0  0  0  0
   52.9667   47.2665   11.7847 H   0  0  0  0  0
   54.2460   49.5915   13.1248 H   0  0  0  0  0
   52.5265   44.9797   15.1983 H   0  0  0  0  0
  1  2  4  0  0  0
 12  1  4  0  0  0
  2 13  1  0  0  0
 15  2  4  0  0  0
  3 13  1  0  0  0
 14  3  1  0  0  0
  5  4  1  0  0  0
  4 12  4  0  0  0
  4 16  4  0  0  0
 22  5  1  0  0  0
  6  7  4  0  0  0
 18  6  4  0  0  0
  7  8  4  0  0  0
  9  8  4  0  0  0
 17  9  4  0  0  0
 10 11  4  0  0  0
 10 22  1  0  0  0
 23 10  4  0  0  0
 11 28  4  0  0  0
 11 29  1  0  0  0
 15 14  1  0  0  0
 16 15  4  0  0  0
 18 17  4  0  0  0
 19 18  1  0  0  0
 20 19  1  0  0  0
 21 20  1  0  0  0
 22 21  1  0  0  0
 26 23  4  0  0  0
 25 24  2  0  0  0
 25 26  1  0  0  0
 26 27  4  0  0  0
 27 28  4  0  0  0
  1 30  1  0  0  0
  3 31  1  0  0  0
  3 32  1  0  0  0
  5 33  1  0  0  0
  5 34  1  0  0  0
  6 35  1  0  0  0
  7 36  1  0  0  0
  8 37  1  0  0  0
  9 38  1  0  0  0
 12 39  1  0  0  0
 16 40  1  0  0  0
 17 41  1  0  0  0
 20 42  1  0  0  0
 20 43  1  0  0  0
 21 44  1  0  0  0
 21 45  1  0  0  0
 24 46  1  0  0  0
 25 47  1  0  0  0
 28 48  1  0  0  0
M  END
$$$$
