### 
### Created by X-TOOL on Mon Sep 10 21:13:30 2018
### 

@<TRIPOS>MOLECULE
5mqy_ligand
   48    51     1     0     0
SMALL
GAST_HUCK


@<TRIPOS>ATOM
      1 C2         56.6100   45.0620   19.7000 C.ar      1 GH4        -0.0477
      2 C3         57.5930   45.7040   20.3800 C.ar      1 GH4         0.1160
      3 C5         59.1080   46.2900   21.8890 C.3       1 GH4         0.1854
      4 C9         55.3180   47.2520   19.5420 C.ar      1 GH4        -0.0404
      5 C10        54.1270   48.0080   19.0560 C.3       1 GH4         0.0581
      6 C11        53.6690   52.5890   20.0610 C.ar      1 GH4        -0.0331
      7 C12        54.3120   53.4200   20.9910 C.ar      1 GH4        -0.0706
      8 C13        55.4900   53.9830   20.5170 C.ar      1 GH4        -0.0729
      9 C14        56.1180   53.7470   19.3770 C.ar      1 GH4        -0.0706
     10 C21        53.8810   47.7710   16.5470 C.ar      1 GH4         0.1754
     11 C28        53.3040   46.4190   16.4720 C.ar      1 GH4         0.2088
     12 C1         55.5010   45.8420   19.3400 C.ar      1 GH4        -0.0782
     13 O4         58.8110   45.3310   20.8800 O.3       1 GH4        -0.2956
     14 O6         58.5530   47.4570   21.2930 O.3       1 GH4        -0.2927
     15 C7         57.4380   47.0980   20.5860 C.ar      1 GH4         0.1170
     16 C8         56.2870   47.8350   20.2050 C.ar      1 GH4        -0.0378
     17 C15        55.5800   52.8550   18.4980 C.ar      1 GH4        -0.0331
     18 C16        54.2670   52.3690   18.8370 C.ar      1 GH4         0.0912
     19 O17        53.5340   51.4730   18.0200 O.3       1 GH4        -0.3160
     20 C18        54.0430   50.9140   16.9130 C.3       1 GH4         0.0909
     21 C19        55.0180   49.7390   17.4110 C.3       1 GH4         0.0614
     22 N20        54.3360   48.3810   17.6300 N.pl3     1 GH4        -0.2731
     23 N22        54.0010   48.3640   15.3800 N.ar      1 GH4        -0.2382
     24 N23        53.4050   48.1830   11.8760 N.2       1 GH4        -0.3334
     25 C24        53.7790   48.6100   13.0430 C.2       1 GH4         0.0532
     26 C25        53.5960   47.8340   14.2120 C.ar      1 GH4         0.1384
     27 N26        53.0430   46.6120   14.0890 N.ar      1 GH4        -0.2687
     28 C27        52.9480   45.9840   15.2410 C.ar      1 GH4         0.0553
     29 F29        53.1600   45.6440   17.6050 F         1 GH4        -0.1700
     30 H1         56.6775   44.0094   19.4499 H         1 GH4         0.0493
     31 H2         60.1914   46.3902   22.0505 H         1 GH4         0.0970
     32 H3         58.6162   46.0453   22.8420 H         1 GH4         0.0970
     33 H4         53.9969   48.9183   19.6596 H         1 GH4         0.0665
     34 H5         53.2296   47.3781   19.1443 H         1 GH4         0.0665
     35 H6         52.7179   52.1273   20.3002 H         1 GH4         0.0542
     36 H7         53.9254   53.6053   21.9866 H         1 GH4         0.0589
     37 H8         55.9569   54.7131   21.1681 H         1 GH4         0.0523
     38 H9         57.0468   54.2555   19.1453 H         1 GH4         0.0589
     39 H10        54.6865   45.3190   18.8520 H         1 GH4         0.0437
     40 H11        56.2086   48.8849   20.4633 H         1 GH4         0.0451
     41 H12        56.1041   52.5334   17.6053 H         1 GH4         0.0542
     42 H13        54.6089   51.6595   16.3351 H         1 GH4         0.0634
     43 H14        53.2366   50.5013   16.2890 H         1 GH4         0.0634
     44 H15        55.4705   50.0514   18.3637 H         1 GH4         0.0552
     45 H16        55.8071   49.6070   16.6561 H         1 GH4         0.0552
     46 H17        53.5477   48.7570   11.0598 H         1 GH4         0.1364
     47 H18        54.2456   49.5906   13.1247 H         1 GH4         0.1152
     48 H19        52.5288   44.9852   15.1986 H         1 GH4         0.0887
@<TRIPOS>BOND
     1    1    2 ar 
     2   12    1 ar 
     3    2   13 1  
     4   15    2 ar 
     5    3   13 1  
     6   14    3 1  
     7    5    4 1  
     8    4   12 ar 
     9    4   16 ar 
    10   22    5 1  
    11    6    7 ar 
    12   18    6 ar 
    13    7    8 ar 
    14    9    8 ar 
    15   17    9 ar 
    16   10   11 ar 
    17   10   22 1  
    18   23   10 ar 
    19   11   28 ar 
    20   11   29 1  
    21   15   14 1  
    22   16   15 ar 
    23   18   17 ar 
    24   19   18 1  
    25   20   19 1  
    26   21   20 1  
    27   22   21 1  
    28   26   23 ar 
    29   25   24 2  
    30   25   26 1  
    31   26   27 ar 
    32   27   28 ar 
    33    1   30 1  
    34    3   31 1  
    35    3   32 1  
    36    5   33 1  
    37    5   34 1  
    38    6   35 1  
    39    7   36 1  
    40    8   37 1  
    41    9   38 1  
    42   12   39 1  
    43   16   40 1  
    44   17   41 1  
    45   20   42 1  
    46   20   43 1  
    47   21   44 1  
    48   21   45 1  
    49   24   46 1  
    50   25   47 1  
    51   28   48 1  
@<TRIPOS>SUBSTRUCTURE
     1 GH4         1

