### 
### Created by X-TOOL on Mon Sep 10 21:13:16 2018
### 

@<TRIPOS>MOLECULE
4bg6_ligand
  116   115     1     0     0
SMALL
GAST_HUCK


@<TRIPOS>ATOM
      1 N         -23.2230    7.0900   -7.2680 N.4       1 LYS         0.2379
      2 CA        -22.5490    8.1800   -6.5750 C.3       1 LYS         0.0650
      3 C         -21.3530    7.6560   -5.7830 C.2       1 LYS         0.2268
      4 O         -21.2430    6.4550   -5.5330 O.2       1 LYS        -0.3907
      5 CB        -23.5280    8.9150   -5.6550 C.3       1 LYS         0.0080
      6 CG        -22.9740   10.1890   -5.0380 C.3       1 LYS        -0.0410
      7 CD        -24.0830   11.0530   -4.4560 C.3       1 LYS        -0.0123
      8 CE        -25.0120   11.5650   -5.5460 C.3       1 LYS        -0.0354
      9 NZ        -26.0470   12.4950   -5.0120 N.4       1 LYS         0.2185
     10 N         -20.4600    8.5620   -5.3930 N.am      1 ASP        -0.2595
     11 CA        -19.2130    8.1920   -4.7280 C.3       1 ASP         0.1424
     12 C         -19.4210    7.4590   -3.4060 C.2       1 ASP         0.2056
     13 O         -20.4880    7.5340   -2.7970 O.2       1 ASP        -0.3943
     14 CB        -18.3550    9.4370   -4.4900 C.3       1 ASP         0.0406
     15 CG        -17.6280    9.8920   -5.7390 C.2       1 ASP         0.0393
     16 OD1       -18.0750    9.5390   -6.8500 O.co2     1 ASP        -0.5688
     17 OD2       -16.6080   10.6010   -5.6090 O.co2     1 ASP        -0.5688
     18 N         -18.3810    6.7530   -2.9730 N.am      1 LYS        -0.2636
     19 CA        -18.4100    6.0070   -1.7210 C.3       1 LYS         0.1310
     20 C         -18.4590    6.9420   -0.5190 C.2       1 LYS         0.2039
     21 O         -17.7200    7.9250   -0.4510 O.2       1 LYS        -0.3944
     22 CB        -17.1890    5.0890   -1.6230 C.3       1 LYS        -0.0122
     23 CG        -17.1070    4.2860   -0.3350 C.3       1 LYS        -0.0440
     24 CD        -18.2260    3.2640   -0.2470 C.3       1 LYS        -0.0124
     25 CE        -18.0780    2.3870    0.9850 C.3       1 LYS        -0.0354
     26 NZ        -18.1690    3.1730    2.2460 N.4       1 LYS         0.2185
     27 N         -19.3350    6.6280    0.4290 N.am      1 ALA        -0.2640
     28 CA        -19.4890    7.4440    1.6250 C.3       1 ALA         0.1282
     29 C         -18.4790    7.0490    2.6980 C.2       1 ALA         0.2036
     30 O         -18.0320    5.9040    2.7570 O.2       1 ALA        -0.3944
     31 CB        -20.9040    7.3310    2.1630 C.3       1 ALA        -0.0244
     32 N         -18.1300    8.0100    3.5460 N.am      1 LYS        -0.2637
     33 CA        -17.1490    7.7920    4.6000 C.3       1 LYS         0.1310
     34 C         -17.7860    7.0900    5.7960 C.2       1 LYS         0.2040
     35 O         -18.9830    7.2270    6.0420 O.2       1 LYS        -0.3944
     36 CB        -16.5270    9.1250    5.0150 C.3       1 LYS        -0.0122
     37 CG        -16.4780   10.1180    3.8660 C.3       1 LYS        -0.0440
     38 CD        -15.2860   11.0560    3.9440 C.3       1 LYS        -0.0124
     39 CE        -15.4730   12.1210    5.0070 C.3       1 LYS        -0.0354
     40 NZ        -14.6600   13.3300    4.6940 N.4       1 LYS         0.2185
     41 N         -16.9770    6.3380    6.5340 N.am      1 SEP        -0.2613
     42 CA        -17.4900    5.4860    7.6000 C.3       1 SEP         0.1586
     43 CB        -17.8940    4.1280    7.0190 C.3       1 SEP         0.1184
     44 OG        -16.9870    3.7440    5.9970 O.3       1 SEP        -0.2714
     45 C         -16.4620    5.2850    8.7080 C.2       1 SEP         0.2060
     46 O         -15.3280    5.7520    8.6080 O.2       1 SEP        -0.3943
     47 P         -16.9180    2.1450    5.8180 P.3       1 SEP         0.2010
     48 O1P       -17.2550    1.4220    7.2170 O.co2     1 SEP        -0.5537
     49 O2P       -15.4290    1.7410    5.3570 O.co2     1 SEP        -0.5537
     50 O3P       -17.9700    1.6760    4.6930 O.co2     1 SEP        -0.5537
     51 N         -16.8720    4.5930    9.7660 N.am      1 CYS        -0.2686
     52 CA        -15.9680    4.2420   10.8560 C.3       1 CYS         0.1030
     53 C         -15.6220    2.7590   10.8110 C.2       1 CYS         0.0609
     54 O         -15.7360    2.1190    9.7650 O.co2     1 CYS        -0.5666
     55 CB        -16.5830    4.5990   12.2110 C.3       1 CYS         0.0256
     56 SG        -16.0760    6.2220   12.6740 S.3       1 CYS        -0.1742
     57 OXT       -15.2150    2.1660   11.8100 O.co2     1 CYS        -0.5666
     58 H1        -24.0082    7.4547   -7.7843 H         1 LYS         0.2015
     59 H2        -23.5483    6.4140   -6.5948 H         1 LYS         0.2015
     60 H3        -22.5789    6.6472   -7.9045 H         1 LYS         0.2015
     61 H4        -22.1796    8.8927   -7.3271 H         1 LYS         0.1098
     62 H5        -23.8119    8.2332   -4.8398 H         1 LYS         0.0346
     63 H6        -24.4208    9.1770   -6.2417 H         1 LYS         0.0346
     64 H7        -22.4446   10.7614   -5.8139 H         1 LYS         0.0270
     65 H8        -22.2707    9.9214   -4.2357 H         1 LYS         0.0270
     66 H9        -23.6332   11.9115   -3.9357 H         1 LYS         0.0317
     67 H10       -24.6656   10.4546   -3.7402 H         1 LYS         0.0317
     68 H11       -25.5151   10.7065   -6.0149 H         1 LYS         0.0813
     69 H12       -24.4137   12.0964   -6.3007 H         1 LYS         0.0813
     70 H13       -26.6382   12.8084   -5.7659 H         1 LYS         0.1994
     71 H14       -25.5968   13.2896   -4.5855 H         1 LYS         0.1994
     72 H15       -26.6061   12.0160   -4.3235 H         1 LYS         0.1994
     73 H16       -20.6490    9.5295   -5.5609 H         1 ASP         0.1886
     74 H17       -18.6652    7.5169   -5.4019 H         1 ASP         0.0819
     75 H18       -17.6108    9.2085   -3.7129 H         1 ASP         0.0478
     76 H19       -19.0067   10.2532   -4.1449 H         1 ASP         0.0478
     77 H20       -17.5484    6.7330   -3.5265 H         1 LYS         0.1883
     78 H21       -19.3168    5.3844   -1.7115 H         1 LYS         0.0800
     79 H22       -16.2846    5.7106   -1.6987 H         1 LYS         0.0312
     80 H23       -17.2207    4.3836   -2.4664 H         1 LYS         0.0312
     81 H24       -17.1820    4.9733    0.5206 H         1 LYS         0.0269
     82 H25       -16.1404    3.7621   -0.3008 H         1 LYS         0.0269
     83 H26       -18.2018    2.6281   -1.1443 H         1 LYS         0.0317
     84 H27       -19.1899    3.7916   -0.1973 H         1 LYS         0.0317
     85 H28       -17.0990    1.8867    0.9488 H         1 LYS         0.0813
     86 H29       -18.8767    1.6307    0.9801 H         1 LYS         0.0813
     87 H30       -18.0661    2.5547    3.0354 H         1 LYS         0.1994
     88 H31       -19.0658    3.6309    2.2926 H         1 LYS         0.1994
     89 H32       -17.4368    3.8655    2.2639 H         1 LYS         0.1994
     90 H33       -19.9021    5.8118    0.3186 H         1 ALA         0.1883
     91 H34       -19.3055    8.4933    1.3507 H         1 ALA         0.0797
     92 H35       -21.0039    7.9523    3.0652 H         1 ALA         0.0277
     93 H36       -21.1178    6.2818    2.4149 H         1 ALA         0.0277
     94 H37       -21.6156    7.6770    1.3989 H         1 ALA         0.0277
     95 H38       -18.5541    8.9113    3.4579 H         1 LYS         0.1883
     96 H39       -16.3520    7.1447    4.2054 H         1 LYS         0.0800
     97 H40       -15.5018    8.9425    5.3693 H         1 LYS         0.0312
     98 H41       -17.1256    9.5565    5.8308 H         1 LYS         0.0312
     99 H42       -17.3990   10.7192    3.8825 H         1 LYS         0.0269
    100 H43       -16.4224    9.5582    2.9208 H         1 LYS         0.0269
    101 H44       -15.1552   11.5467    2.9683 H         1 LYS         0.0317
    102 H45       -14.3868   10.4692    4.1829 H         1 LYS         0.0317
    103 H46       -15.1588   11.7175    5.9809 H         1 LYS         0.0813
    104 H47       -16.5353   12.4027    5.0522 H         1 LYS         0.0813
    105 H48       -14.7992   14.0236    5.4121 H         1 LYS         0.1994
    106 H49       -14.9461   13.7061    3.8037 H         1 LYS         0.1994
    107 H50       -13.6848   13.0782    4.6546 H         1 LYS         0.1994
    108 H51       -15.9935    6.3567    6.3542 H         1 SEP         0.1884
    109 H52       -18.3792    5.9670    8.0334 H         1 SEP         0.0827
    110 H53       -18.9075    4.1999    6.5974 H         1 SEP         0.0662
    111 H54       -17.8820    3.3724    7.8184 H         1 SEP         0.0662
    112 H55       -17.8281    4.3044    9.8164 H         1 CYS         0.1876
    113 H56       -15.0397    4.8193   10.7337 H         1 CYS         0.0734
    114 H57       -16.2438    3.8782   12.9695 H         1 CYS         0.0415
    115 H58       -17.6799    4.5643   12.1368 H         1 CYS         0.0415
    116 H59       -16.4810    6.4574   13.5665 H         1 CYS         0.1018
@<TRIPOS>BOND
     1    1    2 1  
     2    2    3 1  
     3    2    5 1  
     4    3    4 2  
     5    3   10 am 
     6    5    6 1  
     7    6    7 1  
     8    7    8 1  
     9    8    9 1  
    10   10   11 1  
    11   11   12 1  
    12   11   14 1  
    13   12   13 2  
    14   12   18 am 
    15   14   15 1  
    16   15   16 ar 
    17   15   17 ar 
    18   18   19 1  
    19   19   20 1  
    20   19   22 1  
    21   20   21 2  
    22   20   27 am 
    23   22   23 1  
    24   23   24 1  
    25   24   25 1  
    26   25   26 1  
    27   27   28 1  
    28   28   29 1  
    29   28   31 1  
    30   29   30 2  
    31   29   32 am 
    32   32   33 1  
    33   33   34 1  
    34   33   36 1  
    35   34   35 2  
    36   34   41 am 
    37   36   37 1  
    38   37   38 1  
    39   38   39 1  
    40   39   40 1  
    41   41   42 1  
    42   42   43 1  
    43   42   45 1  
    44   43   44 1  
    45   44   47 1  
    46   45   46 2  
    47   45   51 am 
    48   47   48 ar 
    49   47   49 ar 
    50   47   50 ar 
    51   51   52 1  
    52   52   53 1  
    53   52   55 1  
    54   53   54 ar 
    55   53   57 ar 
    56   55   56 1  
    57    1   58 1  
    58    1   59 1  
    59    1   60 1  
    60    2   61 1  
    61    5   62 1  
    62    5   63 1  
    63    6   64 1  
    64    6   65 1  
    65    7   66 1  
    66    7   67 1  
    67    8   68 1  
    68    8   69 1  
    69    9   70 1  
    70    9   71 1  
    71    9   72 1  
    72   10   73 1  
    73   11   74 1  
    74   14   75 1  
    75   14   76 1  
    76   18   77 1  
    77   19   78 1  
    78   22   79 1  
    79   22   80 1  
    80   23   81 1  
    81   23   82 1  
    82   24   83 1  
    83   24   84 1  
    84   25   85 1  
    85   25   86 1  
    86   26   87 1  
    87   26   88 1  
    88   26   89 1  
    89   27   90 1  
    90   28   91 1  
    91   31   92 1  
    92   31   93 1  
    93   31   94 1  
    94   32   95 1  
    95   33   96 1  
    96   36   97 1  
    97   36   98 1  
    98   37   99 1  
    99   37  100 1  
   100   38  101 1  
   101   38  102 1  
   102   39  103 1  
   103   39  104 1  
   104   40  105 1  
   105   40  106 1  
   106   40  107 1  
   107   41  108 1  
   108   42  109 1  
   109   43  110 1  
   110   43  111 1  
   111   51  112 1  
   112   52  113 1  
   113   55  114 1  
   114   55  115 1  
   115   56  116 1  
@<TRIPOS>SUBSTRUCTURE
     1 LYS         1

