4bg6_ligand
  -I-interpret- 

120119  0  0  0  0  0  0  0  0999 V2000
  -23.2230    7.0900   -7.2680 N   0  3  0  0  0
  -22.5490    8.1800   -6.5750 C   0  0  0  0  0
  -21.3530    7.6560   -5.7830 C   0  0  0  0  0
  -21.2430    6.4550   -5.5330 O   0  0  0  0  0
  -23.5280    8.9150   -5.6550 C   0  0  0  0  0
  -22.9740   10.1890   -5.0380 C   0  0  0  0  0
  -24.0830   11.0530   -4.4560 C   0  0  0  0  0
  -25.0120   11.5650   -5.5460 C   0  0  0  0  0
  -26.0470   12.4950   -5.0120 N   0  3  0  0  0
  -20.4600    8.5620   -5.3930 N   0  0  0  0  0
  -19.2130    8.1920   -4.7280 C   0  0  0  0  0
  -19.4210    7.4590   -3.4060 C   0  0  0  0  0
  -20.4880    7.5340   -2.7970 O   0  0  0  0  0
  -18.3550    9.4370   -4.4900 C   0  0  0  0  0
  -17.6280    9.8920   -5.7390 C   0  0  0  0  0
  -18.0750    9.5390   -6.8500 O   0  0  0  0  0
  -16.6080   10.6010   -5.6090 O   0  0  0  0  0
  -18.3810    6.7530   -2.9730 N   0  0  0  0  0
  -18.4100    6.0070   -1.7210 C   0  0  0  0  0
  -18.4590    6.9420   -0.5190 C   0  0  0  0  0
  -17.7200    7.9250   -0.4510 O   0  0  0  0  0
  -17.1890    5.0890   -1.6230 C   0  0  0  0  0
  -17.1070    4.2860   -0.3350 C   0  0  0  0  0
  -18.2260    3.2640   -0.2470 C   0  0  0  0  0
  -18.0780    2.3870    0.9850 C   0  0  0  0  0
  -18.1690    3.1730    2.2460 N   0  3  0  0  0
  -19.3350    6.6280    0.4290 N   0  0  0  0  0
  -19.4890    7.4440    1.6250 C   0  0  0  0  0
  -18.4790    7.0490    2.6980 C   0  0  0  0  0
  -18.0320    5.9040    2.7570 O   0  0  0  0  0
  -20.9040    7.3310    2.1630 C   0  0  0  0  0
  -18.1300    8.0100    3.5460 N   0  0  0  0  0
  -17.1490    7.7920    4.6000 C   0  0  0  0  0
  -17.7860    7.0900    5.7960 C   0  0  0  0  0
  -18.9830    7.2270    6.0420 O   0  0  0  0  0
  -16.5270    9.1250    5.0150 C   0  0  0  0  0
  -16.4780   10.1180    3.8660 C   0  0  0  0  0
  -15.2860   11.0560    3.9440 C   0  0  0  0  0
  -15.4730   12.1210    5.0070 C   0  0  0  0  0
  -14.6600   13.3300    4.6940 N   0  3  0  0  0
  -16.9770    6.3380    6.5340 N   0  0  0  0  0
  -17.4900    5.4860    7.6000 C   0  0  0  0  0
  -17.8940    4.1280    7.0190 C   0  0  0  0  0
  -16.9870    3.7440    5.9970 O   0  0  0  0  0
  -16.4620    5.2850    8.7080 C   0  0  0  0  0
  -15.3280    5.7520    8.6080 O   0  0  0  0  0
  -16.9180    2.1450    5.8180 P   0  0  0  0  0
  -17.2550    1.4220    7.2170 O   0  0  0  0  0
  -15.4290    1.7410    5.3570 O   0  0  0  0  0
  -17.9700    1.6760    4.6930 O   0  0  0  0  0
  -16.8720    4.5930    9.7660 N   0  0  0  0  0
  -15.9680    4.2420   10.8560 C   0  0  0  0  0
  -15.6220    2.7590   10.8110 C   0  0  0  0  0
  -15.7360    2.1190    9.7650 O   0  0  0  0  0
  -16.5830    4.5990   12.2110 C   0  0  0  0  0
  -16.0760    6.2220   12.6740 S   0  0  0  0  0
  -15.2150    2.1660   11.8100 O   0  0  0  0  0
  -22.5576    6.6119   -7.8755 H   0  0  0  0  0
  -23.5942    6.4313   -6.5833 H   0  0  0  0  0
  -23.9875    7.4663   -7.8287 H   0  0  0  0  0
  -22.1806    8.8864   -7.3189 H   0  0  0  0  0
  -23.7645    8.2385   -4.8337 H   0  0  0  0  0
  -24.3856    9.2012   -6.2638 H   0  0  0  0  0
  -22.4653   10.7575   -5.8166 H   0  0  0  0  0
  -22.2910    9.9151   -4.2339 H   0  0  0  0  0
  -23.6303   11.9086   -3.9549 H   0  0  0  0  0
  -24.6644   10.4494   -3.7590 H   0  0  0  0  0
  -25.5211   10.7085   -5.9879 H   0  0  0  0  0
  -24.4118   12.1083   -6.2758 H   0  0  0  0  0
  -26.6445   12.8115   -5.7757 H   0  0  0  0  0
  -26.6120   12.0092   -4.3155 H   0  0  0  0  0
  -25.5903   13.2986   -4.5807 H   0  0  0  0  0
  -20.6527    9.5489   -5.5642 H   0  0  0  0  0
  -18.7051    7.4985   -5.3983 H   0  0  0  0  0
  -17.6061    9.1891   -3.7378 H   0  0  0  0  0
  -19.0159   10.2441   -4.1741 H   0  0  0  0  0
  -16.4421   10.7529   -4.6757 H   0  0  0  0  0
  -17.5317    6.7326   -3.5375 H   0  0  0  0  0
  -19.3158    5.4007   -1.7141 H   0  0  0  0  0
  -16.3060    5.7272   -1.6582 H   0  0  0  0  0
  -17.2613    4.3730   -2.4416 H   0  0  0  0  0
  -17.1980    4.9722    0.5070 H   0  0  0  0  0
  -16.1537    3.7578   -0.3166 H   0  0  0  0  0
  -18.1857    2.6287   -1.1318 H   0  0  0  0  0
  -19.1760    3.7946   -0.1828 H   0  0  0  0  0
  -17.0968    1.9136    0.9495 H   0  0  0  0  0
  -18.8864    1.6558    0.9810 H   0  0  0  0  0
  -18.0647    2.5464    3.0441 H   0  0  0  0  0
  -17.4277    3.8734    2.2629 H   0  0  0  0  0
  -19.0768    3.6359    2.2920 H   0  0  0  0  0
  -19.9135    5.7955    0.3164 H   0  0  0  0  0
  -19.2983    8.4815    1.3507 H   0  0  0  0  0
  -21.6081    7.6741    1.4049 H   0  0  0  0  0
  -21.1146    6.2910    2.4121 H   0  0  0  0  0
  -21.0018    7.9471    3.0569 H   0  0  0  0  0
  -18.5626    8.9293    3.4561 H   0  0  0  0  0
  -16.3602    7.1441    4.2178 H   0  0  0  0  0
  -15.5050    8.9349    5.3427 H   0  0  0  0  0
  -17.1406    9.5534    5.8075 H   0  0  0  0  0
  -17.3822   10.7249    3.9124 H   0  0  0  0  0
  -16.3941    9.5502    2.9393 H   0  0  0  0  0
  -15.1774   11.5515    2.9792 H   0  0  0  0  0
  -14.4047   10.4681    4.2006 H   0  0  0  0  0
  -15.1500   11.7193    5.9674 H   0  0  0  0  0
  -16.5251   12.4039    5.0397 H   0  0  0  0  0
  -14.8016   14.0311    5.4212 H   0  0  0  0  0
  -13.6735   13.0739    4.6544 H   0  0  0  0  0
  -14.9504   13.7096    3.7929 H   0  0  0  0  0
  -15.9738    6.3571    6.3506 H   0  0  0  0  0
  -18.3577    5.9803    8.0370 H   0  0  0  0  0
  -18.8962    4.2038    6.5972 H   0  0  0  0  0
  -17.8759    3.3805    7.8121 H   0  0  0  0  0
  -16.6243    1.7060    7.8827 H   0  0  0  0  0
  -14.8009    2.0202    6.0272 H   0  0  0  0  0
  -17.8473    4.2987    9.8174 H   0  0  0  0  0
  -15.0514    4.8184   10.7304 H   0  0  0  0  0
  -16.0600    2.6976    9.0709 H   0  0  0  0  0
  -16.2477    3.8844   12.9627 H   0  0  0  0  0
  -17.6700    4.5640   12.1381 H   0  0  0  0  0
  -16.6103    6.5326   13.8517 H   0  0  0  0  0
  1  2  1  0  0  0
  2  3  1  0  0  0
  2  5  1  0  0  0
  3  4  2  0  0  0
  3 10  1  0  0  0
  5  6  1  0  0  0
  6  7  1  0  0  0
  7  8  1  0  0  0
  8  9  1  0  0  0
 10 11  1  0  0  0
 11 12  1  0  0  0
 11 14  1  0  0  0
 12 13  2  0  0  0
 12 18  1  0  0  0
 14 15  1  0  0  0
 15 16  2  0  0  0
 15 17  1  0  0  0
 18 19  1  0  0  0
 19 20  1  0  0  0
 19 22  1  0  0  0
 20 21  2  0  0  0
 20 27  1  0  0  0
 22 23  1  0  0  0
 23 24  1  0  0  0
 24 25  1  0  0  0
 25 26  1  0  0  0
 27 28  1  0  0  0
 28 29  1  0  0  0
 28 31  1  0  0  0
 29 30  2  0  0  0
 29 32  1  0  0  0
 32 33  1  0  0  0
 33 34  1  0  0  0
 33 36  1  0  0  0
 34 35  2  0  0  0
 34 41  1  0  0  0
 36 37  1  0  0  0
 37 38  1  0  0  0
 38 39  1  0  0  0
 39 40  1  0  0  0
 41 42  1  0  0  0
 42 43  1  0  0  0
 42 45  1  0  0  0
 43 44  1  0  0  0
 44 47  1  0  0  0
 45 46  2  0  0  0
 45 51  1  0  0  0
 47 48  1  0  0  0
 47 49  1  0  0  0
 47 50  2  0  0  0
 51 52  1  0  0  0
 52 53  1  0  0  0
 52 55  1  0  0  0
 53 54  1  0  0  0
 53 57  2  0  0  0
 55 56  1  0  0  0
  1 58  1  0  0  0
  1 59  1  0  0  0
  1 60  1  0  0  0
  2 61  1  0  0  0
  5 62  1  0  0  0
  5 63  1  0  0  0
  6 64  1  0  0  0
  6 65  1  0  0  0
  7 66  1  0  0  0
  7 67  1  0  0  0
  8 68  1  0  0  0
  8 69  1  0  0  0
  9 70  1  0  0  0
  9 71  1  0  0  0
  9 72  1  0  0  0
 10 73  1  0  0  0
 11 74  1  0  0  0
 14 75  1  0  0  0
 14 76  1  0  0  0
 17 77  1  0  0  0
 18 78  1  0  0  0
 19 79  1  0  0  0
 22 80  1  0  0  0
 22 81  1  0  0  0
 23 82  1  0  0  0
 23 83  1  0  0  0
 24 84  1  0  0  0
 24 85  1  0  0  0
 25 86  1  0  0  0
 25 87  1  0  0  0
 26 88  1  0  0  0
 26 89  1  0  0  0
 26 90  1  0  0  0
 27 91  1  0  0  0
 28 92  1  0  0  0
 31 93  1  0  0  0
 31 94  1  0  0  0
 31 95  1  0  0  0
 32 96  1  0  0  0
 33 97  1  0  0  0
 36 98  1  0  0  0
 36 99  1  0  0  0
 37100  1  0  0  0
 37101  1  0  0  0
 38102  1  0  0  0
 38103  1  0  0  0
 39104  1  0  0  0
 39105  1  0  0  0
 40106  1  0  0  0
 40107  1  0  0  0
 40108  1  0  0  0
 41109  1  0  0  0
 42110  1  0  0  0
 43111  1  0  0  0
 43112  1  0  0  0
 48113  1  0  0  0
 49114  1  0  0  0
 51115  1  0  0  0
 52116  1  0  0  0
 54117  1  0  0  0
 55118  1  0  0  0
 55119  1  0  0  0
 56120  1  0  0  0
M  END
$$$$
