4uvb_ligand
  -I-interpret- 

113120  0  0  0  0  0  0  0  0999 V2000
   -6.4190   66.1290   90.4290 P   0  0  0  0  0
   -8.3790   58.4280   85.5300 N   0  0  0  0  0
   -9.4080   57.5650   85.7180 C   0  0  0  0  0
   -9.7650   57.2560   86.8770 O   0  0  0  0  0
  -10.0220   57.0020   84.6710 N   0  0  0  0  0
   -9.6720   57.2890   83.4100 C   0  0  0  0  0
  -10.3190   56.7230   82.5070 O   0  0  0  0  0
   -8.2050   58.5390   81.7770 N   0  0  0  0  0
   -7.5050   60.3590   80.4030 C   0  0  0  0  0
   -6.8730   61.5810   80.2300 C   0  0  0  0  0
   -6.2400   62.2480   81.4050 C   0  0  0  0  0
   -6.2890   61.6320   82.6540 C   0  0  0  0  0
   -6.6650   68.1190   88.3910 P   0  0  0  0  0
   -6.3620   60.4150   85.2810 C   0  0  0  0  0
   -7.9940   58.7920   84.2720 C   0  0  0  0  0
   -6.9680   59.7510   84.1030 N   0  0  0  0  0
   -4.1040   78.4440   89.9910 N   0  0  0  0  0
   -8.0040   67.4840   88.0790 O   0  0  0  0  0
   -6.0520   73.8600   88.4930 C   0  0  0  0  0
   -5.2240   65.5610   91.1550 O   0  0  0  0  0
   -7.2820   61.3860   86.0460 C   0  0  0  0  0
   -8.0180   62.2070   85.1340 O   0  0  0  0  0
   -5.2970   77.8720   90.2630 C   0  0  0  0  0
   -5.7570   68.5800   87.2730 O   0  0  0  0  0
   -6.3600   73.0720   87.2360 C   0  0  0  0  0
   -7.1240   73.8380   86.3030 O   0  0  0  0  0
   -7.5220   66.8040   91.2030 O   0  0  0  0  0
   -6.4810   62.2820   86.9950 C   0  0  0  0  0
   -5.6390   61.4530   87.7980 O   0  0  0  0  0
   -5.6510   76.6650   89.7860 N   0  0  0  0  0
   -7.1440   71.8940   87.7880 C   0  0  0  0  0
   -8.5410   72.1880   87.7970 O   0  0  0  0  0
   -5.8020   67.1420   89.3350 O   0  0  0  0  0
   -7.3110   63.1570   87.9450 C   0  0  0  0  0
   -8.5210   63.6330   87.3330 O   0  0  0  0  0
   -4.8080   75.9460   88.9940 C   0  0  0  0  0
   -6.6970   71.7540   89.2320 C   0  0  0  0  0
   -5.8290   72.8590   89.4880 O   0  0  0  0  0
   -8.3170   57.8710   83.1300 C   0  0  0  0  0
   -6.4820   64.3450   88.4350 C   0  0  0  0  0
   -7.1160   64.9570   89.5630 O   0  0  0  0  0
   -3.4920   76.5070   88.6480 C   0  0  0  0  0
   -5.9790   70.4370   89.4890 C   0  0  0  0  0
   -6.9220   69.3660   89.3820 O   0  0  0  0  0
   -7.5590   59.7340   81.6490 C   0  0  0  0  0
   -3.1720   77.8430   89.2150 C   0  0  0  0  0
   -1.9880   78.4480   88.9640 N   0  0  0  0  0
   -2.8760   75.5970   87.8630 N   0  0  0  0  0
   -6.8470   62.2010   78.8550 C   0  0  0  0  0
   -3.7250   74.5450   87.7180 C   0  0  0  0  0
   -5.5450   63.5780   81.2610 C   0  0  0  0  0
   -6.9210   60.3960   82.8310 C   0  0  0  0  0
   -4.8750   74.7580   88.3900 N   0  0  0  0  0
   -6.7250   57.6230   79.9730 N   0  3  0  0  0
   -3.9280   54.6540   84.3800 C   0  0  0  0  0
   -5.0550   54.7750   85.1960 C   0  0  0  0  0
   -3.9360   55.2200   83.1040 C   0  0  0  0  0
   -6.1810   55.4630   84.7360 C   0  0  0  0  0
   -5.0580   55.9090   82.6420 C   0  0  0  0  0
   -7.6940   56.2650   81.6100 C   0  0  0  0  0
   -7.3140   56.7140   83.0190 C   0  0  0  0  0
   -9.0720   57.2770   79.8090 C   0  0  0  0  0
   -7.8970   57.5250   80.7740 C   0  0  0  0  0
   -6.1850   56.0290   83.4590 C   0  0  0  0  0
   -7.8870   58.8095   86.3380 H   0  0  0  0  0
  -10.7768   56.3364   84.8373 H   0  0  0  0  0
   -7.9709   59.8750   79.5446 H   0  0  0  0  0
   -5.8259   62.1226   83.5101 H   0  0  0  0  0
   -5.5287   61.0093   84.9061 H   0  0  0  0  0
   -6.0987   59.6222   85.9812 H   0  0  0  0  0
   -8.8030   59.5072   84.1234 H   0  0  0  0  0
   -8.4463   67.2531   88.8992 H   0  0  0  0  0
   -6.8749   74.5390   88.7166 H   0  0  0  0  0
   -4.6208   65.1697   90.5189 H   0  0  0  0  0
   -7.9739   60.7821   86.6332 H   0  0  0  0  0
   -8.5844   62.8041   85.6283 H   0  0  0  0  0
   -6.0024   78.4109   90.8955 H   0  0  0  0  0
   -5.4745   72.7788   86.6720 H   0  0  0  0  0
   -7.2989   73.3074   85.5223 H   0  0  0  0  0
   -5.9343   62.9683   86.3483 H   0  0  0  0  0
   -5.1301   62.0023   88.3987 H   0  0  0  0  0
   -6.9749   70.9986   87.1898 H   0  0  0  0  0
   -9.0230   71.4355   88.1479 H   0  0  0  0  0
   -7.5920   62.5289   88.7903 H   0  0  0  0  0
   -9.0052   64.1733   87.9617 H   0  0  0  0  0
   -7.5614   71.7535   89.8960 H   0  0  0  0  0
   -6.3975   65.0771   87.6319 H   0  0  0  0  0
   -5.4928   63.9936   88.7284 H   0  0  0  0  0
   -5.5419   70.4445   90.4875 H   0  0  0  0  0
   -5.1836   70.3020   88.7561 H   0  0  0  0  0
   -1.7903   79.3665   89.3611 H   0  0  0  0  0
   -1.2931   77.9855   88.3777 H   0  0  0  0  0
   -6.3385   61.5285   78.1641 H   0  0  0  0  0
   -7.8686   62.3694   78.5144 H   0  0  0  0  0
   -6.3151   63.1515   78.8964 H   0  0  0  0  0
   -3.5057   73.6495   87.1366 H   0  0  0  0  0
   -4.7243   63.4825   80.5501 H   0  0  0  0  0
   -6.2561   64.3208   80.8994 H   0  0  0  0  0
   -5.1539   63.8889   82.2298 H   0  0  0  0  0
   -6.6829   56.8279   79.3355 H   0  0  0  0  0
   -6.7531   58.4898   79.4360 H   0  0  0  0  0
   -5.9018   57.6214   80.5753 H   0  0  0  0  0
   -3.0472   54.1206   84.7375 H   0  0  0  0  0
   -5.0563   54.3326   86.1922 H   0  0  0  0  0
   -3.0592   55.1230   82.4637 H   0  0  0  0  0
   -7.0586   55.5582   85.3755 H   0  0  0  0  0
   -5.0552   56.3525   81.6463 H   0  0  0  0  0
   -8.6052   55.6671   81.6304 H   0  0  0  0  0
   -6.9091   55.6422   81.1810 H   0  0  0  0  0
   -7.1312   56.7794   84.0916 H   0  0  0  0  0
   -9.9400   56.9387   80.3749 H   0  0  0  0  0
   -9.3146   58.2034   79.2883 H   0  0  0  0  0
   -8.7898   56.5141   79.0834 H   0  0  0  0  0
  1 20  1  0  0  0
  1 27  2  0  0  0
  1 33  1  0  0  0
 41  1  1  0  0  0
  2  3  1  0  0  0
 15  2  1  0  0  0
  3  4  2  0  0  0
  5  3  1  0  0  0
  6  5  1  0  0  0
  6  7  2  0  0  0
 39  6  1  0  0  0
 39  8  1  0  0  0
  8 45  1  0  0  0
 63  8  1  0  0  0
  9 10  4  0  0  0
 45  9  4  0  0  0
 10 11  4  0  0  0
 10 49  1  0  0  0
 12 11  4  0  0  0
 11 51  1  0  0  0
 52 12  4  0  0  0
 13 18  1  0  0  0
 13 24  2  0  0  0
 33 13  1  0  0  0
 13 44  1  0  0  0
 16 14  1  0  0  0
 14 21  1  0  0  0
 15 16  1  0  0  0
 39 15  1  0  0  0
 16 52  1  0  0  0
 23 17  4  0  0  0
 46 17  4  0  0  0
 19 25  1  0  0  0
 38 19  1  0  0  0
 19 53  1  0  0  0
 21 22  1  0  0  0
 21 28  1  0  0  0
 30 23  4  0  0  0
 25 26  1  0  0  0
 31 25  1  0  0  0
 28 29  1  0  0  0
 28 34  1  0  0  0
 36 30  4  0  0  0
 31 32  1  0  0  0
 37 31  1  0  0  0
 34 35  1  0  0  0
 34 40  1  0  0  0
 36 42  4  0  0  0
 53 36  4  0  0  0
 37 38  1  0  0  0
 43 37  1  0  0  0
 61 39  1  0  0  0
 40 41  1  0  0  0
 42 46  4  0  0  0
 48 42  4  0  0  0
 44 43  1  0  0  0
 45 52  4  0  0  0
 46 47  1  0  0  0
 50 48  4  0  0  0
 53 50  4  0  0  0
 63 54  1  0  0  0
 56 55  4  0  0  0
 57 55  4  0  0  0
 58 56  4  0  0  0
 59 57  4  0  0  0
 64 58  4  0  0  0
 64 59  4  0  0  0
 61 60  1  0  0  0
 60 63  1  0  0  0
 61 64  1  0  0  0
 63 62  1  0  0  0
  2 65  1  0  0  0
  5 66  1  0  0  0
  9 67  1  0  0  0
 12 68  1  0  0  0
 14 69  1  0  0  0
 14 70  1  0  0  0
 15 71  1  0  0  0
 18 72  1  0  0  0
 19 73  1  0  0  0
 20 74  1  0  0  0
 21 75  1  0  0  0
 22 76  1  0  0  0
 23 77  1  0  0  0
 25 78  1  0  0  0
 26 79  1  0  0  0
 28 80  1  0  0  0
 29 81  1  0  0  0
 31 82  1  0  0  0
 32 83  1  0  0  0
 34 84  1  0  0  0
 35 85  1  0  0  0
 37 86  1  0  0  0
 40 87  1  0  0  0
 40 88  1  0  0  0
 43 89  1  0  0  0
 43 90  1  0  0  0
 47 91  1  0  0  0
 47 92  1  0  0  0
 49 93  1  0  0  0
 49 94  1  0  0  0
 49 95  1  0  0  0
 50 96  1  0  0  0
 51 97  1  0  0  0
 51 98  1  0  0  0
 51 99  1  0  0  0
 54100  1  0  0  0
 54101  1  0  0  0
 54102  1  0  0  0
 55103  1  0  0  0
 56104  1  0  0  0
 57105  1  0  0  0
 58106  1  0  0  0
 59107  1  0  0  0
 60108  1  0  0  0
 60109  1  0  0  0
 61110  1  0  0  0
 62111  1  0  0  0
 62112  1  0  0  0
 62113  1  0  0  0
M  END
$$$$
