### 
### Created by X-TOOL on Mon Sep 10 21:13:20 2018
### 

@<TRIPOS>MOLECULE
4uvb_ligand
  111   118     1     0     0
SMALL
GAST_HUCK


@<TRIPOS>ATOM
      1 P          -6.4190   66.1290   90.4290 P.3       1 D51         0.2972
      2 N1         -8.3790   58.4280   85.5300 N.am      1 D51        -0.2442
      3 C2         -9.4080   57.5650   85.7180 C.2       1 D51         0.2897
      4 O2         -9.7650   57.2560   86.8770 O.2       1 D51        -0.3910
      5 N3        -10.0220   57.0020   84.6710 N.am      1 D51        -0.1823
      6 C4         -9.6720   57.2890   83.4100 C.2       1 D51         0.2585
      7 O4        -10.3190   56.7230   82.5070 O.2       1 D51        -0.3310
      8 N5         -8.2050   58.5390   81.7770 N.pl3     1 D51        -0.2598
      9 C6         -7.5050   60.3590   80.4030 C.ar      1 D51        -0.0599
     10 C7         -6.8730   61.5810   80.2300 C.ar      1 D51        -0.0686
     11 C8         -6.2400   62.2480   81.4050 C.ar      1 D51        -0.0686
     12 C9         -6.2890   61.6320   82.6540 C.ar      1 D51        -0.0599
     13 PA         -6.6650   68.1190   88.3910 P.3       1 D51         0.2972
     14 C1'        -6.3620   60.4150   85.2810 C.3       1 D51         0.0535
     15 C10        -7.9940   58.7920   84.2720 C.3       1 D51         0.1553
     16 N10        -6.9680   59.7510   84.1030 N.pl3     1 D51        -0.2923
     17 N1A        -4.1040   78.4440   89.9910 N.ar      1 D51        -0.2698
     18 O1A        -8.0040   67.4840   88.0790 O.co2     1 D51        -0.6127
     19 C1B        -6.0520   73.8600   88.4930 C.3       1 D51         0.2010
     20 O1P        -5.2240   65.5610   91.1550 O.co2     1 D51        -0.6127
     21 C2'        -7.2820   61.3860   86.0460 C.3       1 D51         0.1024
     22 O2'        -8.0180   62.2070   85.1340 O.3       1 D51        -0.3872
     23 C2A        -5.2970   77.8720   90.2630 C.ar      1 D51         0.0533
     24 O2A        -5.7570   68.5800   87.2730 O.co2     1 D51        -0.6127
     25 C2B        -6.3600   73.0720   87.2360 C.3       1 D51         0.1385
     26 O2B        -7.1240   73.8380   86.3030 O.3       1 D51        -0.3836
     27 O2P        -7.5220   66.8040   91.2030 O.co2     1 D51        -0.6127
     28 C3'        -6.4810   62.2820   86.9950 C.3       1 D51         0.1111
     29 O3'        -5.6390   61.4530   87.7980 O.3       1 D51        -0.3865
     30 N3A        -5.6510   76.6650   89.7860 N.ar      1 D51        -0.2714
     31 C3B        -7.1440   71.8940   87.7880 C.3       1 D51         0.1149
     32 O3B        -8.5410   72.1880   87.7970 O.3       1 D51        -0.3864
     33 O3P        -5.8020   67.1420   89.3350 O.3       1 D51        -0.1319
     34 C4'        -7.3110   63.1570   87.9450 C.3       1 D51         0.1118
     35 O4'        -8.5210   63.6330   87.3330 O.3       1 D51        -0.3865
     36 C4A        -4.8080   75.9460   88.9940 C.ar      1 D51         0.1613
     37 C4B        -6.6970   71.7540   89.2320 C.3       1 D51         0.1189
     38 O4B        -5.8290   72.8590   89.4880 O.3       1 D51        -0.3364
     39 C4X        -8.3170   57.8710   83.1300 C.3       1 D51         0.1907
     40 C5'        -6.4820   64.3450   88.4350 C.3       1 D51         0.1124
     41 O5'        -7.1160   64.9570   89.5630 O.3       1 D51        -0.2477
     42 C5A        -3.4920   76.5070   88.6480 C.ar      1 D51         0.1045
     43 C5B        -5.9790   70.4370   89.4890 C.3       1 D51         0.1128
     44 O5B        -6.9220   69.3660   89.3820 O.3       1 D51        -0.2476
     45 C5X        -7.5590   59.7340   81.6490 C.ar      1 D51         0.0506
     46 C6A        -3.1720   77.8430   89.2150 C.ar      1 D51         0.1298
     47 N6A        -1.9880   78.4480   88.9640 N.pl3     1 D51        -0.3152
     48 N7A        -2.8760   75.5970   87.8630 N.2       1 D51        -0.2958
     49 C7M        -6.8470   62.2010   78.8550 C.3       1 D51        -0.0426
     50 C8A        -3.7250   74.5450   87.7180 C.2       1 D51         0.1123
     51 C8M        -5.5450   63.5780   81.2610 C.3       1 D51        -0.0426
     52 C9A        -6.9210   60.3960   82.8310 C.ar      1 D51         0.0482
     53 N9A        -4.8750   74.7580   88.3900 N.pl3     1 D51        -0.1919
     54 NAA        -6.7250   57.6230   79.9730 N.4       1 D51         0.2393
     55 CAB        -3.9280   54.6540   84.3800 C.ar      1 D51        -0.0687
     56 CAD        -5.0550   54.7750   85.1960 C.ar      1 D51        -0.0686
     57 CAE        -3.9360   55.2200   83.1040 C.ar      1 D51        -0.0686
     58 CAH        -6.1810   55.4630   84.7360 C.ar      1 D51        -0.0601
     59 CAI        -5.0580   55.9090   82.6420 C.ar      1 D51        -0.0601
     60 CAL        -7.6940   56.2650   81.6100 C.3       1 D51         0.0285
     61 CAM        -7.3140   56.7140   83.0190 C.3       1 D51         0.0368
     62 CAN        -9.0720   57.2770   79.8090 C.3       1 D51         0.0030
     63 CAO        -7.8970   57.5250   80.7740 C.3       1 D51         0.0653
     64 CAP        -6.1850   56.0290   83.4590 C.ar      1 D51        -0.0381
     65 H          -7.8967   58.8021   86.3221 H         1 D51         0.1874
     66 H         -10.7620   56.3495   84.8341 H         1 D51         0.2260
     67 H          -7.9683   59.8777   79.5494 H         1 D51         0.0400
     68 H          -5.8284   62.1199   83.5054 H         1 D51         0.0400
     69 H          -5.4847   60.9816   84.9357 H         1 D51         0.0533
     70 H          -6.0396   59.6313   85.9823 H         1 D51         0.0533
     71 H          -8.8269   59.4889   84.0973 H         1 D51         0.0824
     72 H          -6.9257   74.4724   88.7605 H         1 D51         0.0996
     73 H          -7.9928   60.7928   86.6401 H         1 D51         0.0639
     74 H          -8.5785   62.7979   85.6231 H         1 D51         0.2100
     75 H          -5.9985   78.4080   90.8920 H         1 D51         0.0996
     76 H          -5.4347   72.7330   86.7473 H         1 D51         0.0676
     77 H          -7.9463   74.0945   86.7037 H         1 D51         0.2101
     78 H          -5.8577   62.9480   86.3802 H         1 D51         0.0647
     79 H          -6.1752   60.8483   88.2973 H         1 D51         0.2100
     80 H          -6.9435   70.9796   87.2104 H         1 D51         0.0648
     81 H          -8.6997   72.9495   88.3425 H         1 D51         0.2100
     82 H          -7.5877   62.5433   88.8149 H         1 D51         0.0647
     83 H          -9.0556   62.8921   87.0728 H         1 D51         0.2100
     84 H          -7.5742   71.8090   89.8935 H         1 D51         0.0651
     85 H          -6.3903   65.0832   87.6247 H         1 D51         0.0647
     86 H          -5.4810   63.9943   88.7266 H         1 D51         0.0647
     87 H          -5.5428   70.4452   90.4988 H         1 D51         0.0648
     88 H          -5.1799   70.3009   88.7454 H         1 D51         0.0648
     89 H          -1.2863   77.9810   88.3720 H         1 D51         0.1820
     90 H          -1.7884   79.3755   89.3650 H         1 D51         0.1820
     91 H          -7.3694   61.5421   78.1458 H         1 D51         0.0350
     92 H          -5.8038   62.3335   78.5322 H         1 D51         0.0350
     93 H          -7.3489   63.1794   78.8844 H         1 D51         0.0350
     94 H          -3.5059   73.6503   87.1371 H         1 D51         0.1349
     95 H          -5.6042   63.9112   80.2143 H         1 D51         0.0350
     96 H          -4.4897   63.4739   81.5535 H         1 D51         0.0350
     97 H          -6.0340   64.3194   81.9100 H         1 D51         0.0350
     98 H          -6.6823   56.8377   79.3425 H         1 D51         0.2020
     99 H          -5.9108   57.6214   80.5672 H         1 D51         0.2020
    100 H          -6.7517   58.4792   79.4418 H         1 D51         0.2020
    101 H          -3.0520   54.1236   84.7355 H         1 D51         0.0559
    102 H          -5.0563   54.3350   86.1867 H         1 D51         0.0599
    103 H          -3.0640   55.1235   82.4673 H         1 D51         0.0599
    104 H          -7.0537   55.5577   85.3719 H         1 D51         0.0557
    105 H          -5.0552   56.3500   81.6518 H         1 D51         0.0557
    106 H          -8.6241   55.6784   81.6394 H         1 D51         0.0369
    107 H          -6.8879   55.6529   81.1793 H         1 D51         0.0369
    108 H          -7.9494   56.0527   83.6264 H         1 D51         0.0477
    109 H         -10.0066   57.1934   80.3831 H         1 D51         0.0309
    110 H          -8.8989   56.3441   79.2525 H         1 D51         0.0309
    111 H          -9.1497   58.1164   79.1024 H         1 D51         0.0309
@<TRIPOS>BOND
     1    1   20 ar 
     2    1   27 ar 
     3    1   33 1  
     4   41    1 1  
     5    2    3 am 
     6   15    2 1  
     7    3    4 2  
     8    5    3 am 
     9    6    5 am 
    10    6    7 2  
    11   39    6 1  
    12   39    8 1  
    13    8   45 1  
    14   63    8 1  
    15    9   10 ar 
    16   45    9 ar 
    17   10   11 ar 
    18   10   49 1  
    19   12   11 ar 
    20   11   51 1  
    21   52   12 ar 
    22   13   18 ar 
    23   13   24 ar 
    24   33   13 1  
    25   13   44 1  
    26   16   14 1  
    27   14   21 1  
    28   15   16 1  
    29   39   15 1  
    30   16   52 1  
    31   23   17 ar 
    32   46   17 ar 
    33   19   25 1  
    34   38   19 1  
    35   19   53 1  
    36   21   22 1  
    37   21   28 1  
    38   30   23 ar 
    39   25   26 1  
    40   31   25 1  
    41   28   29 1  
    42   28   34 1  
    43   36   30 ar 
    44   31   32 1  
    45   37   31 1  
    46   34   35 1  
    47   34   40 1  
    48   36   42 ar 
    49   53   36 1  
    50   37   38 1  
    51   43   37 1  
    52   61   39 1  
    53   40   41 1  
    54   42   46 ar 
    55   48   42 1  
    56   44   43 1  
    57   45   52 ar 
    58   46   47 1  
    59   50   48 2  
    60   53   50 1  
    61   63   54 1  
    62   56   55 ar 
    63   57   55 ar 
    64   58   56 ar 
    65   59   57 ar 
    66   64   58 ar 
    67   64   59 ar 
    68   61   60 1  
    69   60   63 1  
    70   61   64 1  
    71   63   62 1  
    72    2   65 1  
    73    5   66 1  
    74    9   67 1  
    75   12   68 1  
    76   14   69 1  
    77   14   70 1  
    78   15   71 1  
    79   19   72 1  
    80   21   73 1  
    81   22   74 1  
    82   23   75 1  
    83   25   76 1  
    84   26   77 1  
    85   28   78 1  
    86   29   79 1  
    87   31   80 1  
    88   32   81 1  
    89   34   82 1  
    90   35   83 1  
    91   37   84 1  
    92   40   85 1  
    93   40   86 1  
    94   43   87 1  
    95   43   88 1  
    96   47   89 1  
    97   47   90 1  
    98   49   91 1  
    99   49   92 1  
   100   49   93 1  
   101   50   94 1  
   102   51   95 1  
   103   51   96 1  
   104   51   97 1  
   105   54   98 1  
   106   54   99 1  
   107   54  100 1  
   108   55  101 1  
   109   56  102 1  
   110   57  103 1  
   111   58  104 1  
   112   59  105 1  
   113   60  106 1  
   114   60  107 1  
   115   61  108 1  
   116   62  109 1  
   117   62  110 1  
   118   62  111 1  
@<TRIPOS>SUBSTRUCTURE
     1 D51         1

