1gwq_ligand
  -I-interpret- 

156156  0  0  0  0  0  0  0  0999 V2000
    4.4240   22.9290   18.1040 N   0  3  0  0  0
    4.7420   24.3570   18.4090 C   0  0  0  0  0
    5.2610   24.5480   19.8250 C   0  0  0  0  0
    6.2130   25.3130   20.0210 O   0  0  0  0  0
    3.5530   25.2650   18.1140 C   0  0  0  0  0
    4.7180   23.8730   20.8440 N   0  0  0  0  0
    5.2350   24.0350   22.2070 C   0  0  0  0  0
    6.7340   23.7690   22.2820 C   0  0  0  0  0
    7.5030   24.5370   22.8720 O   0  0  0  0  0
    4.5280   23.1440   23.2290 C   0  0  0  0  0
    3.0480   23.5520   23.2470 C   0  0  0  0  0
    5.1550   23.2900   24.6140 C   0  0  0  0  0
    2.1150   22.4690   23.7440 C   0  0  0  0  0
    7.1530   22.6780   21.6590 N   0  0  0  0  0
    8.5420   22.2670   21.5930 C   0  0  0  0  0
    9.4220   23.4060   21.1000 C   0  0  0  0  0
   10.4640   23.7220   21.6570 O   0  0  0  0  0
    8.6910   21.0790   20.6410 C   0  0  0  0  0
    9.6040   19.9440   21.0890 C   0  0  0  0  0
    9.6360   18.8790   19.9920 C   0  0  0  0  0
   10.9940   20.4230   21.4520 C   0  0  0  0  0
    8.9510   24.0160   20.0310 N   0  0  0  0  0
    9.5360   25.1610   19.3570 C   0  0  0  0  0
    9.6680   26.3640   20.2820 C   0  0  0  0  0
   10.6890   27.0420   20.3010 O   0  0  0  0  0
    8.6020   25.5400   18.1930 C   0  0  0  0  0
    9.4160   26.0850   17.0640 C   0  0  0  0  0
    9.9720   25.2160   16.1520 N   0  0  0  0  0
    9.7720   27.3380   16.7050 C   0  0  0  0  0
   10.6470   25.9230   15.2590 C   0  0  0  0  0
   10.5400   27.2150   15.5670 N   0  0  0  0  0
    8.6350   26.6210   21.0700 N   0  0  0  0  0
    8.6610   27.7110   22.0240 C   0  0  0  0  0
    9.7790   27.4330   23.0280 C   0  0  0  0  0
   10.6640   28.2410   23.2620 O   0  0  0  0  0
    7.3500   27.8820   22.8220 C   0  0  0  0  0
    7.1480   29.2320   23.4840 C   0  0  0  0  0
    6.4680   29.2000   24.8450 C   0  0  0  0  0
    5.3110   28.3260   24.9340 N   0  0  0  0  0
    4.8930   27.5460   25.9180 C   0  0  0  0  0
    5.4970   27.4190   27.0990 N   0  0  0  0  0
    3.7910   26.8190   25.7480 N   0  0  0  0  0
    9.6930   26.2490   23.6390 N   0  0  0  0  0
   10.6640   25.8840   24.6840 C   0  0  0  0  0
   12.0880   25.8610   24.2060 C   0  0  0  0  0
   12.9610   26.2190   24.9960 O   0  0  0  0  0
   10.2270   24.5790   25.3470 C   0  0  0  0  0
    8.7980   24.6990   25.9050 C   0  0  0  0  0
    8.2260   23.3680   26.3290 C   0  0  0  0  0
    8.7440   25.7050   27.0540 C   0  0  0  0  0
   12.3370   25.4890   22.9580 N   0  0  0  0  0
   13.6940   25.4700   22.4390 C   0  0  0  0  0
   14.2610   26.8580   22.1880 C   0  0  0  0  0
   15.4870   27.0120   22.2550 O   0  0  0  0  0
   13.7550   24.6090   21.1770 C   0  0  0  0  0
   13.7050   23.1000   21.4170 C   0  0  0  0  0
   13.4430   22.3220   20.1390 C   0  0  0  0  0
   15.0060   22.6390   22.0520 C   0  0  0  0  0
   13.4240   27.8580   21.9310 N   0  0  0  0  0
   13.8830   29.2210   21.6960 C   0  0  0  0  0
   13.9560   30.0590   22.9740 C   0  0  0  0  0
   14.5810   31.1230   22.9550 O   0  0  0  0  0
   12.9830   29.9970   20.7390 C   0  0  0  0  0
   13.2100   29.7470   19.2600 C   0  0  0  0  0
   12.0990   30.4250   18.4770 C   0  0  0  0  0
   11.1940   29.7540   17.9850 O   0  0  0  0  0
   12.2170   31.7490   18.4140 N   0  0  0  0  0
   13.3190   29.5610   24.0280 N   0  0  0  0  0
   13.2950   30.2960   25.2900 C   0  0  0  0  0
   13.8130   29.4920   26.4840 C   0  0  0  0  0
   14.9890   29.7180   26.8760 O   0  0  0  0  0
   11.8510   30.7560   25.5500 C   0  0  0  0  0
   12.9190   29.0080   27.2400 O   0  0  0  0  0
    5.2371   22.3491   18.3113 H   0  0  0  0  0
    3.6353   22.6278   18.6764 H   0  0  0  0  0
    4.1833   22.8389   17.1169 H   0  0  0  0  0
    5.5540   24.6494   17.7432 H   0  0  0  0  0
    2.7440   25.0395   18.8088 H   0  0  0  0  0
    3.8546   26.3059   18.2310 H   0  0  0  0  0
    3.2135   25.0964   17.0920 H   0  0  0  0  0
    3.9372   23.2397   20.6717 H   0  0  0  0  0
    5.0328   25.0756   22.4609 H   0  0  0  0  0
    4.6292   22.0949   22.9510 H   0  0  0  0  0
    2.7628   23.7770   22.2193 H   0  0  0  0  0
    2.9544   24.3967   23.9295 H   0  0  0  0  0
    6.2054   23.0026   24.5680 H   0  0  0  0  0
    5.0746   24.3269   24.9403 H   0  0  0  0  0
    4.6308   22.6443   25.3186 H   0  0  0  0  0
    2.1997   21.5942   23.0992 H   0  0  0  0  0
    2.3862   22.1976   24.7642 H   0  0  0  0  0
    1.0895   22.8379   23.7252 H   0  0  0  0  0
    6.4571   22.0918   21.1981 H   0  0  0  0  0
    8.8564   21.9823   22.5971 H   0  0  0  0  0
    9.1391   21.4803   19.7320 H   0  0  0  0  0
    7.6961   20.6429   20.5512 H   0  0  0  0  0
    9.2009   19.5113   22.0046 H   0  0  0  0  0
    8.6276   18.5003   19.8256 H   0  0  0  0  0
   10.0167   19.3197   19.0706 H   0  0  0  0  0
   10.2865   18.0607   20.3007 H   0  0  0  0  0
   11.4513   20.8983   20.5842 H   0  0  0  0  0
   10.9275   21.1418   22.2687 H   0  0  0  0  0
   11.6002   19.5724   21.7635 H   0  0  0  0  0
    8.0864   23.6455   19.6365 H   0  0  0  0  0
   10.5358   24.8932   19.0151 H   0  0  0  0  0
    7.8901   26.2947   18.5272 H   0  0  0  0  0
    8.0591   24.6561   17.8581 H   0  0  0  0  0
    9.5046   28.2636   17.2148 H   0  0  0  0  0
   11.1989   25.5156   14.4120 H   0  0  0  0  0
    7.8010   26.0375   21.0036 H   0  0  0  0  0
    8.8113   28.6262   21.4514 H   0  0  0  0  0
    7.3826   27.1475   23.6267 H   0  0  0  0  0
    6.5372   27.7672   22.1049 H   0  0  0  0  0
    6.4964   29.8060   22.8252 H   0  0  0  0  0
    8.1416   29.6509   23.6436 H   0  0  0  0  0
    6.1137   30.2116   25.0432 H   0  0  0  0  0
    7.2033   28.8213   25.5549 H   0  0  0  0  0
    4.7237   28.3111   24.1002 H   0  0  0  0  0
    5.1096   26.7934   27.8053 H   0  0  0  0  0
    6.3468   27.9474   27.2967 H   0  0  0  0  0
    3.2792   26.8671   24.8670 H   0  0  0  0  0
    8.9531   25.5959   23.3813 H   0  0  0  0  0
   10.6610   26.6722   25.4369 H   0  0  0  0  0
   10.9074   24.3585   26.1695 H   0  0  0  0  0
   10.2471   23.7833   24.6023 H   0  0  0  0  0
    8.1729   25.0653   25.0906 H   0  0  0  0  0
    8.1952   22.6971   25.4705 H   0  0  0  0  0
    8.8544   22.9353   27.1075 H   0  0  0  0  0
    7.2168   23.5138   26.7142 H   0  0  0  0  0
    9.4069   25.3764   27.8544 H   0  0  0  0  0
    9.0636   26.6830   26.6942 H   0  0  0  0  0
    7.7230   25.7707   27.4301 H   0  0  0  0  0
   11.5640   25.2119   22.3529 H   0  0  0  0  0
   14.3273   25.0289   23.2087 H   0  0  0  0  0
   14.7125   24.8190   20.7003 H   0  0  0  0  0
   12.8766   24.8611   20.5829 H   0  0  0  0  0
   12.8723   22.9008   22.0915 H   0  0  0  0  0
   12.4859   22.6296   19.7177 H   0  0  0  0  0
   14.2389   22.5245   19.4223 H   0  0  0  0  0
   13.4169   21.2556   20.3632 H   0  0  0  0  0
   15.8366   22.8722   21.3858 H   0  0  0  0  0
   15.1464   23.1523   23.0033 H   0  0  0  0  0
   14.9651   21.5629   22.2209 H   0  0  0  0  0
   12.4232   27.6642   21.8970 H   0  0  0  0  0
   14.8757   29.0809   21.2682 H   0  0  0  0  0
   13.1968   31.0526   20.9068 H   0  0  0  0  0
   11.9632   29.6754   20.9502 H   0  0  0  0  0
   13.2042   28.6756   19.0598 H   0  0  0  0  0
   14.1762   30.1523   18.9594 H   0  0  0  0  0
   11.5144   32.3008   17.9217 H   0  0  0  0  0
   13.0100   32.2120   18.8580 H   0  0  0  0  0
   12.8444   28.6611   23.9557 H   0  0  0  0  0
   13.9734   31.1434   25.1906 H   0  0  0  0  0
   11.5238   31.4004   24.7340 H   0  0  0  0  0
   11.1988   29.8847   25.6105 H   0  0  0  0  0
   11.8103   31.3078   26.4891 H   0  0  0  0  0
   12.1003   28.9158   26.7472 H   0  0  0  0  0
  1  2  1  0  0  0
  2  3  1  0  0  0
  2  5  1  0  0  0
  3  4  2  0  0  0
  3  6  1  0  0  0
  6  7  1  0  0  0
  7  8  1  0  0  0
  7 10  1  0  0  0
  8  9  2  0  0  0
  8 14  1  0  0  0
 10 11  1  0  0  0
 10 12  1  0  0  0
 11 13  1  0  0  0
 14 15  1  0  0  0
 15 16  1  0  0  0
 15 18  1  0  0  0
 16 17  2  0  0  0
 16 22  1  0  0  0
 18 19  1  0  0  0
 19 20  1  0  0  0
 19 21  1  0  0  0
 22 23  1  0  0  0
 23 24  1  0  0  0
 23 26  1  0  0  0
 24 25  2  0  0  0
 24 32  1  0  0  0
 26 27  1  0  0  0
 27 28  4  0  0  0
 27 29  4  0  0  0
 28 30  4  0  0  0
 29 31  4  0  0  0
 30 31  4  0  0  0
 32 33  1  0  0  0
 33 34  1  0  0  0
 33 36  1  0  0  0
 34 35  2  0  0  0
 34 43  1  0  0  0
 36 37  1  0  0  0
 37 38  1  0  0  0
 38 39  1  0  0  0
 39 40  1  0  0  0
 40 41  1  0  0  0
 40 42  2  0  0  0
 43 44  1  0  0  0
 44 45  1  0  0  0
 44 47  1  0  0  0
 45 46  2  0  0  0
 45 51  1  0  0  0
 47 48  1  0  0  0
 48 49  1  0  0  0
 48 50  1  0  0  0
 51 52  1  0  0  0
 52 53  1  0  0  0
 52 55  1  0  0  0
 53 54  2  0  0  0
 53 59  1  0  0  0
 55 56  1  0  0  0
 56 57  1  0  0  0
 56 58  1  0  0  0
 59 60  1  0  0  0
 60 61  1  0  0  0
 60 63  1  0  0  0
 61 62  2  0  0  0
 61 68  1  0  0  0
 63 64  1  0  0  0
 64 65  1  0  0  0
 65 66  2  0  0  0
 65 67  1  0  0  0
 68 69  1  0  0  0
 69 70  1  0  0  0
 69 72  1  0  0  0
 70 71  2  0  0  0
 70 73  1  0  0  0
  1 74  1  0  0  0
  1 75  1  0  0  0
  1 76  1  0  0  0
  2 77  1  0  0  0
  5 78  1  0  0  0
  5 79  1  0  0  0
  5 80  1  0  0  0
  6 81  1  0  0  0
  7 82  1  0  0  0
 10 83  1  0  0  0
 11 84  1  0  0  0
 11 85  1  0  0  0
 12 86  1  0  0  0
 12 87  1  0  0  0
 12 88  1  0  0  0
 13 89  1  0  0  0
 13 90  1  0  0  0
 13 91  1  0  0  0
 14 92  1  0  0  0
 15 93  1  0  0  0
 18 94  1  0  0  0
 18 95  1  0  0  0
 19 96  1  0  0  0
 20 97  1  0  0  0
 20 98  1  0  0  0
 20 99  1  0  0  0
 21100  1  0  0  0
 21101  1  0  0  0
 21102  1  0  0  0
 22103  1  0  0  0
 23104  1  0  0  0
 26105  1  0  0  0
 26106  1  0  0  0
 29107  1  0  0  0
 30108  1  0  0  0
 32109  1  0  0  0
 33110  1  0  0  0
 36111  1  0  0  0
 36112  1  0  0  0
 37113  1  0  0  0
 37114  1  0  0  0
 38115  1  0  0  0
 38116  1  0  0  0
 39117  1  0  0  0
 41118  1  0  0  0
 41119  1  0  0  0
 42120  1  0  0  0
 43121  1  0  0  0
 44122  1  0  0  0
 47123  1  0  0  0
 47124  1  0  0  0
 48125  1  0  0  0
 49126  1  0  0  0
 49127  1  0  0  0
 49128  1  0  0  0
 50129  1  0  0  0
 50130  1  0  0  0
 50131  1  0  0  0
 51132  1  0  0  0
 52133  1  0  0  0
 55134  1  0  0  0
 55135  1  0  0  0
 56136  1  0  0  0
 57137  1  0  0  0
 57138  1  0  0  0
 57139  1  0  0  0
 58140  1  0  0  0
 58141  1  0  0  0
 58142  1  0  0  0
 59143  1  0  0  0
 60144  1  0  0  0
 63145  1  0  0  0
 63146  1  0  0  0
 64147  1  0  0  0
 64148  1  0  0  0
 67149  1  0  0  0
 67150  1  0  0  0
 68151  1  0  0  0
 69152  1  0  0  0
 72153  1  0  0  0
 72154  1  0  0  0
 72155  1  0  0  0
 73156  1  0  0  0
M  END
$$$$
