### 
### Created by X-TOOL on Mon Sep 10 21:12:49 2018
### 

@<TRIPOS>MOLECULE
1gwq_ligand
  157   157     1     0     0
SMALL
GAST_HUCK


@<TRIPOS>ATOM
      1 N           4.4240   22.9290   18.1040 N.4       1 LYS         0.2377
      2 CA          4.7420   24.3570   18.4090 C.3       1 LYS         0.0621
      3 C           5.2610   24.5480   19.8250 C.2       1 LYS         0.2264
      4 O           6.2130   25.3130   20.0210 O.2       1 LYS        -0.3907
      5 CB          3.5530   25.2650   18.1140 C.3       1 LYS        -0.0040
      6 N           4.7180   23.8730   20.8440 N.am      1 ILE        -0.2608
      7 CA          5.2350   24.0350   22.2070 C.3       1 ILE         0.1336
      8 C           6.7340   23.7690   22.2820 C.2       1 ILE         0.2042
      9 O           7.5030   24.5370   22.8720 O.2       1 ILE        -0.3944
     10 CB          4.5280   23.1440   23.2290 C.3       1 ILE        -0.0037
     11 CG1         3.0480   23.5520   23.2470 C.3       1 ILE        -0.0491
     12 CG2         5.1550   23.2900   24.6140 C.3       1 ILE        -0.0582
     13 CD1         2.1150   22.4690   23.7440 C.3       1 ILE        -0.0648
     14 N           7.1530   22.6780   21.6590 N.am      1 LEU        -0.2637
     15 CA          8.5420   22.2670   21.5930 C.3       1 LEU         0.1312
     16 C           9.4220   23.4060   21.1000 C.2       1 LEU         0.2040
     17 O          10.4640   23.7220   21.6570 O.2       1 LEU        -0.3944
     18 CB          8.6910   21.0790   20.6410 C.3       1 LEU        -0.0101
     19 CG          9.6040   19.9440   21.0890 C.3       1 LEU        -0.0425
     20 CD1         9.6360   18.8790   19.9920 C.3       1 LEU        -0.0625
     21 CD2        10.9940   20.4230   21.4520 C.3       1 LEU        -0.0625
     22 N           8.9510   24.0160   20.0310 N.am      1 HIS        -0.2619
     23 CA          9.5360   25.1610   19.3570 C.3       1 HIS         0.1421
     24 C           9.6680   26.3640   20.2820 C.2       1 HIS         0.2060
     25 O          10.6890   27.0420   20.3010 O.2       1 HIS        -0.3942
     26 CB          8.6020   25.5400   18.1930 C.3       1 HIS         0.0427
     27 CG          9.4160   26.0850   17.0640 C.2       1 HIS         0.0561
     28 ND1         9.9720   25.2160   16.1520 N.pl3     1 HIS        -0.2623
     29 CD2         9.7720   27.3380   16.7050 C.2       1 HIS        -0.0276
     30 CE1        10.6470   25.9230   15.2590 C.2       1 HIS         0.0875
     31 NE2        10.5400   27.2150   15.5670 N.2       1 HIS        -0.3437
     32 N           8.6350   26.6210   21.0700 N.am      1 ARG        -0.2636
     33 CA          8.6610   27.7110   22.0240 C.3       1 ARG         0.1311
     34 C           9.7790   27.4330   23.0280 C.2       1 ARG         0.2039
     35 O          10.6640   28.2410   23.2620 O.2       1 ARG        -0.3944
     36 CB          7.3500   27.8820   22.8220 C.3       1 ARG        -0.0092
     37 CG          7.1480   29.2320   23.4840 C.3       1 ARG        -0.0156
     38 CD          6.4680   29.2000   24.8450 C.3       1 ARG         0.0627
     39 NE          5.3110   28.3260   24.9340 N.pl3     1 ARG        -0.2723
     40 CZ          4.8930   27.5460   25.9180 C.cat     1 ARG         0.2882
     41 NH1         5.4970   27.4190   27.0990 N.pl3     1 ARG        -0.2849
     42 NH2         3.7910   26.8190   25.7480 N.pl3     1 ARG        -0.2849
     43 N           9.6930   26.2490   23.6390 N.am      1 LEU        -0.2637
     44 CA         10.6640   25.8840   24.6840 C.3       1 LEU         0.1312
     45 C          12.0880   25.8610   24.2060 C.2       1 LEU         0.2039
     46 O          12.9610   26.2190   24.9960 O.2       1 LEU        -0.3944
     47 CB         10.2270   24.5790   25.3470 C.3       1 LEU        -0.0101
     48 CG          8.7980   24.6990   25.9050 C.3       1 LEU        -0.0425
     49 CD1         8.2260   23.3680   26.3290 C.3       1 LEU        -0.0625
     50 CD2         8.7440   25.7050   27.0540 C.3       1 LEU        -0.0625
     51 N          12.3370   25.4890   22.9580 N.am      1 LEU        -0.2637
     52 CA         13.6940   25.4700   22.4390 C.3       1 LEU         0.1312
     53 C          14.2610   26.8580   22.1880 C.2       1 LEU         0.2039
     54 O          15.4870   27.0120   22.2550 O.2       1 LEU        -0.3944
     55 CB         13.7550   24.6090   21.1770 C.3       1 LEU        -0.0101
     56 CG         13.7050   23.1000   21.4170 C.3       1 LEU        -0.0425
     57 CD1        13.4430   22.3220   20.1390 C.3       1 LEU        -0.0625
     58 CD2        15.0060   22.6390   22.0520 C.3       1 LEU        -0.0625
     59 N          13.4240   27.8580   21.9310 N.am      1 GLN        -0.2636
     60 CA         13.8830   29.2210   21.6960 C.3       1 GLN         0.1330
     61 C          13.9560   30.0590   22.9740 C.2       1 GLN         0.2035
     62 O          14.5810   31.1230   22.9550 O.2       1 GLN        -0.3944
     63 CB         12.9830   29.9970   20.7390 C.3       1 GLN         0.0045
     64 CG         13.2100   29.7470   19.2600 C.3       1 GLN         0.0412
     65 CD         12.0990   30.4250   18.4770 C.2       1 GLN         0.1737
     66 OE1        11.1940   29.7540   17.9850 O.2       1 GLN        -0.3973
     67 NE2        12.2170   31.7490   18.4140 N.am      1 GLN        -0.3009
     68 N          13.3190   29.5610   24.0280 N.am      1 ASP        -0.2697
     69 CA         13.2950   30.2960   25.2900 C.3       1 ASP         0.0916
     70 C          13.8130   29.4920   26.4840 C.2       1 ASP         0.0598
     71 O          14.9890   29.7180   26.8760 O.co2     1 ASP        -0.5666
     72 CB         11.8510   30.7560   25.5500 C.3       1 ASP        -0.0300
     73 OXT        12.9190   29.0080   27.2400 O.co2     1 ASP        -0.5666
     74 H1          4.0851   22.8550   17.1576 H         1 LYS         0.2015
     75 H2          3.7161   22.5989   18.7411 H         1 LYS         0.2015
     76 H3          5.2563   22.3699   18.2075 H         1 LYS         0.2015
     77 H4          5.5533   24.6567   17.7293 H         1 LYS         0.1095
     78 H5          3.8196   26.3061   18.3486 H         1 LYS         0.0310
     79 H6          2.6954   24.9583   18.7308 H         1 LYS         0.0310
     80 H7          3.2862   25.1858   17.0498 H         1 LYS         0.0310
     81 H8          3.9525   23.2522   20.6751 H         1 ILE         0.1885
     82 H9          5.0605   25.0816   22.4972 H         1 ILE         0.0803
     83 H10         4.6121   22.0931   22.9153 H         1 ILE         0.0345
     84 H11         2.7511   23.8204   22.2224 H         1 ILE         0.0267
     85 H12         2.9393   24.4290   23.9020 H         1 ILE         0.0267
     86 H13         6.2128   22.9915   24.5709 H         1 ILE         0.0235
     87 H14         4.6210   22.6458   25.3280 H         1 ILE         0.0235
     88 H15         5.0828   24.3379   24.9406 H         1 ILE         0.0235
     89 H16         1.0797   22.8401   23.7255 H         1 ILE         0.0230
     90 H17         2.3876   22.1942   24.7736 H         1 ILE         0.0230
     91 H18         2.1994   21.5856   23.0941 H         1 ILE         0.0230
     92 H19         6.4707   22.1033   21.2071 H         1 LEU         0.1883
     93 H20         8.8718   21.9684   22.5990 H         1 LEU         0.0800
     94 H21         9.0835   21.4643   19.6884 H         1 LEU         0.0315
     95 H22         7.6889   20.6549   20.4801 H         1 LEU         0.0315
     96 H23         9.1666   19.4925   21.9916 H         1 LEU         0.0298
     97 H24        10.2922   18.0525   20.3024 H         1 LEU         0.0232
     98 H25        10.0201   19.3224   19.0615 H         1 LEU         0.0232
     99 H26         8.6188   18.4959   19.8231 H         1 LEU         0.0232
    100 H27        10.9244   21.1855   22.2418 H         1 LEU         0.0232
    101 H28        11.4756   20.8580   20.5638 H         1 LEU         0.0232
    102 H29        11.5917   19.5735   21.8142 H         1 LEU         0.0232
    103 H30         8.1033   23.6528   19.6443 H         1 HIS         0.1885
    104 H31        10.5300   24.8898   18.9718 H         1 HIS         0.0824
    105 H32         7.8849   26.3027   18.5306 H         1 HIS         0.0491
    106 H33         8.0556   24.6473   17.8546 H         1 HIS         0.0491
    107 H34         9.8786   24.1903   16.1627 H         1 HIS         0.2386
    108 H35         9.5048   28.2627   17.2143 H         1 HIS         0.0324
    109 H36        11.1984   25.5160   14.4127 H         1 HIS         0.1149
    110 H37         7.8174   26.0489   21.0049 H         1 ARG         0.1883
    111 H38         8.8679   28.6459   21.4825 H         1 ARG         0.0800
    112 H39         7.3325   27.1145   23.6098 H         1 ARG         0.0313
    113 H40         6.5106   27.7169   22.1305 H         1 ARG         0.0313
    114 H41         6.5334   29.8499   22.8128 H         1 ARG         0.0301
    115 H42         8.1361   29.6988   23.6100 H         1 ARG         0.0301
    116 H43         6.1425   30.2223   25.0878 H         1 ARG         0.0689
    117 H44         7.2068   28.8643   25.5876 H         1 ARG         0.0689
    118 H45         4.7179   28.3109   24.0920 H         1 ARG         0.2642
    119 H46         5.1050   26.7883   27.8127 H         1 ARG         0.2615
    120 H47         6.3558   27.9516   27.2981 H         1 ARG         0.2615
    121 H48         3.2734   26.8685   24.8588 H         1 ARG         0.2615
    122 H49         3.4558   26.2070   26.5056 H         1 ARG         0.2615
    123 H50         8.9676   25.6087   23.3864 H         1 LEU         0.1883
    124 H51        10.6136   26.6676   25.4543 H         1 LEU         0.0800
    125 H52        10.9170   24.3449   26.1711 H         1 LEU         0.0315
    126 H53        10.2563   23.7694   24.6029 H         1 LEU         0.0315
    127 H54         8.1622   25.0847   25.0945 H         1 LEU         0.0298
    128 H55         7.2074   23.5138   26.7180 H         1 LEU         0.0232
    129 H56         8.8593   22.9303   27.1147 H         1 LEU         0.0232
    130 H57         8.1943   22.6900   25.4634 H         1 LEU         0.0232
    131 H58         9.1655   26.6649   26.7210 H         1 LEU         0.0232
    132 H59         9.3287   25.3229   27.9037 H         1 LEU         0.0232
    133 H60         7.6989   25.8515   27.3643 H         1 LEU         0.0232
    134 H61        11.5792   25.2173   22.3648 H         1 LEU         0.1883
    135 H62        14.3297   24.9944   23.2003 H         1 LEU         0.0800
    136 H63        14.6941   24.8394   20.6526 H         1 LEU         0.0315
    137 H64        12.9019   24.8806   20.5379 H         1 LEU         0.0315
    138 H65        12.8819   22.8923   22.1165 H         1 LEU         0.0298
    139 H66        13.4164   21.2456   20.3640 H         1 LEU         0.0232
    140 H67        14.2456   22.5255   19.4148 H         1 LEU         0.0232
    141 H68        12.4773   22.6314   19.7128 H         1 LEU         0.0232
    142 H69        15.1852   23.2087   22.9757 H         1 LEU         0.0232
    143 H70        15.8363   22.8075   21.3505 H         1 LEU         0.0232
    144 H71        14.9384   21.5671   22.2896 H         1 LEU         0.0232
    145 H72        12.4428   27.6680   21.8977 H         1 GLN         0.1883
    146 H73        14.8903   29.1562   21.2588 H         1 GLN         0.0801
    147 H74        13.1386   31.0697   20.9264 H         1 GLN         0.0337
    148 H75        11.9404   29.7321   20.9686 H         1 GLN         0.0337
    149 H76        13.1966   28.6653   19.0608 H         1 GLN         0.0504
    150 H77        14.1826   30.1633   18.9589 H         1 GLN         0.0504
    151 H78        11.5351   32.2888   17.9205 H         1 GLN         0.1814
    152 H79        12.9876   32.2041   18.8602 H         1 GLN         0.1814
    153 H80        12.8537   28.6787   23.9571 H         1 ASP         0.1875
    154 H81        13.9360   31.1832   25.1805 H         1 ASP         0.0723
    155 H82        11.8087   31.3131   26.4976 H         1 ASP         0.0270
    156 H83        11.1917   29.8776   25.6114 H         1 ASP         0.0270
    157 H84        11.5196   31.4065   24.7272 H         1 ASP         0.0270
@<TRIPOS>BOND
     1    1    2 1  
     2    2    3 1  
     3    2    5 1  
     4    3    4 2  
     5    3    6 am 
     6    6    7 1  
     7    7    8 1  
     8    7   10 1  
     9    8    9 2  
    10    8   14 am 
    11   10   11 1  
    12   10   12 1  
    13   11   13 1  
    14   14   15 1  
    15   15   16 1  
    16   15   18 1  
    17   16   17 2  
    18   16   22 am 
    19   18   19 1  
    20   19   20 1  
    21   19   21 1  
    22   22   23 1  
    23   23   24 1  
    24   23   26 1  
    25   24   25 2  
    26   24   32 am 
    27   26   27 1  
    28   27   28 1  
    29   27   29 2  
    30   28   30 1  
    31   29   31 1  
    32   30   31 2  
    33   32   33 1  
    34   33   34 1  
    35   33   36 1  
    36   34   35 2  
    37   34   43 am 
    38   36   37 1  
    39   37   38 1  
    40   38   39 1  
    41   39   40 ar 
    42   40   41 ar 
    43   40   42 ar 
    44   43   44 1  
    45   44   45 1  
    46   44   47 1  
    47   45   46 2  
    48   45   51 am 
    49   47   48 1  
    50   48   49 1  
    51   48   50 1  
    52   51   52 1  
    53   52   53 1  
    54   52   55 1  
    55   53   54 2  
    56   53   59 am 
    57   55   56 1  
    58   56   57 1  
    59   56   58 1  
    60   59   60 1  
    61   60   61 1  
    62   60   63 1  
    63   61   62 2  
    64   61   68 am 
    65   63   64 1  
    66   64   65 1  
    67   65   66 2  
    68   65   67 am 
    69   68   69 1  
    70   69   70 1  
    71   69   72 1  
    72   70   71 ar 
    73   70   73 ar 
    74    1   74 1  
    75    1   75 1  
    76    1   76 1  
    77    2   77 1  
    78    5   78 1  
    79    5   79 1  
    80    5   80 1  
    81    6   81 1  
    82    7   82 1  
    83   10   83 1  
    84   11   84 1  
    85   11   85 1  
    86   12   86 1  
    87   12   87 1  
    88   12   88 1  
    89   13   89 1  
    90   13   90 1  
    91   13   91 1  
    92   14   92 1  
    93   15   93 1  
    94   18   94 1  
    95   18   95 1  
    96   19   96 1  
    97   20   97 1  
    98   20   98 1  
    99   20   99 1  
   100   21  100 1  
   101   21  101 1  
   102   21  102 1  
   103   22  103 1  
   104   23  104 1  
   105   26  105 1  
   106   26  106 1  
   107   28  107 1  
   108   29  108 1  
   109   30  109 1  
   110   32  110 1  
   111   33  111 1  
   112   36  112 1  
   113   36  113 1  
   114   37  114 1  
   115   37  115 1  
   116   38  116 1  
   117   38  117 1  
   118   39  118 1  
   119   41  119 1  
   120   41  120 1  
   121   42  121 1  
   122   42  122 1  
   123   43  123 1  
   124   44  124 1  
   125   47  125 1  
   126   47  126 1  
   127   48  127 1  
   128   49  128 1  
   129   49  129 1  
   130   49  130 1  
   131   50  131 1  
   132   50  132 1  
   133   50  133 1  
   134   51  134 1  
   135   52  135 1  
   136   55  136 1  
   137   55  137 1  
   138   56  138 1  
   139   57  139 1  
   140   57  140 1  
   141   57  141 1  
   142   58  142 1  
   143   58  143 1  
   144   58  144 1  
   145   59  145 1  
   146   60  146 1  
   147   63  147 1  
   148   63  148 1  
   149   64  149 1  
   150   64  150 1  
   151   67  151 1  
   152   67  152 1  
   153   68  153 1  
   154   69  154 1  
   155   72  155 1  
   156   72  156 1  
   157   72  157 1  
@<TRIPOS>SUBSTRUCTURE
     1 LYS         1

