3fzc_ligand
  -I-interpret- 

 53 54  0  0  0  0  0  0  0  0999 V2000
  107.2370   32.5410   26.7760 C   0  0  0  0  0
  106.5340   31.2670   26.8470 C   0  0  0  0  0
  105.3520   31.1930   27.7020 C   0  0  0  0  0
  104.4450   30.0970   27.9920 C   0  0  0  0  0
  103.5070   30.5560   28.8610 C   0  0  0  0  0
  103.7450   32.0230   29.2030 C   0  0  0  0  0
  105.6100   33.5950   28.3640 C   0  0  0  0  0
  106.7780   33.7050   27.5330 C   0  0  0  0  0
  102.3850   29.7090   29.4020 C   0  0  0  0  0
  102.9920   33.1480   31.4970 C   0  0  0  0  0
  103.8150   34.4390   31.6440 C   0  0  0  0  0
  101.5060   33.2420   32.0470 C   0  0  0  0  0
  100.8010   34.5240   31.4750 C   0  0  0  0  0
  101.5850   33.2210   33.6110 C   0  0  0  0  0
  101.3280   35.3270   34.7240 C   0  0  0  0  0
  104.9730   32.3410   28.3950 N   0  0  0  0  0
  102.9710   32.8080   30.0570 N   0  0  0  0  0
  102.5740   35.2180   35.3470 N   0  0  0  0  0
  101.2090   29.9540   28.6250 O   0  0  0  0  0
  104.3210   35.0370   30.7010 O   0  0  0  0  0
  104.0400   35.0600   32.9920 O   0  0  0  0  0
   99.1000   32.0590   32.1190 O   0  0  0  0  0
  101.0970   30.4080   32.1040 O   0  0  0  0  0
  100.7620   34.1820   34.2390 O   0  0  0  0  0
  100.7770   36.4080   34.5980 O   0  0  0  0  0
  100.4550   31.8470   31.5370 S   0  0  0  0  0
  102.6860   34.7510   36.6540 C   0  0  0  0  0
  103.3350   34.1220   37.8920 C   0  0  0  0  0
  102.9690   34.8300   39.1650 N   0  3  0  0  0
  108.1224   32.6283   26.1463 H   0  0  0  0  0
  106.8777   30.4002   26.2824 H   0  0  0  0  0
  104.5057   29.0874   27.5856 H   0  0  0  0  0
  105.2366   34.4409   28.9412 H   0  0  0  0  0
  107.3178   34.6497   27.4676 H   0  0  0  0  0
  102.1989   29.9637   30.4454 H   0  0  0  0  0
  102.6552   28.6547   29.3421 H   0  0  0  0  0
  103.4687   32.3803   32.1066 H   0  0  0  0  0
  100.7363   34.4478   30.3896 H   0  0  0  0  0
   99.7985   34.6039   31.8953 H   0  0  0  0  0
  101.3808   35.4068   31.7446 H   0  0  0  0  0
  102.6151   33.4469   33.8865 H   0  0  0  0  0
  101.2449   32.2389   33.9394 H   0  0  0  0  0
  102.1987   33.2600   29.5676 H   0  0  0  0  0
  103.4154   35.4849   34.8359 H   0  0  0  0  0
  100.4870   29.4185   28.9618 H   0  0  0  0  0
  103.6104   34.5265   33.6646 H   0  0  0  0  0
  102.1666   33.8247   36.4083 H   0  0  0  0  0
  102.8316   35.7590   37.0424 H   0  0  0  0  0
  104.4163   34.1889   37.7721 H   0  0  0  0  0
  102.9808   33.0940   37.9684 H   0  0  0  0  0
  103.4271   34.3705   39.9520 H   0  0  0  0  0
  103.2747   35.8017   39.1122 H   0  0  0  0  0
  101.9575   34.7970   39.2923 H   0  0  0  0  0
  2  1  4  0  0  0
  8  1  4  0  0  0
  3  2  4  0  0  0
  3  4  4  0  0  0
 16  3  4  0  0  0
  5  4  4  0  0  0
  6  5  4  0  0  0
  5  9  1  0  0  0
  6 16  4  0  0  0
 17  6  1  0  0  0
  7  8  4  0  0  0
 16  7  4  0  0  0
  9 19  1  0  0  0
 10 11  1  0  0  0
 12 10  1  0  0  0
 10 17  1  0  0  0
 11 20  2  0  0  0
 11 21  1  0  0  0
 12 13  1  0  0  0
 14 12  1  0  0  0
 12 26  1  0  0  0
 24 14  1  0  0  0
 15 18  1  0  0  0
 15 24  1  0  0  0
 15 25  2  0  0  0
 18 27  1  0  0  0
 26 22  4  0  0  0
 26 23  4  0  0  0
 27 28  1  0  0  0
 28 29  1  0  0  0
  1 30  1  0  0  0
  2 31  1  0  0  0
  4 32  1  0  0  0
  7 33  1  0  0  0
  8 34  1  0  0  0
  9 35  1  0  0  0
  9 36  1  0  0  0
 10 37  1  0  0  0
 13 38  1  0  0  0
 13 39  1  0  0  0
 13 40  1  0  0  0
 14 41  1  0  0  0
 14 42  1  0  0  0
 17 43  1  0  0  0
 18 44  1  0  0  0
 19 45  1  0  0  0
 21 46  1  0  0  0
 27 47  1  0  0  0
 27 48  1  0  0  0
 28 49  1  0  0  0
 28 50  1  0  0  0
 29 51  1  0  0  0
 29 52  1  0  0  0
 29 53  1  0  0  0
M  END
$$$$
