5nfa_ligand
  -I-interpret- 

 74 76  0  0  0  0  0  0  0  0999 V2000
   18.4210   -6.9290   -0.7660 C   0  0  0  0  0
   18.0680   -8.1500   -1.5710 C   0  0  0  0  0
   19.0010   -9.2290   -1.2140 C   0  0  0  0  0
   20.4310   -8.8300   -1.3010 C   0  0  0  0  0
   21.7110   -5.1910   -0.0880 O   0  0  0  0  0
   26.7010  -12.7670   -2.6270 O   0  0  0  0  0
   27.3580  -11.8810   -2.0620 C   0  0  0  0  0
   28.8630  -11.7430   -2.2270 C   0  0  0  0  0
   26.7120  -10.9140   -1.2740 N   0  0  0  0  0
   25.2430  -11.0690   -1.0880 C   0  0  0  0  0
   24.7800  -10.2230    0.1340 C   0  0  0  0  0
   25.2080  -10.9010    1.3720 N   0  0  0  0  0
   26.4340  -10.5720    1.8460 C   0  0  0  0  0
   26.8160  -11.4540    3.0040 C   0  0  0  0  0
   27.1320   -9.6370    1.4230 O   0  0  0  0  0
   24.5580  -10.4950   -2.1670 O   0  0  0  0  0
   23.1570  -10.5790   -2.1710 C   0  0  0  0  0
   22.6430  -10.0350   -3.5190 C   0  0  0  0  0
   22.8350   -8.6180   -3.7360 O   0  0  0  0  0
   22.6600   -9.6900   -1.0010 C   0  0  0  0  0
   23.2360  -10.2060    0.2670 C   0  0  0  0  0
   22.9550   -9.3510    1.4110 O   0  0  0  0  0
   21.2920   -9.8350   -0.8360 O   0  0  0  0  0
   18.8140  -10.2940   -2.2180 O   0  0  0  0  0
   18.0080   -7.1190    0.6650 O   0  0  0  0  0
   19.9050   -6.5690   -0.8730 C   0  0  0  0  0
   20.3290   -5.3950   -0.0120 C   0  0  0  0  0
   20.6930   -7.6990   -0.4390 O   0  0  0  0  0
   16.7550   -8.5100   -1.2950 O   0  0  0  0  0
   15.8210   -7.8010   -2.1210 C   0  0  0  0  0
   14.4540   -8.4850   -2.0370 C   0  0  0  0  0
   13.3710   -7.9100   -2.6530 C   0  0  0  0  0
   12.1340   -8.5720   -2.5480 C   0  0  0  0  0
   11.9660   -9.7850   -1.8770 C   0  0  0  0  0
   13.0340  -10.3940   -1.3130 C   0  0  0  0  0
   14.2900   -9.7310   -1.3960 C   0  0  0  0  0
   12.8350  -11.6180   -0.6460 O   0  0  0  0  0
   13.9130  -12.3120    0.0630 C   0  0  0  0  0
   17.8698   -6.0863   -1.1833 H   0  0  0  0  0
   18.1512   -7.9515   -2.6395 H   0  0  0  0  0
   18.7911   -9.5227   -0.1855 H   0  0  0  0  0
   20.6089   -8.6136   -2.3544 H   0  0  0  0  0
   21.9540   -4.4443    0.4642 H   0  0  0  0  0
   29.3501  -12.6553   -1.8827 H   0  0  0  0  0
   29.0984  -11.5785   -3.2785 H   0  0  0  0  0
   29.2157  -10.8966   -1.6377 H   0  0  0  0  0
   27.2254  -10.1418   -0.8491 H   0  0  0  0  0
   25.0411  -12.1344   -0.9771 H   0  0  0  0  0
   25.1916   -9.2236   -0.0072 H   0  0  0  0  0
   24.6132  -11.5808    1.8457 H   0  0  0  0  0
   27.7542  -11.9611    2.7788 H   0  0  0  0  0
   26.9369  -10.8440    3.8992 H   0  0  0  0  0
   26.0325  -12.1935    3.1697 H   0  0  0  0  0
   22.7997  -11.6016   -2.0494 H   0  0  0  0  0
   21.5667  -10.2067   -3.5316 H   0  0  0  0  0
   23.2112  -10.5466   -4.2958 H   0  0  0  0  0
   22.4848   -8.3769   -4.5967 H   0  0  0  0  0
   22.9405   -8.6599   -1.2206 H   0  0  0  0  0
   22.7941  -11.1889    0.4304 H   0  0  0  0  0
   22.0058   -9.3003    1.5457 H   0  0  0  0  0
   17.9007  -10.5894   -2.2031 H   0  0  0  0  0
   17.0752   -7.3432    0.7006 H   0  0  0  0  0
   20.0655   -6.2984   -1.9166 H   0  0  0  0  0
   19.8229   -4.4983   -0.3695 H   0  0  0  0  0
   20.0632   -5.6068    1.0237 H   0  0  0  0  0
   16.1693   -7.8056   -3.1538 H   0  0  0  0  0
   15.7362   -6.7706   -1.7757 H   0  0  0  0  0
   13.4657   -6.9742   -3.2038 H   0  0  0  0  0
   11.2617   -8.1143   -3.0146 H   0  0  0  0  0
   10.9777  -10.2395   -1.8080 H   0  0  0  0  0
   15.1619  -10.2055   -0.9456 H   0  0  0  0  0
   14.7135  -12.5489   -0.6378 H   0  0  0  0  0
   14.2991  -11.6687    0.8537 H   0  0  0  0  0
   13.5256  -13.2329    0.4988 H   0  0  0  0  0
  1  2  1  0  0  0
  1 25  1  0  0  0
 26  1  1  0  0  0
  2  3  1  0  0  0
  2 29  1  0  0  0
  3  4  1  0  0  0
  3 24  1  0  0  0
  4 23  1  0  0  0
  4 28  1  0  0  0
 27  5  1  0  0  0
  7  6  2  0  0  0
  7  8  1  0  0  0
  9  7  1  0  0  0
 10  9  1  0  0  0
 11 10  1  0  0  0
 16 10  1  0  0  0
 11 12  1  0  0  0
 21 11  1  0  0  0
 12 13  1  0  0  0
 13 14  1  0  0  0
 13 15  2  0  0  0
 17 16  1  0  0  0
 17 18  1  0  0  0
 20 17  1  0  0  0
 18 19  1  0  0  0
 20 21  1  0  0  0
 23 20  1  0  0  0
 21 22  1  0  0  0
 26 27  1  0  0  0
 26 28  1  0  0  0
 29 30  1  0  0  0
 30 31  1  0  0  0
 31 32  4  0  0  0
 31 36  4  0  0  0
 32 33  4  0  0  0
 33 34  4  0  0  0
 34 35  4  0  0  0
 35 36  4  0  0  0
 35 37  1  0  0  0
 37 38  1  0  0  0
  1 39  1  0  0  0
  2 40  1  0  0  0
  3 41  1  0  0  0
  4 42  1  0  0  0
  5 43  1  0  0  0
  8 44  1  0  0  0
  8 45  1  0  0  0
  8 46  1  0  0  0
  9 47  1  0  0  0
 10 48  1  0  0  0
 11 49  1  0  0  0
 12 50  1  0  0  0
 14 51  1  0  0  0
 14 52  1  0  0  0
 14 53  1  0  0  0
 17 54  1  0  0  0
 18 55  1  0  0  0
 18 56  1  0  0  0
 19 57  1  0  0  0
 20 58  1  0  0  0
 21 59  1  0  0  0
 22 60  1  0  0  0
 24 61  1  0  0  0
 25 62  1  0  0  0
 26 63  1  0  0  0
 27 64  1  0  0  0
 27 65  1  0  0  0
 30 66  1  0  0  0
 30 67  1  0  0  0
 32 68  1  0  0  0
 33 69  1  0  0  0
 34 70  1  0  0  0
 36 71  1  0  0  0
 38 72  1  0  0  0
 38 73  1  0  0  0
 38 74  1  0  0  0
M  END
$$$$
