### 
### Created by X-TOOL on Mon Sep 10 21:13:21 2018
### 

@<TRIPOS>MOLECULE
4p4d_ligand
   41    41     1     0     0
SMALL
GAST_HUCK


@<TRIPOS>ATOM
      1 CAK        23.4920   49.0820   45.3590 C.ar      1 2GR        -0.0419
      2 CAI        24.2740   50.2450   45.3090 C.ar      1 2GR        -0.0562
      3 CAH        23.6670   51.5100   45.2860 C.ar      1 2GR        -0.0575
      4 CAJ        22.2690   51.6110   45.3090 C.ar      1 2GR        -0.0562
      5 CAL        21.5000   50.4400   45.3470 C.ar      1 2GR        -0.0419
      6 CAW        22.0930   49.1630   45.3730 C.ar      1 2GR         0.0498
      7 CAV        21.2300   47.8580   45.4260 C.2       1 2GR         0.2050
      8 OAC        20.2610   47.7350   46.2120 O.2       1 2GR        -0.3847
      9 NAQ        21.6050   46.8930   44.5530 N.am      1 2GR        -0.2835
     10 CAM        20.9160   45.5540   44.5200 C.3       1 2GR         0.0591
     11 CAN        19.4940   45.6000   43.9030 C.3       1 2GR         0.1040
     12 OAS        18.6250   44.7550   44.7010 O.3       1 2GR        -0.2592
     13 PAY        17.5470   43.8240   44.0370 P.3       1 2GR         0.2032
     14 OAG        16.8760   43.0170   45.1030 O.co2     1 2GR        -0.6076
     15 OAD        18.2510   42.9210   43.0180 O.co2     1 2GR        -0.6076
     16 N          16.4320   44.8060   43.2780 N.am      1 2GR        -0.2605
     17 CA         16.0230   44.2930   41.9290 C.3       1 2GR         0.0893
     18 C          17.0800   44.4750   40.8220 C.2       1 2GR         0.0564
     19 OXT        17.9860   45.3570   40.9490 O.co2     1 2GR        -0.5670
     20 O          16.9480   43.6820   39.8390 O.co2     1 2GR        -0.5670
     21 CB         14.7130   45.0410   41.4810 C.3       1 2GR        -0.0099
     22 CG         14.9360   46.5510   41.4260 C.3       1 2GR         0.0034
     23 CD         13.8190   47.3510   40.6960 C.2       1 2GR         0.0350
     24 OE2        13.0490   46.7640   39.8770 O.co2     1 2GR        -0.5690
     25 OE1        13.8130   48.5850   40.8930 O.co2     1 2GR        -0.5690
     26 H1         23.9741   48.1115   45.3871 H         1 2GR         0.0669
     27 H2         25.3549   50.1663   45.2880 H         1 2GR         0.0629
     28 H3         24.2767   52.4056   45.2506 H         1 2GR         0.0653
     29 H4         21.7888   52.5828   45.2975 H         1 2GR         0.0629
     30 H5         20.4190   50.5194   45.3566 H         1 2GR         0.0669
     31 H6         22.3552   47.0732   43.9168 H         1 2GR         0.1846
     32 H7         20.8352   45.1794   45.5511 H         1 2GR         0.0546
     33 H8         21.5303   44.8618   43.9255 H         1 2GR         0.0546
     34 H9         19.5252   45.2294   42.8678 H         1 2GR         0.0644
     35 H10        19.1179   46.6337   43.9112 H         1 2GR         0.0644
     36 H11        16.0738   45.6485   43.6803 H         1 2GR         0.1677
     37 H12        15.8121   43.2177   42.0253 H         1 2GR         0.0681
     38 H13        13.9100   44.8221   42.2002 H         1 2GR         0.0319
     39 H14        14.4187   44.6844   40.4829 H         1 2GR         0.0319
     40 H15        15.8864   46.7375   40.9046 H         1 2GR         0.0432
     41 H16        15.0047   46.9243   42.4584 H         1 2GR         0.0432
@<TRIPOS>BOND
     1    1    2 ar 
     2    1    6 ar 
     3    2    3 ar 
     4    3    4 ar 
     5    4    5 ar 
     6    5    6 ar 
     7    6    7 1  
     8    7    8 2  
     9    7    9 am 
    10    9   10 1  
    11   10   11 1  
    12   11   12 1  
    13   12   13 1  
    14   13   14 ar 
    15   13   15 ar 
    16   13   16 am 
    17   16   17 1  
    18   17   18 1  
    19   17   21 1  
    20   18   19 ar 
    21   18   20 ar 
    22   21   22 1  
    23   22   23 1  
    24   23   24 ar 
    25   23   25 ar 
    26    1   26 1  
    27    2   27 1  
    28    3   28 1  
    29    4   29 1  
    30    5   30 1  
    31    9   31 1  
    32   10   32 1  
    33   10   33 1  
    34   11   34 1  
    35   11   35 1  
    36   16   36 1  
    37   17   37 1  
    38   21   38 1  
    39   21   39 1  
    40   22   40 1  
    41   22   41 1  
@<TRIPOS>SUBSTRUCTURE
     1 2GR         1

