4p4d_ligand
  -I-interpret- 

 44 44  0  0  0  0  0  0  0  0999 V2000
   23.4920   49.0820   45.3590 C   0  0  0  0  0
   24.2740   50.2450   45.3090 C   0  0  0  0  0
   23.6670   51.5100   45.2860 C   0  0  0  0  0
   22.2690   51.6110   45.3090 C   0  0  0  0  0
   21.5000   50.4400   45.3470 C   0  0  0  0  0
   22.0930   49.1630   45.3730 C   0  0  0  0  0
   21.2300   47.8580   45.4260 C   0  0  0  0  0
   20.2610   47.7350   46.2120 O   0  0  0  0  0
   21.6050   46.8930   44.5530 N   0  0  0  0  0
   20.9160   45.5540   44.5200 C   0  0  0  0  0
   19.4940   45.6000   43.9030 C   0  0  0  0  0
   18.6250   44.7550   44.7010 O   0  0  0  0  0
   17.5470   43.8240   44.0370 P   0  0  0  0  0
   16.8760   43.0170   45.1030 O   0  0  0  0  0
   18.2510   42.9210   43.0180 O   0  0  0  0  0
   16.4320   44.8060   43.2780 N   0  0  0  0  0
   16.0230   44.2930   41.9290 C   0  0  0  0  0
   17.0800   44.4750   40.8220 C   0  0  0  0  0
   17.9860   45.3570   40.9490 O   0  0  0  0  0
   16.9480   43.6820   39.8390 O   0  0  0  0  0
   14.7130   45.0410   41.4810 C   0  0  0  0  0
   14.9360   46.5510   41.4260 C   0  0  0  0  0
   13.8190   47.3510   40.6960 C   0  0  0  0  0
   13.0490   46.7640   39.8770 O   0  0  0  0  0
   13.8130   48.5850   40.8930 O   0  0  0  0  0
   23.9767   48.1061   45.3872 H   0  0  0  0  0
   25.3609   50.1658   45.2879 H   0  0  0  0  0
   24.2801   52.4105   45.2504 H   0  0  0  0  0
   21.7861   52.5881   45.2975 H   0  0  0  0  0
   20.4130   50.5199   45.3567 H   0  0  0  0  0
   22.3702   47.0768   43.9041 H   0  0  0  0  0
   20.8133   45.2147   45.5507 H   0  0  0  0  0
   21.5196   44.8920   43.8991 H   0  0  0  0  0
   19.5209   45.2431   42.8734 H   0  0  0  0  0
   19.1203   46.6239   43.8995 H   0  0  0  0  0
   18.6717   43.4643   42.3476 H   0  0  0  0  0
   16.0666   45.6654   43.6884 H   0  0  0  0  0
   15.8784   43.2192   42.0479 H   0  0  0  0  0
   17.8639   45.8223   41.7798 H   0  0  0  0  0
   13.9253   44.8301   42.2043 H   0  0  0  0  0
   14.4341   44.6924   40.4866 H   0  0  0  0  0
   15.8577   46.7140   40.8675 H   0  0  0  0  0
   14.9560   46.9051   42.4567 H   0  0  0  0  0
   13.2284   45.8210   39.8905 H   0  0  0  0  0
  1  2  4  0  0  0
  1  6  4  0  0  0
  2  3  4  0  0  0
  3  4  4  0  0  0
  4  5  4  0  0  0
  5  6  4  0  0  0
  6  7  1  0  0  0
  7  8  2  0  0  0
  7  9  1  0  0  0
  9 10  1  0  0  0
 10 11  1  0  0  0
 11 12  1  0  0  0
 12 13  1  0  0  0
 13 14  2  0  0  0
 13 15  1  0  0  0
 13 16  1  0  0  0
 16 17  1  0  0  0
 17 18  1  0  0  0
 17 21  1  0  0  0
 18 19  1  0  0  0
 18 20  2  0  0  0
 21 22  1  0  0  0
 22 23  1  0  0  0
 23 24  1  0  0  0
 23 25  2  0  0  0
  1 26  1  0  0  0
  2 27  1  0  0  0
  3 28  1  0  0  0
  4 29  1  0  0  0
  5 30  1  0  0  0
  9 31  1  0  0  0
 10 32  1  0  0  0
 10 33  1  0  0  0
 11 34  1  0  0  0
 11 35  1  0  0  0
 15 36  1  0  0  0
 16 37  1  0  0  0
 17 38  1  0  0  0
 19 39  1  0  0  0
 21 40  1  0  0  0
 21 41  1  0  0  0
 22 42  1  0  0  0
 22 43  1  0  0  0
 24 44  1  0  0  0
M  END
$$$$
