2fjn_ligand
  -I-interpret- 

 71 75  0  0  0  0  0  0  0  0999 V2000
   35.2030   50.6020   55.2820 O   0  0  0  0  0
   36.1970   49.9800   55.5170 C   0  0  0  0  0
   37.1310   50.4100   56.3590 O   0  0  0  0  0
   36.8440   50.4060   57.7730 C   0  0  0  0  0
   36.4750   48.6790   54.8840 C   0  0  0  0  0
   37.8230   48.2820   54.6800 C   0  0  0  0  0
   38.1130   47.0450   54.0780 C   0  0  0  0  0
   35.4220   47.8160   54.4770 C   0  0  0  0  0
   35.7190   46.5820   53.8770 C   0  0  0  0  0
   37.0700   46.1540   53.6550 C   0  0  0  0  0
   37.5430   44.7870   52.9750 C   0  0  0  0  0
   38.4510   44.1510   53.4780 N   0  0  0  0  0
   39.5180   43.6990   52.7490 N   0  0  0  0  0
   40.2240   43.0710   53.6930 N   0  0  0  0  0
   39.7500   43.0520   54.9640 C   0  0  0  0  0
   40.2170   42.5070   56.1320 C   0  0  0  0  0
   38.5120   43.7890   54.8920 C   0  0  0  0  0
   37.7790   43.9430   56.0880 C   0  0  0  0  0
   38.2480   43.3880   57.3020 C   0  0  0  0  0
   39.4760   42.6660   57.3190 C   0  0  0  0  0
   37.9040   45.3370   51.5090 C   0  0  0  0  0
   36.9670   46.1260   50.5980 C   0  0  0  0  0
   36.1640   45.4420   49.6660 C   0  0  0  0  0
   35.2650   46.1260   48.8360 C   0  0  0  0  0
   35.1320   47.5430   48.9060 C   0  0  0  0  0
   34.1320   48.2590   48.0370 C   0  0  0  0  0
   33.0980   47.4290   47.9410 F   0  0  0  0  0
   34.6650   48.7380   46.3330 P   0  0  0  0  0
   35.8200   49.7490   46.4460 O   0  0  0  0  0
   35.0700   47.4950   45.6640 O   0  0  0  0  0
   33.4700   49.4130   45.6190 O   0  0  0  0  0
   33.7430   49.4000   48.6400 F   0  0  0  0  0
   35.9470   48.2480   49.8340 C   0  0  0  0  0
   36.8490   47.5440   50.6660 C   0  0  0  0  0
   36.2770   43.9060   52.7920 C   0  0  0  0  0
   36.5200   42.6230   52.0140 C   0  0  0  0  0
   35.5760   42.0260   51.2590 C   0  0  0  0  0
   35.7730   40.7760   50.4910 C   0  0  0  0  0
   35.0430   40.5340   49.3070 C   0  0  0  0  0
   35.2370   39.3360   48.5830 C   0  0  0  0  0
   36.1600   38.3640   49.0310 C   0  0  0  0  0
   36.9020   38.5860   50.2170 C   0  0  0  0  0
   36.7110   39.7940   50.9520 C   0  0  0  0  0
   35.9805   51.0416   57.9690 H   0  0  0  0  0
   36.6278   49.3876   58.0957 H   0  0  0  0  0
   37.7077   50.7858   58.3188 H   0  0  0  0  0
   38.6356   48.9385   54.9912 H   0  0  0  0  0
   39.1534   46.7560   53.9291 H   0  0  0  0  0
   34.3842   48.1119   54.6306 H   0  0  0  0  0
   34.9000   45.9309   53.5713 H   0  0  0  0  0
   41.1562   41.9539   56.1419 H   0  0  0  0  0
   36.8400   44.4963   56.0764 H   0  0  0  0  0
   37.6728   43.5122   58.2195 H   0  0  0  0  0
   39.8423   42.2363   58.2514 H   0  0  0  0  0
   38.0418   44.4130   50.9474 H   0  0  0  0  0
   38.6801   46.0707   51.7266 H   0  0  0  0  0
   36.2429   44.3577   49.5880 H   0  0  0  0  0
   34.6579   45.5649   48.1256 H   0  0  0  0  0
   35.5077   50.5417   46.8883 H   0  0  0  0  0
   33.2350   50.2195   46.0838 H   0  0  0  0  0
   35.8765   49.3334   49.9044 H   0  0  0  0  0
   37.4662   48.0978   51.3734 H   0  0  0  0  0
   35.5543   44.4940   52.2262 H   0  0  0  0  0
   35.9370   43.6198   53.7873 H   0  0  0  0  0
   37.5065   42.1628   52.0693 H   0  0  0  0  0
   34.5951   42.4988   51.2105 H   0  0  0  0  0
   34.3269   41.2742   48.9499 H   0  0  0  0  0
   34.6689   39.1598   47.6696 H   0  0  0  0  0
   36.3008   37.4438   48.4640 H   0  0  0  0  0
   37.6145   37.8386   50.5660 H   0  0  0  0  0
   37.2790   39.9707   51.8654 H   0  0  0  0  0
  1  2  2  0  0  0
  2  3  1  0  0  0
  2  5  1  0  0  0
  3  4  1  0  0  0
  5  6  4  0  0  0
  5  8  4  0  0  0
  6  7  4  0  0  0
  7 10  4  0  0  0
  8  9  4  0  0  0
  9 10  4  0  0  0
 10 11  1  0  0  0
 11 12  1  0  0  0
 11 21  1  0  0  0
 11 35  1  0  0  0
 12 13  4  0  0  0
 12 17  4  0  0  0
 13 14  4  0  0  0
 14 15  4  0  0  0
 15 16  4  0  0  0
 15 17  4  0  0  0
 16 20  4  0  0  0
 17 18  4  0  0  0
 18 19  4  0  0  0
 19 20  4  0  0  0
 21 22  1  0  0  0
 22 23  4  0  0  0
 22 34  4  0  0  0
 23 24  4  0  0  0
 24 25  4  0  0  0
 25 26  1  0  0  0
 25 33  4  0  0  0
 26 27  1  0  0  0
 26 28  1  0  0  0
 26 32  1  0  0  0
 28 29  1  0  0  0
 28 30  2  0  0  0
 28 31  1  0  0  0
 33 34  4  0  0  0
 35 36  1  0  0  0
 36 37  2  0  0  0
 37 38  1  0  0  0
 38 39  4  0  0  0
 38 43  4  0  0  0
 39 40  4  0  0  0
 40 41  4  0  0  0
 41 42  4  0  0  0
 42 43  4  0  0  0
  4 44  1  0  0  0
  4 45  1  0  0  0
  4 46  1  0  0  0
  6 47  1  0  0  0
  7 48  1  0  0  0
  8 49  1  0  0  0
  9 50  1  0  0  0
 16 51  1  0  0  0
 18 52  1  0  0  0
 19 53  1  0  0  0
 20 54  1  0  0  0
 21 55  1  0  0  0
 21 56  1  0  0  0
 23 57  1  0  0  0
 24 58  1  0  0  0
 29 59  1  0  0  0
 31 60  1  0  0  0
 33 61  1  0  0  0
 34 62  1  0  0  0
 35 63  1  0  0  0
 35 64  1  0  0  0
 36 65  1  0  0  0
 37 66  1  0  0  0
 39 67  1  0  0  0
 40 68  1  0  0  0
 41 69  1  0  0  0
 42 70  1  0  0  0
 43 71  1  0  0  0
M  END
$$$$
