### 
### Created by X-TOOL on Mon Sep 10 21:12:54 2018
### 

@<TRIPOS>MOLECULE
2fjn_ligand
   69    73     1     0     0
SMALL
GAST_HUCK


@<TRIPOS>ATOM
      1 O71        35.2030   50.6020   55.2820 O.2       1 073        -0.3437
      2 C65        36.1970   49.9800   55.5170 C.2       1 073         0.2830
      3 O66        37.1310   50.4100   56.3590 O.3       1 073        -0.2774
      4 C67        36.8440   50.4060   57.7730 C.3       1 073         0.0650
      5 C58        36.4750   48.6790   54.8840 C.ar      1 073         0.0893
      6 C57        37.8230   48.2820   54.6800 C.ar      1 073        -0.0129
      7 C56        38.1130   47.0450   54.0780 C.ar      1 073        -0.0322
      8 C59        35.4220   47.8160   54.4770 C.ar      1 073        -0.0129
      9 C60        35.7190   46.5820   53.8770 C.ar      1 073        -0.0322
     10 C55        37.0700   46.1540   53.6550 C.ar      1 073        -0.0078
     11 C11        37.5430   44.7870   52.9750 C.3       1 073         0.1144
     12 N12        38.4510   44.1510   53.4780 N.pl3     1 073        -0.1782
     13 N23        39.5180   43.6990   52.7490 N.2       1 073        -0.0825
     14 N22        40.2240   43.0710   53.6930 N.2       1 073        -0.2001
     15 C18        39.7500   43.0520   54.9640 C.ar      1 073         0.0753
     16 C17        40.2170   42.5070   56.1320 C.ar      1 073        -0.0506
     17 C19        38.5120   43.7890   54.8920 C.ar      1 073         0.1062
     18 C20        37.7790   43.9430   56.0880 C.ar      1 073        -0.0323
     19 C21        38.2480   43.3880   57.3020 C.ar      1 073        -0.0695
     20 C16        39.4760   42.6660   57.3190 C.ar      1 073        -0.0707
     21 C13        37.9040   45.3370   51.5090 C.3       1 073         0.0107
     22 C2         36.9670   46.1260   50.5980 C.ar      1 073        -0.0159
     23 C3         36.1640   45.4420   49.6660 C.ar      1 073        -0.0289
     24 C4         35.2650   46.1260   48.8360 C.ar      1 073        -0.0385
     25 C5         35.1320   47.5430   48.9060 C.ar      1 073         0.0219
     26 C28        34.1320   48.2590   48.0370 C.3       1 073         0.2931
     27 F30        33.0980   47.4290   47.9410 F         1 073        -0.2419
     28 P31        34.6650   48.7380   46.3330 P.3       1 073         0.0966
     29 O34        35.8200   49.7490   46.4460 O.co2     1 073        -0.5668
     30 O33        35.0700   47.4950   45.6640 O.co2     1 073        -0.5668
     31 O32        33.4700   49.4130   45.6190 O.co2     1 073        -0.5668
     32 F29        33.7430   49.4000   48.6400 F         1 073        -0.2419
     33 C6         35.9470   48.2480   49.8340 C.ar      1 073        -0.0385
     34 C1         36.8490   47.5440   50.6660 C.ar      1 073        -0.0289
     35 C37        36.2770   43.9060   52.7920 C.3       1 073        -0.0058
     36 C38        36.5200   42.6230   52.0140 C.2       1 073        -0.0784
     37 C41        35.5760   42.0260   51.2590 C.2       1 073        -0.0674
     38 C43        35.7730   40.7760   50.4910 C.ar      1 073        -0.0410
     39 C49        35.0430   40.5340   49.3070 C.ar      1 073        -0.0619
     40 C48        35.2370   39.3360   48.5830 C.ar      1 073        -0.0664
     41 C47        36.1600   38.3640   49.0310 C.ar      1 073        -0.0664
     42 C46        36.9020   38.5860   50.2170 C.ar      1 073        -0.0664
     43 C45        36.7110   39.7940   50.9520 C.ar      1 073        -0.0619
     44 H1         37.7149   50.7891   58.3250 H         1 073         0.0575
     45 H2         36.6256   49.3787   58.1000 H         1 073         0.0575
     46 H3         35.9727   51.0472   57.9721 H         1 073         0.0575
     47 H4         38.6311   48.9348   54.9894 H         1 073         0.0744
     48 H5         39.1477   46.7576   53.9299 H         1 073         0.0856
     49 H6         34.3900   48.1103   54.6297 H         1 073         0.0744
     50 H7         34.9046   45.9345   53.5730 H         1 073         0.0856
     51 H8         41.1510   41.9570   56.1419 H         1 073         0.0596
     52 H9         36.8451   44.4933   56.0764 H         1 073         0.0566
     53 H10        37.6759   43.5115   58.2144 H         1 073         0.0580
     54 H11        39.8403   42.2387   58.2462 H         1 073         0.0540
     55 H12        38.1918   44.4480   50.9286 H         1 073         0.0440
     56 H13        38.7830   45.9831   51.6501 H         1 073         0.0440
     57 H14        36.2425   44.3636   49.5885 H         1 073         0.0652
     58 H15        34.6612   45.5680   48.1295 H         1 073         0.0835
     59 H16        35.8769   49.3275   49.9040 H         1 073         0.0835
     60 H17        37.4628   48.0948   51.3695 H         1 073         0.0652
     61 H18        35.5197   44.4968   52.2558 H         1 073         0.0407
     62 H19        35.8954   43.6385   53.7884 H         1 073         0.0407
     63 H20        37.5056   42.1632   52.0692 H         1 073         0.0728
     64 H21        34.5960   42.4984   51.2106 H         1 073         0.0430
     65 H22        34.3309   41.2701   48.9519 H         1 073         0.0579
     66 H23        34.6720   39.1608   47.6746 H         1 073         0.0605
     67 H24        36.3001   37.4488   48.4672 H         1 073         0.0579
     68 H25        37.6106   37.8427   50.5641 H         1 073         0.0605
     69 H26        37.2758   39.9698   51.8604 H         1 073         0.0579
@<TRIPOS>BOND
     1    1    2 2  
     2    2    3 1  
     3    2    5 1  
     4    3    4 1  
     5    5    6 ar 
     6    5    8 ar 
     7    6    7 ar 
     8    7   10 ar 
     9    8    9 ar 
    10    9   10 ar 
    11   10   11 1  
    12   11   12 1  
    13   11   21 1  
    14   11   35 1  
    15   12   13 1  
    16   12   17 1  
    17   13   14 2  
    18   14   15 1  
    19   15   16 ar 
    20   15   17 ar 
    21   16   20 ar 
    22   17   18 ar 
    23   18   19 ar 
    24   19   20 ar 
    25   21   22 1  
    26   22   23 ar 
    27   22   34 ar 
    28   23   24 ar 
    29   24   25 ar 
    30   25   26 1  
    31   25   33 ar 
    32   26   27 1  
    33   26   28 1  
    34   26   32 1  
    35   28   29 ar 
    36   28   30 ar 
    37   28   31 ar 
    38   33   34 ar 
    39   35   36 1  
    40   36   37 2  
    41   37   38 1  
    42   38   39 ar 
    43   38   43 ar 
    44   39   40 ar 
    45   40   41 ar 
    46   41   42 ar 
    47   42   43 ar 
    48    4   44 1  
    49    4   45 1  
    50    4   46 1  
    51    6   47 1  
    52    7   48 1  
    53    8   49 1  
    54    9   50 1  
    55   16   51 1  
    56   18   52 1  
    57   19   53 1  
    58   20   54 1  
    59   21   55 1  
    60   21   56 1  
    61   23   57 1  
    62   24   58 1  
    63   33   59 1  
    64   34   60 1  
    65   35   61 1  
    66   35   62 1  
    67   36   63 1  
    68   37   64 1  
    69   39   65 1  
    70   40   66 1  
    71   41   67 1  
    72   42   68 1  
    73   43   69 1  
@<TRIPOS>SUBSTRUCTURE
     1 073         1

