2c94_ligand
  -I-interpret- 

 55 56  0  0  0  0  0  0  0  0999 V2000
   47.2760    3.5220   -1.4210 O   0  0  0  0  0
   47.2250    3.6840    0.0730 P   0  0  0  0  0
   48.5930    3.6690    0.7200 O   0  0  0  0  0
   46.3210    4.8010    0.5490 O   0  0  0  0  0
   46.4410    2.1600    0.6650 C   0  0  0  0  0
   45.1980    2.1080    0.2250 F   0  0  0  0  0
   47.1280    1.1390    0.1860 F   0  0  0  0  0
   46.4300    2.1160    2.1900 C   0  0  0  0  0
   46.4380    0.6850    2.7280 C   0  0  0  0  0
   45.4590    0.5340    3.8870 C   0  0  0  0  0
   44.0430    0.6770    3.3510 C   0  0  0  0  0
   43.0900    0.4180    4.4260 N   0  0  0  0  0
   42.6070   -0.7460    4.8740 C   0  0  0  0  0
   42.8660   -2.1430    4.4590 C   0  0  0  0  0
   43.6580   -2.4280    3.5310 O   0  0  0  0  0
   42.1900   -3.0890    5.1320 N   0  0  0  0  0
   42.4790    1.3160    5.2040 C   0  0  0  0  0
   42.6650    2.5850    5.0870 O   0  0  0  0  0
   41.6320    0.8430    6.1190 N   0  0  0  0  0
   41.6550   -0.4910    5.9700 C   0  0  0  0  0
   41.0700   -1.5420    6.5470 N   0  0  0  0  0
   41.3310   -2.7950    6.1430 C   0  0  0  0  0
   40.7380   -3.7180    6.7320 O   0  0  0  0  0
   40.8930    1.7060    7.0310 C   0  0  0  0  0
   40.2270    1.0250    8.2130 C   0  0  0  0  0
   41.0720    0.0980    8.9140 O   0  0  0  0  0
   39.5550    2.0120    9.1620 C   0  0  0  0  0
   38.1710    1.7020    8.9690 O   0  0  0  0  0
   39.7630    3.5190    8.9130 C   0  0  0  0  0
   41.1230    3.9190    9.1400 O   0  0  0  0  0
   38.8720    4.3650    9.8230 C   0  0  0  0  0
   39.0540    3.9240   11.1800 O   0  0  0  0  0
   48.4980    3.7758    1.6693 H   0  0  0  0  0
   46.3415    4.8411    1.5079 H   0  0  0  0  0
   45.5183    2.6028    2.5362 H   0  0  0  0  0
   47.3282    2.6180    2.5497 H   0  0  0  0  0
   47.4412    0.4498    3.0836 H   0  0  0  0  0
   46.1405    0.0079    1.9274 H   0  0  0  0  0
   45.6507    1.3023    4.6361 H   0  0  0  0  0
   45.5823   -0.4447    4.3507 H   0  0  0  0  0
   43.8850   -0.0384    2.5439 H   0  0  0  0  0
   43.8977    1.6883    2.9712 H   0  0  0  0  0
   42.3269   -4.0663    4.8740 H   0  0  0  0  0
   40.4110   -1.3902    7.3106 H   0  0  0  0  0
   40.0885    2.1489    6.4439 H   0  0  0  0  0
   41.6228    2.3977    7.4517 H   0  0  0  0  0
   39.4384    0.4188    7.7672 H   0  0  0  0  0
   40.5834   -0.2898    9.6437 H   0  0  0  0  0
   39.9795    1.8884   10.1583 H   0  0  0  0  0
   37.6359    2.2717    9.5264 H   0  0  0  0  0
   39.5008    3.6854    7.8682 H   0  0  0  0  0
   41.2102    4.8606    8.9748 H   0  0  0  0  0
   37.8279    4.2502    9.5318 H   0  0  0  0  0
   39.1430    5.4171    9.7346 H   0  0  0  0  0
   38.4993    4.4479   11.7626 H   0  0  0  0  0
  1  2  2  0  0  0
  2  3  1  0  0  0
  2  4  1  0  0  0
  2  5  1  0  0  0
  5  6  1  0  0  0
  5  7  1  0  0  0
  5  8  1  0  0  0
  8  9  1  0  0  0
  9 10  1  0  0  0
 10 11  1  0  0  0
 11 12  1  0  0  0
 12 13  1  0  0  0
 12 17  1  0  0  0
 13 14  1  0  0  0
 13 20  2  0  0  0
 14 15  2  0  0  0
 14 16  1  0  0  0
 16 22  1  0  0  0
 17 18  2  0  0  0
 17 19  1  0  0  0
 19 20  1  0  0  0
 19 24  1  0  0  0
 20 21  1  0  0  0
 21 22  1  0  0  0
 22 23  2  0  0  0
 24 25  1  0  0  0
 25 26  1  0  0  0
 25 27  1  0  0  0
 27 28  1  0  0  0
 27 29  1  0  0  0
 29 30  1  0  0  0
 29 31  1  0  0  0
 31 32  1  0  0  0
  3 33  1  0  0  0
  4 34  1  0  0  0
  8 35  1  0  0  0
  8 36  1  0  0  0
  9 37  1  0  0  0
  9 38  1  0  0  0
 10 39  1  0  0  0
 10 40  1  0  0  0
 11 41  1  0  0  0
 11 42  1  0  0  0
 16 43  1  0  0  0
 21 44  1  0  0  0
 24 45  1  0  0  0
 24 46  1  0  0  0
 25 47  1  0  0  0
 26 48  1  0  0  0
 27 49  1  0  0  0
 28 50  1  0  0  0
 29 51  1  0  0  0
 30 52  1  0  0  0
 31 53  1  0  0  0
 31 54  1  0  0  0
 32 55  1  0  0  0
M  END
$$$$
