2vww_ligand
  -I-interpret- 

 49 52  0  0  0  0  0  0  0  0999 V2000
   15.6950   11.7760   11.0600 C   0  0  0  0  0
   14.4160   11.7710   10.4300 O   0  0  0  0  0
   13.7440   10.5860   10.4780 C   0  0  0  0  0
   14.2400    9.4250   11.0450 C   0  0  0  0  0
   13.4570    8.2590   11.0250 C   0  0  0  0  0
   13.9670    7.1030   11.6000 N   0  0  0  0  0
   13.3060    5.9200   11.8610 C   0  0  0  0  0
   14.0650    4.9040   12.2790 N   0  0  0  0  0
   13.5580    3.7250   12.5960 C   0  0  0  0  0
   12.2090    3.5540   12.4520 C   0  0  0  0  0
   11.4000    4.6260   12.0030 C   0  0  0  0  0
   10.0150    4.4780   11.8490 N   0  0  0  0  0
    9.3310    3.3050   12.2410 C   0  0  0  0  0
    9.2410    2.9390   13.5950 C   0  0  0  0  0
    9.7160    3.5710   14.7100 O   0  0  0  0  0
    9.6720    2.5690   15.7460 C   0  0  0  0  0
    8.6240    1.6570   15.3490 O   0  0  0  0  0
    8.5800    1.7670   13.9770 C   0  0  0  0  0
    8.0000    0.9390   13.0140 C   0  0  0  0  0
    8.1100    1.2870   11.6550 C   0  0  0  0  0
    8.7480    2.4680   11.2820 C   0  0  0  0  0
    8.8730    2.9070    9.6130 Cl  0  0  0  0  0
   11.9860    5.7990   11.7290 N   0  0  0  0  0
   12.2190    8.2220   10.4170 C   0  0  0  0  0
   11.7210    9.3660    9.8370 C   0  0  0  0  0
   10.4800    9.3140    9.2510 O   0  0  0  0  0
   10.4990    8.5130    8.0780 C   0  0  0  0  0
   12.4820   10.5490    9.8740 C   0  0  0  0  0
   12.0330   11.7060    9.3100 O   0  0  0  0  0
   10.8320   12.0750    9.9840 C   0  0  0  0  0
   15.5797   11.5292   12.1154 H   0  0  0  0  0
   16.3375   11.0373   10.5809 H   0  0  0  0  0
   16.1422   12.7654   10.9637 H   0  0  0  0  0
   15.2291    9.4155   11.5029 H   0  0  0  0  0
   14.9524    7.1315   11.8621 H   0  0  0  0  0
   14.1932    2.9173   12.9595 H   0  0  0  0  0
   11.7553    2.5903   12.6834 H   0  0  0  0  0
    9.4813    5.2445   11.4392 H   0  0  0  0  0
    9.4720    3.0098   16.7226 H   0  0  0  0  0
   10.6294    2.0588   15.8520 H   0  0  0  0  0
    7.4689    0.0347   13.3111 H   0  0  0  0  0
    7.6944    0.6299   10.8911 H   0  0  0  0  0
   11.6422    7.2973   10.3964 H   0  0  0  0  0
   11.2046    8.9353    7.3626 H   0  0  0  0  0
   10.8048    7.4993    8.3367 H   0  0  0  0  0
    9.5021    8.4919    7.6378 H   0  0  0  0  0
   10.0930   11.2823    9.8670 H   0  0  0  0  0
   11.0423   12.2240   11.0431 H   0  0  0  0  0
   10.4457   12.9997    9.5553 H   0  0  0  0  0
  1  2  1  0  0  0
  2  3  1  0  0  0
  3  4  4  0  0  0
  3 28  4  0  0  0
  4  5  4  0  0  0
  5  6  1  0  0  0
  5 24  4  0  0  0
  6  7  1  0  0  0
  7  8  4  0  0  0
  7 23  4  0  0  0
  8  9  4  0  0  0
  9 10  4  0  0  0
 10 11  4  0  0  0
 11 12  1  0  0  0
 11 23  4  0  0  0
 12 13  1  0  0  0
 13 14  4  0  0  0
 13 21  4  0  0  0
 14 15  1  0  0  0
 14 18  4  0  0  0
 15 16  1  0  0  0
 16 17  1  0  0  0
 17 18  1  0  0  0
 18 19  4  0  0  0
 19 20  4  0  0  0
 20 21  4  0  0  0
 21 22  1  0  0  0
 24 25  4  0  0  0
 25 26  1  0  0  0
 25 28  4  0  0  0
 26 27  1  0  0  0
 28 29  1  0  0  0
 29 30  1  0  0  0
  1 31  1  0  0  0
  1 32  1  0  0  0
  1 33  1  0  0  0
  4 34  1  0  0  0
  6 35  1  0  0  0
  9 36  1  0  0  0
 10 37  1  0  0  0
 12 38  1  0  0  0
 16 39  1  0  0  0
 16 40  1  0  0  0
 19 41  1  0  0  0
 20 42  1  0  0  0
 24 43  1  0  0  0
 27 44  1  0  0  0
 27 45  1  0  0  0
 27 46  1  0  0  0
 30 47  1  0  0  0
 30 48  1  0  0  0
 30 49  1  0  0  0
M  END
$$$$
