2oxx_ligand
  -I-interpret- 

 16 17  0  0  0  0  0  0  0  0999 V2000
   22.5810    8.4420   16.7820 Br  0  0  0  0  0
   22.1910    7.8580   18.5320 C   0  0  0  0  0
   21.2130    8.6120   19.1490 C   0  0  0  0  0
   20.3270   10.0520   18.2530 Br  0  0  0  0  0
   22.8050    6.7860   19.2230 C   0  0  0  0  0
   23.7590    5.8770   18.9430 N   0  0  0  0  0
   23.9310    5.0750   20.0330 C   0  0  0  0  0
   24.9650    3.7980   20.2190 S   0  0  0  0  0
   23.1030    5.4640   21.0070 N   0  0  0  0  0
   22.4130    6.4980   20.5400 C   0  0  0  0  0
   21.4450    7.2530   21.1540 C   0  0  0  0  0
   20.8900    6.8860   22.9370 Br  0  0  0  0  0
   20.8740    8.2780   20.4410 C   0  0  0  0  0
   19.5750    9.2700   21.2980 Br  0  0  0  0  0
   24.2681    5.8010   18.0624 H   0  0  0  0  0
   23.0172    5.0460   21.9335 H   0  0  0  0  0
  1  2  1  0  0  0
  2  3  4  0  0  0
  2  5  4  0  0  0
  3  4  1  0  0  0
  3 13  4  0  0  0
  5  6  1  0  0  0
  5 10  4  0  0  0
  6  7  1  0  0  0
  7  8  2  0  0  0
  7  9  1  0  0  0
  9 10  1  0  0  0
 10 11  4  0  0  0
 11 12  1  0  0  0
 11 13  4  0  0  0
 13 14  1  0  0  0
  6 15  1  0  0  0
  9 16  1  0  0  0
M  END
$$$$
