### 
### Created by X-TOOL on Mon Sep 10 21:13:04 2018
### 

@<TRIPOS>MOLECULE
3lnz_ligand
  177   180     1     0     0
SMALL
GAST_HUCK


@<TRIPOS>ATOM
      1 N          43.0210   -8.9780   30.4340 N.4       1 THR         0.2398
      2 CA         41.9050   -9.9900   30.3790 C.3       1 THR         0.0910
      3 C          42.4870  -11.4130   30.3230 C.2       1 THR         0.2293
      4 O          43.4340  -11.6520   29.5680 O.2       1 THR        -0.3906
      5 CB         41.1330   -9.7770   29.0850 C.3       1 THR         0.1120
      6 OG1        40.7960   -8.3920   28.9840 O.3       1 THR        -0.3840
      7 CG2        39.8210  -10.6530   29.0470 C.3       1 THR        -0.0314
      8 N          41.9270  -12.3300   31.1060 N.am      1 SER        -0.2588
      9 CA         42.3790  -13.6980   31.1600 C.3       1 SER         0.1540
     10 C          41.8220  -14.4060   29.9280 C.2       1 SER         0.2063
     11 O          40.8070  -13.9860   29.4070 O.2       1 SER        -0.3943
     12 CB         41.8320  -14.3860   32.4350 C.3       1 SER         0.0843
     13 OG         40.4080  -14.3390   32.4410 O.3       1 SER        -0.3903
     14 N          42.4740  -15.4900   29.4850 N.am      1 PHE        -0.2619
     15 CA         41.8650  -16.4370   28.5840 C.3       1 PHE         0.1404
     16 C          40.4680  -16.8250   29.1360 C.2       1 PHE         0.2059
     17 O          39.5360  -16.8810   28.3960 O.2       1 PHE        -0.3942
     18 CB         42.7220  -17.7120   28.3070 C.3       1 PHE         0.0214
     19 CG         41.9330  -18.8160   27.5850 C.ar      1 PHE        -0.0386
     20 CD1        41.8380  -18.8180   26.1850 C.ar      1 PHE        -0.0601
     21 CD2        41.3110  -19.8410   28.3110 C.ar      1 PHE        -0.0601
     22 CE1        41.1000  -19.7800   25.4980 C.ar      1 PHE        -0.0686
     23 CE2        40.5870  -20.8430   27.6490 C.ar      1 PHE        -0.0686
     24 CZ         40.4650  -20.8120   26.2220 C.ar      1 PHE        -0.0687
     25 N          40.3370  -17.0650   30.4430 N.am      1 ALA        -0.2639
     26 CA         39.0300  -17.5420   30.9820 C.3       1 ALA         0.1282
     27 C          37.8680  -16.6100   30.6870 C.2       1 ALA         0.2036
     28 O          36.7490  -17.0280   30.3140 O.2       1 ALA        -0.3944
     29 CB         39.1500  -17.8950   32.5200 C.3       1 ALA        -0.0244
     30 N          38.1180  -15.3200   30.8500 N.am      1 GLU        -0.2636
     31 CA         37.1260  -14.3100   30.5280 C.3       1 GLU         0.1325
     32 C          36.8260  -14.2790   29.0480 C.2       1 GLU         0.2041
     33 O          35.6650  -14.2980   28.6430 O.2       1 GLU        -0.3944
     34 CB         37.5490  -12.9390   31.1010 C.3       1 GLU        -0.0008
     35 CG         36.6590  -11.8040   30.6360 C.3       1 GLU         0.0044
     36 CD         36.8640  -10.5540   31.3850 C.2       1 GLU         0.0350
     37 OE1        35.9080   -9.7200   31.3870 O.co2     1 GLU        -0.5690
     38 OE2        37.9620  -10.4080   31.9670 O.co2     1 GLU        -0.5690
     39 N          37.8540  -14.2980   28.2100 N.am      1 TYR        -0.2621
     40 CA         37.6410  -14.1780   26.7760 C.3       1 TYR         0.1390
     41 C          36.8010  -15.3410   26.3270 C.2       1 TYR         0.2058
     42 O          35.8720  -15.1950   25.5480 O.2       1 TYR        -0.3942
     43 CB         38.9730  -14.2300   26.0040 C.3       1 TYR         0.0163
     44 CG         39.7930  -12.9670   25.9050 C.ar      1 TYR        -0.0493
     45 CD1        39.3140  -11.8560   25.2150 C.ar      1 TYR        -0.0685
     46 CD2        41.0970  -12.9270   26.4210 C.ar      1 TYR        -0.0685
     47 CE1        40.0810  -10.7280   25.0660 C.ar      1 TYR        -0.0398
     48 CE2        41.8780  -11.7790   26.2970 C.ar      1 TYR        -0.0398
     49 CZ         41.3440  -10.6810   25.6060 C.ar      1 TYR         0.0805
     50 OH         42.0770   -9.5530   25.4410 O.3       1 TYR        -0.3376
     51 N          37.1690  -16.5200   26.8020 N.am      1 TRP        -0.2625
     52 CA         36.3960  -17.7340   26.5700 C.3       1 TRP         0.1352
     53 C          34.9280  -17.6010   26.9980 C.2       1 TRP         0.2052
     54 O          34.0110  -17.9340   26.2150 O.2       1 TRP        -0.3942
     55 CB         37.0630  -18.9540   27.2080 C.3       1 TRP         0.0042
     56 CG         36.5000  -20.2220   26.6190 C.2       1 TRP        -0.0418
     57 CD1        35.5970  -21.0340   27.1700 C.2       1 TRP         0.0167
     58 CD2        36.7900  -20.7450   25.3140 C.ar      1 TRP        -0.0214
     59 NE1        35.2980  -22.0830   26.3000 N.pl3     1 TRP        -0.2890
     60 CE2        35.9890  -21.8850   25.1360 C.ar      1 TRP         0.0603
     61 CE3        37.6330  -20.3170   24.2510 C.ar      1 TRP        -0.0747
     62 CZ2        36.0330  -22.6660   23.9710 C.ar      1 TRP        -0.0443
     63 CZ3        37.6520  -21.0710   23.0790 C.ar      1 TRP        -0.0792
     64 CH2        36.8550  -22.2310   22.9500 C.ar      1 TRP        -0.0768
     65 N          34.6900  -17.0730   28.2040 N.am      1 ALA        -0.2639
     66 CA         33.3340  -17.0050   28.7270 C.3       1 ALA         0.1282
     67 C          32.5110  -16.0810   27.8490 C.2       1 ALA         0.2036
     68 O          31.2870  -16.2730   27.7010 O.2       1 ALA        -0.3944
     69 CB         33.3190  -16.5180   30.1620 C.3       1 ALA        -0.0244
     70 N          33.1720  -15.0890   27.2390 N.am      1 LEU        -0.2637
     71 CA         32.4880  -14.1880   26.3540 C.3       1 LEU         0.1312
     72 C          31.9740  -14.7540   25.0860 C.2       1 LEU         0.2039
     73 O          31.2390  -14.0550   24.4300 O.2       1 LEU        -0.3944
     74 CB         33.3100  -12.9670   25.9930 C.3       1 LEU        -0.0101
     75 CG         33.4930  -12.0580   27.2100 C.3       1 LEU        -0.0425
     76 CD1        34.5410  -11.0370   26.9170 C.3       1 LEU        -0.0625
     77 CD2        32.1390  -11.4540   27.7660 C.3       1 LEU        -0.0625
     78 N          32.3980  -15.9530   24.7070 N.am      1 LEU        -0.2637
     79 CA         31.7670  -16.6830   23.5580 C.3       1 LEU         0.1312
     80 C          30.3040  -16.9500   23.8630 C.2       1 LEU         0.2034
     81 O          29.4720  -17.1050   22.9440 O.2       1 LEU        -0.3944
     82 CB         32.5070  -17.9810   23.2750 C.3       1 LEU        -0.0101
     83 CG         33.9880  -17.8370   22.8500 C.3       1 LEU        -0.0425
     84 CD1        34.5910  -19.2470   22.7620 C.3       1 LEU        -0.0625
     85 CD2        34.1190  -17.1060   21.4920 C.3       1 LEU        -0.0625
     86 N          29.9880  -16.9770   25.1640 N.am      1 SER        -0.2672
     87 CA         28.6220  -16.9230   25.6220 C.3       1 SER         0.1173
     88 C          28.4950  -16.0800   26.9170 C.2       1 SER         0.0623
     89 O          27.8960  -14.9900   26.9140 O.co2     1 SER        -0.5665
     90 CB         28.1110  -18.3290   25.8360 C.3       1 SER         0.0789
     91 OG         29.0740  -19.0290   26.5440 O.3       1 SER        -0.3910
     92 OXT        28.9890  -16.4750   27.9880 O.co2     1 SER        -0.5665
     93 H1         43.5457   -9.1025   31.2856 H         1 THR         0.2016
     94 H2         42.6327   -8.0481   30.4115 H         1 THR         0.2016
     95 H3         43.6308   -9.1068   29.6418 H         1 THR         0.2016
     96 H4         41.2454   -9.8773   31.2521 H         1 THR         0.1125
     97 H5         41.7716  -10.0597   28.2352 H         1 THR         0.0674
     98 H6         40.3128   -8.2426   28.1798 H         1 THR         0.2102
     99 H7         39.2887  -10.4752   28.1009 H         1 THR         0.0258
    100 H8         39.1713  -10.3771   29.8906 H         1 THR         0.0258
    101 H9         40.0884  -11.7173   29.1229 H         1 THR         0.0258
    102 H10        41.1573  -12.0585   31.6838 H         1 SER         0.1885
    103 H11        43.4783  -13.7355   31.1588 H         1 SER         0.0823
    104 H12        42.2174  -13.8652   33.3239 H         1 SER         0.0606
    105 H13        42.1619  -15.4352   32.4529 H         1 SER         0.0606
    106 H14        40.1221  -13.4331   32.4268 H         1 SER         0.2097
    107 H15        43.4135  -15.6472   29.7892 H         1 PHE         0.1885
    108 H16        41.7233  -15.9284   27.6190 H         1 PHE         0.0823
    109 H17        43.0822  -18.1087   29.2677 H         1 PHE         0.0474
    110 H18        43.5816  -17.4285   27.6819 H         1 PHE         0.0474
    111 H19        42.3537  -18.0489   25.6215 H         1 PHE         0.0557
    112 H20        41.3902  -19.8593   29.3920 H         1 PHE         0.0557
    113 H21        41.0144  -19.7362   24.4183 H         1 PHE         0.0599
    114 H22        40.1202  -21.6400   28.2164 H         1 PHE         0.0599
    115 H23        39.8916  -21.5723   25.7041 H         1 PHE         0.0559
    116 H24        41.1125  -16.9255   31.0587 H         1 ALA         0.1883
    117 H25        38.8044  -18.4835   30.4599 H         1 ALA         0.0797
    118 H26        38.1757  -18.2435   32.8933 H         1 ALA         0.0277
    119 H27        39.4576  -16.9990   33.0790 H         1 ALA         0.0277
    120 H28        39.9000  -18.6880   32.6568 H         1 ALA         0.0277
    121 H29        39.0094  -15.0352   31.2025 H         1 GLU         0.1883
    122 H30        36.1919  -14.5946   31.0343 H         1 GLU         0.0801
    123 H31        38.5806  -12.7288   30.7823 H         1 GLU         0.0330
    124 H32        37.5076  -12.9899   32.1990 H         1 GLU         0.0330
    125 H33        35.6099  -12.1129   30.7544 H         1 GLU         0.0433
    126 H34        36.8668  -11.6113   29.5732 H         1 GLU         0.0433
    127 H35        38.7830  -14.3956   28.5669 H         1 TYR         0.1885
    128 H36        37.1259  -13.2306   26.5589 H         1 TYR         0.0821
    129 H37        38.7419  -14.5493   24.9771 H         1 TYR         0.0453
    130 H38        39.6023  -14.9893   26.4913 H         1 TYR         0.0453
    131 H39        38.3179  -11.8829   24.7882 H         1 TYR         0.0530
    132 H40        41.5019  -13.7989   26.9219 H         1 TYR         0.0530
    133 H41        39.6911   -9.8747   24.5229 H         1 TYR         0.0525
    134 H42        42.8734  -11.7357   26.7240 H         1 TYR         0.0525
    135 H43        41.5684   -8.9144   24.9549 H         1 TYR         0.2458
    136 H44        38.0094  -16.5805   27.3406 H         1 TRP         0.1884
    137 H45        36.3928  -17.9030   25.4831 H         1 TRP         0.0815
    138 H46        36.8782  -18.9437   28.2923 H         1 TRP         0.0397
    139 H47        38.1462  -18.9158   27.0202 H         1 TRP         0.0397
    140 H48        35.1565  -20.8980   28.1566 H         1 TRP         0.0795
    141 H49        34.6656  -22.8711   26.4998 H         1 TRP         0.2216
    142 H50        38.2447  -19.4276   24.3500 H         1 TRP         0.0540
    143 H51        35.4464  -23.5727   23.8764 H         1 TRP         0.0541
    144 H52        38.2864  -20.7637   22.2555 H         1 TRP         0.0510
    145 H53        36.8898  -22.7945   22.0246 H         1 TRP         0.0530
    146 H54        35.4504  -16.7222   28.7505 H         1 ALA         0.1883
    147 H55        32.8932  -18.0123   28.6966 H         1 ALA         0.0797
    148 H56        32.2814  -16.4786   30.5250 H         1 ALA         0.0277
    149 H57        33.7636  -15.5131   30.2129 H         1 ALA         0.0277
    150 H58        33.9011  -17.2087   30.7898 H         1 ALA         0.0277
    151 H59        34.1521  -14.9743   27.4013 H         1 LEU         0.1883
    152 H60        31.6112  -13.8364   26.9175 H         1 LEU         0.0800
    153 H61        32.7949  -12.4071   25.1986 H         1 LEU         0.0315
    154 H62        34.2976  -13.2905   25.6324 H         1 LEU         0.0315
    155 H63        33.8900  -12.6908   28.0174 H         1 LEU         0.0298
    156 H64        34.6717  -10.3841   27.7926 H         1 LEU         0.0232
    157 H65        34.2321  -10.4323   26.0516 H         1 LEU         0.0232
    158 H66        35.4918  -11.5419   26.6909 H         1 LEU         0.0232
    159 H67        31.4244  -12.2687   27.9549 H         1 LEU         0.0232
    160 H68        31.7158  -10.7595   27.0254 H         1 LEU         0.0232
    161 H69        32.3361  -10.9144   28.7040 H         1 LEU         0.0232
    162 H70        33.1564  -16.3803   25.1991 H         1 LEU         0.1883
    163 H71        31.8277  -16.0471   22.6625 H         1 LEU         0.0800
    164 H72        31.9740  -18.5033   22.4669 H         1 LEU         0.0315
    165 H73        32.4768  -18.5921   24.1891 H         1 LEU         0.0315
    166 H74        34.5274  -17.2575   23.6137 H         1 LEU         0.0298
    167 H75        35.6466  -19.1762   22.4609 H         1 LEU         0.0232
    168 H76        34.0363  -19.8373   22.0178 H         1 LEU         0.0232
    169 H77        34.5220  -19.7373   23.7443 H         1 LEU         0.0232
    170 H78        33.6826  -16.0996   21.5738 H         1 LEU         0.0232
    171 H79        33.5856  -17.6750   20.7163 H         1 LEU         0.0232
    172 H80        35.1819  -17.0238   21.2208 H         1 LEU         0.0232
    173 H81        30.7230  -17.0365   25.8395 H         1 SER         0.1876
    174 H82        28.0117  -16.4449   24.8417 H         1 SER         0.0749
    175 H83        27.9347  -18.8144   24.8648 H         1 SER         0.0599
    176 H84        27.1721  -18.3023   26.4084 H         1 SER         0.0599
    177 H85        29.2238  -18.6023   27.3795 H         1 SER         0.2096
@<TRIPOS>BOND
     1    1    2 1  
     2    2    3 1  
     3    2    5 1  
     4    3    4 2  
     5    3    8 am 
     6    5    6 1  
     7    5    7 1  
     8    8    9 1  
     9    9   10 1  
    10    9   12 1  
    11   10   11 2  
    12   10   14 am 
    13   12   13 1  
    14   14   15 1  
    15   15   16 1  
    16   15   18 1  
    17   16   17 2  
    18   16   25 am 
    19   18   19 1  
    20   19   20 ar 
    21   19   21 ar 
    22   20   22 ar 
    23   21   23 ar 
    24   22   24 ar 
    25   23   24 ar 
    26   25   26 1  
    27   26   27 1  
    28   26   29 1  
    29   27   28 2  
    30   27   30 am 
    31   30   31 1  
    32   31   32 1  
    33   31   34 1  
    34   32   33 2  
    35   32   39 am 
    36   34   35 1  
    37   35   36 1  
    38   36   37 ar 
    39   36   38 ar 
    40   39   40 1  
    41   40   41 1  
    42   40   43 1  
    43   41   42 2  
    44   41   51 am 
    45   43   44 1  
    46   44   45 ar 
    47   44   46 ar 
    48   45   47 ar 
    49   46   48 ar 
    50   47   49 ar 
    51   48   49 ar 
    52   49   50 1  
    53   51   52 1  
    54   52   53 1  
    55   52   55 1  
    56   53   54 2  
    57   53   65 am 
    58   55   56 1  
    59   56   57 2  
    60   56   58 1  
    61   57   59 1  
    62   58   60 ar 
    63   58   61 ar 
    64   59   60 1  
    65   60   62 ar 
    66   61   63 ar 
    67   62   64 ar 
    68   63   64 ar 
    69   65   66 1  
    70   66   67 1  
    71   66   69 1  
    72   67   68 2  
    73   67   70 am 
    74   70   71 1  
    75   71   72 1  
    76   71   74 1  
    77   72   73 2  
    78   72   78 am 
    79   74   75 1  
    80   75   76 1  
    81   75   77 1  
    82   78   79 1  
    83   79   80 1  
    84   79   82 1  
    85   80   81 2  
    86   80   86 am 
    87   82   83 1  
    88   83   84 1  
    89   83   85 1  
    90   86   87 1  
    91   87   88 1  
    92   87   90 1  
    93   88   89 ar 
    94   88   92 ar 
    95   90   91 1  
    96    1   93 1  
    97    1   94 1  
    98    1   95 1  
    99    2   96 1  
   100    5   97 1  
   101    6   98 1  
   102    7   99 1  
   103    7  100 1  
   104    7  101 1  
   105    8  102 1  
   106    9  103 1  
   107   12  104 1  
   108   12  105 1  
   109   13  106 1  
   110   14  107 1  
   111   15  108 1  
   112   18  109 1  
   113   18  110 1  
   114   20  111 1  
   115   21  112 1  
   116   22  113 1  
   117   23  114 1  
   118   24  115 1  
   119   25  116 1  
   120   26  117 1  
   121   29  118 1  
   122   29  119 1  
   123   29  120 1  
   124   30  121 1  
   125   31  122 1  
   126   34  123 1  
   127   34  124 1  
   128   35  125 1  
   129   35  126 1  
   130   39  127 1  
   131   40  128 1  
   132   43  129 1  
   133   43  130 1  
   134   45  131 1  
   135   46  132 1  
   136   47  133 1  
   137   48  134 1  
   138   50  135 1  
   139   51  136 1  
   140   52  137 1  
   141   55  138 1  
   142   55  139 1  
   143   57  140 1  
   144   59  141 1  
   145   61  142 1  
   146   62  143 1  
   147   63  144 1  
   148   64  145 1  
   149   65  146 1  
   150   66  147 1  
   151   69  148 1  
   152   69  149 1  
   153   69  150 1  
   154   70  151 1  
   155   71  152 1  
   156   74  153 1  
   157   74  154 1  
   158   75  155 1  
   159   76  156 1  
   160   76  157 1  
   161   76  158 1  
   162   77  159 1  
   163   77  160 1  
   164   77  161 1  
   165   78  162 1  
   166   79  163 1  
   167   82  164 1  
   168   82  165 1  
   169   83  166 1  
   170   84  167 1  
   171   84  168 1  
   172   84  169 1  
   173   85  170 1  
   174   85  171 1  
   175   85  172 1  
   176   86  173 1  
   177   87  174 1  
   178   90  175 1  
   179   90  176 1  
   180   91  177 1  
@<TRIPOS>SUBSTRUCTURE
     1 THR         1

