3lnz_ligand
  -I-interpret- 

178181  0  0  0  0  0  0  0  0999 V2000
   43.0210   -8.9780   30.4340 N   0  3  0  0  0
   41.9050   -9.9900   30.3790 C   0  0  0  0  0
   42.4870  -11.4130   30.3230 C   0  0  0  0  0
   43.4340  -11.6520   29.5680 O   0  0  0  0  0
   41.1330   -9.7770   29.0850 C   0  0  0  0  0
   40.7960   -8.3920   28.9840 O   0  0  0  0  0
   39.8210  -10.6530   29.0470 C   0  0  0  0  0
   41.9270  -12.3300   31.1060 N   0  0  0  0  0
   42.3790  -13.6980   31.1600 C   0  0  0  0  0
   41.8220  -14.4060   29.9280 C   0  0  0  0  0
   40.8070  -13.9860   29.4070 O   0  0  0  0  0
   41.8320  -14.3860   32.4350 C   0  0  0  0  0
   40.4080  -14.3390   32.4410 O   0  0  0  0  0
   42.4740  -15.4900   29.4850 N   0  0  0  0  0
   41.8650  -16.4370   28.5840 C   0  0  0  0  0
   40.4680  -16.8250   29.1360 C   0  0  0  0  0
   39.5360  -16.8810   28.3960 O   0  0  0  0  0
   42.7220  -17.7120   28.3070 C   0  0  0  0  0
   41.9330  -18.8160   27.5850 C   0  0  0  0  0
   41.8380  -18.8180   26.1850 C   0  0  0  0  0
   41.3110  -19.8410   28.3110 C   0  0  0  0  0
   41.1000  -19.7800   25.4980 C   0  0  0  0  0
   40.5870  -20.8430   27.6490 C   0  0  0  0  0
   40.4650  -20.8120   26.2220 C   0  0  0  0  0
   40.3370  -17.0650   30.4430 N   0  0  0  0  0
   39.0300  -17.5420   30.9820 C   0  0  0  0  0
   37.8680  -16.6100   30.6870 C   0  0  0  0  0
   36.7490  -17.0280   30.3140 O   0  0  0  0  0
   39.1500  -17.8950   32.5200 C   0  0  0  0  0
   38.1180  -15.3200   30.8500 N   0  0  0  0  0
   37.1260  -14.3100   30.5280 C   0  0  0  0  0
   36.8260  -14.2790   29.0480 C   0  0  0  0  0
   35.6650  -14.2980   28.6430 O   0  0  0  0  0
   37.5490  -12.9390   31.1010 C   0  0  0  0  0
   36.6590  -11.8040   30.6360 C   0  0  0  0  0
   36.8640  -10.5540   31.3850 C   0  0  0  0  0
   35.9080   -9.7200   31.3870 O   0  0  0  0  0
   37.9620  -10.4080   31.9670 O   0  0  0  0  0
   37.8540  -14.2980   28.2100 N   0  0  0  0  0
   37.6410  -14.1780   26.7760 C   0  0  0  0  0
   36.8010  -15.3410   26.3270 C   0  0  0  0  0
   35.8720  -15.1950   25.5480 O   0  0  0  0  0
   38.9730  -14.2300   26.0040 C   0  0  0  0  0
   39.7930  -12.9670   25.9050 C   0  0  0  0  0
   39.3140  -11.8560   25.2150 C   0  0  0  0  0
   41.0970  -12.9270   26.4210 C   0  0  0  0  0
   40.0810  -10.7280   25.0660 C   0  0  0  0  0
   41.8780  -11.7790   26.2970 C   0  0  0  0  0
   41.3440  -10.6810   25.6060 C   0  0  0  0  0
   42.0770   -9.5530   25.4410 O   0  0  0  0  0
   37.1690  -16.5200   26.8020 N   0  0  0  0  0
   36.3960  -17.7340   26.5700 C   0  0  0  0  0
   34.9280  -17.6010   26.9980 C   0  0  0  0  0
   34.0110  -17.9340   26.2150 O   0  0  0  0  0
   37.0630  -18.9540   27.2080 C   0  0  0  0  0
   36.5000  -20.2220   26.6190 C   0  0  0  0  0
   35.5970  -21.0340   27.1700 C   0  0  0  0  0
   36.7900  -20.7450   25.3140 C   0  0  0  0  0
   35.2980  -22.0830   26.3000 N   0  0  0  0  0
   35.9890  -21.8850   25.1360 C   0  0  0  0  0
   37.6330  -20.3170   24.2510 C   0  0  0  0  0
   36.0330  -22.6660   23.9710 C   0  0  0  0  0
   37.6520  -21.0710   23.0790 C   0  0  0  0  0
   36.8550  -22.2310   22.9500 C   0  0  0  0  0
   34.6900  -17.0730   28.2040 N   0  0  0  0  0
   33.3340  -17.0050   28.7270 C   0  0  0  0  0
   32.5110  -16.0810   27.8490 C   0  0  0  0  0
   31.2870  -16.2730   27.7010 O   0  0  0  0  0
   33.3190  -16.5180   30.1620 C   0  0  0  0  0
   33.1720  -15.0890   27.2390 N   0  0  0  0  0
   32.4880  -14.1880   26.3540 C   0  0  0  0  0
   31.9740  -14.7540   25.0860 C   0  0  0  0  0
   31.2390  -14.0550   24.4300 O   0  0  0  0  0
   33.3100  -12.9670   25.9930 C   0  0  0  0  0
   33.4930  -12.0580   27.2100 C   0  0  0  0  0
   34.5410  -11.0370   26.9170 C   0  0  0  0  0
   32.1390  -11.4540   27.7660 C   0  0  0  0  0
   32.3980  -15.9530   24.7070 N   0  0  0  0  0
   31.7670  -16.6830   23.5580 C   0  0  0  0  0
   30.3040  -16.9500   23.8630 C   0  0  0  0  0
   29.4720  -17.1050   22.9440 O   0  0  0  0  0
   32.5070  -17.9810   23.2750 C   0  0  0  0  0
   33.9880  -17.8370   22.8500 C   0  0  0  0  0
   34.5910  -19.2470   22.7620 C   0  0  0  0  0
   34.1190  -17.1060   21.4920 C   0  0  0  0  0
   29.9880  -16.9770   25.1640 N   0  0  0  0  0
   28.6220  -16.9230   25.6220 C   0  0  0  0  0
   28.4950  -16.0800   26.9170 C   0  0  0  0  0
   27.8960  -14.9900   26.9140 O   0  0  0  0  0
   28.1110  -18.3290   25.8360 C   0  0  0  0  0
   29.0740  -19.0290   26.5440 O   0  0  0  0  0
   28.9890  -16.4750   27.9880 O   0  0  0  0  0
   43.5512   -9.1049   31.2961 H   0  0  0  0  0
   43.6373   -9.1093   29.6319 H   0  0  0  0  0
   42.6269   -8.0375   30.4111 H   0  0  0  0  0
   41.2724   -9.8723   31.2588 H   0  0  0  0  0
   41.7561  -10.0820   28.2443 H   0  0  0  0  0
   41.5987   -7.8660   29.0078 H   0  0  0  0  0
   39.1772  -10.3771   29.8821 H   0  0  0  0  0
   39.2957  -10.4777   28.1082 H   0  0  0  0  0
   40.0871  -11.7072   29.1245 H   0  0  0  0  0
   41.1419  -12.0531   31.6953 H   0  0  0  0  0
   43.4679  -13.7409   31.1825 H   0  0  0  0  0
   42.2118  -13.8658   33.3143 H   0  0  0  0  0
   42.1566  -15.4265   32.4485 H   0  0  0  0  0
   40.0782  -14.7674   33.2343 H   0  0  0  0  0
   43.4323  -15.6504   29.7953 H   0  0  0  0  0
   41.7796  -15.9428   27.6162 H   0  0  0  0  0
   43.0485  -18.1096   29.2680 H   0  0  0  0  0
   43.5534  -17.4218   27.6646 H   0  0  0  0  0
   42.3565  -18.0446   25.6184 H   0  0  0  0  0
   41.3906  -19.8594   29.3979 H   0  0  0  0  0
   41.0140  -19.7360   24.4123 H   0  0  0  0  0
   40.1176  -21.6445   28.2195 H   0  0  0  0  0
   39.8884  -21.5765   25.7013 H   0  0  0  0  0
   41.1280  -16.9227   31.0710 H   0  0  0  0  0
   38.7891  -18.4591   30.4445 H   0  0  0  0  0
   39.8934  -18.6808   32.6542 H   0  0  0  0  0
   39.4549  -17.0064   33.0727 H   0  0  0  0  0
   38.1841  -18.2401   32.8887 H   0  0  0  0  0
   39.0272  -15.0295   31.2096 H   0  0  0  0  0
   36.1840  -14.5736   31.0089 H   0  0  0  0  0
   38.5611  -12.7315   30.7537 H   0  0  0  0  0
   37.4754  -12.9956   32.1870 H   0  0  0  0  0
   35.6253  -12.1133   30.7907 H   0  0  0  0  0
   36.9007  -11.6042   29.5921 H   0  0  0  0  0
   35.1797  -10.0686   30.8677 H   0  0  0  0  0
   38.8016  -14.3976   28.5741 H   0  0  0  0  0
   37.1555  -13.2227   26.5764 H   0  0  0  0  0
   38.6998  -14.4753   24.9777 H   0  0  0  0  0
   39.5964  -14.9337   26.5555 H   0  0  0  0  0
   38.3124  -11.8830   24.7859 H   0  0  0  0  0
   41.5042  -13.8037   26.9247 H   0  0  0  0  0
   39.6890   -9.8700   24.5199 H   0  0  0  0  0
   42.8789  -11.7355   26.7263 H   0  0  0  0  0
   42.9303   -9.6621   25.8670 H   0  0  0  0  0
   38.0262  -16.5817   27.3514 H   0  0  0  0  0
   36.3836  -17.8879   25.4910 H   0  0  0  0  0
   36.8732  -18.9440   28.2813 H   0  0  0  0  0
   38.1352  -18.9162   27.0152 H   0  0  0  0  0
   35.1561  -20.8978   28.1575 H   0  0  0  0  0
   38.2481  -19.4226   24.3505 H   0  0  0  0  0
   35.4432  -23.5777   23.8759 H   0  0  0  0  0
   38.2899  -20.7620   22.2510 H   0  0  0  0  0
   36.8900  -22.7976   22.0195 H   0  0  0  0  0
   35.4656  -16.7151   28.7615 H   0  0  0  0  0
   32.9037  -18.0064   28.7171 H   0  0  0  0  0
   33.8961  -17.2032   30.7829 H   0  0  0  0  0
   33.7598  -15.5223   30.2111 H   0  0  0  0  0
   32.2904  -16.4794   30.5205 H   0  0  0  0  0
   34.1717  -14.9720   27.4046 H   0  0  0  0  0
   31.6262  -13.9263   26.9680 H   0  0  0  0  0
   32.7901  -12.4107   25.2131 H   0  0  0  0  0
   34.2907  -13.2928   25.6463 H   0  0  0  0  0
   33.8461  -12.6693   28.0405 H   0  0  0  0  0
   35.4825  -11.5385   26.6931 H   0  0  0  0  0
   34.2337  -10.4386   26.0593 H   0  0  0  0  0
   34.6696  -10.3907   27.7853 H   0  0  0  0  0
   31.6605  -10.8604   26.9870 H   0  0  0  0  0
   31.4760  -12.2660   28.0647 H   0  0  0  0  0
   32.3517  -10.8213   28.6277 H   0  0  0  0  0
   33.1716  -16.3889   25.2089 H   0  0  0  0  0
   31.8317  -16.0617   22.6647 H   0  0  0  0  0
   31.9919  -18.4512   22.4373 H   0  0  0  0  0
   32.5093  -18.5426   24.2092 H   0  0  0  0  0
   34.5229  -17.2365   23.5858 H   0  0  0  0  0
   34.5220  -19.7317   23.7359 H   0  0  0  0  0
   34.0405  -19.8308   22.0243 H   0  0  0  0  0
   35.6369  -19.1755   22.4636 H   0  0  0  0  0
   33.5921  -17.6720   20.7238 H   0  0  0  0  0
   33.6841  -16.1099   21.5736 H   0  0  0  0  0
   35.1727  -17.0231   21.2256 H   0  0  0  0  0
   30.7377  -17.0377   25.8530 H   0  0  0  0  0
   28.0135  -16.4337   24.8615 H   0  0  0  0  0
   27.9220  -18.8119   24.8773 H   0  0  0  0  0
   27.1736  -18.3094   26.3920 H   0  0  0  0  0
   28.7705  -19.9276   26.6922 H   0  0  0  0  0
   29.4178  -17.3224   27.8480 H   0  0  0  0  0
  1  2  1  0  0  0
  2  3  1  0  0  0
  2  5  1  0  0  0
  3  4  2  0  0  0
  3  8  1  0  0  0
  5  6  1  0  0  0
  5  7  1  0  0  0
  8  9  1  0  0  0
  9 10  1  0  0  0
  9 12  1  0  0  0
 10 11  2  0  0  0
 10 14  1  0  0  0
 12 13  1  0  0  0
 14 15  1  0  0  0
 15 16  1  0  0  0
 15 18  1  0  0  0
 16 17  2  0  0  0
 16 25  1  0  0  0
 18 19  1  0  0  0
 19 20  4  0  0  0
 19 21  4  0  0  0
 20 22  4  0  0  0
 21 23  4  0  0  0
 22 24  4  0  0  0
 23 24  4  0  0  0
 25 26  1  0  0  0
 26 27  1  0  0  0
 26 29  1  0  0  0
 27 28  2  0  0  0
 27 30  1  0  0  0
 30 31  1  0  0  0
 31 32  1  0  0  0
 31 34  1  0  0  0
 32 33  2  0  0  0
 32 39  1  0  0  0
 34 35  1  0  0  0
 35 36  1  0  0  0
 36 37  1  0  0  0
 36 38  2  0  0  0
 39 40  1  0  0  0
 40 41  1  0  0  0
 40 43  1  0  0  0
 41 42  2  0  0  0
 41 51  1  0  0  0
 43 44  1  0  0  0
 44 45  4  0  0  0
 44 46  4  0  0  0
 45 47  4  0  0  0
 46 48  4  0  0  0
 47 49  4  0  0  0
 48 49  4  0  0  0
 49 50  1  0  0  0
 51 52  1  0  0  0
 52 53  1  0  0  0
 52 55  1  0  0  0
 53 54  2  0  0  0
 53 65  1  0  0  0
 55 56  1  0  0  0
 56 57  4  0  0  0
 56 58  4  0  0  0
 57 59  4  0  0  0
 58 60  4  0  0  0
 58 61  4  0  0  0
 59 60  4  0  0  0
 60 62  4  0  0  0
 61 63  4  0  0  0
 62 64  4  0  0  0
 63 64  4  0  0  0
 65 66  1  0  0  0
 66 67  1  0  0  0
 66 69  1  0  0  0
 67 68  2  0  0  0
 67 70  1  0  0  0
 70 71  1  0  0  0
 71 72  1  0  0  0
 71 74  1  0  0  0
 72 73  2  0  0  0
 72 78  1  0  0  0
 74 75  1  0  0  0
 75 76  1  0  0  0
 75 77  1  0  0  0
 78 79  1  0  0  0
 79 80  1  0  0  0
 79 82  1  0  0  0
 80 81  2  0  0  0
 80 86  1  0  0  0
 82 83  1  0  0  0
 83 84  1  0  0  0
 83 85  1  0  0  0
 86 87  1  0  0  0
 87 88  1  0  0  0
 87 90  1  0  0  0
 88 89  2  0  0  0
 88 92  1  0  0  0
 90 91  1  0  0  0
  1 93  1  0  0  0
  1 94  1  0  0  0
  1 95  1  0  0  0
  2 96  1  0  0  0
  5 97  1  0  0  0
  6 98  1  0  0  0
  7 99  1  0  0  0
  7100  1  0  0  0
  7101  1  0  0  0
  8102  1  0  0  0
  9103  1  0  0  0
 12104  1  0  0  0
 12105  1  0  0  0
 13106  1  0  0  0
 14107  1  0  0  0
 15108  1  0  0  0
 18109  1  0  0  0
 18110  1  0  0  0
 20111  1  0  0  0
 21112  1  0  0  0
 22113  1  0  0  0
 23114  1  0  0  0
 24115  1  0  0  0
 25116  1  0  0  0
 26117  1  0  0  0
 29118  1  0  0  0
 29119  1  0  0  0
 29120  1  0  0  0
 30121  1  0  0  0
 31122  1  0  0  0
 34123  1  0  0  0
 34124  1  0  0  0
 35125  1  0  0  0
 35126  1  0  0  0
 37127  1  0  0  0
 39128  1  0  0  0
 40129  1  0  0  0
 43130  1  0  0  0
 43131  1  0  0  0
 45132  1  0  0  0
 46133  1  0  0  0
 47134  1  0  0  0
 48135  1  0  0  0
 50136  1  0  0  0
 51137  1  0  0  0
 52138  1  0  0  0
 55139  1  0  0  0
 55140  1  0  0  0
 57141  1  0  0  0
 61142  1  0  0  0
 62143  1  0  0  0
 63144  1  0  0  0
 64145  1  0  0  0
 65146  1  0  0  0
 66147  1  0  0  0
 69148  1  0  0  0
 69149  1  0  0  0
 69150  1  0  0  0
 70151  1  0  0  0
 71152  1  0  0  0
 74153  1  0  0  0
 74154  1  0  0  0
 75155  1  0  0  0
 76156  1  0  0  0
 76157  1  0  0  0
 76158  1  0  0  0
 77159  1  0  0  0
 77160  1  0  0  0
 77161  1  0  0  0
 78162  1  0  0  0
 79163  1  0  0  0
 82164  1  0  0  0
 82165  1  0  0  0
 83166  1  0  0  0
 84167  1  0  0  0
 84168  1  0  0  0
 84169  1  0  0  0
 85170  1  0  0  0
 85171  1  0  0  0
 85172  1  0  0  0
 86173  1  0  0  0
 87174  1  0  0  0
 90175  1  0  0  0
 90176  1  0  0  0
 91177  1  0  0  0
 92178  1  0  0  0
M  END
$$$$
