6c42_ligand
  -I-interpret- 

 65 69  0  0  0  0  0  0  0  0999 V2000
   -3.9380  -31.4870   19.0260 C   0  0  0  0  0
   -4.0300  -30.5730   18.1400 C   0  0  0  0  0
   -4.7920  -31.2110   17.0730 C   0  0  0  0  0
   -5.4150  -32.4630   17.7140 C   0  0  0  0  0
   -5.2720  -32.2850   18.8890 N   0  3  0  0  0
   -5.2200  -33.3050   19.4050 C   0  0  0  0  0
   -5.3570  -33.2880   20.9510 C   0  0  0  0  0
   -4.0470  -33.1120   21.4200 O   0  0  0  0  0
   -3.8120  -32.6760   22.7500 C   0  0  0  0  0
   -4.5900  -33.0740   23.8390 C   0  0  0  0  0
   -4.2890  -32.6260   25.1390 C   0  0  0  0  0
   -2.7350  -31.8730   22.9750 C   0  0  0  0  0
   -2.4300  -31.4410   24.2670 C   0  0  0  0  0
   -3.2190  -31.7920   25.3760 C   0  0  0  0  0
   -2.8960  -31.3150   26.8220 C   0  0  0  0  0
   -3.6610  -30.2180   27.2580 O   0  0  0  0  0
   -3.1780  -28.9330   26.9840 C   0  0  0  0  0
   -4.0650  -27.9330   26.5540 C   0  0  0  0  0
   -3.6120  -26.6710   26.2370 C   0  0  0  0  0
   -4.5500  -25.7250   25.8530 O   0  0  0  0  0
   -2.2410  -26.3810   26.3480 C   0  0  0  0  0
   -1.3430  -27.3730   26.7320 C   0  0  0  0  0
   -1.8360  -28.6770   27.0550 C   0  0  0  0  0
   -0.9330  -29.8210   27.5510 C   0  0  0  0  0
    0.5080  -29.5490   27.3710 C   0  0  0  0  0
   -1.3800  -31.1350   26.8950 C   0  0  0  0  0
   -0.6790  -32.4340   27.1950 C   0  0  0  0  0
   -0.9580  -33.2750   28.2460 C   0  0  0  0  0
   -0.2510  -34.4480   28.3610 C   0  0  0  0  0
    0.6990  -34.7750   27.3890 C   0  0  0  0  0
    1.4270  -35.9090   27.4730 O   0  0  0  0  0
    1.0030  -33.9420   26.3270 C   0  0  0  0  0
    0.2930  -32.7980   26.2310 C   0  0  0  0  0
   -3.8032  -31.0783   20.0274 H   0  0  0  0  0
   -3.0625  -32.1189   18.8770 H   0  0  0  0  0
   -3.0563  -30.2170   17.8035 H   0  0  0  0  0
   -4.5127  -29.6715   18.5174 H   0  0  0  0  0
   -4.1578  -31.4674   16.2244 H   0  0  0  0  0
   -5.5544  -30.5444   16.6698 H   0  0  0  0  0
   -4.9399  -33.3830   17.3734 H   0  0  0  0  0
   -6.4617  -32.5922   17.4388 H   0  0  0  0  0
   -6.0365  -31.7674   19.3226 H   0  0  0  0  0
   -4.2314  -33.7095   19.1881 H   0  0  0  0  0
   -6.0629  -33.8840   19.0277 H   0  0  0  0  0
   -5.8060  -34.2058   21.3306 H   0  0  0  0  0
   -6.0223  -32.4950   21.2926 H   0  0  0  0  0
   -5.4393  -33.7386   23.6808 H   0  0  0  0  0
   -4.9140  -32.9449   25.9731 H   0  0  0  0  0
   -2.1062  -31.5652   22.1395 H   0  0  0  0  0
   -1.5530  -30.8122   24.4205 H   0  0  0  0  0
   -3.2021  -32.0673   27.5490 H   0  0  0  0  0
   -5.1281  -28.1585   26.4697 H   0  0  0  0  0
   -4.1063  -24.8955   25.6614 H   0  0  0  0  0
   -1.8796  -25.3755   26.1326 H   0  0  0  0  0
   -0.2756  -27.1587   26.7861 H   0  0  0  0  0
   -1.0540  -29.9093   28.6307 H   0  0  0  0  0
    0.7187  -29.3995   26.3121 H   0  0  0  0  0
    0.7793  -28.6516   27.9270 H   0  0  0  0  0
    1.0854  -30.3960   27.7416 H   0  0  0  0  0
   -0.9773  -30.9224   25.9047 H   0  0  0  0  0
   -1.7260  -33.0163   28.9749 H   0  0  0  0  0
   -0.4294  -35.1173   29.2026 H   0  0  0  0  0
    2.0222  -35.9622   26.7217 H   0  0  0  0  0
    1.7775  -34.1969   25.6036 H   0  0  0  0  0
    0.4732  -32.1339   25.3857 H   0  0  0  0  0
  1  2  1  0  0  0
  1  5  1  0  0  0
  2  3  1  0  0  0
  3  4  1  0  0  0
  4  5  1  0  0  0
  5  6  1  0  0  0
  6  7  1  0  0  0
  7  8  1  0  0  0
  8  9  1  0  0  0
  9 10  4  0  0  0
  9 12  4  0  0  0
 10 11  4  0  0  0
 11 14  4  0  0  0
 12 13  4  0  0  0
 13 14  4  0  0  0
 14 15  1  0  0  0
 15 16  1  0  0  0
 15 26  1  0  0  0
 16 17  1  0  0  0
 17 18  4  0  0  0
 17 23  4  0  0  0
 18 19  4  0  0  0
 19 20  1  0  0  0
 19 21  4  0  0  0
 21 22  4  0  0  0
 22 23  4  0  0  0
 23 24  1  0  0  0
 24 25  1  0  0  0
 24 26  1  0  0  0
 26 27  1  0  0  0
 27 28  4  0  0  0
 27 33  4  0  0  0
 28 29  4  0  0  0
 29 30  4  0  0  0
 30 31  1  0  0  0
 30 32  4  0  0  0
 32 33  4  0  0  0
  1 34  1  0  0  0
  1 35  1  0  0  0
  2 36  1  0  0  0
  2 37  1  0  0  0
  3 38  1  0  0  0
  3 39  1  0  0  0
  4 40  1  0  0  0
  4 41  1  0  0  0
  5 42  1  0  0  0
  6 43  1  0  0  0
  6 44  1  0  0  0
  7 45  1  0  0  0
  7 46  1  0  0  0
 10 47  1  0  0  0
 11 48  1  0  0  0
 12 49  1  0  0  0
 13 50  1  0  0  0
 15 51  1  0  0  0
 18 52  1  0  0  0
 20 53  1  0  0  0
 21 54  1  0  0  0
 22 55  1  0  0  0
 24 56  1  0  0  0
 25 57  1  0  0  0
 25 58  1  0  0  0
 25 59  1  0  0  0
 26 60  1  0  0  0
 28 61  1  0  0  0
 29 62  1  0  0  0
 31 63  1  0  0  0
 32 64  1  0  0  0
 33 65  1  0  0  0
M  END
$$$$
