3unn_ligand
  -I-interpret- 

128127  0  0  0  0  0  0  0  0999 V2000
   -2.2310    9.9300    1.4870 N   0  3  0  0  0
   -2.7150    9.5530    0.1230 C   0  0  0  0  0
   -3.3280   10.7520   -0.5950 C   0  0  0  0  0
   -3.8320   11.6800    0.0480 O   0  0  0  0  0
   -3.7430    8.4200    0.2080 C   0  0  0  0  0
   -3.2720    7.1870    0.9600 C   0  0  0  0  0
   -4.3650    5.7740    0.7040 S   0  0  0  0  0
   -3.7030    5.1080   -0.8250 C   0  0  0  0  0
   -3.2930   10.7230   -1.9260 N   0  0  0  0  0
   -3.8570   11.8010   -2.7400 C   0  0  0  0  0
   -5.3850   11.8800   -2.6220 C   0  0  0  0  0
   -6.0360   10.9270   -2.1650 O   0  0  0  0  0
   -3.4310   11.6640   -4.2120 C   0  0  0  0  0
   -3.9660   10.4220   -4.9370 C   0  0  0  0  0
   -3.8650   10.5160   -6.4630 C   0  0  0  0  0
   -4.7860   10.0100   -7.1510 O   0  0  0  0  0
   -2.8710   11.0850   -6.9780 O   0  0  0  0  0
   -5.9370   13.0220   -3.0290 N   0  0  0  0  0
   -7.3820   13.2440   -3.0540 C   0  0  0  0  0
   -8.0860   12.2080   -3.9150 C   0  0  0  0  0
   -7.5190   11.6950   -4.8820 O   0  0  0  0  0
   -7.7100   14.6370   -3.6010 C   0  0  0  0  0
   -7.3360   15.7570   -2.6410 C   0  0  0  0  0
   -7.1390   15.4980   -1.4330 O   0  0  0  0  0
   -7.2500   16.9100   -3.1060 O   0  0  0  0  0
   -9.3250   11.9050   -3.5460 N   0  0  0  0  0
  -10.1580   11.0090   -4.3380 C   0  0  0  0  0
  -11.4170   10.6690   -3.5480 C   0  0  0  0  0
  -12.2240    9.5530   -4.2150 C   0  0  0  0  0
  -11.0430   10.2560   -2.2330 O   0  0  0  0  0
  -11.4460   11.1160   -0.9240 P   0  0  0  0  0
  -10.8060   12.4760   -1.1640 O   0  0  0  0  0
  -10.8340   10.3270    0.2000 O   0  0  0  0  0
  -12.9490   11.2270   -0.9310 O   0  0  0  0  0
  -10.5000   11.6720   -5.6390 C   0  0  0  0  0
  -10.8000   12.8680   -5.6820 O   0  0  0  0  0
  -10.4610   10.8970   -6.7190 N   0  0  0  0  0
  -10.7400   11.4290   -8.0460 C   0  0  0  0  0
  -12.2270   11.3530   -8.3780 C   0  0  0  0  0
  -12.8110   10.2680   -8.3930 O   0  0  0  0  0
   -9.9160   10.6840   -9.1000 C   0  0  0  0  0
   -8.4040   10.7210   -8.8260 C   0  0  0  0  0
   -7.8560   12.1350   -8.8720 C   0  0  0  0  0
   -7.9710   12.8120   -9.8860 O   0  0  0  0  0
   -7.2890   12.5940   -7.7640 N   0  0  0  0  0
  -12.8340   12.5060   -8.6440 N   0  0  0  0  0
  -14.2460   12.5540   -9.0190 C   0  0  0  0  0
  -14.4590   11.8450  -10.3520 C   0  0  0  0  0
  -13.6100   11.9130  -11.2410 O   0  0  0  0  0
  -14.7270   13.9930   -9.1000 C   0  0  0  0  0
  -15.5830   11.1490  -10.4840 N   0  0  0  0  0
  -15.9370   10.5370  -11.7610 C   0  0  0  0  0
  -16.4380   11.6150  -12.7240 C   0  0  0  0  0
  -17.4430   12.2820  -12.4640 O   0  0  0  0  0
  -16.9630    9.3910  -11.5890 C   0  0  0  0  0
  -16.2860    8.1920  -10.9010 C   0  0  0  0  0
  -17.5460    8.9700  -12.9540 C   0  0  0  0  0
  -17.2490    7.1750  -10.3070 C   0  0  0  0  0
  -15.6980   11.7980  -13.8150 N   0  0  0  0  0
  -16.0470   12.7840  -14.8340 C   0  0  0  0  0
  -16.1330   12.1240  -16.1870 C   0  0  0  0  0
  -15.4960   11.0960  -16.4040 O   0  0  0  0  0
  -15.0060   13.8960  -14.8830 C   0  0  0  0  0
  -15.0420   14.7720  -13.6520 C   0  0  0  0  0
  -14.0300   14.7970  -12.9240 O   0  0  0  0  0
  -16.0930   15.4120  -13.4120 O   0  0  0  0  0
  -16.8310   12.6280  -17.0660 O   0  0  0  0  0
   -1.5489   10.6843    1.4080 H   0  0  0  0  0
   -3.0206   10.2418    2.0525 H   0  0  0  0  0
   -1.7946    9.1201    1.9275 H   0  0  0  0  0
   -1.8530    9.2097   -0.4490 H   0  0  0  0  0
   -3.9528    8.1059   -0.8145 H   0  0  0  0  0
   -4.6024    8.8128    0.7513 H   0  0  0  0  0
   -3.2641    7.4213    2.0245 H   0  0  0  0  0
   -2.2818    6.9214    0.5897 H   0  0  0  0  0
   -3.7732    5.8622   -1.6088 H   0  0  0  0  0
   -2.6590    4.8316   -0.6775 H   0  0  0  0  0
   -4.2760    4.2271   -1.1143 H   0  0  0  0  0
   -2.8602    9.9257   -2.3922 H   0  0  0  0  0
   -3.4543   12.7354   -2.3491 H   0  0  0  0  0
   -2.3440   11.5835   -4.2160 H   0  0  0  0  0
   -3.8362   12.5297   -4.7359 H   0  0  0  0  0
   -5.0215   10.3233   -4.6835 H   0  0  0  0  0
   -3.3624    9.5716   -4.6200 H   0  0  0  0  0
   -5.4462    9.6277   -6.5682 H   0  0  0  0  0
   -5.3234   13.7762   -3.3374 H   0  0  0  0  0
   -7.7346   13.1581   -2.0262 H   0  0  0  0  0
   -8.7868   14.6847   -3.7630 H   0  0  0  0  0
   -7.1344   14.7782   -4.5158 H   0  0  0  0  0
   -7.2548   14.5565   -1.2857 H   0  0  0  0  0
   -9.7024   12.3086   -2.6886 H   0  0  0  0  0
   -9.6231   10.0840   -4.5533 H   0  0  0  0  0
  -12.0442   11.5597   -3.5108 H   0  0  0  0  0
  -12.5221    9.8695   -5.2145 H   0  0  0  0  0
  -11.6106    8.6547   -4.2848 H   0  0  0  0  0
  -13.1121    9.3427   -3.6191 H   0  0  0  0  0
  -11.2511   12.9137   -1.8933 H   0  0  0  0  0
  -13.2267   11.7486   -1.6876 H   0  0  0  0  0
  -10.2307    9.9087   -6.6159 H   0  0  0  0  0
  -10.4540   12.4808   -8.0519 H   0  0  0  0  0
  -10.0893   11.1716  -10.0593 H   0  0  0  0  0
  -10.2284    9.6398   -9.0852 H   0  0  0  0  0
   -7.9024   10.1345   -9.5958 H   0  0  0  0  0
   -8.2271   10.3178   -7.8289 H   0  0  0  0  0
   -6.9271   13.5472   -7.7334 H   0  0  0  0  0
   -7.2149   11.9938   -6.9426 H   0  0  0  0  0
  -12.3032   13.3750   -8.5851 H   0  0  0  0  0
  -14.8278   12.0412   -8.2531 H   0  0  0  0  0
  -14.6016   14.4719   -8.1289 H   0  0  0  0  0
  -14.1430   14.5284   -9.8486 H   0  0  0  0  0
  -15.7802   14.0075   -9.3804 H   0  0  0  0  0
  -16.2059   11.0411   -9.6835 H   0  0  0  0  0
  -15.0441   10.0791  -12.1867 H   0  0  0  0  0
  -17.7851    9.7442  -10.9665 H   0  0  0  0  0
  -15.6959    8.5907  -10.0758 H   0  0  0  0  0
  -15.7067    7.6729  -11.6646 H   0  0  0  0  0
  -18.0446    9.8235  -13.4135 H   0  0  0  0  0
  -16.7394    8.6267  -13.6018 H   0  0  0  0  0
  -18.2644    8.1635  -12.8076 H   0  0  0  0  0
  -17.8709    7.6613   -9.5554 H   0  0  0  0  0
  -17.8814    6.7706  -11.0973 H   0  0  0  0  0
  -16.6823    6.3671   -9.8442 H   0  0  0  0  0
  -14.8598   11.2311  -13.9435 H   0  0  0  0  0
  -17.0150   13.2129  -14.5748 H   0  0  0  0  0
  -15.2210   14.5218  -15.7492 H   0  0  0  0  0
  -14.0205   13.4337  -14.9397 H   0  0  0  0  0
  -16.7353   15.2418  -14.1049 H   0  0  0  0  0
  -17.2528   13.4195  -16.7236 H   0  0  0  0  0
  1  2  1  0  0  0
  2  3  1  0  0  0
  2  5  1  0  0  0
  3  4  2  0  0  0
  3  9  1  0  0  0
  5  6  1  0  0  0
  6  7  1  0  0  0
  7  8  1  0  0  0
  9 10  1  0  0  0
 10 11  1  0  0  0
 10 13  1  0  0  0
 11 12  2  0  0  0
 11 18  1  0  0  0
 13 14  1  0  0  0
 14 15  1  0  0  0
 15 16  1  0  0  0
 15 17  2  0  0  0
 18 19  1  0  0  0
 19 20  1  0  0  0
 19 22  1  0  0  0
 20 21  2  0  0  0
 20 26  1  0  0  0
 22 23  1  0  0  0
 23 24  1  0  0  0
 23 25  2  0  0  0
 26 27  1  0  0  0
 27 28  1  0  0  0
 27 35  1  0  0  0
 28 29  1  0  0  0
 28 30  1  0  0  0
 30 31  1  0  0  0
 31 32  1  0  0  0
 31 33  2  0  0  0
 31 34  1  0  0  0
 35 36  2  0  0  0
 35 37  1  0  0  0
 37 38  1  0  0  0
 38 39  1  0  0  0
 38 41  1  0  0  0
 39 40  2  0  0  0
 39 46  1  0  0  0
 41 42  1  0  0  0
 42 43  1  0  0  0
 43 44  2  0  0  0
 43 45  1  0  0  0
 46 47  1  0  0  0
 47 48  1  0  0  0
 47 50  1  0  0  0
 48 49  2  0  0  0
 48 51  1  0  0  0
 51 52  1  0  0  0
 52 53  1  0  0  0
 52 55  1  0  0  0
 53 54  2  0  0  0
 53 59  1  0  0  0
 55 56  1  0  0  0
 55 57  1  0  0  0
 56 58  1  0  0  0
 59 60  1  0  0  0
 60 61  1  0  0  0
 60 63  1  0  0  0
 61 62  2  0  0  0
 61 67  1  0  0  0
 63 64  1  0  0  0
 64 65  2  0  0  0
 64 66  1  0  0  0
  1 68  1  0  0  0
  1 69  1  0  0  0
  1 70  1  0  0  0
  2 71  1  0  0  0
  5 72  1  0  0  0
  5 73  1  0  0  0
  6 74  1  0  0  0
  6 75  1  0  0  0
  8 76  1  0  0  0
  8 77  1  0  0  0
  8 78  1  0  0  0
  9 79  1  0  0  0
 10 80  1  0  0  0
 13 81  1  0  0  0
 13 82  1  0  0  0
 14 83  1  0  0  0
 14 84  1  0  0  0
 16 85  1  0  0  0
 18 86  1  0  0  0
 19 87  1  0  0  0
 22 88  1  0  0  0
 22 89  1  0  0  0
 24 90  1  0  0  0
 26 91  1  0  0  0
 27 92  1  0  0  0
 28 93  1  0  0  0
 29 94  1  0  0  0
 29 95  1  0  0  0
 29 96  1  0  0  0
 32 97  1  0  0  0
 34 98  1  0  0  0
 37 99  1  0  0  0
 38100  1  0  0  0
 41101  1  0  0  0
 41102  1  0  0  0
 42103  1  0  0  0
 42104  1  0  0  0
 45105  1  0  0  0
 45106  1  0  0  0
 46107  1  0  0  0
 47108  1  0  0  0
 50109  1  0  0  0
 50110  1  0  0  0
 50111  1  0  0  0
 51112  1  0  0  0
 52113  1  0  0  0
 55114  1  0  0  0
 56115  1  0  0  0
 56116  1  0  0  0
 57117  1  0  0  0
 57118  1  0  0  0
 57119  1  0  0  0
 58120  1  0  0  0
 58121  1  0  0  0
 58122  1  0  0  0
 59123  1  0  0  0
 60124  1  0  0  0
 63125  1  0  0  0
 63126  1  0  0  0
 66127  1  0  0  0
 67128  1  0  0  0
M  END
$$$$
