### 
### Created by X-TOOL on Mon Sep 10 21:13:10 2018
### 

@<TRIPOS>MOLECULE
3unn_ligand
  122   121     1     0     0
SMALL
GAST_HUCK


@<TRIPOS>ATOM
      1 N          -2.2310    9.9300    1.4870 N.4       1 MET         0.2379
      2 CA         -2.7150    9.5530    0.1230 C.3       1 MET         0.0658
      3 C          -3.3280   10.7520   -0.5950 C.2       1 MET         0.2267
      4 O          -3.8320   11.6800    0.0480 O.2       1 MET        -0.3907
      5 CB         -3.7430    8.4200    0.2080 C.3       1 MET         0.0168
      6 CG         -3.2720    7.1870    0.9600 C.3       1 MET         0.0007
      7 SD         -4.3650    5.7740    0.7040 S.3       1 MET        -0.1638
      8 CE         -3.7030    5.1080   -0.8250 C.3       1 MET        -0.0181
      9 N          -3.2930   10.7230   -1.9260 N.am      1 GLU        -0.2609
     10 CA         -3.8570   11.8010   -2.7400 C.3       1 GLU         0.1326
     11 C          -5.3850   11.8800   -2.6220 C.2       1 GLU         0.2041
     12 O          -6.0360   10.9270   -2.1650 O.2       1 GLU        -0.3944
     13 CB         -3.4310   11.6640   -4.2120 C.3       1 GLU        -0.0008
     14 CG         -3.9660   10.4220   -4.9370 C.3       1 GLU         0.0044
     15 CD         -3.8650   10.5160   -6.4630 C.2       1 GLU         0.0350
     16 OE1        -4.7860   10.0100   -7.1510 O.co2     1 GLU        -0.5690
     17 OE2        -2.8710   11.0850   -6.9780 O.co2     1 GLU        -0.5690
     18 N          -5.9370   13.0220   -3.0290 N.am      1 ASP        -0.2622
     19 CA         -7.3820   13.2440   -3.0540 C.3       1 ASP         0.1423
     20 C          -8.0860   12.2080   -3.9150 C.2       1 ASP         0.2057
     21 O          -7.5190   11.6950   -4.8820 O.2       1 ASP        -0.3943
     22 CB         -7.7100   14.6370   -3.6010 C.3       1 ASP         0.0406
     23 CG         -7.3360   15.7570   -2.6410 C.2       1 ASP         0.0393
     24 OD1        -7.1390   15.4980   -1.4330 O.co2     1 ASP        -0.5688
     25 OD2        -7.2500   16.9100   -3.1060 O.co2     1 ASP        -0.5688
     26 N          -9.3250   11.9050   -3.5460 N.am      1 TPO        -0.2610
     27 CA        -10.1580   11.0090   -4.3380 C.3       1 TPO         0.1612
     28 CB        -11.4170   10.6690   -3.5480 C.3       1 TPO         0.1262
     29 CG2       -12.2240    9.5530   -4.2150 C.3       1 TPO        -0.0298
     30 OG1       -11.0430   10.2560   -2.2330 O.3       1 TPO        -0.2685
     31 P         -11.4460   11.1160   -0.9240 P.3       1 TPO         0.2014
     32 O1P       -10.8060   12.4760   -1.1640 O.co2     1 TPO        -0.5537
     33 O2P       -10.8340   10.3270    0.2000 O.co2     1 TPO        -0.5537
     34 O3P       -12.9490   11.2270   -0.9310 O.co2     1 TPO        -0.5537
     35 C         -10.5000   11.6720   -5.6390 C.2       1 TPO         0.2068
     36 O         -10.8000   12.8680   -5.6820 O.2       1 TPO        -0.3943
     37 N         -10.4610   10.8970   -6.7190 N.am      1 GLN        -0.2635
     38 CA        -10.7400   11.4290   -8.0460 C.3       1 GLN         0.1330
     39 C         -12.2270   11.3530   -8.3780 C.2       1 GLN         0.2040
     40 O         -12.8110   10.2680   -8.3930 O.2       1 GLN        -0.3944
     41 CB         -9.9160   10.6840   -9.1000 C.3       1 GLN         0.0045
     42 CG         -8.4040   10.7210   -8.8260 C.3       1 GLN         0.0412
     43 CD         -7.8560   12.1350   -8.8720 C.2       1 GLN         0.1737
     44 OE1        -7.9710   12.8120   -9.8860 O.2       1 GLN        -0.3973
     45 NE2        -7.2890   12.5940   -7.7640 N.am      1 GLN        -0.3009
     46 N         -12.8340   12.5060   -8.6440 N.am      1 ALA        -0.2640
     47 CA        -14.2460   12.5540   -9.0190 C.3       1 ALA         0.1282
     48 C         -14.4590   11.8450  -10.3520 C.2       1 ALA         0.2036
     49 O         -13.6100   11.9130  -11.2410 O.2       1 ALA        -0.3944
     50 CB        -14.7270   13.9930   -9.1000 C.3       1 ALA        -0.0244
     51 N         -15.5830   11.1490  -10.4840 N.am      1 ILE        -0.2635
     52 CA        -15.9370   10.5370  -11.7610 C.3       1 ILE         0.1335
     53 C         -16.4380   11.6150  -12.7240 C.2       1 ILE         0.2037
     54 O         -17.4430   12.2820  -12.4640 O.2       1 ILE        -0.3944
     55 CB        -16.9630    9.3910  -11.5890 C.3       1 ILE        -0.0037
     56 CG1       -16.2860    8.1920  -10.9010 C.3       1 ILE        -0.0491
     57 CG2       -17.5460    8.9700  -12.9540 C.3       1 ILE        -0.0582
     58 CD1       -17.2490    7.1750  -10.3070 C.3       1 ILE        -0.0648
     59 N         -15.6980   11.7980  -13.8150 N.am      1 ASP        -0.2679
     60 CA        -16.0470   12.7840  -14.8340 C.3       1 ASP         0.1057
     61 C         -16.1330   12.1240  -16.1870 C.2       1 ASP         0.0618
     62 O         -15.4960   11.0960  -16.4040 O.co2     1 ASP        -0.5665
     63 CB        -15.0060   13.8960  -14.8830 C.3       1 ASP         0.0351
     64 CG        -15.0420   14.7720  -13.6520 C.2       1 ASP         0.0387
     65 OD1       -14.0300   14.7970  -12.9240 O.co2     1 ASP        -0.5688
     66 OD2       -16.0930   15.4120  -13.4120 O.co2     1 ASP        -0.5688
     67 OXT       -16.8310   12.6280  -17.0660 O.co2     1 ASP        -0.5665
     68 H          -1.5489   10.6843    1.4080 H         1 MET         0.2015
     69 H          -3.0206   10.2418    2.0525 H         1 MET         0.2015
     70 H          -1.7946    9.1201    1.9275 H         1 MET         0.2015
     71 H          -1.8530    9.2097   -0.4490 H         1 MET         0.1098
     72 H          -3.9528    8.1059   -0.8145 H         1 MET         0.0354
     73 H          -4.6024    8.8128    0.7513 H         1 MET         0.0354
     74 H          -3.2641    7.4213    2.0245 H         1 MET         0.0380
     75 H          -2.2818    6.9214    0.5897 H         1 MET         0.0380
     76 H          -3.7732    5.8622   -1.6088 H         1 MET         0.0340
     77 H          -2.6590    4.8316   -0.6775 H         1 MET         0.0340
     78 H          -4.2760    4.2271   -1.1143 H         1 MET         0.0340
     79 H          -2.8602    9.9257   -2.3922 H         1 GLU         0.1885
     80 H          -3.4543   12.7354   -2.3491 H         1 GLU         0.0801
     81 H          -2.3440   11.5835   -4.2160 H         1 GLU         0.0330
     82 H          -3.8362   12.5297   -4.7359 H         1 GLU         0.0330
     83 H          -5.0215   10.3233   -4.6835 H         1 GLU         0.0433
     84 H          -3.3624    9.5716   -4.6200 H         1 GLU         0.0433
     85 H          -5.3234   13.7762   -3.3374 H         1 ASP         0.1884
     86 H          -7.7346   13.1581   -2.0262 H         1 ASP         0.0819
     87 H          -8.7868   14.6847   -3.7630 H         1 ASP         0.0478
     88 H          -7.1344   14.7782   -4.5158 H         1 ASP         0.0478
     89 H          -9.7024   12.3086   -2.6886 H         1 TPO         0.1884
     90 H          -9.6231   10.0840   -4.5533 H         1 TPO         0.0830
     91 H         -12.0442   11.5597   -3.5108 H         1 TPO         0.0695
     92 H         -12.5221    9.8695   -5.2145 H         1 TPO         0.0260
     93 H         -11.6106    8.6547   -4.2848 H         1 TPO         0.0260
     94 H         -13.1121    9.3427   -3.6191 H         1 TPO         0.0260
     95 H         -10.2307    9.9087   -6.6159 H         1 GLN         0.1883
     96 H         -10.4540   12.4808   -8.0519 H         1 GLN         0.0801
     97 H         -10.0893   11.1716  -10.0593 H         1 GLN         0.0337
     98 H         -10.2284    9.6398   -9.0852 H         1 GLN         0.0337
     99 H          -7.9024   10.1345   -9.5958 H         1 GLN         0.0504
    100 H          -8.2271   10.3178   -7.8289 H         1 GLN         0.0504
    101 H          -6.9271   13.5472   -7.7334 H         1 GLN         0.1814
    102 H          -7.2149   11.9938   -6.9426 H         1 GLN         0.1814
    103 H         -12.3032   13.3750   -8.5851 H         1 ALA         0.1883
    104 H         -14.8278   12.0412   -8.2531 H         1 ALA         0.0797
    105 H         -14.6016   14.4719   -8.1289 H         1 ALA         0.0277
    106 H         -14.1430   14.5284   -9.8486 H         1 ALA         0.0277
    107 H         -15.7802   14.0075   -9.3804 H         1 ALA         0.0277
    108 H         -16.2059   11.0411   -9.6835 H         1 ILE         0.1883
    109 H         -15.0441   10.0791  -12.1867 H         1 ILE         0.0803
    110 H         -17.7851    9.7442  -10.9665 H         1 ILE         0.0345
    111 H         -15.6959    8.5907  -10.0758 H         1 ILE         0.0267
    112 H         -15.7067    7.6729  -11.6646 H         1 ILE         0.0267
    113 H         -18.0446    9.8235  -13.4135 H         1 ILE         0.0235
    114 H         -16.7394    8.6267  -13.6018 H         1 ILE         0.0235
    115 H         -18.2644    8.1635  -12.8076 H         1 ILE         0.0235
    116 H         -17.8709    7.6613   -9.5554 H         1 ILE         0.0230
    117 H         -17.8814    6.7706  -11.0973 H         1 ILE         0.0230
    118 H         -16.6823    6.3671   -9.8442 H         1 ILE         0.0230
    119 H         -14.8598   11.2311  -13.9435 H         1 ASP         0.1876
    120 H         -17.0150   13.2129  -14.5748 H         1 ASP         0.0745
    121 H         -15.2210   14.5218  -15.7492 H         1 ASP         0.0471
    122 H         -14.0205   13.4337  -14.9397 H         1 ASP         0.0471
@<TRIPOS>BOND
     1    1    2 1  
     2    2    3 1  
     3    2    5 1  
     4    3    4 2  
     5    3    9 am 
     6    5    6 1  
     7    6    7 1  
     8    7    8 1  
     9    9   10 1  
    10   10   11 1  
    11   10   13 1  
    12   11   12 2  
    13   11   18 am 
    14   13   14 1  
    15   14   15 1  
    16   15   16 ar 
    17   15   17 ar 
    18   18   19 1  
    19   19   20 1  
    20   19   22 1  
    21   20   21 2  
    22   20   26 am 
    23   22   23 1  
    24   23   24 ar 
    25   23   25 ar 
    26   26   27 1  
    27   27   28 1  
    28   27   35 1  
    29   28   29 1  
    30   28   30 1  
    31   30   31 1  
    32   31   32 ar 
    33   31   33 ar 
    34   31   34 ar 
    35   35   36 2  
    36   35   37 am 
    37   37   38 1  
    38   38   39 1  
    39   38   41 1  
    40   39   40 2  
    41   39   46 am 
    42   41   42 1  
    43   42   43 1  
    44   43   44 2  
    45   43   45 am 
    46   46   47 1  
    47   47   48 1  
    48   47   50 1  
    49   48   49 2  
    50   48   51 am 
    51   51   52 1  
    52   52   53 1  
    53   52   55 1  
    54   53   54 2  
    55   53   59 am 
    56   55   56 1  
    57   55   57 1  
    58   56   58 1  
    59   59   60 1  
    60   60   61 1  
    61   60   63 1  
    62   61   62 ar 
    63   61   67 ar 
    64   63   64 1  
    65   64   65 ar 
    66   64   66 ar 
    67    1   68 1  
    68    1   69 1  
    69    1   70 1  
    70    2   71 1  
    71    5   72 1  
    72    5   73 1  
    73    6   74 1  
    74    6   75 1  
    75    8   76 1  
    76    8   77 1  
    77    8   78 1  
    78    9   79 1  
    79   10   80 1  
    80   13   81 1  
    81   13   82 1  
    82   14   83 1  
    83   14   84 1  
    84   18   85 1  
    85   19   86 1  
    86   22   87 1  
    87   22   88 1  
    88   26   89 1  
    89   27   90 1  
    90   28   91 1  
    91   29   92 1  
    92   29   93 1  
    93   29   94 1  
    94   37   95 1  
    95   38   96 1  
    96   41   97 1  
    97   41   98 1  
    98   42   99 1  
    99   42  100 1  
   100   45  101 1  
   101   45  102 1  
   102   46  103 1  
   103   47  104 1  
   104   50  105 1  
   105   50  106 1  
   106   50  107 1  
   107   51  108 1  
   108   52  109 1  
   109   55  110 1  
   110   56  111 1  
   111   56  112 1  
   112   57  113 1  
   113   57  114 1  
   114   57  115 1  
   115   58  116 1  
   116   58  117 1  
   117   58  118 1  
   118   59  119 1  
   119   60  120 1  
   120   63  121 1  
   121   63  122 1  
@<TRIPOS>SUBSTRUCTURE
     1 MET         1

