3m3c_ligand
  -I-interpret- 

 63 65  0  0  0  0  0  0  0  0999 V2000
  -14.8870    9.1930  -29.5470 C   0  0  0  0  0
  -14.9480    7.6820  -29.3130 C   0  0  0  0  0
  -15.2650    7.3640  -27.8510 C   0  0  0  0  0
  -14.2600    8.0920  -26.9570 C   0  0  0  0  0
  -14.2880    9.5870  -27.2810 C   0  0  0  0  0
  -13.3040   10.3250  -26.3720 C   0  0  0  0  0
  -15.9320    7.0880  -30.1650 O   0  0  0  0  0
  -15.1590    5.9530  -27.6440 O   0  0  0  0  0
  -12.9490    7.5760  -27.2030 O   0  0  0  0  0
  -13.9290    9.7910  -28.6570 O   0  0  0  0  0
  -13.3420   11.7230  -26.6700 O   0  0  0  0  0
  -14.6350   13.0880  -32.9320 O   0  0  0  0  0
  -15.3030   11.9560  -33.5120 C   0  0  0  0  0
  -14.7280   10.6590  -32.9400 C   0  0  0  0  0
  -15.4160    9.5110  -33.5470 N   0  0  0  0  0
  -14.9670   10.6280  -31.4300 C   0  0  0  0  0
  -14.4540    9.3960  -30.9010 O   0  0  0  0  0
  -14.2450   11.8450  -30.8510 C   0  0  0  0  0
  -12.8430   11.7200  -31.1000 O   0  0  0  0  0
  -14.7740   13.1270  -31.5010 C   0  0  0  0  0
  -13.9780   14.3200  -30.9710 C   0  0  0  0  0
  -14.4830   15.5280  -31.5480 O   0  0  0  0  0
  -14.8740    8.8000  -34.5320 C   0  0  0  0  0
  -13.6450    9.1290  -35.0110 O   0  0  0  0  0
  -15.5640    7.7170  -35.0650 C   0  0  0  0  0
  -19.1240   14.5990  -35.2490 C   0  0  0  0  0
  -19.5820   13.9670  -34.0990 C   0  0  0  0  0
  -18.7390   13.1150  -33.3950 C   0  0  0  0  0
  -17.4410   12.8890  -33.8380 C   0  0  0  0  0
  -16.9800   13.5300  -34.9830 C   0  0  0  0  0
  -17.8220   14.3850  -35.6870 C   0  0  0  0  0
  -16.7060   11.9330  -33.2080 O   0  0  0  0  0
  -19.9550   15.3730  -35.9430 N   0  0  0  0  0
  -19.5280   15.9870  -37.1510 O   0  0  0  0  0
  -21.2820   15.5760  -35.4790 O   0  0  0  0  0
  -15.8624    9.6452  -29.3672 H   0  0  0  0  0
  -13.9693    7.2650  -29.5505 H   0  0  0  0  0
  -16.2760    7.6902  -27.6068 H   0  0  0  0  0
  -14.5210    7.9402  -25.9096 H   0  0  0  0  0
  -15.2926    9.9756  -27.1138 H   0  0  0  0  0
  -12.2967    9.9437  -26.5392 H   0  0  0  0  0
  -13.5811   10.1666  -25.3298 H   0  0  0  0  0
  -15.7263    7.2919  -31.0803 H   0  0  0  0  0
  -15.7911    5.4998  -28.2067 H   0  0  0  0  0
  -12.9322    6.6380  -26.9995 H   0  0  0  0  0
  -12.7247   12.1874  -26.1000 H   0  0  0  0  0
  -15.1546   12.0387  -34.5887 H   0  0  0  0  0
  -13.6604   10.6094  -33.1540 H   0  0  0  0  0
  -16.3398    9.2508  -33.2016 H   0  0  0  0  0
  -16.0251   10.6730  -31.1721 H   0  0  0  0  0
  -14.4243   11.8960  -29.7771 H   0  0  0  0  0
  -12.3856   12.4824  -30.7379 H   0  0  0  0  0
  -15.8319   13.2192  -31.2549 H   0  0  0  0  0
  -12.9278   14.2023  -31.2381 H   0  0  0  0  0
  -14.0760   14.3679  -29.8865 H   0  0  0  0  0
  -13.9815   16.2751  -31.2135 H   0  0  0  0  0
  -15.7325    7.8832  -36.1290 H   0  0  0  0  0
  -14.9763    6.8095  -34.9263 H   0  0  0  0  0
  -16.5222    7.6122  -34.5561 H   0  0  0  0  0
  -20.6001   14.1391  -33.7499 H   0  0  0  0  0
  -19.0974   12.6219  -32.4914 H   0  0  0  0  0
  -15.9598   13.3626  -35.3285 H   0  0  0  0  0
  -17.4602   14.8881  -36.5837 H   0  0  0  0  0
  1  2  1  0  0  0
  1 10  1  0  0  0
 17  1  1  0  0  0
  2  3  1  0  0  0
  2  7  1  0  0  0
  3  4  1  0  0  0
  3  8  1  0  0  0
  5  4  1  0  0  0
  4  9  1  0  0  0
  5  6  1  0  0  0
 10  5  1  0  0  0
  6 11  1  0  0  0
 13 12  1  0  0  0
 12 20  1  0  0  0
 13 14  1  0  0  0
 32 13  1  0  0  0
 14 15  1  0  0  0
 14 16  1  0  0  0
 15 23  1  0  0  0
 16 17  1  0  0  0
 16 18  1  0  0  0
 18 19  1  0  0  0
 20 18  1  0  0  0
 20 21  1  0  0  0
 21 22  1  0  0  0
 23 24  2  0  0  0
 23 25  1  0  0  0
 27 26  4  0  0  0
 26 31  4  0  0  0
 26 33  1  0  0  0
 28 27  4  0  0  0
 29 28  4  0  0  0
 29 30  4  0  0  0
 29 32  1  0  0  0
 30 31  4  0  0  0
 33 34  2  0  0  0
 33 35  2  0  0  0
  1 36  1  0  0  0
  2 37  1  0  0  0
  3 38  1  0  0  0
  4 39  1  0  0  0
  5 40  1  0  0  0
  6 41  1  0  0  0
  6 42  1  0  0  0
  7 43  1  0  0  0
  8 44  1  0  0  0
  9 45  1  0  0  0
 11 46  1  0  0  0
 13 47  1  0  0  0
 14 48  1  0  0  0
 15 49  1  0  0  0
 16 50  1  0  0  0
 18 51  1  0  0  0
 19 52  1  0  0  0
 20 53  1  0  0  0
 21 54  1  0  0  0
 21 55  1  0  0  0
 22 56  1  0  0  0
 25 57  1  0  0  0
 25 58  1  0  0  0
 25 59  1  0  0  0
 27 60  1  0  0  0
 28 61  1  0  0  0
 30 62  1  0  0  0
 31 63  1  0  0  0
M  END
$$$$
