5enf_ligand
  -I-interpret- 

 23 23  0  0  0  0  0  0  0  0999 V2000
  -31.9880    5.4040   -7.5060 N   0  0  0  0  0
  -28.0740    3.0530   -7.8630 C   0  0  0  0  0
  -29.7680    4.2120   -8.2440 C   0  0  0  0  0
  -31.0220    4.8880   -7.8300 C   0  0  0  0  0
  -29.1590    4.1670   -9.5530 C   0  0  0  0  0
  -29.1210    3.5650   -7.2780 N   0  0  0  0  0
  -29.3840    4.6180  -10.7660 N   0  0  0  0  0
  -28.0250    3.3860   -9.2970 O   0  0  0  0  0
  -26.9690    2.2530   -7.3070 C   0  0  0  0  0
  -25.5750    2.5710   -7.8850 C   0  0  0  0  0
  -24.5030    1.7710   -7.1620 C   0  0  0  0  0
  -25.2790    4.0660   -7.8240 C   0  0  0  0  0
  -30.2120    5.1831  -10.9546 H   0  0  0  0  0
  -28.7308    4.4031  -11.5193 H   0  0  0  0  0
  -27.1805    1.2124   -7.5529 H   0  0  0  0  0
  -26.9251    2.4769   -6.2412 H   0  0  0  0  0
  -25.5693    2.2787   -8.9351 H   0  0  0  0  0
  -24.5140    2.0259   -6.1023 H   0  0  0  0  0
  -24.7025    0.7063   -7.2830 H   0  0  0  0  0
  -23.5268    2.0094   -7.5843 H   0  0  0  0  0
  -26.0273    4.6072   -8.4030 H   0  0  0  0  0
  -25.3097    4.3991   -6.7866 H   0  0  0  0  0
  -24.2892    4.2563   -8.2390 H   0  0  0  0  0
  4  1  3  0  0  0
  6  2  4  0  0  0
  2  8  4  0  0  0
  2  9  1  0  0  0
  3  4  1  0  0  0
  3  5  4  0  0  0
  3  6  4  0  0  0
  5  7  1  0  0  0
  5  8  4  0  0  0
  9 10  1  0  0  0
 10 11  1  0  0  0
 10 12  1  0  0  0
  7 13  1  0  0  0
  7 14  1  0  0  0
  9 15  1  0  0  0
  9 16  1  0  0  0
 10 17  1  0  0  0
 11 18  1  0  0  0
 11 19  1  0  0  0
 11 20  1  0  0  0
 12 21  1  0  0  0
 12 22  1  0  0  0
 12 23  1  0  0  0
M  END
$$$$
