3v5p_ligand
  -I-interpret- 

 51 54  0  0  0  0  0  0  0  0999 V2000
   28.8170   17.4320   29.3050 C   0  0  0  0  0
   29.3390   17.8460   27.9220 C   0  0  0  0  0
   28.2270   18.4280   27.1630 N   0  3  0  0  0
   27.2200   17.3860   26.8920 C   0  0  0  0  0
   26.6140   16.8700   28.2150 C   0  0  0  0  0
   27.6810   16.3910   29.2170 C   0  0  0  0  0
   27.0480   16.2670   30.6130 C   0  0  0  0  0
   26.0680   15.1710   30.8450 N   0  0  0  0  0
   24.8900   15.3960   31.1450 N   0  0  0  0  0
   26.3310   13.8590   30.8490 C   0  0  0  0  0
   27.4440   13.1320   30.6170 N   0  0  0  0  0
   27.4040   11.8080   30.6710 C   0  0  0  0  0
   26.2830   11.1540   30.9690 N   0  0  0  0  0
   25.1430   11.8160   31.2340 C   0  0  0  0  0
   24.0470   11.1180   31.5280 N   0  0  0  0  0
   25.1400   13.2140   31.1810 C   0  0  0  0  0
   24.2190   14.2550   31.3450 C   0  0  0  0  0
   22.8770   14.1980   31.7330 C   0  0  0  0  0
   22.5120   13.4630   32.8740 C   0  0  0  0  0
   21.1890   13.4510   33.3250 C   0  0  0  0  0
   20.7840   12.6150   34.5330 C   0  0  0  0  0
   20.2240   14.2000   32.6570 C   0  0  0  0  0
   18.9570   14.1460   33.1180 O   0  0  0  0  0
   18.0010   15.0350   32.5030 C   0  0  0  0  0
   20.5790   14.9610   31.5310 C   0  0  0  0  0
   21.9040   14.9700   31.0890 C   0  0  0  0  0
   28.4226   18.3212   29.7969 H   0  0  0  0  0
   29.6431   16.9841   29.8573 H   0  0  0  0  0
   29.7345   16.9766   27.3969 H   0  0  0  0  0
   30.1405   18.5769   28.0292 H   0  0  0  0  0
   28.5760   18.8018   26.2805 H   0  0  0  0  0
   27.8014   19.1799   27.7052 H   0  0  0  0  0
   27.6978   16.5559   26.3717 H   0  0  0  0  0
   26.4254   17.8099   26.2780 H   0  0  0  0  0
   25.9741   16.0199   27.9786 H   0  0  0  0  0
   26.0709   17.6949   28.6762 H   0  0  0  0  0
   28.0722   15.4299   28.8833 H   0  0  0  0  0
   26.4869   17.1902   30.7576 H   0  0  0  0  0
   27.8781   16.0585   31.2879 H   0  0  0  0  0
   28.3117   11.2404   30.4663 H   0  0  0  0  0
   24.0819   10.0988   31.5493 H   0  0  0  0  0
   23.1730   11.6028   31.7318 H   0  0  0  0  0
   23.2699   12.8953   33.4139 H   0  0  0  0  0
   20.9963   11.5646   34.3340 H   0  0  0  0  0
   21.3492   12.9422   35.4057 H   0  0  0  0  0
   19.7178   12.7423   34.7204 H   0  0  0  0  0
   18.3228   16.0667   32.6447 H   0  0  0  0  0
   17.9367   14.8162   31.4371 H   0  0  0  0  0
   17.0240   14.8912   32.9643 H   0  0  0  0  0
   19.8229   15.5427   31.0038 H   0  0  0  0  0
   22.1829   15.5850   30.2333 H   0  0  0  0  0
  1  2  1  0  0  0
  1  6  1  0  0  0
  2  3  1  0  0  0
  3  4  1  0  0  0
  4  5  1  0  0  0
  5  6  1  0  0  0
  6  7  1  0  0  0
  7  8  1  0  0  0
  8  9  4  0  0  0
  8 10  4  0  0  0
  9 17  4  0  0  0
 10 11  4  0  0  0
 10 16  4  0  0  0
 11 12  4  0  0  0
 12 13  4  0  0  0
 13 14  4  0  0  0
 14 15  1  0  0  0
 14 16  4  0  0  0
 16 17  4  0  0  0
 17 18  1  0  0  0
 18 19  4  0  0  0
 18 26  4  0  0  0
 19 20  4  0  0  0
 20 21  1  0  0  0
 20 22  4  0  0  0
 22 23  1  0  0  0
 22 25  4  0  0  0
 23 24  1  0  0  0
 25 26  4  0  0  0
  1 27  1  0  0  0
  1 28  1  0  0  0
  2 29  1  0  0  0
  2 30  1  0  0  0
  3 31  1  0  0  0
  3 32  1  0  0  0
  4 33  1  0  0  0
  4 34  1  0  0  0
  5 35  1  0  0  0
  5 36  1  0  0  0
  6 37  1  0  0  0
  7 38  1  0  0  0
  7 39  1  0  0  0
 12 40  1  0  0  0
 15 41  1  0  0  0
 15 42  1  0  0  0
 19 43  1  0  0  0
 21 44  1  0  0  0
 21 45  1  0  0  0
 21 46  1  0  0  0
 24 47  1  0  0  0
 24 48  1  0  0  0
 24 49  1  0  0  0
 25 50  1  0  0  0
 26 51  1  0  0  0
M  END
$$$$
