2i3z_ligand
  -I-interpret- 

 48 51  0  0  0  0  0  0  0  0999 V2000
   18.9310   39.7530  -78.2190 C   0  0  0  0  0
   15.3950   38.7980  -78.6020 C   0  0  0  0  0
   14.0610   38.3140  -78.4140 N   0  0  0  0  0
   13.9640   36.9110  -78.8170 C   0  0  0  0  0
   12.0480   36.5670  -77.2410 C   0  0  0  0  0
   13.5320   38.5860  -77.0460 C   0  0  0  0  0
   15.4000   39.2300  -82.2610 C   0  0  0  0  0
   15.2980   40.2200  -83.2540 C   0  0  0  0  0
   15.7600   39.9780  -84.5590 C   0  0  0  0  0
   16.4870   37.7420  -83.9140 C   0  0  0  0  0
   16.1880   36.9090  -81.6670 C   0  0  0  0  0
   18.2790   40.4220  -80.2700 C   0  0  0  0  0
   17.1550   39.7620  -79.6010 C   0  0  0  0  0
   17.5290   39.3780  -78.4130 C   0  0  0  0  0
   19.3060   40.3510  -79.3790 N   0  0  0  0  0
   15.7570   39.3800  -79.7600 N   0  0  0  0  0
   16.4080   38.7340  -77.7100 N   0  0  0  0  0
   18.2930   40.8990  -81.3970 O   0  0  0  0  0
   19.6100   39.5400  -77.2350 O   0  0  0  0  0
   20.6410   40.8950  -79.6240 C   0  0  0  0  0
   12.5580   36.3700  -78.6800 C   0  0  0  0  0
   12.0760   38.0710  -76.9130 C   0  0  0  0  0
   12.6090   34.9780  -79.1230 N   0  3  0  0  0
   14.8600   39.5620  -80.8990 C   0  0  0  0  0
   16.3660   38.7460  -84.8810 C   0  0  0  0  0
   16.0270   37.9790  -82.6080 C   0  0  0  0  0
   16.4010   36.1210  -80.8380 N   0  0  0  0  0
   14.6158   36.3268  -78.1674 H   0  0  0  0  0
   14.2530   36.8397  -79.8656 H   0  0  0  0  0
   12.6844   36.0226  -76.5434 H   0  0  0  0  0
   11.0306   36.1861  -77.1519 H   0  0  0  0  0
   13.5441   39.6616  -76.8696 H   0  0  0  0  0
   14.1572   38.0713  -76.3163 H   0  0  0  0  0
   14.8558   41.1857  -83.0091 H   0  0  0  0  0
   15.6495   40.7454  -85.3251 H   0  0  0  0  0
   16.9351   36.7825  -84.1723 H   0  0  0  0  0
   21.0728   40.4135  -80.5014 H   0  0  0  0  0
   20.5684   41.9689  -79.7961 H   0  0  0  0  0
   21.2735   40.7067  -78.7565 H   0  0  0  0  0
   11.8352   36.9029  -79.2979 H   0  0  0  0  0
   11.7189   38.2334  -75.8961 H   0  0  0  0  0
   11.4291   38.6113  -77.6042 H   0  0  0  0  0
   12.9561   34.9400  -80.0814 H   0  0  0  0  0
   13.2336   34.4509  -78.5127 H   0  0  0  0  0
   11.6728   34.5752  -79.0829 H   0  0  0  0  0
   14.0308   38.8739  -80.7345 H   0  0  0  0  0
   14.6282   40.6268  -80.9249 H   0  0  0  0  0
   16.7425   38.5748  -85.8895 H   0  0  0  0  0
 14  1  1  0  0  0
  1 15  1  0  0  0
  1 19  2  0  0  0
  2  3  1  0  0  0
 16  2  4  0  0  0
  2 17  4  0  0  0
  3  4  1  0  0  0
  3  6  1  0  0  0
  4 21  1  0  0  0
 21  5  1  0  0  0
 22  5  1  0  0  0
  6 22  1  0  0  0
  7  8  4  0  0  0
 24  7  1  0  0  0
  7 26  4  0  0  0
  8  9  4  0  0  0
  9 25  4  0  0  0
 10 25  4  0  0  0
 26 10  4  0  0  0
 26 11  1  0  0  0
 11 27  3  0  0  0
 13 12  1  0  0  0
 12 15  1  0  0  0
 12 18  2  0  0  0
 13 14  4  0  0  0
 16 13  4  0  0  0
 14 17  4  0  0  0
 15 20  1  0  0  0
 16 24  1  0  0  0
 21 23  1  0  0  0
  4 28  1  0  0  0
  4 29  1  0  0  0
  5 30  1  0  0  0
  5 31  1  0  0  0
  6 32  1  0  0  0
  6 33  1  0  0  0
  8 34  1  0  0  0
  9 35  1  0  0  0
 10 36  1  0  0  0
 20 37  1  0  0  0
 20 38  1  0  0  0
 20 39  1  0  0  0
 21 40  1  0  0  0
 22 41  1  0  0  0
 22 42  1  0  0  0
 23 43  1  0  0  0
 23 44  1  0  0  0
 23 45  1  0  0  0
 24 46  1  0  0  0
 24 47  1  0  0  0
 25 48  1  0  0  0
M  END
$$$$
