2off_ligand
  -I-interpret- 

 53 54  0  0  0  0  0  0  0  0999 V2000
   25.2210   -2.0630   52.5510 C   0  0  0  0  0
   24.2330   -2.8410   53.1570 C   0  0  0  0  0
   24.5450   -4.1120   53.6390 C   0  0  0  0  0
   23.5890   -4.8770   54.2310 O   0  0  0  0  0
   25.8430   -4.6020   53.5160 C   0  0  0  0  0
   26.8290   -3.8200   52.9140 C   0  0  0  0  0
   26.5250   -2.5500   52.4280 C   0  0  0  0  0
   27.5350   -1.7920   51.8300 C   0  0  0  0  0
   27.4920   -0.3960   51.8190 C   0  0  0  0  0
   28.4800    0.3950   51.2290 C   0  0  0  0  0
   29.4610   -0.1220   50.6950 O   0  0  0  0  0
   28.3240    1.7570   51.2720 O   0  0  0  0  0
   29.4290    2.6190   50.8920 C   0  0  0  0  0
   28.8500    3.9490   50.3500 C   0  0  0  0  0
   28.3130    3.8660   48.9110 C   0  0  0  0  0
   27.3790    4.6520   48.6160 O   0  0  0  0  0
   28.8440    3.0330   48.1390 O   0  0  0  0  0
   30.2980    2.9510   52.1040 C   0  0  0  0  0
   31.5840    3.6840   51.6940 C   0  0  0  0  0
   31.5580    4.9310   51.6770 O   0  0  0  0  0
   32.5880    2.9970   51.4020 O   0  0  0  0  0
   30.7060    1.7410   52.7620 O   0  0  0  0  0
   30.1130    1.4430   53.9550 C   0  0  0  0  0
   29.4320    2.2670   54.5730 O   0  0  0  0  0
   30.3130    0.1580   54.4500 C   0  0  0  0  0
   29.7650   -0.2720   55.6520 C   0  0  0  0  0
   29.9750   -1.5710   56.1150 C   0  0  0  0  0
   30.0500   -1.8060   57.4890 C   0  0  0  0  0
   30.2500   -3.1030   57.9670 C   0  0  0  0  0
   30.3670   -4.1650   57.0700 C   0  0  0  0  0
   30.5630   -5.4310   57.5390 O   0  0  0  0  0
   30.2860   -3.9330   55.6960 C   0  0  0  0  0
   30.0870   -2.6370   55.2180 C   0  0  0  0  0
   24.9742   -1.0712   52.1721 H   0  0  0  0  0
   23.2181   -2.4553   53.2534 H   0  0  0  0  0
   23.9729   -5.7143   54.5015 H   0  0  0  0  0
   26.0883   -5.5960   53.8899 H   0  0  0  0  0
   27.8446   -4.2053   52.8232 H   0  0  0  0  0
   28.3763   -2.3022   51.3610 H   0  0  0  0  0
   26.6458    0.1003   52.2942 H   0  0  0  0  0
   30.0311    2.1058   50.1422 H   0  0  0  0  0
   29.6628    4.6752   50.3475 H   0  0  0  0  0
   28.0101    4.2178   50.9907 H   0  0  0  0  0
   27.1557    5.1841   49.3832 H   0  0  0  0  0
   29.6979    3.5836   52.7580 H   0  0  0  0  0
   32.3724    2.0653   51.4863 H   0  0  0  0  0
   30.9226   -0.5374   53.8729 H   0  0  0  0  0
   29.1612    0.4168   56.2428 H   0  0  0  0  0
   29.9524   -0.9766   58.1894 H   0  0  0  0  0
   30.3146   -3.2852   59.0397 H   0  0  0  0  0
   30.6218   -6.0397   56.7990 H   0  0  0  0  0
   30.3781   -4.7639   54.9965 H   0  0  0  0  0
   30.0189   -2.4561   54.1453 H   0  0  0  0  0
  1  2  4  0  0  0
  1  7  4  0  0  0
  2  3  4  0  0  0
  3  4  1  0  0  0
  3  5  4  0  0  0
  5  6  4  0  0  0
  6  7  4  0  0  0
  7  8  1  0  0  0
  8  9  2  0  0  0
  9 10  1  0  0  0
 10 11  2  0  0  0
 10 12  1  0  0  0
 12 13  1  0  0  0
 13 14  1  0  0  0
 13 18  1  0  0  0
 14 15  1  0  0  0
 15 16  1  0  0  0
 15 17  2  0  0  0
 18 19  1  0  0  0
 18 22  1  0  0  0
 19 20  2  0  0  0
 19 21  1  0  0  0
 22 23  1  0  0  0
 23 24  2  0  0  0
 23 25  1  0  0  0
 25 26  2  0  0  0
 26 27  1  0  0  0
 27 28  4  0  0  0
 27 33  4  0  0  0
 28 29  4  0  0  0
 29 30  4  0  0  0
 30 31  1  0  0  0
 30 32  4  0  0  0
 32 33  4  0  0  0
  1 34  1  0  0  0
  2 35  1  0  0  0
  4 36  1  0  0  0
  5 37  1  0  0  0
  6 38  1  0  0  0
  8 39  1  0  0  0
  9 40  1  0  0  0
 13 41  1  0  0  0
 14 42  1  0  0  0
 14 43  1  0  0  0
 16 44  1  0  0  0
 18 45  1  0  0  0
 21 46  1  0  0  0
 25 47  1  0  0  0
 26 48  1  0  0  0
 28 49  1  0  0  0
 29 50  1  0  0  0
 31 51  1  0  0  0
 32 52  1  0  0  0
 33 53  1  0  0  0
M  END
$$$$
