1ql7_ligand
  -I-interpret- 

 61 65  0  0  0  0  0  0  0  0999 V2000
   18.5230    7.5480   11.0100 N   0  0  0  0  0
   19.1260    6.3320   11.0810 C   0  0  0  0  0
   20.3680    6.1970   11.7260 C   0  0  0  0  0
   20.3140    8.5760   12.2170 C   0  0  0  0  0
   19.0800    8.6570   11.5570 C   0  0  0  0  0
   20.9660    7.3330   12.3030 C   0  0  0  0  0
   22.2210    7.2210   12.9640 N   0  0  0  0  0
   22.7030    5.9010   13.3960 C   0  0  0  0  0
   24.2500    5.8860   13.3330 C   0  0  0  0  0
   24.1850    8.4250   13.8120 C   0  0  0  0  0
   22.6520    8.2880   13.8790 C   0  0  0  0  0
   24.9150    7.0770   14.1230 C   0  0  0  0  0
   26.3620    7.2260   13.7020 C   0  0  0  0  0
   26.5470    7.1770   12.4830 O   0  0  0  0  0
   27.3690    7.4100   14.5240 N   0  0  0  0  0
   27.2480    7.4710   15.9930 C   0  0  0  0  0
   27.9910    8.7340   16.5080 C   0  0  0  0  0
   29.3300    8.8400   14.4790 C   0  0  0  0  0
   28.7220    7.5290   13.9770 C   0  0  0  0  0
   29.3550    8.7870   15.9380 N   0  0  0  0  0
   30.2340   10.0180   16.5540 S   0  0  0  0  0
   31.4610   10.1160   15.7850 O   0  0  0  0  0
   30.3610    9.7750   17.9680 O   0  0  0  0  0
   29.3520   11.5230   16.3460 C   0  0  0  0  0
   29.4770   12.2390   15.1630 C   0  0  0  0  0
   28.4800   11.9650   17.3500 C   0  0  0  0  0
   27.7540   13.1400   17.1810 C   0  0  0  0  0
   28.7550   13.4120   14.9810 C   0  0  0  0  0
   27.8890   13.8680   16.0000 C   0  0  0  0  0
   27.1650   15.0340   15.8170 C   0  0  0  0  0
   28.1580   15.3090   13.6220 C   0  0  0  0  0
   28.8860   14.1390   13.7990 C   0  0  0  0  0
   27.3010   15.7520   14.6320 C   0  0  0  0  0
   26.3820   17.1890   14.4050 Cl  0  0  0  0  0
   18.6459    5.4599   10.6371 H   0  0  0  0  0
   20.8608    5.2262   11.7785 H   0  0  0  0  0
   20.7628    9.4659   12.6583 H   0  0  0  0  0
   18.5659    9.6153   11.4831 H   0  0  0  0  0
   22.3002    5.1292   12.7402 H   0  0  0  0  0
   22.3741    5.7047   14.4165 H   0  0  0  0  0
   24.5390    5.9816   12.2864 H   0  0  0  0  0
   24.5902    4.9563   13.7890 H   0  0  0  0  0
   24.4536    8.7298   12.8005 H   0  0  0  0  0
   24.4923    9.1565   14.5593 H   0  0  0  0  0
   22.3512    8.0403   14.8970 H   0  0  0  0  0
   22.1877    9.2299   13.5868 H   0  0  0  0  0
   24.8421    6.8543   15.1875 H   0  0  0  0  0
   27.6891    6.5781   16.4361 H   0  0  0  0  0
   26.1961    7.5226   16.2739 H   0  0  0  0  0
   28.0583    8.6918   17.5951 H   0  0  0  0  0
   27.4401    9.6235   16.2023 H   0  0  0  0  0
   30.3391    8.9653   14.0864 H   0  0  0  0  0
   28.7354    9.6884   14.1401 H   0  0  0  0  0
   28.6862    7.5267   12.8876 H   0  0  0  0  0
   29.3318    6.6858   14.3015 H   0  0  0  0  0
   30.1417   11.8808   14.3769 H   0  0  0  0  0
   28.3700   11.3861   18.2670 H   0  0  0  0  0
   27.0842   13.4888   17.9670 H   0  0  0  0  0
   26.4915   15.3882   16.5974 H   0  0  0  0  0
   28.2553   15.8792   12.6982 H   0  0  0  0  0
   29.5583   13.7903   13.0151 H   0  0  0  0  0
  1  2  4  0  0  0
  1  5  4  0  0  0
  2  3  4  0  0  0
  3  6  4  0  0  0
  6  7  1  0  0  0
  7  8  1  0  0  0
  7 11  1  0  0  0
  8  9  1  0  0  0
  9 12  1  0  0  0
 12 13  1  0  0  0
 13 14  2  0  0  0
 13 15  1  0  0  0
 15 16  1  0  0  0
 15 19  1  0  0  0
 16 17  1  0  0  0
 17 20  1  0  0  0
 20 21  1  0  0  0
 21 22  2  0  0  0
 21 23  2  0  0  0
 21 24  1  0  0  0
 24 25  4  0  0  0
 24 26  4  0  0  0
 25 28  4  0  0  0
 26 27  4  0  0  0
 27 29  4  0  0  0
 28 29  4  0  0  0
 28 32  4  0  0  0
 29 30  4  0  0  0
 30 33  4  0  0  0
 33 34  1  0  0  0
 33 31  4  0  0  0
 32 31  4  0  0  0
 20 18  1  0  0  0
 19 18  1  0  0  0
 12 10  1  0  0  0
 11 10  1  0  0  0
  6  4  4  0  0  0
  5  4  4  0  0  0
  2 35  1  0  0  0
  3 36  1  0  0  0
  4 37  1  0  0  0
  5 38  1  0  0  0
  8 39  1  0  0  0
  8 40  1  0  0  0
  9 41  1  0  0  0
  9 42  1  0  0  0
 10 43  1  0  0  0
 10 44  1  0  0  0
 11 45  1  0  0  0
 11 46  1  0  0  0
 12 47  1  0  0  0
 16 48  1  0  0  0
 16 49  1  0  0  0
 17 50  1  0  0  0
 17 51  1  0  0  0
 18 52  1  0  0  0
 18 53  1  0  0  0
 19 54  1  0  0  0
 19 55  1  0  0  0
 25 56  1  0  0  0
 26 57  1  0  0  0
 27 58  1  0  0  0
 30 59  1  0  0  0
 31 60  1  0  0  0
 32 61  1  0  0  0
M  END
$$$$
