4al4_ligand
  -I-interpret- 

 62 64  0  0  0  0  0  0  0  0999 V2000
   13.2890  -13.9930    8.0910 C   0  0  0  0  0
   15.3080  -14.6270    9.2130 C   0  0  0  0  0
   12.5500  -14.5410    9.1230 C   0  0  0  0  0
   14.5550  -15.2040   10.2190 C   0  0  0  0  0
   21.5940   -5.8440    1.2450 C   0  0  0  0  0
   20.3280   -5.8080    1.8020 C   0  0  0  0  0
   19.4780   -7.2060    0.0350 C   0  0  0  0  0
   13.1740  -15.1450   10.2030 C   0  0  0  0  0
   21.8220   -6.5650    0.0720 C   0  0  0  0  0
   14.6700  -14.0120    8.1550 C   0  0  0  0  0
   19.2730   -6.4960    1.2130 C   0  0  0  0  0
   20.7490   -7.2360   -0.5160 C   0  0  0  0  0
   22.8890   -7.4550   -1.6700 C   0  0  0  0  0
   17.1260   -7.4910    1.9730 C   0  0  0  0  0
   12.0150  -17.8170    9.7670 C   0  0  0  0  0
   10.6980  -17.6120   11.8710 C   0  0  0  0  0
   14.8770   -9.9600    4.0980 C   0  0  0  0  0
   24.0140   -7.8010   -2.5850 C   0  0  0  0  0
   14.7510  -12.8410    6.0490 C   0  0  0  0  0
   12.3710  -15.8170   11.2870 C   0  0  0  0  0
   15.9420   -7.1680    2.8490 C   0  0  0  0  0
   15.6850  -11.8200    5.4780 C   0  0  0  0  0
   14.7550   -8.0540    2.5580 C   0  0  0  0  0
   11.3670  -16.8560   10.7470 C   0  0  0  0  0
   23.0330   -6.6950   -0.6090 N   0  0  0  0  0
   17.9810   -6.4600    1.7880 N   0  0  0  0  0
   15.1920  -11.2600    4.2260 N   0  0  0  0  0
   15.0320   -9.4510    2.8650 N   0  0  0  0  0
   17.2760   -8.6020    1.4720 O   0  0  0  0  0
   11.4980  -18.0690    8.6900 O   0  0  0  0  0
   11.1170  -18.6760   12.2980 O   0  0  0  0  0
   14.4290   -9.2970    5.0330 O   0  0  0  0  0
   13.1370  -18.3330   10.1620 O   0  0  0  0  0
    9.6620  -16.9890   12.3430 O   0  0  0  0  0
   15.4260  -13.4670    7.1460 O   0  0  0  0  0
   21.2820   -8.0300   -1.9680 S   0  0  0  0  0
   12.7860  -13.5487    7.2321 H   0  0  0  0  0
   16.3967  -14.6576    9.2553 H   0  0  0  0  0
   11.4615  -14.4974    9.0867 H   0  0  0  0  0
   15.0594  -15.7145   11.0394 H   0  0  0  0  0
   22.4144   -5.3086    1.7229 H   0  0  0  0  0
   20.1558   -5.2340    2.7125 H   0  0  0  0  0
   18.6527   -7.7301   -0.4468 H   0  0  0  0  0
   24.4300   -6.8871   -3.0091 H   0  0  0  0  0
   24.7868   -8.3279   -2.0254 H   0  0  0  0  0
   23.6448   -8.4401   -3.3871 H   0  0  0  0  0
   14.4809  -13.5788    5.2935 H   0  0  0  0  0
   13.8273  -12.3702    6.3854 H   0  0  0  0  0
   11.8004  -15.0440   11.8017 H   0  0  0  0  0
   13.0703  -16.3418   11.9379 H   0  0  0  0  0
   15.6493   -6.1361    2.6548 H   0  0  0  0  0
   16.2359   -7.3266    3.8866 H   0  0  0  0  0
   16.6390  -12.3079    5.2783 H   0  0  0  0  0
   15.7798  -11.0074    6.1983 H   0  0  0  0  0
   14.5231   -7.9769    1.4958 H   0  0  0  0  0
   13.9226   -7.7257    3.1804 H   0  0  0  0  0
   10.6007  -16.3010   10.2059 H   0  0  0  0  0
   17.6549   -5.5456    2.1009 H   0  0  0  0  0
   15.0824  -11.8755    3.4200 H   0  0  0  0  0
   15.3552  -10.0643    2.1168 H   0  0  0  0  0
   13.3531  -17.9964   11.0347 H   0  0  0  0  0
    9.5260  -16.1770   11.8493 H   0  0  0  0  0
  1  3  4  0  0  0
 10  1  4  0  0  0
  2  4  4  0  0  0
 10  2  4  0  0  0
  3  8  4  0  0  0
  4  8  4  0  0  0
  6  5  4  0  0  0
  5  9  4  0  0  0
 11  6  4  0  0  0
 11  7  4  0  0  0
  7 12  4  0  0  0
  8 20  1  0  0  0
 12  9  4  0  0  0
  9 25  4  0  0  0
 35 10  1  0  0  0
 26 11  1  0  0  0
 12 36  4  0  0  0
 13 18  1  0  0  0
 13 25  4  0  0  0
 36 13  4  0  0  0
 21 14  1  0  0  0
 14 26  1  0  0  0
 14 29  2  0  0  0
 24 15  1  0  0  0
 15 30  2  0  0  0
 15 33  1  0  0  0
 24 16  1  0  0  0
 16 31  2  0  0  0
 16 34  1  0  0  0
 17 27  1  0  0  0
 28 17  1  0  0  0
 17 32  2  0  0  0
 22 19  1  0  0  0
 19 35  1  0  0  0
 20 24  1  0  0  0
 23 21  1  0  0  0
 27 22  1  0  0  0
 23 28  1  0  0  0
  1 37  1  0  0  0
  2 38  1  0  0  0
  3 39  1  0  0  0
  4 40  1  0  0  0
  5 41  1  0  0  0
  6 42  1  0  0  0
  7 43  1  0  0  0
 18 44  1  0  0  0
 18 45  1  0  0  0
 18 46  1  0  0  0
 19 47  1  0  0  0
 19 48  1  0  0  0
 20 49  1  0  0  0
 20 50  1  0  0  0
 21 51  1  0  0  0
 21 52  1  0  0  0
 22 53  1  0  0  0
 22 54  1  0  0  0
 23 55  1  0  0  0
 23 56  1  0  0  0
 24 57  1  0  0  0
 26 58  1  0  0  0
 27 59  1  0  0  0
 28 60  1  0  0  0
 33 61  1  0  0  0
 34 62  1  0  0  0
M  END
$$$$
