3c0z_ligand
  -I-interpret- 

 19 18  0  0  0  0  0  0  0  0999 V2000
  -35.4870  -25.8380  -15.6880 O   0  0  0  0  0
  -37.4870  -27.2050  -17.6530 O   0  0  0  0  0
  -36.2040  -25.6400  -16.8410 N   0  0  0  0  0
  -36.4150  -26.6370  -17.6800 C   0  0  0  0  0
  -35.2990  -27.0090  -18.6420 C   0  0  0  0  0
  -35.5260  -28.3770  -19.2790 C   0  0  0  0  0
  -34.4050  -28.7640  -20.2420 C   0  0  0  0  0
  -34.4850  -30.2550  -20.5500 C   0  0  0  0  0
  -35.4318  -25.0125  -15.2011 H   0  0  0  0  0
  -36.5772  -24.7144  -17.0516 H   0  0  0  0  0
  -34.3642  -27.0444  -18.0825 H   0  0  0  0  0
  -35.2711  -26.2633  -19.4366 H   0  0  0  0  0
  -36.4570  -28.3355  -19.8443 H   0  0  0  0  0
  -35.5570  -29.1195  -18.4816 H   0  0  0  0  0
  -33.4415  -28.5406  -19.7838 H   0  0  0  0  0
  -34.5114  -28.1975  -21.1671 H   0  0  0  0  0
  -34.3797  -30.8219  -19.6250 H   0  0  0  0  0
  -35.4488  -30.4790  -21.0073 H   0  0  0  0  0
  -33.6835  -30.5263  -21.2372 H   0  0  0  0  0
  3  1  1  0  0  0
  4  2  2  0  0  0
  3  4  1  0  0  0
  4  5  1  0  0  0
  5  6  1  0  0  0
  6  7  1  0  0  0
  7  8  1  0  0  0
  1  9  1  0  0  0
  3 10  1  0  0  0
  5 11  1  0  0  0
  5 12  1  0  0  0
  6 13  1  0  0  0
  6 14  1  0  0  0
  7 15  1  0  0  0
  7 16  1  0  0  0
  8 17  1  0  0  0
  8 18  1  0  0  0
  8 19  1  0  0  0
M  END
$$$$
