4pp0_ligand
  -I-interpret- 

 41 41  0  0  0  0  0  0  0  0999 V2000
   17.3520   -5.7350   -4.1970 C   0  0  0  0  0
   16.2260   -6.6790   -4.5640 C   0  0  0  0  0
   16.1710   -7.8490   -4.1220 O   0  0  0  0  0
   18.2320   -5.5030   -5.4170 C   0  0  0  0  0
   18.6640   -6.7800   -6.1080 C   0  0  0  0  0
   19.4090   -6.5160   -7.3810 C   0  0  0  0  0
   20.0420   -7.7260   -7.8790 N   0  0  0  0  0
   20.8370   -7.7080   -9.0770 C   0  0  0  0  0
   20.9490   -6.6280   -9.8300 N   0  0  0  0  0
   21.4140   -8.8610   -9.4340 N   0  0  0  0  0
   18.1000   -6.2330   -3.0330 N   0  3  0  0  0
   19.3530   -6.9160   -2.7800 C   0  0  0  0  0
   19.2660   -7.4820   -1.4120 C   0  0  0  0  0
   18.2200   -6.7470   -0.6590 C   0  0  0  0  0
   17.5110   -6.0650   -1.7550 C   0  0  0  0  0
   16.2470   -5.6350   -1.6340 O   0  0  0  0  0
   20.5200   -5.9820   -2.8650 C   0  0  0  0  0
   20.3950   -4.7390   -3.1340 O   0  0  0  0  0
   21.6880   -6.4260   -2.6070 O   0  0  0  0  0
   15.3360   -6.2430   -5.3320 O   0  0  0  0  0
   16.9429   -4.7704   -3.8964 H   0  0  0  0  0
   19.1344   -4.9955   -5.0761 H   0  0  0  0  0
   17.6489   -4.9255   -6.1343 H   0  0  0  0  0
   17.7683   -7.3506   -6.3533 H   0  0  0  0  0
   19.3286   -7.3203   -5.4339 H   0  0  0  0  0
   20.1827   -5.7738   -7.1843 H   0  0  0  0  0
   18.7026   -6.1588   -8.1303 H   0  0  0  0  0
   19.9203   -8.6018   -7.3705 H   0  0  0  0  0
   21.4820   -6.6651  -10.6989 H   0  0  0  0  0
   21.9507   -8.9161  -10.2996 H   0  0  0  0  0
   21.3172   -9.6849   -8.8406 H   0  0  0  0  0
   18.3091   -6.1838   -4.0301 H   0  0  0  0  0
   19.5091   -7.6908   -3.5306 H   0  0  0  0  0
   20.2266   -7.3798   -0.9071 H   0  0  0  0  0
   19.0099   -8.5402   -1.4646 H   0  0  0  0  0
   18.6155   -6.0704    0.0986 H   0  0  0  0  0
   17.5808   -7.3884   -0.0522 H   0  0  0  0  0
   17.6938   -5.0245   -1.4864 H   0  0  0  0  0
   16.0164   -5.5806   -0.7037 H   0  0  0  0  0
   19.4716   -4.5415   -3.3070 H   0  0  0  0  0
   15.5371   -5.3350   -5.5701 H   0  0  0  0  0
  1  2  1  0  0  0
  1  4  1  0  0  0
  1 11  1  0  0  0
  2  3  2  0  0  0
  2 20  1  0  0  0
  4  5  1  0  0  0
  5  6  1  0  0  0
  6  7  1  0  0  0
  7  8  1  0  0  0
  8  9  2  0  0  0
  8 10  1  0  0  0
 11 12  1  0  0  0
 11 15  1  0  0  0
 12 13  1  0  0  0
 12 17  1  0  0  0
 13 14  1  0  0  0
 14 15  1  0  0  0
 15 16  1  0  0  0
 17 18  1  0  0  0
 17 19  2  0  0  0
  1 21  1  0  0  0
  4 22  1  0  0  0
  4 23  1  0  0  0
  5 24  1  0  0  0
  5 25  1  0  0  0
  6 26  1  0  0  0
  6 27  1  0  0  0
  7 28  1  0  0  0
  9 29  1  0  0  0
 10 30  1  0  0  0
 10 31  1  0  0  0
 11 32  1  0  0  0
 12 33  1  0  0  0
 13 34  1  0  0  0
 13 35  1  0  0  0
 14 36  1  0  0  0
 14 37  1  0  0  0
 15 38  1  0  0  0
 16 39  1  0  0  0
 18 40  1  0  0  0
 20 41  1  0  0  0
M  END
$$$$
