4fcq_ligand
  -I-interpret- 

 34 36  0  0  0  0  0  0  0  0999 V2000
   32.8040   13.4700   24.3610 C   0  0  0  0  0
   33.5560   12.1200   24.1830 C   0  0  0  0  0
   34.9050   12.2220   23.8690 C   0  0  0  0  0
   35.6920   11.0880   23.6760 C   0  0  0  0  0
   37.1840   11.2220   23.2850 C   0  0  0  0  0
   35.1260    9.8340   23.8150 C   0  0  0  0  0
   33.8090    9.7080   24.1660 C   0  0  0  0  0
   32.9980   10.8350   24.3190 C   0  0  0  0  0
   31.6890   10.6050   24.7470 C   0  0  0  0  0
   30.5210   10.9430   24.0760 C   0  0  0  0  0
   31.5500   10.0500   25.9750 N   0  0  0  0  0
   30.3250    9.8160   26.5520 C   0  0  0  0  0
   30.1770    9.0140   28.1200 S   0  0  0  0  0
   31.3040    7.5960   27.9840 C   0  0  0  0  0
   29.2090   10.1460   25.9140 N   0  0  0  0  0
   29.2950   10.6750   24.6810 C   0  0  0  0  0
   28.3600   11.0710   23.8550 N   0  0  0  0  0
   28.9140   11.5820   22.7500 C   0  0  0  0  0
   30.2340   11.5330   22.8490 C   0  0  0  0  0
   31.2310   11.9690   21.9060 C   0  0  0  0  0
   32.0500   12.2700   21.1850 N   0  0  0  0  0
   33.2656   14.0378   25.1689 H   0  0  0  0  0
   32.8616   14.0414   23.4346 H   0  0  0  0  0
   31.7597   13.2735   24.6038 H   0  0  0  0  0
   35.3574   13.2089   23.7715 H   0  0  0  0  0
   37.2636   11.7560   22.3381 H   0  0  0  0  0
   37.7134   11.7749   24.0610 H   0  0  0  0  0
   37.6218   10.2291   23.1816 H   0  0  0  0  0
   35.7305    8.9431   23.6445 H   0  0  0  0  0
   33.3878    8.7158   24.3282 H   0  0  0  0  0
   30.9847    6.9574   27.1604 H   0  0  0  0  0
   32.3160    7.9546   27.7961 H   0  0  0  0  0
   31.2852    7.0281   28.9142 H   0  0  0  0  0
   28.3628   11.9786   21.8973 H   0  0  0  0  0
  1  2  1  0  0  0
  2  3  4  0  0  0
  2  8  4  0  0  0
  3  4  4  0  0  0
  4  5  1  0  0  0
  4  6  4  0  0  0
  6  7  4  0  0  0
  7  8  4  0  0  0
  8  9  1  0  0  0
  9 10  4  0  0  0
  9 11  4  0  0  0
 10 16  4  0  0  0
 10 19  4  0  0  0
 11 12  4  0  0  0
 12 13  1  0  0  0
 12 15  4  0  0  0
 13 14  1  0  0  0
 15 16  4  0  0  0
 16 17  4  0  0  0
 17 18  4  0  0  0
 18 19  4  0  0  0
 19 20  1  0  0  0
 20 21  3  0  0  0
  1 22  1  0  0  0
  1 23  1  0  0  0
  1 24  1  0  0  0
  3 25  1  0  0  0
  5 26  1  0  0  0
  5 27  1  0  0  0
  5 28  1  0  0  0
  6 29  1  0  0  0
  7 30  1  0  0  0
 14 31  1  0  0  0
 14 32  1  0  0  0
 14 33  1  0  0  0
 18 34  1  0  0  0
M  END
$$$$
