5wg5_ligand
  -I-interpret- 

 44 47  0  0  0  0  0  0  0  0999 V2000
  -14.9340   24.7320   15.8140 F   0  0  0  0  0
  -15.5750   25.8280   16.2520 C   0  0  0  0  0
  -15.3000   26.3360   17.5170 C   0  0  0  0  0
  -15.9620   27.4720   17.9690 C   0  0  0  0  0
  -16.8960   28.0990   17.1530 C   0  0  0  0  0
  -17.1690   27.5910   15.8880 C   0  0  0  0  0
  -16.5070   26.4560   15.4360 C   0  0  0  0  0
  -17.6120   29.3080   17.6220 C   0  0  0  0  0
  -18.2340   29.0460   18.9850 C   0  0  0  0  0
  -18.9250   30.3070   19.4820 C   0  0  0  0  0
  -17.9640   31.4230   19.5500 N   0  3  0  0  0
  -17.4270   31.7290   18.2110 C   0  0  0  0  0
  -16.6810   30.5140   17.6710 C   0  0  0  0  0
  -19.2580   27.9260   18.8810 C   0  0  0  0  0
  -19.9010   28.0400   17.6120 O   0  0  0  0  0
  -21.1270   27.4740   17.3960 C   0  0  0  0  0
  -21.5020   26.3290   18.0890 C   0  0  0  0  0
  -22.7520   25.7730   17.8540 C   0  0  0  0  0
  -23.6120   26.3490   16.9440 C   0  0  0  0  0
  -23.2460   27.4910   16.2450 C   0  0  0  0  0
  -21.9950   28.0520   16.4740 C   0  0  0  0  0
  -23.3120   24.6120   18.4690 C   0  0  0  0  0
  -24.5320   24.5210   17.8890 N   0  0  0  0  0
  -24.7120   25.5760   16.9630 N   0  0  0  0  0
  -14.5654   25.8436   18.1542 H   0  0  0  0  0
  -15.7489   27.8699   18.9611 H   0  0  0  0  0
  -17.9030   28.0835   15.2502 H   0  0  0  0  0
  -16.7187   26.0593   14.4431 H   0  0  0  0  0
  -18.4070   29.5369   16.9123 H   0  0  0  0  0
  -17.4482   28.7564   19.6827 H   0  0  0  0  0
  -19.3285   30.1232   20.4778 H   0  0  0  0  0
  -19.7271   30.5692   18.7920 H   0  0  0  0  0
  -17.1927   31.1577   20.1624 H   0  0  0  0  0
  -18.4419   32.2488   19.9107 H   0  0  0  0  0
  -16.7422   32.5743   18.2793 H   0  0  0  0  0
  -18.2482   31.9785   17.5391 H   0  0  0  0  0
  -16.3236   30.7315   16.6645 H   0  0  0  0  0
  -15.8393   30.2902   18.3265 H   0  0  0  0  0
  -19.9898   28.0062   19.6848 H   0  0  0  0  0
  -18.7689   26.9561   18.9719 H   0  0  0  0  0
  -20.8223   25.8729   18.8088 H   0  0  0  0  0
  -23.9303   27.9418   15.5262 H   0  0  0  0  0
  -21.6929   28.9470   15.9301 H   0  0  0  0  0
  -22.8668   23.9598   19.2203 H   0  0  0  0  0
  1  2  1  0  0  0
  2  3  4  0  0  0
  2  7  4  0  0  0
  3  4  4  0  0  0
  4  5  4  0  0  0
  5  6  4  0  0  0
  5  8  1  0  0  0
  6  7  4  0  0  0
  8  9  1  0  0  0
  8 13  1  0  0  0
  9 10  1  0  0  0
  9 14  1  0  0  0
 10 11  1  0  0  0
 11 12  1  0  0  0
 12 13  1  0  0  0
 14 15  1  0  0  0
 15 16  1  0  0  0
 16 17  4  0  0  0
 16 21  4  0  0  0
 17 18  4  0  0  0
 18 19  4  0  0  0
 18 22  4  0  0  0
 19 20  4  0  0  0
 19 24  4  0  0  0
 20 21  4  0  0  0
 22 23  4  0  0  0
 23 24  4  0  0  0
  3 25  1  0  0  0
  4 26  1  0  0  0
  6 27  1  0  0  0
  7 28  1  0  0  0
  8 29  1  0  0  0
  9 30  1  0  0  0
 10 31  1  0  0  0
 10 32  1  0  0  0
 11 33  1  0  0  0
 11 34  1  0  0  0
 12 35  1  0  0  0
 12 36  1  0  0  0
 13 37  1  0  0  0
 13 38  1  0  0  0
 14 39  1  0  0  0
 14 40  1  0  0  0
 17 41  1  0  0  0
 20 42  1  0  0  0
 21 43  1  0  0  0
 22 44  1  0  0  0
M  END
$$$$
