5u1q_ligand
  -I-interpret- 

144148  0  0  0  0  0  0  0  0999 V2000
    0.6610   37.5310  144.0000 N   0  0  0  0  0
    0.3410   36.3540  144.7980 C   0  0  0  0  0
   -1.1120   35.9340  144.6040 C   0  0  0  0  0
   -1.9390   36.7210  144.1430 O   0  0  0  0  0
    0.6190   36.6200  146.2790 C   0  0  0  0  0
    1.9990   37.1920  146.5590 C   0  0  0  0  0
    2.4330   36.9150  147.9890 C   0  0  0  0  0
    3.9090   37.2190  148.1870 C   0  0  0  0  0
    4.7720   36.3570  147.3330 N   0  0  0  0  0
   -1.4150   34.6890  144.9570 N   0  0  0  0  0
   -2.7660   34.1630  144.8210 C   0  0  0  0  0
   -3.0680   33.2540  146.0070 C   0  0  0  0  0
   -2.3560   32.2680  146.2280 O   0  0  0  0  0
   -2.9200   33.3770  143.5150 C   0  0  0  0  0
   -2.5230   34.1490  142.2920 C   0  0  0  0  0
   -3.4540   34.9090  141.6070 C   0  0  0  0  0
   -1.2140   34.1120  141.8250 C   0  0  0  0  0
   -3.0920   35.6200  140.4800 C   0  0  0  0  0
   -0.8440   34.8230  140.7000 C   0  0  0  0  0
   -1.7840   35.5770  140.0250 C   0  0  0  0  0
   -4.0920   33.6000  146.7790 N   0  0  0  0  0
   -4.4680   32.8380  147.9680 C   0  0  0  0  0
   -4.6650   31.3540  147.6980 C   0  0  0  0  0
   -5.3840   30.9710  146.7840 O   0  0  0  0  0
   -5.7270   33.4280  148.6090 C   0  0  0  0  0
   -5.4670   34.1400  149.9240 C   0  0  0  0  0
   -4.9240   33.2100  150.9900 C   0  0  0  0  0
   -4.2330   33.6900  151.9080 O   0  0  0  0  0
   -5.1890   31.9960  150.9070 O   0  0  0  0  0
   -4.0370   30.5200  148.5150 N   0  0  0  0  0
   -4.1440   29.0900  148.3390 C   0  0  0  0  0
   -3.1550   28.4810  147.3650 C   0  0  0  0  0
   -3.1580   27.2560  147.1940 O   0  0  0  0  0
   -2.3110   29.2850  146.7270 N   0  0  0  0  0
   -1.3210   28.7790  145.7880 C   0  0  0  0  0
    0.0550   29.2750  146.1960 C   0  0  0  0  0
    0.1950   30.1590  147.0450 O   0  0  0  0  0
   -1.6620   29.1920  144.3520 C   0  0  0  0  0
   -3.0110   28.6800  143.9190 C   0  0  0  0  0
   -3.1540   27.4010  143.3930 C   0  0  0  0  0
   -4.1490   29.4650  144.0510 C   0  0  0  0  0
   -4.3890   26.9210  143.0000 C   0  0  0  0  0
   -5.3940   28.9940  143.6540 C   0  0  0  0  0
   -5.5050   27.7240  143.1300 C   0  0  0  0  0
   -6.7340   27.2570  142.7410 O   0  0  0  0  0
    1.0850   28.6930  145.5830 N   0  0  0  0  0
    2.4630   28.9840  145.9500 C   0  0  0  0  0
    3.1300   30.0350  145.0580 C   0  0  0  0  0
    4.3300   30.2890  145.2280 O   0  0  0  0  0
    3.2950   27.6930  145.9490 C   0  0  0  0  0
    2.7900   26.6600  146.9580 C   0  0  0  0  0
    2.8510   26.9440  148.1690 O   0  0  0  0  0
    2.3450   25.5690  146.5490 O   0  0  0  0  0
    2.3850   30.6870  144.1550 N   0  0  0  0  0
    2.9960   31.6990  143.2910 C   0  0  0  0  0
    3.5920   32.8160  144.1390 C   0  0  0  0  0
    2.9470   33.3170  145.0560 O   0  0  0  0  0
    1.9670   32.3170  142.3350 C   0  0  0  0  0
    1.1840   31.2990  141.5480 C   0  0  0  0  0
    0.5720   30.3880  142.1110 O   0  0  0  0  0
    1.1400   31.4880  140.2250 N   0  0  0  0  0
    4.7970   33.2410  143.7850 N   0  0  0  0  0
    5.4570   34.3300  144.4820 C   0  0  0  0  0
    6.1290   35.2750  143.4910 C   0  0  0  0  0
    7.0490   34.8890  142.7790 O   0  0  0  0  0
    6.4720   33.8000  145.4880 C   0  0  0  0  0
    6.6130   34.6650  146.7280 C   0  0  0  0  0
    5.2810   35.1760  147.2410 C   0  0  0  0  0
    4.8480   34.7110  148.3130 O   0  0  0  0  0
    2.5490   36.0750  143.3050 O   0  0  0  0  0
    5.8180   36.1160  142.7320 N   0  3  0  0  0
    6.1480   37.1260  141.6880 C   0  0  0  0  0
    7.4940   37.8280  142.1110 C   0  0  0  0  0
    7.7930   37.9160  143.2930 O   0  0  0  0  0
    8.2570   38.3020  141.1430 N   0  0  0  0  0
    4.9660   38.1390  141.5950 C   0  0  0  0  0
    3.4630   37.4040  140.9050 S   0  0  0  0  0
    2.0450   37.9940  141.8640 C   0  0  0  0  0
    1.8700   37.0380  143.0700 C   0  0  0  0  0
    0.2201   38.4504  144.0269 H   0  0  0  0  0
    0.9789   35.5377  144.4590 H   0  0  0  0  0
    0.5562   35.6623  146.7958 H   0  0  0  0  0
   -0.1098   37.3569  146.6164 H   0  0  0  0  0
    1.9635   38.2712  146.4104 H   0  0  0  0  0
    2.7129   36.7216  145.8828 H   0  0  0  0  0
    2.2641   35.8600  148.2046 H   0  0  0  0  0
    1.8547   37.5534  148.6569 H   0  0  0  0  0
    4.1606   37.0282  149.2303 H   0  0  0  0  0
    4.0841   38.2588  147.9109 H   0  0  0  0  0
    5.0700   36.9007  146.5231 H   0  0  0  0  0
   -0.6826   34.0867  145.3327 H   0  0  0  0  0
   -3.4675   34.9970  144.7999 H   0  0  0  0  0
   -3.9751   33.1241  143.4109 H   0  0  0  0  0
   -2.2630   32.5096  143.5788 H   0  0  0  0  0
   -4.4843   34.9470  141.9607 H   0  0  0  0  0
   -0.4707   33.5147  142.3530 H   0  0  0  0  0
   -3.8349   36.2148  139.9486 H   0  0  0  0  0
    0.1864   34.7891  140.3461 H   0  0  0  0  0
   -1.4971   36.1376  139.1353 H   0  0  0  0  0
   -4.6355   34.4274  146.5331 H   0  0  0  0  0
   -3.6293   32.9211  148.6592 H   0  0  0  0  0
   -6.4056   32.6004  148.8155 H   0  0  0  0  0
   -6.1314   34.1643  147.9145 H   0  0  0  0  0
   -6.4145   34.5438  150.2809 H   0  0  0  0  0
   -4.7234   34.9165  149.7447 H   0  0  0  0  0
   -5.7306   31.8403  150.1298 H   0  0  0  0  0
   -3.4711   30.8926  149.2775 H   0  0  0  0  0
   -5.1380   28.8990  147.9346 H   0  0  0  0  0
   -3.9419   28.6401  149.3110 H   0  0  0  0  0
   -2.3586   30.2889  146.9010 H   0  0  0  0  0
   -1.3249   27.6893  145.8146 H   0  0  0  0  0
   -0.9087   28.7673  143.6885 H   0  0  0  0  0
   -1.6818   30.2809  144.3075 H   0  0  0  0  0
   -2.2752   26.7646  143.2886 H   0  0  0  0  0
   -4.0639   30.4665  144.4728 H   0  0  0  0  0
   -4.4816   25.9152  142.5901 H   0  0  0  0  0
   -6.2772   29.6245  143.7562 H   0  0  0  0  0
   -7.3964   27.9341  142.8971 H   0  0  0  0  0
    0.9024   28.0242  144.8349 H   0  0  0  0  0
    2.4264   29.4093  146.9529 H   0  0  0  0  0
    4.3170   27.9548  146.2231 H   0  0  0  0  0
    3.2233   27.2510  144.9552 H   0  0  0  0  0
    2.3837   25.5482  145.5900 H   0  0  0  0  0
    1.3903   30.4779  144.0693 H   0  0  0  0  0
    3.7722   31.2037  142.7077 H   0  0  0  0  0
    2.5142   32.9313  141.6199 H   0  0  0  0  0
    1.2555   32.8784  142.9405 H   0  0  0  0  0
    0.5840   30.8652  139.6391 H   0  0  0  0  0
    1.6625   32.2550  139.8017 H   0  0  0  0  0
    5.2725   32.7912  143.0027 H   0  0  0  0  0
    4.6972   34.8876  145.0296 H   0  0  0  0  0
    6.0492   35.6599  144.5076 H   0  0  0  0  0
    7.4425   33.7812  144.9921 H   0  0  0  0  0
    6.1262   32.8188  145.8132 H   0  0  0  0  0
    7.2236   35.5288  146.4653 H   0  0  0  0  0
    7.0612   34.0547  147.5120 H   0  0  0  0  0
    4.9523   36.6550  142.7521 H   0  0  0  0  0
    6.2835   36.6753  140.7048 H   0  0  0  0  0
    9.1376   38.7650  141.3680 H   0  0  0  0  0
    7.9658   38.2051  140.1703 H   0  0  0  0  0
    5.2735   38.9503  140.9352 H   0  0  0  0  0
    4.7376   38.4784  142.6053 H   0  0  0  0  0
    1.1450   38.0015  141.2492 H   0  0  0  0  0
    2.2146   39.0145  142.2074 H   0  0  0  0  0
  1  2  1  0  0  0
  1 79  1  0  0  0
  2  3  1  0  0  0
  2  5  1  0  0  0
  3  4  2  0  0  0
  3 10  1  0  0  0
  5  6  1  0  0  0
  6  7  1  0  0  0
  7  8  1  0  0  0
  8  9  1  0  0  0
  9 68  1  0  0  0
 10 11  1  0  0  0
 11 12  1  0  0  0
 11 14  1  0  0  0
 12 13  2  0  0  0
 12 21  1  0  0  0
 14 15  1  0  0  0
 15 16  4  0  0  0
 15 17  4  0  0  0
 16 18  4  0  0  0
 17 19  4  0  0  0
 18 20  4  0  0  0
 19 20  4  0  0  0
 21 22  1  0  0  0
 22 23  1  0  0  0
 22 25  1  0  0  0
 23 24  2  0  0  0
 23 30  1  0  0  0
 25 26  1  0  0  0
 26 27  1  0  0  0
 27 28  2  0  0  0
 27 29  1  0  0  0
 30 31  1  0  0  0
 31 32  1  0  0  0
 32 33  2  0  0  0
 32 34  1  0  0  0
 34 35  1  0  0  0
 35 36  1  0  0  0
 35 38  1  0  0  0
 36 37  2  0  0  0
 36 46  1  0  0  0
 38 39  1  0  0  0
 39 40  4  0  0  0
 39 41  4  0  0  0
 40 42  4  0  0  0
 41 43  4  0  0  0
 42 44  4  0  0  0
 43 44  4  0  0  0
 44 45  1  0  0  0
 46 47  1  0  0  0
 47 48  1  0  0  0
 47 50  1  0  0  0
 48 49  2  0  0  0
 48 54  1  0  0  0
 50 51  1  0  0  0
 51 52  2  0  0  0
 51 53  1  0  0  0
 54 55  1  0  0  0
 55 56  1  0  0  0
 55 58  1  0  0  0
 56 57  2  0  0  0
 56 62  1  0  0  0
 58 59  1  0  0  0
 59 60  2  0  0  0
 59 61  1  0  0  0
 62 63  1  0  0  0
 63 64  1  0  0  0
 63 66  1  0  0  0
 64 65  1  0  0  0
 64 71  1  0  0  0
 65 71  1  0  0  0
 66 67  1  0  0  0
 67 68  1  0  0  0
 68 69  2  0  0  0
 79 70  2  0  0  0
 71 72  1  0  0  0
 72 73  1  0  0  0
 72 76  1  0  0  0
 73 74  2  0  0  0
 73 75  1  0  0  0
 76 77  1  0  0  0
 77 78  1  0  0  0
 78 79  1  0  0  0
  1 80  1  0  0  0
  2 81  1  0  0  0
  5 82  1  0  0  0
  5 83  1  0  0  0
  6 84  1  0  0  0
  6 85  1  0  0  0
  7 86  1  0  0  0
  7 87  1  0  0  0
  8 88  1  0  0  0
  8 89  1  0  0  0
  9 90  1  0  0  0
 10 91  1  0  0  0
 11 92  1  0  0  0
 14 93  1  0  0  0
 14 94  1  0  0  0
 16 95  1  0  0  0
 17 96  1  0  0  0
 18 97  1  0  0  0
 19 98  1  0  0  0
 20 99  1  0  0  0
 21100  1  0  0  0
 22101  1  0  0  0
 25102  1  0  0  0
 25103  1  0  0  0
 26104  1  0  0  0
 26105  1  0  0  0
 29106  1  0  0  0
 30107  1  0  0  0
 31108  1  0  0  0
 31109  1  0  0  0
 34110  1  0  0  0
 35111  1  0  0  0
 38112  1  0  0  0
 38113  1  0  0  0
 40114  1  0  0  0
 41115  1  0  0  0
 42116  1  0  0  0
 43117  1  0  0  0
 45118  1  0  0  0
 46119  1  0  0  0
 47120  1  0  0  0
 50121  1  0  0  0
 50122  1  0  0  0
 53123  1  0  0  0
 54124  1  0  0  0
 55125  1  0  0  0
 58126  1  0  0  0
 58127  1  0  0  0
 61128  1  0  0  0
 61129  1  0  0  0
 62130  1  0  0  0
 63131  1  0  0  0
 64132  1  0  0  0
 66133  1  0  0  0
 66134  1  0  0  0
 67135  1  0  0  0
 67136  1  0  0  0
 71137  1  0  0  0
 72138  1  0  0  0
 75139  1  0  0  0
 75140  1  0  0  0
 76141  1  0  0  0
 76142  1  0  0  0
 78143  1  0  0  0
 78144  1  0  0  0
M  END
$$$$
