### 
### Created by X-TOOL on Fri Nov  2 10:20:25 2018
### 

@<TRIPOS>MOLECULE
5u1q_ligand
  142   146     1     0     0
SMALL
GAST_HUCK


@<TRIPOS>ATOM
      1 N           0.6610   37.5310  144.0000 N.am      1 LYS        -0.2649
      2 CA          0.3410   36.3540  144.7980 C.3       1 LYS         0.1309
      3 C          -1.1120   35.9340  144.6040 C.2       1 LYS         0.2040
      4 O          -1.9390   36.7210  144.1430 O.2       1 LYS        -0.3944
      5 CB          0.6190   36.6200  146.2790 C.3       1 LYS        -0.0123
      6 CG          1.9990   37.1920  146.5590 C.3       1 LYS        -0.0470
      7 CD          2.4330   36.9150  147.9890 C.3       1 LYS        -0.0325
      8 CE          3.9090   37.2190  148.1870 C.3       1 LYS         0.0309
      9 NZ          4.7720   36.3570  147.3330 N.am      1 LYS        -0.2870
     10 N          -1.4150   34.6890  144.9570 N.am      1 LYS        -0.2619
     11 CA         -2.7660   34.1630  144.8210 C.3       1 LYS         0.1404
     12 C          -3.0680   33.2540  146.0070 C.2       1 LYS         0.2060
     13 O          -2.3560   32.2680  146.2280 O.2       1 LYS        -0.3942
     14 CB         -2.9200   33.3770  143.5150 C.3       1 LYS         0.0214
     15 CG         -2.5230   34.1490  142.2920 C.ar      1 LYS        -0.0386
     16 CD1        -3.4540   34.9090  141.6070 C.ar      1 LYS        -0.0601
     17 CD2        -1.2140   34.1120  141.8250 C.ar      1 LYS        -0.0601
     18 CE1        -3.0920   35.6200  140.4800 C.ar      1 LYS        -0.0686
     19 CE2        -0.8440   34.8230  140.7000 C.ar      1 LYS        -0.0686
     20 CZ         -1.7840   35.5770  140.0250 C.ar      1 LYS        -0.0687
     21 N          -4.0920   33.6000  146.7790 N.am      1 LYS        -0.2635
     22 CA         -4.4680   32.8380  147.9680 C.3       1 LYS         0.1325
     23 C          -4.6650   31.3540  147.6980 C.2       1 LYS         0.2038
     24 O          -5.3840   30.9710  146.7840 O.2       1 LYS        -0.3944
     25 CB         -5.7270   33.4280  148.6090 C.3       1 LYS        -0.0008
     26 CG         -5.4670   34.1400  149.9240 C.3       1 LYS         0.0044
     27 CD         -4.9240   33.2100  150.9900 C.2       1 LYS         0.0350
     28 OE1        -4.2330   33.6900  151.9080 O.co2     1 LYS        -0.5690
     29 OE2        -5.1890   31.9960  150.9070 O.co2     1 LYS        -0.5690
     30 N          -4.0370   30.5200  148.5150 N.am      1 LYS        -0.2664
     31 CA         -4.1440   29.0900  148.3390 C.3       1 LYS         0.1201
     32 C          -3.1550   28.4810  147.3650 C.2       1 LYS         0.2009
     33 O          -3.1580   27.2560  147.1940 O.2       1 LYS        -0.3947
     34 N          -2.3110   29.2850  146.7270 N.am      1 LYS        -0.2624
     35 CA         -1.3210   28.7790  145.7880 C.3       1 LYS         0.1390
     36 C           0.0550   29.2750  146.1960 C.2       1 LYS         0.2058
     37 O           0.1950   30.1590  147.0450 O.2       1 LYS        -0.3942
     38 CB         -1.6620   29.1920  144.3520 C.3       1 LYS         0.0163
     39 CG         -3.0110   28.6800  143.9190 C.ar      1 LYS        -0.0493
     40 CD1        -3.1540   27.4010  143.3930 C.ar      1 LYS        -0.0685
     41 CD2        -4.1490   29.4650  144.0510 C.ar      1 LYS        -0.0685
     42 CE1        -4.3890   26.9210  143.0000 C.ar      1 LYS        -0.0398
     43 CE2        -5.3940   28.9940  143.6540 C.ar      1 LYS        -0.0398
     44 CZ         -5.5050   27.7240  143.1300 C.ar      1 LYS         0.0805
     45 OH         -6.7340   27.2570  142.7410 O.3       1 LYS        -0.3376
     46 N           1.0850   28.6930  145.5830 N.am      1 LYS        -0.2620
     47 CA          2.4630   28.9840  145.9500 C.3       1 LYS         0.1423
     48 C           3.1300   30.0350  145.0580 C.2       1 LYS         0.2057
     49 O           4.3300   30.2890  145.2280 O.2       1 LYS        -0.3943
     50 CB          3.2950   27.6930  145.9490 C.3       1 LYS         0.0406
     51 CG          2.7900   26.6600  146.9580 C.2       1 LYS         0.0393
     52 OD1         2.8510   26.9440  148.1690 O.co2     1 LYS        -0.5688
     53 OD2         2.3450   25.5690  146.5490 O.co2     1 LYS        -0.5688
     54 N           2.3850   30.6870  144.1550 N.am      1 LYS        -0.2615
     55 CA          2.9960   31.6990  143.2910 C.3       1 LYS         0.1474
     56 C           3.5920   32.8160  144.1390 C.2       1 LYS         0.2045
     57 O           2.9470   33.3170  145.0560 O.2       1 LYS        -0.3943
     58 CB          1.9670   32.3170  142.3350 C.3       1 LYS         0.0773
     59 CG          1.1840   31.2990  141.5480 C.2       1 LYS         0.1780
     60 OD1         0.5720   30.3880  142.1110 O.2       1 LYS        -0.3970
     61 ND2         1.1400   31.4880  140.2250 N.am      1 LYS        -0.3007
     62 N           4.7970   33.2410  143.7850 N.am      1 LYS        -0.2735
     63 CA          5.4570   34.3300  144.4820 C.3       1 LYS         0.1181
     64 C           6.1290   35.2750  143.4910 C.3       1 LYS         0.1802
     65 O           7.0490   34.8890  142.7790 O.3       1 LYS        -0.2631
     66 CB          6.4720   33.8000  145.4880 C.3       1 LYS        -0.0050
     67 CG          6.6130   34.6650  146.7280 C.3       1 LYS         0.0396
     68 CD          5.2810   35.1760  147.2410 C.2       1 LYS         0.1760
     69 OE2         4.8480   34.7110  148.3130 O.2       1 LYS        -0.3971
     70 O10         2.5490   36.0750  143.3050 O.2       1 LYS        -0.3960
     71 N01         5.8180   36.1160  142.7320 N.4       1 LYS         0.4408
     72 C02         6.1480   37.1260  141.6880 C.3       1 LYS         0.1128
     73 C03         7.4940   37.8280  142.1110 C.2       1 LYS         0.2242
     74 O04         7.7930   37.9160  143.2930 O.2       1 LYS        -0.3910
     75 N05         8.2570   38.3020  141.1430 N.am      1 LYS        -0.2962
     76 C06         4.9660   38.1390  141.5950 C.3       1 LYS         0.0578
     77 S07         3.4630   37.4040  140.9050 S.3       1 LYS        -0.1310
     78 C08         2.0450   37.9940  141.8640 C.3       1 LYS         0.0837
     79 C09         1.8700   37.0380  143.0700 C.2       1 LYS         0.1882
     80 H1          0.2288   38.4324  144.0264 H         1 LYS         0.1883
     81 H2          0.9864   35.5275  144.4660 H         1 LYS         0.0800
     82 H3          0.5218   35.6699  146.8247 H         1 LYS         0.0312
     83 H4         -0.1321   37.3336  146.6486 H         1 LYS         0.0312
     84 H5          1.9757   38.2796  146.3962 H         1 LYS         0.0268
     85 H6          2.7234   36.7335  145.8698 H         1 LYS         0.0268
     86 H7          2.2515   35.8549  148.2196 H         1 LYS         0.0285
     87 H8          1.8429   37.5448  148.6709 H         1 LYS         0.0285
     88 H9          4.1690   37.0484  149.2421 H         1 LYS         0.0520
     89 H10         4.0929   38.2725  147.9297 H         1 LYS         0.0520
     90 H11         5.0642   36.8900  146.5389 H         1 LYS         0.1850
     91 H12        -0.6969   34.0985  145.3254 H         1 LYS         0.1885
     92 H13        -3.4777   35.0017  144.8169 H         1 LYS         0.0823
     93 H14        -3.9743   33.0810  143.4109 H         1 LYS         0.0474
     94 H15        -2.2907   32.4768  143.5760 H         1 LYS         0.0474
     95 H16        -4.4787   34.9468  141.9587 H         1 LYS         0.0557
     96 H17        -0.4748   33.5180  142.3501 H         1 LYS         0.0557
     97 H18        -3.8308   36.2115  139.9515 H         1 LYS         0.0599
     98 H19         0.1807   34.7893  140.3481 H         1 LYS         0.0599
     99 H20        -1.4987   36.1345  139.1402 H         1 LYS         0.0559
    100 H21        -4.6249   34.4111  146.5379 H         1 LYS         0.1883
    101 H22        -3.6441   32.9333  148.6906 H         1 LYS         0.0801
    102 H23        -6.4392   32.6100  148.7922 H         1 LYS         0.0330
    103 H24        -6.1694   34.1488  147.9057 H         1 LYS         0.0330
    104 H25        -6.4118   34.5743  150.2828 H         1 LYS         0.0433
    105 H26        -4.7361   34.9437  149.7515 H         1 LYS         0.0433
    106 H27        -3.4822   30.8853  149.2625 H         1 LYS         0.1881
    107 H28        -5.1585   28.8672  147.9769 H         1 LYS         0.0763
    108 H29        -3.9919   28.6147  149.3193 H         1 LYS         0.0763
    109 H30        -2.3576   30.2692  146.8976 H         1 LYS         0.1885
    110 H31        -1.3232   27.6801  145.8367 H         1 LYS         0.0821
    111 H32        -0.8953   28.7871  143.6751 H         1 LYS         0.0453
    112 H33        -1.6631   30.2902  144.2898 H         1 LYS         0.0453
    113 H34        -2.2801   26.7681  143.2891 H         1 LYS         0.0530
    114 H35        -4.0643   30.4610  144.4705 H         1 LYS         0.0530
    115 H36        -4.4811   25.9208  142.5924 H         1 LYS         0.0525
    116 H37        -6.2724   29.6210  143.7556 H         1 LYS         0.0525
    117 H38        -6.6436   26.3733  142.4041 H         1 LYS         0.2458
    118 H39         0.9060   28.0373  144.8495 H         1 LYS         0.1884
    119 H40         2.4519   29.3824  146.9752 H         1 LYS         0.0819
    120 H41         4.3364   27.9461  146.1969 H         1 LYS         0.0478
    121 H42         3.2548   27.2500  144.9430 H         1 LYS         0.0478
    122 H43         1.4098   30.4820  144.0710 H         1 LYS         0.1885
    123 H44         3.7938   31.2241  142.7011 H         1 LYS         0.0826
    124 H45         2.4988   32.9693  141.6267 H         1 LYS         0.0551
    125 H46         1.2600   32.9173  142.9265 H         1 LYS         0.0551
    126 H47         0.6365   30.8477  139.6449 H         1 LYS         0.1814
    127 H48         1.6106   32.2697  139.8157 H         1 LYS         0.1814
    128 H49         5.2632   32.8000  143.0181 H         1 LYS         0.1858
    129 H50         4.6922   34.8968  145.0332 H         1 LYS         0.0642
    130 H51         6.6292   35.8851  144.2575 H         1 LYS         0.1267
    131 H52         7.4526   33.7404  144.9931 H         1 LYS         0.0315
    132 H53         6.1574   32.7935  145.8010 H         1 LYS         0.0315
    133 H54         7.2504   35.5278  146.4843 H         1 LYS         0.0503
    134 H55         7.0897   34.0690  147.5202 H         1 LYS         0.0503
    135 H56         4.8550   35.9373  142.4938 H         1 LYS         0.2452
    136 H57         6.2825   36.6340  140.7134 H         1 LYS         0.1120
    137 H58         9.1205   38.7555  141.3636 H         1 LYS         0.1816
    138 H59         7.9713   38.2074  140.1894 H         1 LYS         0.1816
    139 H60         5.2726   38.9786  140.9538 H         1 LYS         0.0460
    140 H61         4.7426   38.5118  142.6055 H         1 LYS         0.0460
    141 H62         1.1387   37.9823  141.2407 H         1 LYS         0.0616
    142 H63         2.2320   39.0178  142.2201 H         1 LYS         0.0616
@<TRIPOS>BOND
     1    1    2 1  
     2    1   79 am 
     3    2    3 1  
     4    2    5 1  
     5    3    4 2  
     6    3   10 am 
     7    5    6 1  
     8    6    7 1  
     9    7    8 1  
    10    8    9 1  
    11    9   68 am 
    12   10   11 1  
    13   11   12 1  
    14   11   14 1  
    15   12   13 2  
    16   12   21 am 
    17   14   15 1  
    18   15   16 ar 
    19   15   17 ar 
    20   16   18 ar 
    21   17   19 ar 
    22   18   20 ar 
    23   19   20 ar 
    24   21   22 1  
    25   22   23 1  
    26   22   25 1  
    27   23   24 2  
    28   23   30 am 
    29   25   26 1  
    30   26   27 1  
    31   27   28 ar 
    32   27   29 ar 
    33   30   31 1  
    34   31   32 1  
    35   32   33 2  
    36   32   34 am 
    37   34   35 1  
    38   35   36 1  
    39   35   38 1  
    40   36   37 2  
    41   36   46 am 
    42   38   39 1  
    43   39   40 ar 
    44   39   41 ar 
    45   40   42 ar 
    46   41   43 ar 
    47   42   44 ar 
    48   43   44 ar 
    49   44   45 1  
    50   46   47 1  
    51   47   48 1  
    52   47   50 1  
    53   48   49 2  
    54   48   54 am 
    55   50   51 1  
    56   51   52 ar 
    57   51   53 ar 
    58   54   55 1  
    59   55   56 1  
    60   55   58 1  
    61   56   57 2  
    62   56   62 am 
    63   58   59 1  
    64   59   60 2  
    65   59   61 am 
    66   62   63 1  
    67   63   64 1  
    68   63   66 1  
    69   64   65 1  
    70   64   71 1  
    71   65   71 1  
    72   66   67 1  
    73   67   68 1  
    74   68   69 2  
    75   79   70 2  
    76   71   72 1  
    77   72   73 1  
    78   72   76 1  
    79   73   74 2  
    80   73   75 am 
    81   76   77 1  
    82   77   78 1  
    83   78   79 1  
    84    1   80 1  
    85    2   81 1  
    86    5   82 1  
    87    5   83 1  
    88    6   84 1  
    89    6   85 1  
    90    7   86 1  
    91    7   87 1  
    92    8   88 1  
    93    8   89 1  
    94    9   90 1  
    95   10   91 1  
    96   11   92 1  
    97   14   93 1  
    98   14   94 1  
    99   16   95 1  
   100   17   96 1  
   101   18   97 1  
   102   19   98 1  
   103   20   99 1  
   104   21  100 1  
   105   22  101 1  
   106   25  102 1  
   107   25  103 1  
   108   26  104 1  
   109   26  105 1  
   110   30  106 1  
   111   31  107 1  
   112   31  108 1  
   113   34  109 1  
   114   35  110 1  
   115   38  111 1  
   116   38  112 1  
   117   40  113 1  
   118   41  114 1  
   119   42  115 1  
   120   43  116 1  
   121   45  117 1  
   122   46  118 1  
   123   47  119 1  
   124   50  120 1  
   125   50  121 1  
   126   54  122 1  
   127   55  123 1  
   128   58  124 1  
   129   58  125 1  
   130   61  126 1  
   131   61  127 1  
   132   62  128 1  
   133   63  129 1  
   134   64  130 1  
   135   66  131 1  
   136   66  132 1  
   137   67  133 1  
   138   67  134 1  
   139   71  135 1  
   140   72  136 1  
   141   75  137 1  
   142   75  138 1  
   143   76  139 1  
   144   76  140 1  
   145   78  141 1  
   146   78  142 1  
@<TRIPOS>SUBSTRUCTURE
     1 LYS         1

