1gwm_ligand
  -I-interpret- 

129134  0  0  0  0  0  0  0  0999 V2000
   25.5600    8.2280   32.3120 C   0  0  0  0  0
   26.6230    9.3010   32.4840 C   0  0  0  0  0
   27.0380    9.8300   31.1160 C   0  0  0  0  0
   27.4220    8.6830   30.2190 C   0  0  0  0  0
   26.2730    7.7340   30.0740 C   0  0  0  0  0
   26.5920    6.6530   29.0400 C   0  0  0  0  0
   24.3810    8.7960   31.8180 O   0  0  0  0  0
   26.1600   10.3900   33.2630 O   0  0  0  0  0
   28.1260   10.7160   31.2430 O   0  0  0  0  0
   27.5820    9.2020   28.9190 O   0  0  0  0  0
   26.0790    7.2640   31.3880 O   0  0  0  0  0
   27.6620    5.9810   29.6430 O   0  0  0  0  0
   28.8520    8.3410   26.7660 C   0  0  0  0  0
   30.2720    8.6080   26.1850 C   0  0  0  0  0
   30.9030    9.9510   26.6530 C   0  0  0  0  0
   30.8230   10.0220   28.1910 C   0  0  0  0  0
   31.4820   11.2670   28.7540 C   0  0  0  0  0
   28.7930    8.7350   28.2850 C   0  0  0  0  0
   28.4730    6.9810   26.4700 O   0  0  0  0  0
   30.1980    8.4700   24.7750 O   0  0  0  0  0
   32.3120   10.1200   26.3310 O   0  0  0  0  0
   29.4900    9.9080   28.6670 O   0  0  0  0  0
   30.8340   12.4240   28.2820 O   0  0  0  0  0
   34.2070   11.2960   25.5310 C   0  0  0  0  0
   34.7790   12.1240   24.3900 C   0  0  0  0  0
   34.3730   11.5690   23.0180 C   0  0  0  0  0
   32.8650   11.3790   22.9880 C   0  0  0  0  0
   32.3490   10.7630   21.6870 C   0  0  0  0  0
   32.7230   11.0820   25.3300 C   0  0  0  0  0
   34.4700   11.9180   26.7840 O   0  0  0  0  0
   36.1750   12.1850   24.5460 O   0  0  0  0  0
   34.7150   12.4820   21.9890 O   0  0  0  0  0
   32.5120   10.5260   24.0560 O   0  0  0  0  0
   33.0490    9.5980   21.3190 O   0  0  0  0  0
   35.8640   12.9020   19.9160 C   0  0  0  0  0
   37.1290   12.4950   19.1540 C   0  0  0  0  0
   38.3790   12.6990   20.0110 C   0  0  0  0  0
   38.1890   11.9760   21.3400 C   0  0  0  0  0
   39.3480   12.1370   22.3080 C   0  0  0  0  0
   35.8480   12.1310   21.2200 C   0  0  0  0  0
   34.6970   12.6820   19.1500 O   0  0  0  0  0
   37.2880   13.2690   17.9950 O   0  0  0  0  0
   39.5000   12.1270   19.3370 O   0  0  0  0  0
   37.0090   12.4350   21.9630 O   0  0  0  0  0
   39.5750   13.5070   22.5550 O   0  0  0  0  0
   41.8160   11.9900   18.9560 C   0  0  0  0  0
   43.0800   12.7870   18.7010 C   0  0  0  0  0
   42.8260   13.8790   17.6680 C   0  0  0  0  0
   41.6380   14.7320   18.0810 C   0  0  0  0  0
   41.2550   15.7620   17.0230 C   0  0  0  0  0
   40.6780   12.9220   19.2840 C   0  0  0  0  0
   42.0560   11.0800   20.0010 O   0  0  0  0  0
   44.0780   11.8600   18.2680 O   0  0  0  0  0
   43.9530   14.7590   17.5840 O   0  0  0  0  0
   40.5040   13.8830   18.2580 O   0  0  0  0  0
   40.3330   16.6920   17.5320 O   0  0  0  0  0
   45.6340   15.7960   16.2250 C   0  0  0  0  0
   46.6750   15.5710   15.1310 C   0  0  0  0  0
   47.4500   14.2800   15.3600 C   0  0  0  0  0
   46.4840   13.1300   15.6340 C   0  0  0  0  0
   47.2220   11.8350   15.9170 C   0  0  0  0  0
   44.7830   14.5510   16.4430 C   0  0  0  0  0
   44.7970   16.8950   15.9120 O   0  0  0  0  0
   47.5840   16.6700   15.0920 O   0  0  0  0  0
   48.2700   14.0090   14.2270 O   0  0  0  0  0
   45.6310   13.4610   16.7210 O   0  0  0  0  0
   47.7640   11.8710   17.2050 O   0  0  0  0  0
   25.3244    7.7551   33.2654 H   0  0  0  0  0
   27.4667    8.8423   32.9997 H   0  0  0  0  0
   26.1954   10.3655   30.6786 H   0  0  0  0  0
   28.3074    8.1996   30.6319 H   0  0  0  0  0
   25.3560    8.1787   29.6874 H   0  0  0  0  0
   26.8336    7.0545   28.0559 H   0  0  0  0  0
   25.7447    6.0043   28.8178 H   0  0  0  0  0
   24.0478    9.4384   32.4488 H   0  0  0  0  0
   25.8944   10.0724   34.1291 H   0  0  0  0  0
   27.8778   11.4458   31.8153 H   0  0  0  0  0
   27.9520    5.2659   29.0719 H   0  0  0  0  0
   28.1050    8.9768   26.2908 H   0  0  0  0  0
   30.9667    7.8685   26.5831 H   0  0  0  0  0
   30.3401   10.7234   26.1290 H   0  0  0  0  0
   31.3844    9.1604   28.5524 H   0  0  0  0  0
   32.5244   11.2904   28.4364 H   0  0  0  0  0
   31.4149   11.2422   29.8416 H   0  0  0  0  0
   29.1343    7.7401   28.5710 H   0  0  0  0  0
   27.5979    6.8093   26.8255 H   0  0  0  0  0
   31.0640    8.6304   24.3930 H   0  0  0  0  0
   31.2630   13.2012   28.6473 H   0  0  0  0  0
   34.6948   10.3212   25.5340 H   0  0  0  0  0
   34.3670   13.1324   24.4287 H   0  0  0  0  0
   34.8941   10.6249   22.8590 H   0  0  0  0  0
   32.4120   12.3669   23.0715 H   0  0  0  0  0
   32.4839   11.4979   20.8934 H   0  0  0  0  0
   31.3044   10.4908   21.8381 H   0  0  0  0  0
   32.1668   12.0157   25.4133 H   0  0  0  0  0
   34.1020   11.3814   27.4899 H   0  0  0  0  0
   36.5531   12.7049   23.8330 H   0  0  0  0  0
   32.6866    9.2537   20.4994 H   0  0  0  0  0
   35.8761   13.9724   20.1216 H   0  0  0  0  0
   37.0128   11.4420   18.8975 H   0  0  0  0  0
   38.5444   13.7629   20.1808 H   0  0  0  0  0
   38.1286   10.9151   21.0971 H   0  0  0  0  0
   40.2449   11.6948   21.8742 H   0  0  0  0  0
   39.1076   11.6360   23.2457 H   0  0  0  0  0
   35.8134   11.0660   20.9904 H   0  0  0  0  0
   33.9272   12.9477   19.6583 H   0  0  0  0  0
   38.0856   12.9957   17.5360 H   0  0  0  0  0
   40.3082   13.6034   23.1671 H   0  0  0  0  0
   41.5352   11.4303   18.0638 H   0  0  0  0  0
   43.4160   13.2963   19.6042 H   0  0  0  0  0
   42.6419   13.3866   16.7132 H   0  0  0  0  0
   41.9242   15.2538   18.9942 H   0  0  0  0  0
   40.7976   15.2429   16.1807 H   0  0  0  0  0
   42.1540   16.2956   16.7144 H   0  0  0  0  0
   40.8812   13.4392   20.2217 H   0  0  0  0  0
   41.2599   10.5706   20.1693 H   0  0  0  0  0
   44.8970   12.3304   18.0959 H   0  0  0  0  0
   40.1096   17.3269   16.8475 H   0  0  0  0  0
   46.1757   16.0144   17.1453 H   0  0  0  0  0
   46.1490   15.4916   14.1796 H   0  0  0  0  0
   48.0944   14.3891   16.2323 H   0  0  0  0  0
   45.8822   12.9761   14.7383 H   0  0  0  0  0
   48.0257   11.7120   15.1910 H   0  0  0  0  0
   46.5259   10.9996   15.8420 H   0  0  0  0  0
   44.1819   14.3544   15.5553 H   0  0  0  0  0
   44.1529   17.0152   16.6136 H   0  0  0  0  0
   48.2349   16.5211   14.4022 H   0  0  0  0  0
   48.7574   13.1950   14.3735 H   0  0  0  0  0
   48.2294   11.0494   17.3782 H   0  0  0  0  0
  2  1  1  0  0  0
  1  7  1  0  0  0
 11  1  1  0  0  0
  3  2  1  0  0  0
  2  8  1  0  0  0
  4  3  1  0  0  0
  3  9  1  0  0  0
  4  5  1  0  0  0
 10  4  1  0  0  0
  5  6  1  0  0  0
  5 11  1  0  0  0
  6 12  1  0  0  0
 18 10  1  0  0  0
 14 13  1  0  0  0
 13 18  1  0  0  0
 13 19  1  0  0  0
 15 14  1  0  0  0
 14 20  1  0  0  0
 15 16  1  0  0  0
 21 15  1  0  0  0
 16 17  1  0  0  0
 16 22  1  0  0  0
 17 23  1  0  0  0
 22 18  1  0  0  0
 29 21  1  0  0  0
 25 24  1  0  0  0
 24 29  1  0  0  0
 24 30  1  0  0  0
 26 25  1  0  0  0
 25 31  1  0  0  0
 26 27  1  0  0  0
 32 26  1  0  0  0
 27 28  1  0  0  0
 27 33  1  0  0  0
 28 34  1  0  0  0
 33 29  1  0  0  0
 40 32  1  0  0  0
 36 35  1  0  0  0
 35 40  1  0  0  0
 35 41  1  0  0  0
 37 36  1  0  0  0
 36 42  1  0  0  0
 37 38  1  0  0  0
 43 37  1  0  0  0
 38 39  1  0  0  0
 38 44  1  0  0  0
 39 45  1  0  0  0
 44 40  1  0  0  0
 51 43  1  0  0  0
 47 46  1  0  0  0
 46 51  1  0  0  0
 46 52  1  0  0  0
 48 47  1  0  0  0
 47 53  1  0  0  0
 48 49  1  0  0  0
 54 48  1  0  0  0
 49 50  1  0  0  0
 49 55  1  0  0  0
 50 56  1  0  0  0
 55 51  1  0  0  0
 62 54  1  0  0  0
 57 58  1  0  0  0
 57 62  1  0  0  0
 57 63  1  0  0  0
 58 59  1  0  0  0
 58 64  1  0  0  0
 59 60  1  0  0  0
 59 65  1  0  0  0
 60 61  1  0  0  0
 60 66  1  0  0  0
 61 67  1  0  0  0
 62 66  1  0  0  0
  1 68  1  0  0  0
  2 69  1  0  0  0
  3 70  1  0  0  0
  4 71  1  0  0  0
  5 72  1  0  0  0
  6 73  1  0  0  0
  6 74  1  0  0  0
  7 75  1  0  0  0
  8 76  1  0  0  0
  9 77  1  0  0  0
 12 78  1  0  0  0
 13 79  1  0  0  0
 14 80  1  0  0  0
 15 81  1  0  0  0
 16 82  1  0  0  0
 17 83  1  0  0  0
 17 84  1  0  0  0
 18 85  1  0  0  0
 19 86  1  0  0  0
 20 87  1  0  0  0
 23 88  1  0  0  0
 24 89  1  0  0  0
 25 90  1  0  0  0
 26 91  1  0  0  0
 27 92  1  0  0  0
 28 93  1  0  0  0
 28 94  1  0  0  0
 29 95  1  0  0  0
 30 96  1  0  0  0
 31 97  1  0  0  0
 34 98  1  0  0  0
 35 99  1  0  0  0
 36100  1  0  0  0
 37101  1  0  0  0
 38102  1  0  0  0
 39103  1  0  0  0
 39104  1  0  0  0
 40105  1  0  0  0
 41106  1  0  0  0
 42107  1  0  0  0
 45108  1  0  0  0
 46109  1  0  0  0
 47110  1  0  0  0
 48111  1  0  0  0
 49112  1  0  0  0
 50113  1  0  0  0
 50114  1  0  0  0
 51115  1  0  0  0
 52116  1  0  0  0
 53117  1  0  0  0
 56118  1  0  0  0
 57119  1  0  0  0
 58120  1  0  0  0
 59121  1  0  0  0
 60122  1  0  0  0
 61123  1  0  0  0
 61124  1  0  0  0
 62125  1  0  0  0
 63126  1  0  0  0
 64127  1  0  0  0
 65128  1  0  0  0
 67129  1  0  0  0
M  END
$$$$
