6moa_ligand
  -I-interpret- 

 51 56  0  0  0  0  0  0  0  0999 V2000
    8.5540   61.6360   -5.0160 C   0  0  0  0  0
    9.0750   60.6650   -4.1450 C   0  0  0  0  0
    8.2690   59.5830   -3.7770 C   0  0  0  0  0
    6.9790   59.4850   -4.2750 C   0  0  0  0  0
    6.4310   60.4340   -5.1400 C   0  0  0  0  0
    7.2470   61.5160   -5.4960 C   0  0  0  0  0
    5.0660   60.3020   -5.6350 C   0  0  0  0  0
    9.3460   62.7860   -5.4110 C   0  0  0  0  0
    9.9660   63.7920   -4.6270 C   0  0  0  0  0
   10.5830   64.7000   -5.3900 N   0  0  0  0  0
   10.3800   64.2810   -6.6950 O   0  0  0  0  0
    9.6310   63.1460   -6.7110 C   0  0  0  0  0
    9.3190   62.5680   -8.0360 C   0  0  0  0  0
    9.9920   63.9390   -3.1570 C   0  0  0  0  0
    8.5580   58.5220   -2.9640 N   0  0  0  0  0
    7.4660   57.7940   -2.9650 C   0  0  0  0  0
    6.4730   58.3250   -3.7340 N   0  0  0  0  0
    7.3280   56.5210   -2.1800 C   0  0  0  0  0
    7.9510   56.4600   -0.8100 C   0  0  0  0  0
    8.5460   55.6710   -1.9360 C   0  0  0  0  0
    4.0100   60.8580   -4.8610 C   0  0  0  0  0
    2.6800   60.7500   -5.3120 C   0  0  0  0  0
    2.4370   60.0920   -6.5100 C   0  0  0  0  0
    3.4650   59.5450   -7.2750 C   0  0  0  0  0
    4.7930   59.6370   -6.8540 C   0  0  0  0  0
    4.2090   61.5380   -3.6330 C   0  0  0  0  0
    3.1360   62.0650   -2.9280 C   0  0  0  0  0
    1.8780   61.9000   -3.4630 C   0  0  0  0  0
    1.6400   61.2600   -4.6290 N   0  0  0  0  0
    5.8790   59.0280   -7.7060 C   0  0  0  0  0
   10.0916   60.7534   -3.7619 H   0  0  0  0  0
    6.8529   62.2825   -6.1633 H   0  0  0  0  0
    9.7382   61.5639   -8.1008 H   0  0  0  0  0
    8.2377   62.5207   -8.1648 H   0  0  0  0  0
    9.7520   63.1949   -8.8155 H   0  0  0  0  0
    8.9720   64.0343   -2.7846 H   0  0  0  0  0
   10.4616   63.0609   -2.7136 H   0  0  0  0  0
   10.5615   64.8299   -2.8922 H   0  0  0  0  0
    6.3364   56.3382   -2.5941 H   0  0  0  0  0
    7.6391   56.3017    0.2224 H   0  0  0  0  0
    8.2808   57.1482   -0.0317 H   0  0  0  0  0
    9.5246   55.4999   -2.3845 H   0  0  0  0  0
    8.8823   54.6525   -2.1301 H   0  0  0  0  0
    1.4099   60.0004   -6.8632 H   0  0  0  0  0
    3.2300   59.0400   -8.2119 H   0  0  0  0  0
    5.2186   61.6484   -3.2372 H   0  0  0  0  0
    3.2838   62.5907   -1.9846 H   0  0  0  0  0
    1.0279   62.3079   -2.9162 H   0  0  0  0  0
    6.5798   59.8056   -8.0097 H   0  0  0  0  0
    6.4060   58.2665   -7.1311 H   0  0  0  0  0
    5.4330   58.5734   -8.5906 H   0  0  0  0  0
  1  2  4  0  0  0
  1  6  4  0  0  0
  1  8  1  0  0  0
  2  3  4  0  0  0
  3  4  4  0  0  0
  3 15  4  0  0  0
  4  5  4  0  0  0
  4 17  4  0  0  0
  5  6  4  0  0  0
  5  7  1  0  0  0
  7 21  4  0  0  0
  7 25  4  0  0  0
  8  9  4  0  0  0
  8 12  4  0  0  0
  9 10  4  0  0  0
  9 14  1  0  0  0
 10 11  4  0  0  0
 11 12  4  0  0  0
 12 13  1  0  0  0
 15 16  4  0  0  0
 16 17  4  0  0  0
 16 18  1  0  0  0
 18 19  1  0  0  0
 18 20  1  0  0  0
 19 20  1  0  0  0
 21 22  4  0  0  0
 21 26  4  0  0  0
 22 23  4  0  0  0
 22 29  4  0  0  0
 23 24  4  0  0  0
 24 25  4  0  0  0
 25 30  1  0  0  0
 26 27  4  0  0  0
 27 28  4  0  0  0
 28 29  4  0  0  0
  2 31  1  0  0  0
  6 32  1  0  0  0
 13 33  1  0  0  0
 13 34  1  0  0  0
 13 35  1  0  0  0
 14 36  1  0  0  0
 14 37  1  0  0  0
 14 38  1  0  0  0
 18 39  1  0  0  0
 19 40  1  0  0  0
 19 41  1  0  0  0
 20 42  1  0  0  0
 20 43  1  0  0  0
 23 44  1  0  0  0
 24 45  1  0  0  0
 26 46  1  0  0  0
 27 47  1  0  0  0
 28 48  1  0  0  0
 30 49  1  0  0  0
 30 50  1  0  0  0
 30 51  1  0  0  0
M  END
$$$$
