2wxi_ligand
  -I-interpret- 

 55 59  0  0  0  0  0  0  0  0999 V2000
   -3.0690   -0.3840   23.6990 C   0  0  0  0  0
   -3.9430   -1.5950   23.7250 C   0  0  0  0  0
   -3.5360   -2.6450   24.5200 C   0  0  0  0  0
   -4.3770   -3.7620   24.5220 C   0  0  0  0  0
   -5.5650   -3.8720   23.7640 C   0  0  0  0  0
   -5.9380   -2.8180   22.9420 C   0  0  0  0  0
   -5.1240   -1.6700   22.9590 C   0  0  0  0  0
   -5.5670   -0.6420   22.1230 N   0  0  0  0  0
   -4.9880   -0.5260   20.8570 C   0  0  0  0  0
   -4.0720   -1.3320   20.6260 O   0  0  0  0  0
   -5.4390    0.4730   19.9790 C   0  0  0  0  0
   -4.8920    0.7000   18.6800 C   0  0  0  0  0
   -3.7230   -0.1380   18.0630 C   0  0  0  0  0
   -5.4080    1.7400   17.8700 C   0  0  0  0  0
   -6.4600    2.5350   18.3350 C   0  0  0  0  0
   -6.9750    2.3240   19.6140 C   0  0  0  0  0
   -6.4750    1.3000   20.4400 C   0  0  0  0  0
   -7.0410    1.1460   21.6650 N   0  0  0  0  0
   -6.6160    0.1860   22.5200 C   0  0  0  0  0
   -7.2160   -0.0090   23.9270 C   0  0  0  0  0
   -7.5330    1.3440   24.4570 N   0  0  0  0  0
   -8.6920    1.7350   24.3600 N   0  0  0  0  0
   -6.7400    2.2710   25.0190 C   0  0  0  0  0
   -5.4500    2.3510   25.3370 N   0  0  0  0  0
   -4.8830    3.4070   25.9270 C   0  0  0  0  0
   -5.6070    4.4760   26.2180 N   0  0  0  0  0
   -6.9230    4.4800   25.9180 C   0  0  0  0  0
   -7.5910    5.5730   26.2480 N   0  0  0  0  0
   -7.5280    3.3560   25.3060 C   0  0  0  0  0
   -8.7900    2.9470   24.8490 C   0  0  0  0  0
  -10.0230    3.6400   24.8510 C   0  0  0  0  0
  -11.0590    4.1600   24.8430 C   0  0  0  0  0
  -12.3610    4.8130   24.8400 C   0  0  0  0  0
  -13.4010    3.8280   25.0160 O   0  0  0  0  0
   -2.9873    0.0252   24.7060 H   0  0  0  0  0
   -2.0789   -0.6598   23.3361 H   0  0  0  0  0
   -3.5052    0.3632   23.0360 H   0  0  0  0  0
   -2.6191   -2.6070   25.1082 H   0  0  0  0  0
   -4.0971   -4.6065   25.1517 H   0  0  0  0  0
   -6.1787   -4.7708   23.8242 H   0  0  0  0  0
   -6.8240   -2.8767   22.3098 H   0  0  0  0  0
   -2.8401   -0.0485   18.6959 H   0  0  0  0  0
   -4.0217   -1.1844   17.9998 H   0  0  0  0  0
   -3.4959    0.2373   17.0651 H   0  0  0  0  0
   -4.9845    1.9213   16.8821 H   0  0  0  0  0
   -6.8763    3.3171   17.7001 H   0  0  0  0  0
   -7.7785    2.9631   19.9801 H   0  0  0  0  0
   -6.5097   -0.5225   24.5793 H   0  0  0  0  0
   -8.1141   -0.6249   23.8809 H   0  0  0  0  0
   -3.8205    3.3881   26.1695 H   0  0  0  0  0
   -7.1080    6.3485   26.7016 H   0  0  0  0  0
   -8.5891    5.6403   26.0489 H   0  0  0  0  0
  -12.5059    5.3246   23.8885 H   0  0  0  0  0
  -12.4050    5.5340   25.6563 H   0  0  0  0  0
  -14.2565    4.2636   25.0133 H   0  0  0  0  0
  1  2  1  0  0  0
  2  3  4  0  0  0
  2  7  4  0  0  0
  3  4  4  0  0  0
  4  5  4  0  0  0
  5  6  4  0  0  0
  6  7  4  0  0  0
  7  8  1  0  0  0
  8  9  1  0  0  0
  8 19  1  0  0  0
  9 10  2  0  0  0
  9 11  1  0  0  0
 11 12  4  0  0  0
 11 17  4  0  0  0
 12 13  1  0  0  0
 12 14  4  0  0  0
 14 15  4  0  0  0
 15 16  4  0  0  0
 16 17  4  0  0  0
 17 18  1  0  0  0
 18 19  2  0  0  0
 19 20  1  0  0  0
 20 21  1  0  0  0
 21 22  4  0  0  0
 21 23  4  0  0  0
 22 30  4  0  0  0
 23 24  4  0  0  0
 23 29  4  0  0  0
 24 25  4  0  0  0
 25 26  4  0  0  0
 26 27  4  0  0  0
 27 28  1  0  0  0
 27 29  4  0  0  0
 29 30  4  0  0  0
 30 31  1  0  0  0
 31 32  3  0  0  0
 32 33  1  0  0  0
 33 34  1  0  0  0
  1 35  1  0  0  0
  1 36  1  0  0  0
  1 37  1  0  0  0
  3 38  1  0  0  0
  4 39  1  0  0  0
  5 40  1  0  0  0
  6 41  1  0  0  0
 13 42  1  0  0  0
 13 43  1  0  0  0
 13 44  1  0  0  0
 14 45  1  0  0  0
 15 46  1  0  0  0
 16 47  1  0  0  0
 20 48  1  0  0  0
 20 49  1  0  0  0
 25 50  1  0  0  0
 28 51  1  0  0  0
 28 52  1  0  0  0
 33 53  1  0  0  0
 33 54  1  0  0  0
 34 55  1  0  0  0
M  END
$$$$
