### 
### Created by X-TOOL on Wed Jan  1 15:39:37 2020
### 

@<TRIPOS>MOLECULE
5ygd_ligand
  195   195     1     0     0
SMALL
GAST_HUCK


@<TRIPOS>ATOM
      1 N           6.3550   -6.4490    9.0590 N.4       1 ASP         0.2391
      2 CA          5.1440   -6.5200    9.8610 C.3       1 ASP         0.0764
      3 C           4.6720   -7.9620    9.9450 C.2       1 ASP         0.2284
      4 O           3.5870   -8.3020    9.4700 O.2       1 ASP        -0.3906
      5 CB          4.0540   -5.6280    9.2720 C.3       1 ASP         0.0607
      6 CG          4.6100   -4.3500    8.6570 C.2       1 ASP         0.0425
      7 OD1         5.5540   -3.7530    9.2290 O.co2     1 ASP        -0.5686
      8 OD2         4.0880   -3.9480    7.5920 O.co2     1 ASP        -0.5686
      9 N           5.5030   -8.7850   10.5790 N.am      1 GLN        -0.2608
     10 CA          5.3100  -10.2330   10.6820 C.3       1 GLN         0.1331
     11 C           5.2430  -10.8830    9.2950 C.2       1 GLN         0.2038
     12 O           4.4770  -11.8220    9.0640 O.2       1 GLN        -0.3944
     13 CB          4.0580  -10.5510   11.5130 C.3       1 GLN         0.0045
     14 CG          4.1400   -9.9450   12.9050 C.3       1 GLN         0.0412
     15 CD          2.9990  -10.3470   13.8110 C.2       1 GLN         0.1737
     16 OE1         1.8950  -10.6490   13.3530 O.2       1 GLN        -0.3973
     17 NE2         3.2620  -10.3500   15.1120 N.am      1 GLN        -0.3009
     18 N           6.0630  -10.3800    8.3770 N.am      1 GLY        -0.2664
     19 CA          6.1010  -10.8990    7.0250 C.3       1 GLY         0.1201
     20 C           7.4030  -11.5890    6.6530 C.2       1 GLY         0.2007
     21 O           7.5030  -12.1900    5.5820 O.2       1 GLY        -0.3947
     22 N           8.4110  -11.5060    7.5170 N.am      1 ARG        -0.2640
     23 CA          9.7010  -12.1380    7.2220 C.3       1 ARG         0.1311
     24 C           9.8190  -13.4790    7.9200 C.2       1 ARG         0.2037
     25 O           9.7410  -13.5700    9.1490 O.2       1 ARG        -0.3944
     26 CB         10.8770  -11.2500    7.6460 C.3       1 ARG        -0.0092
     27 CG         11.0130   -9.9770    6.8580 C.3       1 ARG        -0.0156
     28 CD         12.1530   -9.1050    7.3880 C.3       1 ARG         0.0627
     29 NE         13.4890   -9.5810    7.0450 N.pl3     1 ARG        -0.2723
     30 CZ         14.0270   -9.4700    5.8330 C.cat     1 ARG         0.2882
     31 NH1        13.3230   -8.9440    4.8440 N.pl3     1 ARG        -0.2849
     32 NH2        15.2520   -9.9110    5.6070 N.pl3     1 ARG        -0.2849
     33 N          10.0390  -14.5230    7.1390 N.am      1 GLY        -0.2664
     34 CA         10.2140  -15.8420    7.7160 C.3       1 GLY         0.1201
     35 C          11.4960  -15.9810    8.5000 C.2       1 GLY         0.2007
     36 O          12.4950  -15.3630    8.1880 O.2       1 GLY        -0.3947
     37 N          11.4730  -16.8210    9.5210 N.am      1 ARG        -0.2640
     38 CA         12.6910  -17.0860   10.2720 C.3       1 ARG         0.1311
     39 C          12.7760  -18.5610   10.6150 C.2       1 ARG         0.2039
     40 O          11.7430  -19.2370   10.7420 O.2       1 ARG        -0.3944
     41 CB         12.7520  -16.2510   11.5430 C.3       1 ARG        -0.0092
     42 CG         11.8840  -16.7000   12.6810 C.3       1 ARG        -0.0156
     43 CD         12.4730  -16.1580   13.9770 C.3       1 ARG         0.0627
     44 NE         11.6790  -16.5250   15.1420 N.pl3     1 ARG        -0.2723
     45 CZ         12.0760  -16.3430   16.3940 C.cat     1 ARG         0.2882
     46 NH1        13.2690  -15.8120   16.6380 N.pl3     1 ARG        -0.2849
     47 NH2        11.2870  -16.7050   17.3990 N.pl3     1 ARG        -0.2849
     48 N          14.0080  -19.0490   10.7170 N.am      1 2MR        -0.2637
     49 CA         14.2560  -20.4030   11.1210 C.3       1 2MR         0.1311
     50 CB         14.2990  -21.3510    9.9300 C.3       1 2MR        -0.0092
     51 CG         15.5150  -21.1190    9.0620 C.3       1 2MR        -0.0156
     52 CD         15.3750  -21.8380    7.7360 C.3       1 2MR         0.0627
     53 NE         16.4230  -21.5030    6.8280 N.pl3     1 2MR        -0.2721
     54 CZ         17.6440  -22.2270    6.7610 C.cat     1 2MR         0.2920
     55 NH1        18.5890  -21.9160    5.9100 N.pl3     1 2MR        -0.2748
     56 CQ1        18.4100  -20.8160    5.0040 C.3       1 2MR         0.0514
     57 NH2        17.8250  -23.3100    7.6600 N.pl3     1 2MR        -0.2748
     58 CQ2        19.0250  -24.0700    7.6450 C.3       1 2MR         0.0514
     59 C          15.5360  -20.4630   11.9500 C.2       1 2MR         0.2039
     60 O          16.5470  -19.7700   11.6450 O.2       1 2MR        -0.3944
     61 N          15.5090  -21.2700   13.0070 N.am      1 ARG        -0.2637
     62 CA         16.6800  -21.4150   13.8770 C.3       1 ARG         0.1313
     63 C          16.9320  -22.8870   14.1870 C.2       1 ARG         0.2064
     64 O          16.4250  -23.4140   15.1740 O.2       1 ARG        -0.3942
     65 CB         16.4990  -20.6270   15.1770 C.3       1 ARG        -0.0092
     66 CG         16.4540  -19.1040   15.0090 C.3       1 ARG        -0.0156
     67 CD         17.7710  -18.5580   14.4640 C.3       1 ARG         0.0627
     68 NE         17.7370  -17.1040   14.3010 N.pl3     1 ARG        -0.2723
     69 CZ         17.4000  -16.4830   13.1730 C.cat     1 ARG         0.2882
     70 NH1        17.0750  -17.1830   12.0950 N.pl3     1 ARG        -0.2849
     71 NH2        17.3980  -15.1560   13.1200 N.pl3     1 ARG        -0.2849
     72 N          17.7120  -23.5530   13.3330 N.am      1 PRO        -0.2498
     73 CA         18.0190  -24.9690   13.5510 C.3       1 PRO         0.1338
     74 C          18.8780  -25.2120   14.7940 C.2       1 PRO         0.2041
     75 O          19.6890  -24.3640   15.1830 O.2       1 PRO        -0.3944
     76 CB         18.7740  -25.3530   12.2810 C.3       1 PRO        -0.0104
     77 CG         19.3930  -24.0740   11.8090 C.3       1 PRO        -0.0281
     78 CD         18.3790  -23.0220   12.1290 C.3       1 PRO         0.0369
     79 N          18.6840  -26.3760   15.4070 N.am      1 LEU        -0.2637
     80 CA         19.4570  -26.7780   16.5740 C.3       1 LEU         0.1312
     81 C          20.8820  -27.1230   16.1520 C.2       1 LEU         0.2035
     82 O          21.0870  -28.0020   15.3150 O.2       1 LEU        -0.3944
     83 CB         18.7930  -27.9670   17.2660 C.3       1 LEU        -0.0101
     84 CG         19.2720  -28.3220   18.6710 C.3       1 LEU        -0.0425
     85 CD1        19.3200  -27.0710   19.5260 C.3       1 LEU        -0.0625
     86 CD2        18.3510  -29.3570   19.2870 C.3       1 LEU        -0.0625
     87 N          21.8470  -26.4150   16.7420 N.am      1 ASN        -0.2674
     88 CA         23.2680  -26.4970   16.3950 C.3       1 ASN         0.1110
     89 C          23.5470  -26.0740   14.9550 C.2       1 ASN         0.0624
     90 O          23.8480  -24.9070   14.6880 O.co2     1 ASN        -0.5665
     91 CB         23.8070  -27.9100   16.6380 C.3       1 ASN         0.0718
     92 CG         25.2920  -28.0210   16.3500 C.2       1 ASN         0.1774
     93 OD1        26.0630  -27.1050   16.6470 O.2       1 ASN        -0.3971
     94 ND2        25.7030  -29.1460   15.7730 N.am      1 ASN        -0.3007
     95 OXT        23.4760  -26.8920   14.0330 O.co2     1 ASN        -0.5665
     96 H1          6.6663   -5.4918    9.0046 H         1 ASP         0.2016
     97 H2          6.1642   -6.7935    8.1311 H         1 ASP         0.2016
     98 H3          7.0739   -7.0124    9.4854 H         1 ASP         0.2016
     99 H4          5.3730   -6.1650   10.8766 H         1 ASP         0.1117
    100 H5          3.3505   -5.3562   10.0728 H         1 ASP         0.0512
    101 H6          3.5214   -6.1914    8.4917 H         1 ASP         0.0512
    102 H7          6.3120   -8.3891   11.0135 H         1 GLN         0.1885
    103 H8          6.1798  -10.6540   11.2076 H         1 GLN         0.0801
    104 H9          3.9583  -11.6426   11.6045 H         1 GLN         0.0337
    105 H10         3.1752  -10.1440   10.9982 H         1 GLN         0.0337
    106 H11         4.1365   -8.8493   12.8075 H         1 GLN         0.0504
    107 H12         5.0830  -10.2688   13.3697 H         1 GLN         0.0504
    108 H13         2.5498  -10.6065   15.7655 H         1 GLN         0.1814
    109 H14         4.1723  -10.0958   15.4387 H         1 GLN         0.1814
    110 H15         6.6688   -9.6244    8.6262 H         1 GLY         0.1881
    111 H16         5.9455  -10.0605    6.3302 H         1 GLY         0.0763
    112 H17         5.2826  -11.6252    6.9123 H         1 GLY         0.0763
    113 H18         8.2880  -11.0081    8.3755 H         1 ARG         0.1883
    114 H19         9.7612  -12.3008    6.1358 H         1 ARG         0.0800
    115 H20        11.8049  -11.8286    7.5267 H         1 ARG         0.0313
    116 H21        10.7434  -10.9856    8.7053 H         1 ARG         0.0313
    117 H22        10.0711   -9.4129    6.9258 H         1 ARG         0.0301
    118 H23        11.2151  -10.2281    5.8063 H         1 ARG         0.0301
    119 H24        12.0737   -9.0649    8.4844 H         1 ARG         0.0689
    120 H25        12.0323   -8.0929    6.9743 H         1 ARG         0.0689
    121 H26        14.0485  -10.0293    7.7845 H         1 ARG         0.2642
    122 H27        13.7383   -8.8575    3.9054 H         1 ARG         0.2615
    123 H28        12.3596   -8.6210    5.0126 H         1 ARG         0.2615
    124 H29        15.8018  -10.3208    6.3755 H         1 ARG         0.2615
    125 H30        15.6571   -9.8449    4.6623 H         1 ARG         0.2615
    126 H31        10.0849  -14.4027    6.1473 H         1 GLY         0.1881
    127 H32        10.2196  -16.5820    6.9022 H         1 GLY         0.0763
    128 H33         9.3683  -16.0442    8.3897 H         1 GLY         0.0763
    129 H34        10.6190  -17.2740    9.7769 H         1 ARG         0.1883
    130 H35        13.5524  -16.8209    9.6413 H         1 ARG         0.0800
    131 H36        12.4568  -15.2239   11.2826 H         1 ARG         0.0313
    132 H37        13.7939  -16.2548   11.8957 H         1 ARG         0.0313
    133 H38        11.8566  -17.7991   12.7164 H         1 ARG         0.0301
    134 H39        10.8637  -16.3120   12.5457 H         1 ARG         0.0301
    135 H40        12.5199  -15.0609   13.9125 H         1 ARG         0.0689
    136 H41        13.4887  -16.5619   14.0999 H         1 ARG         0.0689
    137 H42        10.7547  -16.9510   14.9838 H         1 ARG         0.2642
    138 H43        13.5803  -15.6693   17.6094 H         1 ARG         0.2615
    139 H44        13.8827  -15.5429   15.8558 H         1 ARG         0.2615
    140 H45        10.3627  -17.1164   17.2057 H         1 ARG         0.2615
    141 H46        11.5993  -16.5744   18.3718 H         1 ARG         0.2615
    142 H47        14.7845  -18.4552   10.5060 H         1 2MR         0.1883
    143 H48        13.4228  -20.7215   11.7646 H         1 2MR         0.0800
    144 H49        13.3950  -21.1982    9.3222 H         1 2MR         0.0313
    145 H50        14.3206  -22.3862   10.3012 H         1 2MR         0.0313
    146 H51        16.4074  -21.4952    9.5836 H         1 2MR         0.0301
    147 H52        15.6257  -20.0403    8.8773 H         1 2MR         0.0301
    148 H53        14.4117  -21.5610    7.2828 H         1 2MR         0.0689
    149 H54        15.3966  -22.9227    7.9172 H         1 2MR         0.0689
    150 H55        16.2890  -20.7024    6.1940 H         1 2MR         0.2642
    151 H56        19.4626  -22.4613    5.8902 H         1 2MR         0.2639
    152 H57        19.3049  -20.7114    4.3730 H         1 2MR         0.0652
    153 H58        18.2554  -19.8901    5.5774 H         1 2MR         0.0652
    154 H59        17.5327  -21.0041    4.3677 H         1 2MR         0.0652
    155 H60        17.0792  -23.5472    8.3297 H         1 2MR         0.2639
    156 H61        18.9699  -24.8575    8.4111 H         1 2MR         0.0652
    157 H62        19.8793  -23.4106    7.8578 H         1 2MR         0.0652
    158 H63        19.1550  -24.5305    6.6546 H         1 2MR         0.0652
    159 H64        14.6770  -21.7858   13.2114 H         1 ARG         0.1883
    160 H65        17.5568  -21.0142   13.3473 H         1 ARG         0.0800
    161 H66        17.3381  -20.8722   15.8446 H         1 ARG         0.0313
    162 H67        15.5549  -20.9473   15.6418 H         1 ARG         0.0313
    163 H68        16.2545  -18.6429   15.9876 H         1 ARG         0.0301
    164 H69        15.6446  -18.8460   14.3102 H         1 ARG         0.0301
    165 H70        17.9693  -19.0203   13.4858 H         1 ARG         0.0689
    166 H71        18.5795  -18.8180   15.1631 H         1 ARG         0.0689
    167 H72        17.9906  -16.5229   15.1127 H         1 ARG         0.2642
    168 H73        16.8150  -16.6974   11.2247 H         1 ARG         0.2615
    169 H74        17.0825  -18.2125   12.1278 H         1 ARG         0.2615
    170 H75        17.6496  -14.6069   13.9543 H         1 ARG         0.2615
    171 H76        17.1448  -14.6759   12.2446 H         1 ARG         0.2615
    172 H77        17.0904  -25.5514   13.6436 H         1 PRO         0.0802
    173 H78        18.0830  -25.7526   11.5241 H         1 PRO         0.0313
    174 H79        19.5493  -26.1016   12.5013 H         1 PRO         0.0313
    175 H80        19.5845  -24.1118   10.7265 H         1 PRO         0.0287
    176 H81        20.3355  -23.8793   12.3416 H         1 PRO         0.0287
    177 H82        18.8641  -22.0575   12.3396 H         1 PRO         0.0524
    178 H83        17.6631  -22.8997   11.3028 H         1 PRO         0.0524
    179 H84        17.9834  -26.9965   15.0546 H         1 LEU         0.1883
    180 H85        19.4931  -25.9367   17.2818 H         1 LEU         0.0800
    181 H86        18.9537  -28.8501   16.6302 H         1 LEU         0.0315
    182 H87        17.7161  -27.7520   17.3296 H         1 LEU         0.0315
    183 H88        20.2852  -28.7454   18.6059 H         1 LEU         0.0298
    184 H89        19.6656  -27.3312   20.5374 H         1 LEU         0.0232
    185 H90        18.3148  -26.6281   19.5846 H         1 LEU         0.0232
    186 H91        20.0145  -26.3460   19.0765 H         1 LEU         0.0232
    187 H92        18.3312  -30.2547   18.6515 H         1 LEU         0.0232
    188 H93        17.3353  -28.9424   19.3676 H         1 LEU         0.0232
    189 H94        18.7183  -29.6249   20.2886 H         1 LEU         0.0232
    190 H95        21.5818  -25.7847   17.4717 H         1 ASN         0.1877
    191 H96        23.8109  -25.8066   17.0573 H         1 ASN         0.0752
    192 H97        23.2673  -28.6110   15.9844 H         1 ASN         0.0544
    193 H98        23.6303  -28.1793   17.6898 H         1 ASN         0.0544
    194 H99        26.6717  -29.2737   15.5600 H         1 ASN         0.1814
    195 H100       25.0435  -29.8645   15.5520 H         1 ASN         0.1814
@<TRIPOS>BOND
     1    1    2 1  
     2    2    3 1  
     3    2    5 1  
     4    3    4 2  
     5    3    9 am 
     6    5    6 1  
     7    6    7 ar 
     8    6    8 ar 
     9    9   10 1  
    10   10   11 1  
    11   10   13 1  
    12   11   12 2  
    13   11   18 am 
    14   13   14 1  
    15   14   15 1  
    16   15   16 2  
    17   15   17 am 
    18   18   19 1  
    19   19   20 1  
    20   20   21 2  
    21   20   22 am 
    22   22   23 1  
    23   23   24 1  
    24   23   26 1  
    25   24   25 2  
    26   24   33 am 
    27   26   27 1  
    28   27   28 1  
    29   28   29 1  
    30   29   30 ar 
    31   30   31 ar 
    32   30   32 ar 
    33   33   34 1  
    34   34   35 1  
    35   35   36 2  
    36   35   37 am 
    37   37   38 1  
    38   38   39 1  
    39   38   41 1  
    40   39   40 2  
    41   39   48 am 
    42   41   42 1  
    43   42   43 1  
    44   43   44 1  
    45   44   45 ar 
    46   45   46 ar 
    47   45   47 ar 
    48   48   49 1  
    49   49   50 1  
    50   49   59 1  
    51   50   51 1  
    52   51   52 1  
    53   52   53 1  
    54   53   54 ar 
    55   54   55 ar 
    56   54   57 ar 
    57   55   56 1  
    58   57   58 1  
    59   59   60 2  
    60   59   61 am 
    61   61   62 1  
    62   62   63 1  
    63   62   65 1  
    64   63   64 2  
    65   63   72 am 
    66   65   66 1  
    67   66   67 1  
    68   67   68 1  
    69   68   69 ar 
    70   69   70 ar 
    71   69   71 ar 
    72   72   73 1  
    73   72   78 1  
    74   73   74 1  
    75   73   76 1  
    76   74   75 2  
    77   74   79 am 
    78   76   77 1  
    79   77   78 1  
    80   79   80 1  
    81   80   81 1  
    82   80   83 1  
    83   81   82 2  
    84   81   87 am 
    85   83   84 1  
    86   84   85 1  
    87   84   86 1  
    88   87   88 1  
    89   88   89 1  
    90   88   91 1  
    91   89   90 ar 
    92   89   95 ar 
    93   91   92 1  
    94   92   93 2  
    95   92   94 am 
    96    1   96 1  
    97    1   97 1  
    98    1   98 1  
    99    2   99 1  
   100    5  100 1  
   101    5  101 1  
   102    9  102 1  
   103   10  103 1  
   104   13  104 1  
   105   13  105 1  
   106   14  106 1  
   107   14  107 1  
   108   17  108 1  
   109   17  109 1  
   110   18  110 1  
   111   19  111 1  
   112   19  112 1  
   113   22  113 1  
   114   23  114 1  
   115   26  115 1  
   116   26  116 1  
   117   27  117 1  
   118   27  118 1  
   119   28  119 1  
   120   28  120 1  
   121   29  121 1  
   122   31  122 1  
   123   31  123 1  
   124   32  124 1  
   125   32  125 1  
   126   33  126 1  
   127   34  127 1  
   128   34  128 1  
   129   37  129 1  
   130   38  130 1  
   131   41  131 1  
   132   41  132 1  
   133   42  133 1  
   134   42  134 1  
   135   43  135 1  
   136   43  136 1  
   137   44  137 1  
   138   46  138 1  
   139   46  139 1  
   140   47  140 1  
   141   47  141 1  
   142   48  142 1  
   143   49  143 1  
   144   50  144 1  
   145   50  145 1  
   146   51  146 1  
   147   51  147 1  
   148   52  148 1  
   149   52  149 1  
   150   53  150 1  
   151   55  151 1  
   152   56  152 1  
   153   56  153 1  
   154   56  154 1  
   155   57  155 1  
   156   58  156 1  
   157   58  157 1  
   158   58  158 1  
   159   61  159 1  
   160   62  160 1  
   161   65  161 1  
   162   65  162 1  
   163   66  163 1  
   164   66  164 1  
   165   67  165 1  
   166   67  166 1  
   167   68  167 1  
   168   70  168 1  
   169   70  169 1  
   170   71  170 1  
   171   71  171 1  
   172   73  172 1  
   173   76  173 1  
   174   76  174 1  
   175   77  175 1  
   176   77  176 1  
   177   78  177 1  
   178   78  178 1  
   179   79  179 1  
   180   80  180 1  
   181   83  181 1  
   182   83  182 1  
   183   84  183 1  
   184   85  184 1  
   185   85  185 1  
   186   85  186 1  
   187   86  187 1  
   188   86  188 1  
   189   86  189 1  
   190   87  190 1  
   191   88  191 1  
   192   91  192 1  
   193   91  193 1  
   194   94  194 1  
   195   94  195 1  
@<TRIPOS>SUBSTRUCTURE
     1 ASP         1

