5ygd_ligand
  -I-interpret- 

195195  0  0  0  0  0  0  0  0999 V2000
    6.3550   -6.4490    9.0590 N   0  3  0  0  0
    5.1440   -6.5200    9.8610 C   0  0  0  0  0
    4.6720   -7.9620    9.9450 C   0  0  0  0  0
    3.5870   -8.3020    9.4700 O   0  0  0  0  0
    4.0540   -5.6280    9.2720 C   0  0  0  0  0
    4.6100   -4.3500    8.6570 C   0  0  0  0  0
    5.5540   -3.7530    9.2290 O   0  0  0  0  0
    4.0880   -3.9480    7.5920 O   0  0  0  0  0
    5.5030   -8.7850   10.5790 N   0  0  0  0  0
    5.3100  -10.2330   10.6820 C   0  0  0  0  0
    5.2430  -10.8830    9.2950 C   0  0  0  0  0
    4.4770  -11.8220    9.0640 O   0  0  0  0  0
    4.0580  -10.5510   11.5130 C   0  0  0  0  0
    4.1400   -9.9450   12.9050 C   0  0  0  0  0
    2.9990  -10.3470   13.8110 C   0  0  0  0  0
    1.8950  -10.6490   13.3530 O   0  0  0  0  0
    3.2620  -10.3500   15.1120 N   0  0  0  0  0
    6.0630  -10.3800    8.3770 N   0  0  0  0  0
    6.1010  -10.8990    7.0250 C   0  0  0  0  0
    7.4030  -11.5890    6.6530 C   0  0  0  0  0
    7.5030  -12.1900    5.5820 O   0  0  0  0  0
    8.4110  -11.5060    7.5170 N   0  0  0  0  0
    9.7010  -12.1380    7.2220 C   0  0  0  0  0
    9.8190  -13.4790    7.9200 C   0  0  0  0  0
    9.7410  -13.5700    9.1490 O   0  0  0  0  0
   10.8770  -11.2500    7.6460 C   0  0  0  0  0
   11.0130   -9.9770    6.8580 C   0  0  0  0  0
   12.1530   -9.1050    7.3880 C   0  0  0  0  0
   13.4890   -9.5810    7.0450 N   0  0  0  0  0
   14.0270   -9.4700    5.8330 C   0  0  0  0  0
   13.3230   -8.9440    4.8440 N   0  0  0  0  0
   15.2520   -9.9110    5.6070 N   0  0  0  0  0
   10.0390  -14.5230    7.1390 N   0  0  0  0  0
   10.2140  -15.8420    7.7160 C   0  0  0  0  0
   11.4960  -15.9810    8.5000 C   0  0  0  0  0
   12.4950  -15.3630    8.1880 O   0  0  0  0  0
   11.4730  -16.8210    9.5210 N   0  0  0  0  0
   12.6910  -17.0860   10.2720 C   0  0  0  0  0
   12.7760  -18.5610   10.6150 C   0  0  0  0  0
   11.7430  -19.2370   10.7420 O   0  0  0  0  0
   12.7520  -16.2510   11.5430 C   0  0  0  0  0
   11.8840  -16.7000   12.6810 C   0  0  0  0  0
   12.4730  -16.1580   13.9770 C   0  0  0  0  0
   11.6790  -16.5250   15.1420 N   0  0  0  0  0
   12.0760  -16.3430   16.3940 C   0  0  0  0  0
   13.2690  -15.8120   16.6380 N   0  0  0  0  0
   11.2870  -16.7050   17.3990 N   0  0  0  0  0
   14.0080  -19.0490   10.7170 N   0  0  0  0  0
   14.2560  -20.4030   11.1210 C   0  0  0  0  0
   14.2990  -21.3510    9.9300 C   0  0  0  0  0
   15.5150  -21.1190    9.0620 C   0  0  0  0  0
   15.3750  -21.8380    7.7360 C   0  0  0  0  0
   16.4230  -21.5030    6.8280 N   0  0  0  0  0
   17.6440  -22.2270    6.7610 C   0  0  0  0  0
   18.5890  -21.9160    5.9100 N   0  0  0  0  0
   18.4100  -20.8160    5.0040 C   0  0  0  0  0
   17.8250  -23.3100    7.6600 N   0  0  0  0  0
   19.0250  -24.0700    7.6450 C   0  0  0  0  0
   15.5360  -20.4630   11.9500 C   0  0  0  0  0
   16.5470  -19.7700   11.6450 O   0  0  0  0  0
   15.5090  -21.2700   13.0070 N   0  0  0  0  0
   16.6800  -21.4150   13.8770 C   0  0  0  0  0
   16.9320  -22.8870   14.1870 C   0  0  0  0  0
   16.4250  -23.4140   15.1740 O   0  0  0  0  0
   16.4990  -20.6270   15.1770 C   0  0  0  0  0
   16.4540  -19.1040   15.0090 C   0  0  0  0  0
   17.7710  -18.5580   14.4640 C   0  0  0  0  0
   17.7370  -17.1040   14.3010 N   0  0  0  0  0
   17.4000  -16.4830   13.1730 C   0  0  0  0  0
   17.0750  -17.1830   12.0950 N   0  0  0  0  0
   17.3980  -15.1560   13.1200 N   0  0  0  0  0
   17.7120  -23.5530   13.3330 N   0  0  0  0  0
   18.0190  -24.9690   13.5510 C   0  0  0  0  0
   18.8780  -25.2120   14.7940 C   0  0  0  0  0
   19.6890  -24.3640   15.1830 O   0  0  0  0  0
   18.7740  -25.3530   12.2810 C   0  0  0  0  0
   19.3930  -24.0740   11.8090 C   0  0  0  0  0
   18.3790  -23.0220   12.1290 C   0  0  0  0  0
   18.6840  -26.3760   15.4070 N   0  0  0  0  0
   19.4570  -26.7780   16.5740 C   0  0  0  0  0
   20.8820  -27.1230   16.1520 C   0  0  0  0  0
   21.0870  -28.0020   15.3150 O   0  0  0  0  0
   18.7930  -27.9670   17.2660 C   0  0  0  0  0
   19.2720  -28.3220   18.6710 C   0  0  0  0  0
   19.3200  -27.0710   19.5260 C   0  0  0  0  0
   18.3510  -29.3570   19.2870 C   0  0  0  0  0
   21.8470  -26.4150   16.7420 N   0  0  0  0  0
   23.2680  -26.4970   16.3950 C   0  0  0  0  0
   23.5470  -26.0740   14.9550 C   0  0  0  0  0
   23.8480  -24.9070   14.6880 O   0  0  0  0  0
   23.8070  -27.9100   16.6380 C   0  0  0  0  0
   25.2920  -28.0210   16.3500 C   0  0  0  0  0
   26.0630  -27.1050   16.6470 O   0  0  0  0  0
   25.7030  -29.1460   15.7730 N   0  0  0  0  0
   23.4760  -26.8920   14.0330 O   0  0  0  0  0
    7.0689   -7.0511    9.4693 H   0  0  0  0  0
    6.1511   -6.7600    8.1092 H   0  0  0  0  0
    6.6915   -5.4863    9.0380 H   0  0  0  0  0
    5.3627   -6.1600   10.8663 H   0  0  0  0  0
    3.3797   -5.3450   10.0803 H   0  0  0  0  0
    3.5523   -6.1886    8.4833 H   0  0  0  0  0
    5.7984   -4.2315   10.0245 H   0  0  0  0  0
    6.3282   -8.3812   11.0222 H   0  0  0  0  0
    6.1721  -10.6573   11.1966 H   0  0  0  0  0
    3.9775  -11.6334   11.6133 H   0  0  0  0  0
    3.1913  -10.1287   11.0045 H   0  0  0  0  0
    4.0999   -8.8617   12.7916 H   0  0  0  0  0
    5.0617  -10.3040   13.3629 H   0  0  0  0  0
    2.5350  -10.6097   15.7787 H   0  0  0  0  0
    4.1911  -10.0926   15.4451 H   0  0  0  0  0
    6.6809   -9.6093    8.6312 H   0  0  0  0  0
    5.9866  -10.0486    6.3529 H   0  0  0  0  0
    5.3102  -11.6451    6.9467 H   0  0  0  0  0
    8.2855  -10.9982    8.3926 H   0  0  0  0  0
    9.7412  -12.2827    6.1424 H   0  0  0  0  0
   11.7874  -11.8261    7.4808 H   0  0  0  0  0
   10.7039  -10.9656    8.6839 H   0  0  0  0  0
   10.0820   -9.4169    6.9455 H   0  0  0  0  0
   11.2305  -10.2353    5.8216 H   0  0  0  0  0
   12.0812   -9.1127    8.4756 H   0  0  0  0  0
   12.0389   -8.1205    6.9342 H   0  0  0  0  0
   14.0431  -10.0249    7.7773 H   0  0  0  0  0
   13.7260   -8.8795    3.9092 H   0  0  0  0  0
   12.3773   -8.6030    5.0163 H   0  0  0  0  0
   15.7879  -10.3379    6.3626 H   0  0  0  0  0
   10.0858  -14.4003    6.1275 H   0  0  0  0  0
   10.2479  -16.5598    6.8964 H   0  0  0  0  0
    9.3856  -16.0151    8.4030 H   0  0  0  0  0
   10.6019  -17.2830    9.7821 H   0  0  0  0  0
   13.5401  -16.8089    9.6472 H   0  0  0  0  0
   12.3993  -15.2569   11.2683 H   0  0  0  0  0
   13.7792  -16.3208   11.9010 H   0  0  0  0  0
   11.8465  -17.7888   12.7147 H   0  0  0  0  0
   10.8693  -16.3253   12.5468 H   0  0  0  0  0
   12.4925  -15.0702   13.9104 H   0  0  0  0  0
   13.4691  -16.5834   14.0993 H   0  0  0  0  0
   10.7636  -16.9469   14.9853 H   0  0  0  0  0
   13.5819  -15.6811   17.6000 H   0  0  0  0  0
   13.8721  -15.5352   15.8634 H   0  0  0  0  0
   10.3764  -17.1227   17.2075 H   0  0  0  0  0
   14.8000  -18.4434   10.5018 H   0  0  0  0  0
   13.4267  -20.7399   11.7430 H   0  0  0  0  0
   13.4102  -21.1759    9.3238 H   0  0  0  0  0
   14.3419  -22.3719   10.3095 H   0  0  0  0  0
   16.3942  -21.5034    9.5790 H   0  0  0  0  0
   15.6132  -20.0500    8.8733 H   0  0  0  0  0
   14.4282  -21.5388    7.2863 H   0  0  0  0  0
   15.4203  -22.9105    7.9253 H   0  0  0  0  0
   16.7167  -20.5777    7.1411 H   0  0  0  0  0
   17.9417  -21.7381    5.8334 H   0  0  0  0  0
   18.6650  -22.7336    5.3049 H   0  0  0  0  0
   17.5404  -21.0035    4.3741 H   0  0  0  0  0
   18.2569  -19.8992    5.5734 H   0  0  0  0  0
   19.2973  -20.7134    4.3793 H   0  0  0  0  0
   17.1019  -23.9788    7.3949 H   0  0  0  0  0
   19.1527  -24.5257    6.6631 H   0  0  0  0  0
   19.8707  -23.4155    7.8560 H   0  0  0  0  0
   18.9692  -24.8499    8.4045 H   0  0  0  0  0
   14.6604  -21.7961   13.2155 H   0  0  0  0  0
   17.5441  -21.0110   13.3495 H   0  0  0  0  0
   17.3629  -20.8496   15.8033 H   0  0  0  0  0
   15.5382  -20.9264   15.5958 H   0  0  0  0  0
   16.2740  -18.6555   15.9860 H   0  0  0  0  0
   15.6615  -18.8594   14.3017 H   0  0  0  0  0
   17.9469  -19.0063   13.4861 H   0  0  0  0  0
   18.5610  -18.8027   15.1740 H   0  0  0  0  0
   17.9881  -16.5285   15.1049 H   0  0  0  0  0
   17.0824  -18.2025   12.1275 H   0  0  0  0  0
   17.1473  -14.6806   12.2531 H   0  0  0  0  0
   17.6472  -14.6122   13.9462 H   0  0  0  0  0
   17.1204  -25.5594   13.7299 H   0  0  0  0  0
   18.1143  -25.7881   11.5303 H   0  0  0  0  0
   19.5221  -26.1232   12.4685 H   0  0  0  0  0
   19.6271  -24.1035   10.7448 H   0  0  0  0  0
   20.3485  -23.8800   12.2964 H   0  0  0  0  0
   18.8270  -22.0421   12.2938 H   0  0  0  0  0
   17.6849  -22.8430   11.3079 H   0  0  0  0  0
   17.9694  -27.0089   15.0476 H   0  0  0  0  0
   19.4927  -25.9511   17.2833 H   0  0  0  0  0
   19.0270  -28.8341   16.6484 H   0  0  0  0  0
   17.7431  -27.6948   17.3740 H   0  0  0  0  0
   20.2750  -28.7450   18.6150 H   0  0  0  0  0
   20.0084  -26.3535   19.0795 H   0  0  0  0  0
   18.3235  -26.6331   19.5833 H   0  0  0  0  0
   19.6625  -27.3301   20.5278 H   0  0  0  0  0
   17.3398  -28.9540   19.3434 H   0  0  0  0  0
   18.3516  -30.2553   18.6697 H   0  0  0  0  0
   18.7018  -29.6031   20.2892 H   0  0  0  0  0
   21.5765  -25.7721   17.4863 H   0  0  0  0  0
   23.7866  -25.7947   17.0477 H   0  0  0  0  0
   23.2821  -28.5907   15.9677 H   0  0  0  0  0
   23.6483  -28.1551   17.6882 H   0  0  0  0  0
   26.6915  -29.2776   15.5585 H   0  0  0  0  0
   25.0298  -29.8776   15.5448 H   0  0  0  0  0
   23.2346  -27.7511   14.3868 H   0  0  0  0  0
  1  2  1  0  0  0
  2  3  1  0  0  0
  2  5  1  0  0  0
  3  4  2  0  0  0
  3  9  1  0  0  0
  5  6  1  0  0  0
  6  7  1  0  0  0
  6  8  2  0  0  0
  9 10  1  0  0  0
 10 11  1  0  0  0
 10 13  1  0  0  0
 11 12  2  0  0  0
 11 18  1  0  0  0
 13 14  1  0  0  0
 14 15  1  0  0  0
 15 16  2  0  0  0
 15 17  1  0  0  0
 18 19  1  0  0  0
 19 20  1  0  0  0
 20 21  2  0  0  0
 20 22  1  0  0  0
 22 23  1  0  0  0
 23 24  1  0  0  0
 23 26  1  0  0  0
 24 25  2  0  0  0
 24 33  1  0  0  0
 26 27  1  0  0  0
 27 28  1  0  0  0
 28 29  1  0  0  0
 29 30  1  0  0  0
 30 31  1  0  0  0
 30 32  2  0  0  0
 33 34  1  0  0  0
 34 35  1  0  0  0
 35 36  2  0  0  0
 35 37  1  0  0  0
 37 38  1  0  0  0
 38 39  1  0  0  0
 38 41  1  0  0  0
 39 40  2  0  0  0
 39 48  1  0  0  0
 41 42  1  0  0  0
 42 43  1  0  0  0
 43 44  1  0  0  0
 44 45  1  0  0  0
 45 46  1  0  0  0
 45 47  2  0  0  0
 48 49  1  0  0  0
 49 50  1  0  0  0
 49 59  1  0  0  0
 50 51  1  0  0  0
 51 52  1  0  0  0
 52 53  1  0  0  0
 53 54  1  0  0  0
 54 55  1  0  0  0
 54 57  1  0  0  0
 55 56  1  0  0  0
 57 58  1  0  0  0
 59 60  2  0  0  0
 59 61  1  0  0  0
 61 62  1  0  0  0
 62 63  1  0  0  0
 62 65  1  0  0  0
 63 64  2  0  0  0
 63 72  1  0  0  0
 65 66  1  0  0  0
 66 67  1  0  0  0
 67 68  1  0  0  0
 68 69  1  0  0  0
 69 70  2  0  0  0
 69 71  1  0  0  0
 72 73  1  0  0  0
 72 78  1  0  0  0
 73 74  1  0  0  0
 73 76  1  0  0  0
 74 75  2  0  0  0
 74 79  1  0  0  0
 76 77  1  0  0  0
 77 78  1  0  0  0
 79 80  1  0  0  0
 80 81  1  0  0  0
 80 83  1  0  0  0
 81 82  2  0  0  0
 81 87  1  0  0  0
 83 84  1  0  0  0
 84 85  1  0  0  0
 84 86  1  0  0  0
 87 88  1  0  0  0
 88 89  1  0  0  0
 88 91  1  0  0  0
 89 90  2  0  0  0
 89 95  1  0  0  0
 91 92  1  0  0  0
 92 93  2  0  0  0
 92 94  1  0  0  0
  1 96  1  0  0  0
  1 97  1  0  0  0
  1 98  1  0  0  0
  2 99  1  0  0  0
  5100  1  0  0  0
  5101  1  0  0  0
  7102  1  0  0  0
  9103  1  0  0  0
 10104  1  0  0  0
 13105  1  0  0  0
 13106  1  0  0  0
 14107  1  0  0  0
 14108  1  0  0  0
 17109  1  0  0  0
 17110  1  0  0  0
 18111  1  0  0  0
 19112  1  0  0  0
 19113  1  0  0  0
 22114  1  0  0  0
 23115  1  0  0  0
 26116  1  0  0  0
 26117  1  0  0  0
 27118  1  0  0  0
 27119  1  0  0  0
 28120  1  0  0  0
 28121  1  0  0  0
 29122  1  0  0  0
 31123  1  0  0  0
 31124  1  0  0  0
 32125  1  0  0  0
 33126  1  0  0  0
 34127  1  0  0  0
 34128  1  0  0  0
 37129  1  0  0  0
 38130  1  0  0  0
 41131  1  0  0  0
 41132  1  0  0  0
 42133  1  0  0  0
 42134  1  0  0  0
 43135  1  0  0  0
 43136  1  0  0  0
 44137  1  0  0  0
 46138  1  0  0  0
 46139  1  0  0  0
 47140  1  0  0  0
 48141  1  0  0  0
 49142  1  0  0  0
 50143  1  0  0  0
 50144  1  0  0  0
 51145  1  0  0  0
 51146  1  0  0  0
 52147  1  0  0  0
 52148  1  0  0  0
 53149  1  0  0  0
 54150  1  0  0  0
 55151  1  0  0  0
 56152  1  0  0  0
 56153  1  0  0  0
 56154  1  0  0  0
 57155  1  0  0  0
 58156  1  0  0  0
 58157  1  0  0  0
 58158  1  0  0  0
 61159  1  0  0  0
 62160  1  0  0  0
 65161  1  0  0  0
 65162  1  0  0  0
 66163  1  0  0  0
 66164  1  0  0  0
 67165  1  0  0  0
 67166  1  0  0  0
 68167  1  0  0  0
 70168  1  0  0  0
 71169  1  0  0  0
 71170  1  0  0  0
 73171  1  0  0  0
 76172  1  0  0  0
 76173  1  0  0  0
 77174  1  0  0  0
 77175  1  0  0  0
 78176  1  0  0  0
 78177  1  0  0  0
 79178  1  0  0  0
 80179  1  0  0  0
 83180  1  0  0  0
 83181  1  0  0  0
 84182  1  0  0  0
 85183  1  0  0  0
 85184  1  0  0  0
 85185  1  0  0  0
 86186  1  0  0  0
 86187  1  0  0  0
 86188  1  0  0  0
 87189  1  0  0  0
 88190  1  0  0  0
 91191  1  0  0  0
 91192  1  0  0  0
 94193  1  0  0  0
 94194  1  0  0  0
 95195  1  0  0  0
M  END
$$$$
