5t6g_ligand
  -I-interpret- 

 78 79  0  0  0  0  0  0  0  0999 V2000
    9.6190    7.8590   -8.8460 C   0  0  0  0  0
    9.0900    6.8600   -9.8700 C   0  0  0  0  0
    7.6040    7.0260  -10.1480 C   0  0  0  0  0
    6.8560    5.7020  -10.2890 C   0  0  0  0  0
    5.3970    5.9220  -10.7240 C   0  0  0  0  0
    4.5210    4.6790  -10.6000 C   0  0  0  0  0
    3.2240    4.8360  -11.3800 C   0  0  0  0  0
    2.1670    3.8070  -10.9990 C   0  0  0  0  0
    9.5990   11.9070   -8.5720 C   0  0  0  0  0
    9.4690   12.7170   -7.2960 C   0  0  0  0  0
    8.5500   12.0870   -6.2650 C   0  0  0  0  0
    7.1420   12.0100   -6.8520 C   0  0  0  0  0
    6.0900   11.6330   -5.8050 C   0  0  0  0  0
    6.1860   12.5020   -4.5500 C   0  0  0  0  0
    7.5940   12.5310   -3.9670 C   0  0  0  0  0
    8.6280   12.9550   -5.0010 C   0  0  0  0  0
   10.3800   12.7420   -9.5720 C   0  0  0  0  0
   10.2610   14.3930  -11.4470 C   0  0  0  0  0
    9.8270   13.8860  -12.8310 C   0  0  0  0  0
   10.1370   12.4110  -13.1150 C   0  0  0  0  0
    9.9520   12.1040  -14.5360 C   0  0  0  0  0
   11.9340   10.9460  -13.8300 C   0  0  0  0  0
   11.5730   12.0410  -12.7880 C   0  0  0  0  0
    9.8720   15.8650  -11.3110 C   0  0  0  0  0
   10.2330   10.6260   -8.3420 N   0  0  0  0  0
    9.5940   13.5840  -10.4530 N   0  0  0  0  0
   11.0750   11.1810  -14.9610 N   0  0  0  0  0
    9.3180    9.9300  -10.6700 O   0  0  0  0  0
    9.0690   12.5220  -15.2150 O   0  0  0  0  0
   10.3710   16.3490  -10.1070 O   0  0  0  0  0
   11.5610   12.7050   -9.6290 O   0  0  0  0  0
   11.4300    9.2730  -10.1830 O   0  0  0  0  0
   10.1370    9.4440   -9.5610 S   0  0  0  0  0
   10.4975    7.4113   -8.3814 H   0  0  0  0  0
    8.8073    8.0684   -8.1493 H   0  0  0  0  0
    9.2430    5.8587   -9.4673 H   0  0  0  0  0
    9.6240    7.0284  -10.8052 H   0  0  0  0  0
    7.5062    7.5586  -11.0940 H   0  0  0  0  0
    7.1706    7.5573   -9.3007 H   0  0  0  0  0
    6.8558    5.2009   -9.3210 H   0  0  0  0  0
    7.3562    5.1022  -11.0494 H   0  0  0  0  0
    5.4116    6.2047  -11.7766 H   0  0  0  0  0
    4.9744    6.6832  -10.0682 H   0  0  0  0  0
    4.2772    4.5301   -9.5481 H   0  0  0  0  0
    5.0681    3.8274  -11.0046 H   0  0  0  0  0
    3.4547    4.6974  -12.4363 H   0  0  0  0  0
    2.8204    5.8232  -11.1551 H   0  0  0  0  0
    2.5501    2.8053  -11.1937 H   0  0  0  0  0
    1.9295    3.9071   -9.9399 H   0  0  0  0  0
    1.2679    3.9751  -11.5918 H   0  0  0  0  0
    8.6073   11.6794   -8.9631 H   0  0  0  0  0
    9.0431   13.6836   -7.5652 H   0  0  0  0  0
   10.4614   12.7848   -6.8502 H   0  0  0  0  0
    8.8405   11.0698   -6.0023 H   0  0  0  0  0
    7.1407   11.2393   -7.6228 H   0  0  0  0  0
    6.8874   12.9941   -7.2454 H   0  0  0  0  0
    6.2584   10.5964   -5.5132 H   0  0  0  0  0
    5.1044   11.7820   -6.2459 H   0  0  0  0  0
    5.5189   12.0813   -3.7976 H   0  0  0  0  0
    5.9146   13.5212   -4.8249 H   0  0  0  0  0
    7.8436   11.5262   -3.6262 H   0  0  0  0  0
    7.6111   13.2530   -3.1506 H   0  0  0  0  0
    8.4317   13.9900   -5.2807 H   0  0  0  0  0
    9.6200   12.8397   -4.5641 H   0  0  0  0  0
   11.3399   14.3141  -11.3133 H   0  0  0  0  0
   10.3827   14.4689  -13.5655 H   0  0  0  0  0
    8.7431   13.9917  -12.8765 H   0  0  0  0  0
    9.4515   11.8463  -12.4830 H   0  0  0  0  0
   11.7864    9.9463  -13.4214 H   0  0  0  0  0
   12.9852   10.9997  -14.1131 H   0  0  0  0  0
   11.6819   11.6846  -11.7637 H   0  0  0  0  0
   12.2416   12.8998  -12.8468 H   0  0  0  0  0
    8.7867   15.9641  -11.3283 H   0  0  0  0  0
   10.2887   16.4361  -12.1406 H   0  0  0  0  0
   10.7258   10.4368   -7.4692 H   0  0  0  0  0
    8.5775   13.6050  -10.3715 H   0  0  0  0  0
   11.2018   10.7903  -15.8946 H   0  0  0  0  0
   10.1320   17.2739  -10.0115 H   0  0  0  0  0
  1  2  1  0  0  0
 33  1  1  0  0  0
  2  3  1  0  0  0
  3  4  1  0  0  0
  4  5  1  0  0  0
  5  6  1  0  0  0
  6  7  1  0  0  0
  7  8  1  0  0  0
  9 10  1  0  0  0
  9 17  1  0  0  0
 25  9  1  0  0  0
 10 11  1  0  0  0
 11 12  1  0  0  0
 11 16  1  0  0  0
 12 13  1  0  0  0
 13 14  1  0  0  0
 15 14  1  0  0  0
 16 15  1  0  0  0
 17 26  1  0  0  0
 17 31  2  0  0  0
 18 19  1  0  0  0
 18 24  1  0  0  0
 26 18  1  0  0  0
 19 20  1  0  0  0
 20 21  1  0  0  0
 20 23  1  0  0  0
 21 27  1  0  0  0
 21 29  2  0  0  0
 23 22  1  0  0  0
 22 27  1  0  0  0
 24 30  1  0  0  0
 25 33  1  0  0  0
 33 28  2  0  0  0
 33 32  2  0  0  0
  1 34  1  0  0  0
  1 35  1  0  0  0
  2 36  1  0  0  0
  2 37  1  0  0  0
  3 38  1  0  0  0
  3 39  1  0  0  0
  4 40  1  0  0  0
  4 41  1  0  0  0
  5 42  1  0  0  0
  5 43  1  0  0  0
  6 44  1  0  0  0
  6 45  1  0  0  0
  7 46  1  0  0  0
  7 47  1  0  0  0
  8 48  1  0  0  0
  8 49  1  0  0  0
  8 50  1  0  0  0
  9 51  1  0  0  0
 10 52  1  0  0  0
 10 53  1  0  0  0
 11 54  1  0  0  0
 12 55  1  0  0  0
 12 56  1  0  0  0
 13 57  1  0  0  0
 13 58  1  0  0  0
 14 59  1  0  0  0
 14 60  1  0  0  0
 15 61  1  0  0  0
 15 62  1  0  0  0
 16 63  1  0  0  0
 16 64  1  0  0  0
 18 65  1  0  0  0
 19 66  1  0  0  0
 19 67  1  0  0  0
 20 68  1  0  0  0
 22 69  1  0  0  0
 22 70  1  0  0  0
 23 71  1  0  0  0
 23 72  1  0  0  0
 24 73  1  0  0  0
 24 74  1  0  0  0
 25 75  1  0  0  0
 26 76  1  0  0  0
 27 77  1  0  0  0
 30 78  1  0  0  0
M  END
$$$$
