6eiz_ligand
  -I-interpret- 

 42 41  0  0  0  0  0  0  0  0999 V2000
   78.0440  389.5600  117.4750 C   0  0  0  0  0
   77.4490  390.8830  117.9180 C   0  0  0  0  0
   75.9890  390.9470  118.1880 C   0  0  0  0  0
   78.0840  392.0450  117.7030 C   0  0  0  0  0
   77.3100  393.3170  117.8900 C   0  0  0  0  0
   78.2580  394.5120  118.1420 C   0  0  0  0  0
   77.3900  395.7250  118.2800 C   0  0  0  0  0
   75.9250  395.4740  118.3550 C   0  0  0  0  0
   77.9220  396.9380  118.4920 C   0  0  0  0  0
   77.1060  398.1840  118.6640 C   0  0  0  0  0
   78.0430  399.4550  118.8380 C   0  0  0  0  0
   77.2250  400.7260  118.8010 C   0  0  0  0  0
   75.9140  400.6010  118.1400 C   0  0  0  0  0
   77.7150  401.9410  119.1490 C   0  0  0  0  0
   76.8620  403.1970  118.9610 C   0  0  0  0  0
   77.6180  404.3640  119.3210 O   0  0  0  0  0
   78.1849  389.5702  116.3942 H   0  0  0  0  0
   79.0056  389.4127  117.9667 H   0  0  0  0  0
   77.3676  388.7497  117.7468 H   0  0  0  0  0
   75.8119  391.5460  119.0813 H   0  0  0  0  0
   75.4831  391.4030  117.3370 H   0  0  0  0  0
   75.6049  389.9388  118.3431 H   0  0  0  0  0
   79.1313  392.0647  117.4014 H   0  0  0  0  0
   76.6544  393.2032  118.7534 H   0  0  0  0  0
   76.7350  393.5122  116.9848 H   0  0  0  0  0
   78.9634  394.6296  117.3194 H   0  0  0  0  0
   78.8526  394.3543  119.0418 H   0  0  0  0  0
   75.5656  395.7232  119.3534 H   0  0  0  0  0
   75.4134  396.0933  117.6182 H   0  0  0  0  0
   75.7268  394.4223  118.1481 H   0  0  0  0  0
   79.0076  397.0225  118.5420 H   0  0  0  0  0
   76.4887  398.0786  119.5561 H   0  0  0  0  0
   76.4872  398.3232  117.7775 H   0  0  0  0  0
   78.7661  399.4758  118.0227 H   0  0  0  0  0
   78.5525  399.3900  119.7994 H   0  0  0  0  0
   75.1407  401.0122  118.7888 H   0  0  0  0  0
   75.9296  401.1497  117.1983 H   0  0  0  0  0
   75.7054  399.5490  117.9456 H   0  0  0  0  0
   78.7196  402.0234  119.5639 H   0  0  0  0  0
   75.9807  403.1303  119.5989 H   0  0  0  0  0
   76.5618  403.2730  117.9159 H   0  0  0  0  0
   77.0745  405.1460  119.1997 H   0  0  0  0  0
  1  2  1  0  0  0
  2  3  1  0  0  0
  2  4  2  0  0  0
  4  5  1  0  0  0
  5  6  1  0  0  0
  6  7  1  0  0  0
  7  8  1  0  0  0
  7  9  2  0  0  0
  9 10  1  0  0  0
 10 11  1  0  0  0
 11 12  1  0  0  0
 12 13  1  0  0  0
 12 14  2  0  0  0
 14 15  1  0  0  0
 15 16  1  0  0  0
  1 17  1  0  0  0
  1 18  1  0  0  0
  1 19  1  0  0  0
  3 20  1  0  0  0
  3 21  1  0  0  0
  3 22  1  0  0  0
  4 23  1  0  0  0
  5 24  1  0  0  0
  5 25  1  0  0  0
  6 26  1  0  0  0
  6 27  1  0  0  0
  8 28  1  0  0  0
  8 29  1  0  0  0
  8 30  1  0  0  0
  9 31  1  0  0  0
 10 32  1  0  0  0
 10 33  1  0  0  0
 11 34  1  0  0  0
 11 35  1  0  0  0
 13 36  1  0  0  0
 13 37  1  0  0  0
 13 38  1  0  0  0
 14 39  1  0  0  0
 15 40  1  0  0  0
 15 41  1  0  0  0
 16 42  1  0  0  0
M  END
$$$$
