3dx3_ligand
  -I-interpret- 

 22 22  0  0  0  0  0  0  0  0999 V2000
   29.4900   66.1080    7.0040 O   0  0  0  0  0
   30.8790   66.0110    7.3610 C   0  0  0  0  0
   31.6160   67.2730    6.9750 C   0  0  0  0  0
   31.6710   67.5460    5.5680 O   0  0  0  0  0
   32.9770   67.0720    7.6370 C   0  0  0  0  0
   33.7270   66.1020    6.8880 O   0  0  0  0  0
   31.1590   65.9730    8.8560 C   0  0  0  0  0
   31.0030   64.6330    9.4250 N   0  3  0  0  0
   32.5940   66.4880    9.0130 C   0  0  0  0  0
   33.4960   65.4580    9.4720 O   0  0  0  0  0
   29.4070   66.1259    6.0478 H   0  0  0  0  0
   31.1872   65.0933    6.8601 H   0  0  0  0  0
   31.1031   68.1732    7.3137 H   0  0  0  0  0
   30.7796   67.6589    5.2300 H   0  0  0  0  0
   33.5827   67.9761    7.6990 H   0  0  0  0  0
   33.9621   66.4712    6.0336 H   0  0  0  0  0
   30.4428   66.5877    9.4012 H   0  0  0  0  0
   30.0389   64.3232    9.3030 H   0  0  0  0  0
   31.6319   63.9870    8.9479 H   0  0  0  0  0
   31.2299   64.6585   10.4191 H   0  0  0  0  0
   32.6664   67.2539    9.7851 H   0  0  0  0  0
   34.3801   65.8226    9.5561 H   0  0  0  0  0
  1  2  1  0  0  0
  2  3  1  0  0  0
  2  7  1  0  0  0
  3  4  1  0  0  0
  3  5  1  0  0  0
  5  6  1  0  0  0
  5  9  1  0  0  0
  7  8  1  0  0  0
  7  9  1  0  0  0
  9 10  1  0  0  0
  1 11  1  0  0  0
  2 12  1  0  0  0
  3 13  1  0  0  0
  4 14  1  0  0  0
  5 15  1  0  0  0
  6 16  1  0  0  0
  7 17  1  0  0  0
  8 18  1  0  0  0
  8 19  1  0  0  0
  8 20  1  0  0  0
  9 21  1  0  0  0
 10 22  1  0  0  0
M  END
$$$$
