3m2w_ligand
  -I-interpret- 

 48 53  0  0  0  0  0  0  0  0999 V2000
   35.6060    3.4560   14.9520 F   0  0  0  0  0
   35.4680    3.8250   13.6740 C   0  0  0  0  0
   36.3700    4.6900   13.0540 C   0  0  0  0  0
   36.2080    5.0540   11.7280 C   0  0  0  0  0
   35.1280    4.5510   11.0110 C   0  0  0  0  0
   34.2310    3.6720   11.6260 C   0  0  0  0  0
   34.3920    3.3180   12.9550 C   0  0  0  0  0
   37.5130    5.2770   13.7690 C   0  0  0  0  0
   38.5820    5.6040   13.0200 N   0  0  0  0  0
   39.6670    6.1750   13.5520 C   0  0  0  0  0
   39.7140    6.4530   14.9180 C   0  0  0  0  0
   38.6120    6.1180   15.7060 C   0  0  0  0  0
   37.4800    5.5440   15.1400 C   0  0  0  0  0
   38.6800    6.4310   17.1550 C   0  0  0  0  0
   37.9170    6.0220   18.1170 N   0  0  0  0  0
   38.2930    6.5310   19.2680 C   0  0  0  0  0
   39.3690    7.3240   19.0810 C   0  0  0  0  0
   39.6180    7.2520   17.6360 C   0  0  0  0  0
   40.6590    7.9360   16.8000 C   0  0  0  0  0
   40.9670    7.0940   15.5330 C   0  0  0  0  0
   40.0070    8.0830   20.1680 C   0  0  0  0  0
   39.4130    8.0790   21.3760 N   0  0  0  0  0
   38.1820    7.3490   21.6740 C   0  0  0  0  0
   37.7020    6.3020   20.6390 C   0  0  0  0  0
   37.9850    4.8390   21.0540 C   0  0  0  0  0
   36.5710    4.6780   21.4640 N   0  3  0  0  0
   36.2040    5.9810   20.8300 C   0  0  0  0  0
   36.3460    4.5230   22.9320 C   0  0  0  0  0
   41.0140    8.7550   19.9850 O   0  0  0  0  0
   36.9197    5.7279   11.2511 H   0  0  0  0  0
   34.9808    4.8415    9.9708 H   0  0  0  0  0
   33.3982    3.2621   11.0545 H   0  0  0  0  0
   33.6797    2.6463   13.4340 H   0  0  0  0  0
   40.5171    6.4240   12.9169 H   0  0  0  0  0
   36.6014    5.3114   15.7417 H   0  0  0  0  0
   41.1310    8.8870   17.0467 H   0  0  0  0  0
   41.9690    6.9704   15.1221 H   0  0  0  0  0
   39.8468    8.6163   22.1267 H   0  0  0  0  0
   37.3963    8.1034   21.7136 H   0  0  0  0  0
   38.3878    6.7873   22.5852 H   0  0  0  0  0
   38.7846    4.6195   21.7615 H   0  0  0  0  0
   38.4255    4.1460   20.3372 H   0  0  0  0  0
   36.0420    3.8478   21.1968 H   0  0  0  0  0
   35.5263    6.0029   19.9766 H   0  0  0  0  0
   35.5565    6.6826   21.3559 H   0  0  0  0  0
   36.8746    3.6387   23.2879 H   0  0  0  0  0
   36.7207    5.4053   23.4509 H   0  0  0  0  0
   35.2790    4.4122   23.1250 H   0  0  0  0  0
  1  2  1  0  0  0
  2  3  4  0  0  0
  2  7  4  0  0  0
  3  4  4  0  0  0
  3  8  1  0  0  0
  4  5  4  0  0  0
  5  6  4  0  0  0
  6  7  4  0  0  0
  8  9  4  0  0  0
  8 13  4  0  0  0
  9 10  4  0  0  0
 10 11  4  0  0  0
 11 12  4  0  0  0
 11 20  4  0  0  0
 12 13  4  0  0  0
 12 14  4  0  0  0
 14 15  4  0  0  0
 14 18  4  0  0  0
 15 16  4  0  0  0
 16 17  4  0  0  0
 16 24  1  0  0  0
 17 18  4  0  0  0
 17 21  1  0  0  0
 18 19  4  0  0  0
 19 20  4  0  0  0
 21 22  1  0  0  0
 21 29  2  0  0  0
 22 23  1  0  0  0
 23 24  1  0  0  0
 24 25  1  0  0  0
 24 27  1  0  0  0
 25 26  1  0  0  0
 26 27  1  0  0  0
 26 28  1  0  0  0
  4 30  1  0  0  0
  5 31  1  0  0  0
  6 32  1  0  0  0
  7 33  1  0  0  0
 10 34  1  0  0  0
 13 35  1  0  0  0
 19 36  1  0  0  0
 20 37  1  0  0  0
 22 38  1  0  0  0
 23 39  1  0  0  0
 23 40  1  0  0  0
 25 41  1  0  0  0
 25 42  1  0  0  0
 26 43  1  0  0  0
 27 44  1  0  0  0
 27 45  1  0  0  0
 28 46  1  0  0  0
 28 47  1  0  0  0
 28 48  1  0  0  0
M  END
$$$$
