### 
### Created by X-TOOL on Mon Sep 10 21:13:03 2018
### 

@<TRIPOS>MOLECULE
3m2w_ligand
   48    53     1     0     0
SMALL
GAST_HUCK


@<TRIPOS>ATOM
      1 F1         35.6060    3.4560   14.9520 F         1 L8I        -0.1806
      2 C2         35.4680    3.8250   13.6740 C.ar      1 L8I         0.1433
      3 C3         36.3700    4.6900   13.0540 C.ar      1 L8I         0.0312
      4 C4         36.2080    5.0540   11.7280 C.ar      1 L8I        -0.0536
      5 C6         35.1280    4.5510   11.0110 C.ar      1 L8I        -0.0642
      6 C8         34.2310    3.6720   11.6260 C.ar      1 L8I        -0.0627
      7 C10        34.3920    3.3180   12.9550 C.ar      1 L8I        -0.0262
      8 C12        37.5130    5.2770   13.7690 C.ar      1 L8I         0.0546
      9 N13        38.5820    5.6040   13.0200 N.ar      1 L8I        -0.2892
     10 C14        39.6670    6.1750   13.5520 C.ar      1 L8I         0.0200
     11 C16        39.7140    6.4530   14.9180 C.ar      1 L8I         0.0109
     12 C17        38.6120    6.1180   15.7060 C.ar      1 L8I         0.0489
     13 C18        37.4800    5.5440   15.1400 C.ar      1 L8I        -0.0152
     14 C20        38.6800    6.4310   17.1550 C.ar      1 L8I         0.1240
     15 N21        37.9170    6.0220   18.1170 N.pl3     1 L8I        -0.2564
     16 C23        38.2930    6.5310   19.2680 C.2       1 L8I         0.0444
     17 C24        39.3690    7.3240   19.0810 C.2       1 L8I         0.0974
     18 C25        39.6180    7.2520   17.6360 C.ar      1 L8I         0.0544
     19 C26        40.6590    7.9360   16.8000 C.ar      1 L8I        -0.0464
     20 C29        40.9670    7.0940   15.5330 C.ar      1 L8I        -0.0501
     21 C32        40.0070    8.0830   20.1680 C.2       1 L8I         0.2240
     22 N33        39.4130    8.0790   21.3760 N.am      1 L8I        -0.2956
     23 C35        38.1820    7.3490   21.6740 C.3       1 L8I        -0.0043
     24 C38        37.7020    6.3020   20.6390 C.3       1 L8I        -0.0535
     25 C39        37.9850    4.8390   21.0540 C.3       1 L8I        -0.1515
     26 N42        36.5710    4.6780   21.4640 N.4       1 L8I         0.3838
     27 C43        36.2040    5.9810   20.8300 C.3       1 L8I        -0.1515
     28 C46        36.3460    4.5230   22.9320 C.3       1 L8I        -0.1292
     29 O50        41.0140    8.7550   19.9850 O.2       1 L8I        -0.3725
     30 H          36.9197    5.7279   11.2511 H         1 L8I         0.0620
     31 H          34.9808    4.8415    9.9708 H         1 L8I         0.0586
     32 H          33.3982    3.2621   11.0545 H         1 L8I         0.0615
     33 H          33.6797    2.6463   13.4340 H         1 L8I         0.0606
     34 H          40.5171    6.4240   12.9169 H         1 L8I         0.0858
     35 H          36.6014    5.3114   15.7417 H         1 L8I         0.0765
     36 H          37.1273    5.3876   17.9971 H         1 L8I         0.2385
     37 H          41.1310    8.8870   17.0467 H         1 L8I         0.0654
     38 H          41.9690    6.9704   15.1221 H         1 L8I         0.0582
     39 H          39.8468    8.6163   22.1267 H         1 L8I         0.1833
     40 H          37.3963    8.1034   21.7136 H         1 L8I         0.0368
     41 H          38.3878    6.7873   22.5852 H         1 L8I         0.0368
     42 H          38.7846    4.6195   21.7615 H         1 L8I        -0.0130
     43 H          38.4255    4.1460   20.3372 H         1 L8I        -0.0130
     44 H          35.5263    6.0029   19.9766 H         1 L8I        -0.0130
     45 H          35.5565    6.6826   21.3559 H         1 L8I        -0.0130
     46 H          36.8746    3.6387   23.2879 H         1 L8I        -0.0020
     47 H          36.7207    5.4053   23.4509 H         1 L8I        -0.0020
     48 H          35.2790    4.4122   23.1250 H         1 L8I        -0.0020
@<TRIPOS>BOND
     1    1    2 1  
     2    2    3 ar 
     3    2    7 ar 
     4    3    4 ar 
     5    3    8 1  
     6    4    5 ar 
     7    5    6 ar 
     8    6    7 ar 
     9    8    9 ar 
    10    8   13 ar 
    11    9   10 ar 
    12   10   11 ar 
    13   11   12 ar 
    14   11   20 ar 
    15   12   13 ar 
    16   12   14 ar 
    17   14   15 1  
    18   14   18 ar 
    19   15   16 1  
    20   16   17 2  
    21   16   24 1  
    22   17   18 1  
    23   17   21 1  
    24   18   19 ar 
    25   19   20 ar 
    26   21   22 am 
    27   21   29 2  
    28   22   23 1  
    29   23   24 1  
    30   24   25 1  
    31   24   27 1  
    32   25   26 1  
    33   26   27 1  
    34   26   28 1  
    35    4   30 1  
    36    5   31 1  
    37    6   32 1  
    38    7   33 1  
    39   10   34 1  
    40   13   35 1  
    41   15   36 1  
    42   19   37 1  
    43   20   38 1  
    44   22   39 1  
    45   23   40 1  
    46   23   41 1  
    47   25   42 1  
    48   25   43 1  
    49   27   44 1  
    50   27   45 1  
    51   28   46 1  
    52   28   47 1  
    53   28   48 1  
@<TRIPOS>SUBSTRUCTURE
     1 L8I         1

