### 
### Created by X-TOOL on Sun Sep  9 21:51:40 2018
### 

@<TRIPOS>MOLECULE
3rtx_ligand
  193   198     1     0     0
SMALL
GAST_HUCK


@<TRIPOS>ATOM
      1 N         -10.1640   37.6670  -41.0870 N.4       1 NON         0.2398
      2 CA         -9.1390   36.9550  -41.9010 C.3       1 NON         0.0934
      3 CB         -9.6160   36.7920  -43.3460 C.3       1 NON         0.1380
      4 OG        -10.3550   37.6180  -43.8730 O.3       1 NON        -0.2680
      5 C          -7.7860   37.6650  -41.8670 C.2       1 NON         0.2318
      6 O          -7.6440   38.7830  -42.3660 O.2       1 NON        -0.3904
      7 P          -9.8890   38.5200  -45.1550 P.3       1 NON         0.2012
      8 O1P        -9.0280   39.6340  -44.6310 O.co2     1 NON        -0.5537
      9 O2P        -8.9800   37.7790  -46.0670 O.co2     1 NON        -0.5537
     10 O3P       -11.1210   38.8080  -45.9270 O.co2     1 NON        -0.5537
     11 N          -6.7720   37.0230  -41.2640 N.am      1 NON        -0.2471
     12 CA         -5.4230   37.5900  -41.1620 C.3       1 NON         0.1339
     13 C          -4.6140   37.3750  -42.4400 C.2       1 NON         0.2042
     14 O          -4.5210   36.2540  -42.9380 O.2       1 NON        -0.3944
     15 CB         -4.8340   36.8370  -39.9770 C.3       1 NON        -0.0104
     16 CG         -5.4240   35.4710  -40.1540 C.3       1 NON        -0.0281
     17 CD         -6.8750   35.7760  -40.4820 C.3       1 NON         0.0371
     18 N          -4.0300   38.4480  -42.9660 N.am      1 NON        -0.2616
     19 CA         -3.2330   38.3580  -44.1860 C.3       1 NON         0.1539
     20 C          -2.0170   37.4660  -43.9600 C.2       1 NON         0.2063
     21 O          -1.7310   37.0600  -42.8290 O.2       1 NON        -0.3943
     22 CB         -2.7680   39.7490  -44.6290 C.3       1 NON         0.0843
     23 OG         -1.8450   40.3010  -43.7040 O.3       1 NON        -0.3903
     24 N          -1.3020   37.1620  -45.0380 N.am      1 NON        -0.2621
     25 CA         -0.1260   36.3200  -44.9340 C.3       1 NON         0.1390
     26 C           1.1540   37.1340  -45.0480 C.2       1 NON         0.2058
     27 O           1.7880   37.1920  -46.0990 O.2       1 NON        -0.3942
     28 CB         -0.1850   35.2140  -45.9890 C.3       1 NON         0.0163
     29 CG         -1.4100   34.3440  -45.8160 C.ar      1 NON        -0.0493
     30 CD1        -2.5450   34.5400  -46.6010 C.ar      1 NON        -0.0685
     31 CD2        -1.4750   33.3980  -44.7910 C.ar      1 NON        -0.0685
     32 CE1        -3.7170   33.8240  -46.3660 C.ar      1 NON        -0.0398
     33 CE2        -2.6380   32.6790  -44.5440 C.ar      1 NON        -0.0398
     34 CZ         -3.7580   32.8980  -45.3330 C.ar      1 NON         0.0805
     35 OH         -4.9270   32.2100  -45.0780 O.3       1 NON        -0.3376
     36 N           1.5130   37.7650  -43.9330 N.am      1 NON        -0.2611
     37 CA          2.7070   38.5940  -43.8260 C.3       1 NON         0.1588
     38 CB          2.3070   40.0370  -43.5140 C.3       1 NON         0.1184
     39 OG          3.1470   40.8930  -43.2740 O.3       1 NON        -0.2714
     40 C           3.6030   38.0480  -42.7100 C.2       1 NON         0.2090
     41 O           3.1190   37.6490  -41.6500 O.2       1 NON        -0.3941
     42 P           3.4780   42.1010  -44.3190 P.3       1 NON         0.2010
     43 O1P         2.2900   43.0220  -44.3210 O.co2     1 NON        -0.5537
     44 O2P         4.5930   42.9610  -43.8440 O.co2     1 NON        -0.5537
     45 O3P         3.9440   41.4540  -45.5690 O.co2     1 NON        -0.5537
     46 N           4.9260   38.0340  -42.9310 N.am      1 NON        -0.2498
     47 CA          5.8860   37.5310  -41.9430 C.3       1 NON         0.1338
     48 C           5.9650   38.3010  -40.6230 C.2       1 NON         0.2042
     49 O           6.7280   37.9250  -39.7320 O.2       1 NON        -0.3944
     50 CB          7.2060   37.5610  -42.7070 C.3       1 NON        -0.0104
     51 CG          7.0300   38.7370  -43.6140 C.3       1 NON        -0.0281
     52 CD          5.6240   38.5340  -44.1280 C.3       1 NON         0.0369
     53 N           5.1810   39.3670  -40.4910 N.am      1 NON        -0.2613
     54 CA          5.1990   40.1710  -39.2680 C.3       1 NON         0.1565
     55 C           4.5400   39.4700  -38.0820 C.2       1 NON         0.2065
     56 O           3.5790   38.7220  -38.2480 O.2       1 NON        -0.3943
     57 CB          4.4970   41.5220  -39.4760 C.3       1 NON         0.0924
     58 OG1         3.1490   41.2960  -39.9070 O.3       1 NON        -0.3874
     59 CG2         5.2330   42.3470  -40.5190 C.3       1 NON        -0.0346
     60 N           5.0650   39.7260  -36.8870 N.am      1 NON        -0.2612
     61 CA          4.5370   39.1290  -35.6650 C.3       1 NON         0.1588
     62 CB          5.1370   39.8040  -34.4350 C.3       1 NON         0.1184
     63 OG          5.8770   39.1930  -33.6770 O.3       1 NON        -0.2714
     64 C           3.0180   39.2290  -35.6190 C.2       1 NON         0.2090
     65 O           2.4470   40.2720  -35.9330 O.2       1 NON        -0.3941
     66 P           7.4610   39.5480  -33.5370 P.3       1 NON         0.2010
     67 O1P         7.6360   40.9890  -33.9180 O.co2     1 NON        -0.5537
     68 O2P         7.9190   39.5060  -32.1290 O.co2     1 NON        -0.5537
     69 O3P         8.1870   38.4750  -34.2530 O.co2     1 NON        -0.5537
     70 N           2.3460   38.1390  -35.2150 N.am      1 NON        -0.2498
     71 CA          0.8840   38.0770  -35.1220 C.3       1 NON         0.1338
     72 C           0.3100   38.9610  -34.0210 C.2       1 NON         0.2042
     73 O           0.9390   39.1630  -32.9810 O.2       1 NON        -0.3944
     74 CB          0.6270   36.6000  -34.8630 C.3       1 NON        -0.0104
     75 CG          1.7990   36.2260  -34.0030 C.3       1 NON        -0.0281
     76 CD          2.9510   36.8830  -34.7350 C.3       1 NON         0.0369
     77 N          -0.8880   39.4840  -34.2610 N.am      1 NON        -0.2616
     78 CA         -1.5610   40.3410  -33.2920 C.3       1 NON         0.1539
     79 C          -2.5720   39.5220  -32.5030 C.2       1 NON         0.2063
     80 O          -3.6040   39.1060  -33.0340 O.2       1 NON        -0.3943
     81 CB         -2.2740   41.4970  -33.9980 C.3       1 NON         0.0843
     82 OG         -2.9160   42.3400  -33.0590 O.3       1 NON        -0.3903
     83 N          -2.2630   39.2900  -31.2320 N.am      1 NON        -0.2621
     84 CA         -3.1340   38.5190  -30.3640 C.3       1 NON         0.1390
     85 C          -4.2900   39.3850  -29.8860 C.2       1 NON         0.2058
     86 O          -4.5180   39.5390  -28.6880 O.2       1 NON        -0.3942
     87 CB         -2.3220   37.9750  -29.1870 C.3       1 NON         0.0163
     88 CG         -1.1900   37.0740  -29.6330 C.ar      1 NON        -0.0493
     89 CD1         0.1220   37.3040  -29.2170 C.ar      1 NON        -0.0685
     90 CD2        -1.4260   36.0110  -30.5040 C.ar      1 NON        -0.0685
     91 CE1         1.1720   36.4990  -29.6620 C.ar      1 NON        -0.0398
     92 CE2        -0.3880   35.2020  -30.9530 C.ar      1 NON        -0.0398
     93 CZ          0.9080   35.4510  -30.5310 C.ar      1 NON         0.0805
     94 OH          1.9350   34.6550  -30.9910 O.3       1 NON        -0.3376
     95 N          -5.0140   39.9510  -30.8490 N.am      1 NON        -0.2611
     96 CA         -6.1620   40.8090  -30.5750 C.3       1 NON         0.1587
     97 CB         -5.7000   42.1840  -30.0810 C.3       1 NON         0.1184
     98 OG         -4.8690   42.8440  -30.7030 O.3       1 NON        -0.2714
     99 C          -7.0080   40.9670  -31.8390 C.2       1 NON         0.2085
    100 O          -6.4800   41.2460  -32.9180 O.2       1 NON        -0.3941
    101 P          -5.0530   44.4420  -31.0100 P.3       1 NON         0.2010
    102 O1P        -5.7380   44.5640  -32.3420 O.co2     1 NON        -0.5537
    103 O2P        -6.0020   45.0950  -30.0710 O.co2     1 NON        -0.5537
    104 O3P        -3.7270   45.0640  -30.7750 O.co2     1 NON        -0.5537
    105 N          -8.3350   40.7810  -31.7230 N.am      1 NON        -0.2555
    106 CA         -9.2370   40.9100  -32.8710 C.3       1 NON         0.0972
    107 C          -9.6080   42.3670  -33.1480 C.2       1 NON         0.0603
    108 O          -9.0360   42.9340  -34.1040 O.co2     1 NON        -0.5666
    109 CB        -10.4390   40.0770  -32.4470 C.3       1 NON        -0.0159
    110 CG        -10.5190   40.3750  -30.9880 C.3       1 NON        -0.0288
    111 CD         -9.0650   40.2800  -30.5430 C.3       1 NON         0.0362
    112 H         -11.0482   37.1609  -41.1375 H         1 NON         0.2016
    113 H          -9.8530   37.7145  -40.1167 H         1 NON         0.2016
    114 H         -10.2900   38.6113  -41.4515 H         1 NON         0.2016
    115 H          -9.0041   35.9684  -41.4576 H         1 NON         0.1125
    116 H         -10.2167   35.8828  -43.3214 H         1 NON         0.0696
    117 H          -8.6987   36.8515  -43.9317 H         1 NON         0.0696
    118 H          -5.4196   38.6716  -41.0268 H         1 NON         0.0802
    119 H          -5.0731   37.2899  -39.0148 H         1 NON         0.0313
    120 H          -3.7441   36.8387  -39.9621 H         1 NON         0.0313
    121 H          -5.3102   34.8405  -39.2722 H         1 NON         0.0287
    122 H          -4.9255   34.8890  -40.9291 H         1 NON         0.0287
    123 H          -7.3675   34.9705  -41.0267 H         1 NON         0.0524
    124 H          -7.5001   35.8792  -39.5950 H         1 NON         0.0524
    125 H          -4.1412   39.3524  -42.5076 H         1 NON         0.1884
    126 H          -3.8575   37.9253  -44.9676 H         1 NON         0.0823
    127 H          -3.6372   40.4043  -44.6858 H         1 NON         0.0606
    128 H          -2.2772   39.6592  -45.5981 H         1 NON         0.0606
    129 H          -1.5716   41.1701  -44.0064 H         1 NON         0.2097
    130 H          -1.5835   37.5249  -45.9487 H         1 NON         0.1885
    131 H          -0.1164   35.8567  -43.9474 H         1 NON         0.0821
    132 H           0.7003   34.5874  -45.8808 H         1 NON         0.0453
    133 H          -0.2295   35.6794  -46.9736 H         1 NON         0.0453
    134 H          -2.5152   35.2663  -47.4132 H         1 NON         0.0530
    135 H          -0.5956   33.2200  -44.1721 H         1 NON         0.0530
    136 H          -4.5957   33.9900  -46.9892 H         1 NON         0.0525
    137 H          -2.6702   31.9480  -43.7361 H         1 NON         0.0525
    138 H          -5.5984   32.4767  -45.7103 H         1 NON         0.2458
    139 H           0.9208   37.6631  -43.1088 H         1 NON         0.1884
    140 H           3.2517   38.5740  -44.7699 H         1 NON         0.0827
    141 H           1.7430   39.9566  -42.5847 H         1 NON         0.0662
    142 H           1.8373   40.3828  -44.4348 H         1 NON         0.0662
    143 H           5.5872   36.5448  -41.5877 H         1 NON         0.0802
    144 H           7.4090   36.6346  -43.2443 H         1 NON         0.0313
    145 H           8.0745   37.6517  -42.0546 H         1 NON         0.0313
    146 H           7.7758   38.7840  -44.4075 H         1 NON         0.0287
    147 H           7.1704   39.6936  -43.1107 H         1 NON         0.0287
    148 H           5.1802   39.4414  -44.5375 H         1 NON         0.0524
    149 H           5.5699   37.8501  -44.9750 H         1 NON         0.0524
    150 H           4.5571   39.6286  -41.2543 H         1 NON         0.1884
    151 H           6.2542   40.3223  -39.0404 H         1 NON         0.0826
    152 H           4.4965   42.0690  -38.5332 H         1 NON         0.0639
    153 H           2.6810   40.7903  -39.2385 H         1 NON         0.2101
    154 H           6.2550   42.5253  -40.1845 H         1 NON         0.0257
    155 H           5.2482   41.8050  -41.4646 H         1 NON         0.0257
    156 H           4.7218   43.3003  -40.6533 H         1 NON         0.0257
    157 H           5.8618   40.3596  -36.8229 H         1 NON         0.1884
    158 H           4.8154   38.0751  -35.6635 H         1 NON         0.0827
    159 H           4.2711   40.0469  -33.8190 H         1 NON         0.0662
    160 H           5.7719   40.5879  -34.8480 H         1 NON         0.0662
    161 H           0.3949   38.4545  -36.0200 H         1 NON         0.0802
    162 H           0.5543   36.0078  -35.7752 H         1 NON         0.0313
    163 H          -0.3355   36.4056  -34.3897 H         1 NON         0.0313
    164 H           1.9211   35.1493  -33.8850 H         1 NON         0.0287
    165 H           1.6991   36.5584  -32.9697 H         1 NON         0.0287
    166 H           3.8243   37.0429  -34.1027 H         1 NON         0.0524
    167 H           3.3539   36.2673  -35.5392 H         1 NON         0.0524
    168 H          -1.3494   39.2803  -35.1475 H         1 NON         0.1884
    169 H          -0.8145   40.7549  -32.6141 H         1 NON         0.0823
    170 H          -3.0249   41.0869  -34.6733 H         1 NON         0.0606
    171 H          -1.5365   42.0812  -34.5483 H         1 NON         0.0606
    172 H          -3.5635   41.8319  -32.5647 H         1 NON         0.2097
    173 H          -1.3912   39.6633  -30.8565 H         1 NON         0.1885
    174 H          -3.5538   37.6763  -30.9132 H         1 NON         0.0821
    175 H          -2.9917   37.3884  -28.5582 H         1 NON         0.0453
    176 H          -1.8887   38.8227  -28.6562 H         1 NON         0.0453
    177 H           0.3305   38.1265  -28.5328 H         1 NON         0.0530
    178 H          -2.4436   35.8104  -30.8393 H         1 NON         0.0530
    179 H           2.1917   36.6927  -29.3290 H         1 NON         0.0525
    180 H          -0.5929   34.3758  -31.6338 H         1 NON         0.0525
    181 H           2.7644   34.9528  -30.6102 H         1 NON         0.2458
    182 H          -4.7552   39.7775  -31.8202 H         1 NON         0.1884
    183 H          -6.7650   40.3440  -29.7951 H         1 NON         0.0827
    184 H          -5.2051   41.9678  -29.1342 H         1 NON         0.0662
    185 H          -6.6026   42.7934  -30.1252 H         1 NON         0.0662
    186 H          -8.7938   40.5718  -33.8076 H         1 NON         0.0728
    187 O         -10.4568   42.9725  -32.4406 O.co2     1 NON        -0.5666
    188 H         -10.3291   39.0150  -32.6667 H         1 NON         0.0306
    189 H         -11.3509   40.3248  -32.9902 H         1 NON         0.0306
    190 H         -11.1727   39.6883  -30.4502 H         1 NON         0.0286
    191 H         -10.9640   41.3475  -30.7777 H         1 NON         0.0286
    192 H          -8.8575   40.8520  -29.6386 H         1 NON         0.0524
    193 H          -8.7716   39.2699  -30.2572 H         1 NON         0.0524
@<TRIPOS>BOND
     1    1    2 1  
     2    2    3 1  
     3    2    5 1  
     4    3    4 1  
     5    4    7 1  
     6    5    6 2  
     7    5   11 am 
     8    7    8 ar 
     9    7    9 ar 
    10    7   10 ar 
    11   11   12 1  
    12   11   17 1  
    13   12   13 1  
    14   12   15 1  
    15   13   14 2  
    16   13   18 am 
    17   15   16 1  
    18   16   17 1  
    19   18   19 1  
    20   19   20 1  
    21   19   22 1  
    22   20   21 2  
    23   20   24 am 
    24   22   23 1  
    25   24   25 1  
    26   25   26 1  
    27   25   28 1  
    28   26   27 2  
    29   26   36 am 
    30   28   29 1  
    31   29   30 ar 
    32   29   31 ar 
    33   30   32 ar 
    34   31   33 ar 
    35   32   34 ar 
    36   33   34 ar 
    37   34   35 1  
    38   36   37 1  
    39   37   38 1  
    40   37   40 1  
    41   38   39 1  
    42   39   42 1  
    43   40   41 2  
    44   40   46 am 
    45   42   43 ar 
    46   42   44 ar 
    47   42   45 ar 
    48   46   47 1  
    49   46   52 1  
    50   47   48 1  
    51   47   50 1  
    52   48   49 2  
    53   48   53 am 
    54   50   51 1  
    55   51   52 1  
    56   53   54 1  
    57   54   55 1  
    58   54   57 1  
    59   55   56 2  
    60   55   60 am 
    61   57   58 1  
    62   57   59 1  
    63   60   61 1  
    64   61   62 1  
    65   61   64 1  
    66   62   63 1  
    67   63   66 1  
    68   64   65 2  
    69   64   70 am 
    70   66   67 ar 
    71   66   68 ar 
    72   66   69 ar 
    73   70   71 1  
    74   70   76 1  
    75   71   72 1  
    76   71   74 1  
    77   72   73 2  
    78   72   77 am 
    79   74   75 1  
    80   75   76 1  
    81   77   78 1  
    82   78   79 1  
    83   78   81 1  
    84   79   80 2  
    85   79   83 am 
    86   81   82 1  
    87   83   84 1  
    88   84   85 1  
    89   84   87 1  
    90   85   86 2  
    91   85   95 am 
    92   87   88 1  
    93   88   89 ar 
    94   88   90 ar 
    95   89   91 ar 
    96   90   92 ar 
    97   91   93 ar 
    98   92   93 ar 
    99   93   94 1  
   100   95   96 1  
   101   96   97 1  
   102   96   99 1  
   103   97   98 1  
   104   98  101 1  
   105   99  100 2  
   106   99  105 am 
   107  101  102 ar 
   108  101  103 ar 
   109  101  104 ar 
   110  105  106 1  
   111  105  111 1  
   112  106  107 1  
   113  106  109 1  
   114  107  108 ar 
   115  109  110 1  
   116  110  111 1  
   117    1  112 1  
   118    1  113 1  
   119    1  114 1  
   120    2  115 1  
   121    3  116 1  
   122    3  117 1  
   123   12  118 1  
   124   15  119 1  
   125   15  120 1  
   126   16  121 1  
   127   16  122 1  
   128   17  123 1  
   129   17  124 1  
   130   18  125 1  
   131   19  126 1  
   132   22  127 1  
   133   22  128 1  
   134   23  129 1  
   135   24  130 1  
   136   25  131 1  
   137   28  132 1  
   138   28  133 1  
   139   30  134 1  
   140   31  135 1  
   141   32  136 1  
   142   33  137 1  
   143   35  138 1  
   144   36  139 1  
   145   37  140 1  
   146   38  141 1  
   147   38  142 1  
   148   47  143 1  
   149   50  144 1  
   150   50  145 1  
   151   51  146 1  
   152   51  147 1  
   153   52  148 1  
   154   52  149 1  
   155   53  150 1  
   156   54  151 1  
   157   57  152 1  
   158   58  153 1  
   159   59  154 1  
   160   59  155 1  
   161   59  156 1  
   162   60  157 1  
   163   61  158 1  
   164   62  159 1  
   165   62  160 1  
   166   71  161 1  
   167   74  162 1  
   168   74  163 1  
   169   75  164 1  
   170   75  165 1  
   171   76  166 1  
   172   76  167 1  
   173   77  168 1  
   174   78  169 1  
   175   81  170 1  
   176   81  171 1  
   177   82  172 1  
   178   83  173 1  
   179   84  174 1  
   180   87  175 1  
   181   87  176 1  
   182   89  177 1  
   183   90  178 1  
   184   91  179 1  
   185   92  180 1  
   186   94  181 1  
   187   95  182 1  
   188   96  183 1  
   189   97  184 1  
   190   97  185 1  
   191  106  186 1  
   192  107  187 ar 
   193  109  188 1  
   194  109  189 1  
   195  110  190 1  
   196  110  191 1  
   197  111  192 1  
   198  111  193 1  
@<TRIPOS>SUBSTRUCTURE
     1 NON         1

