5zjz_ligand
  -I-interpret- 

269273  0  0  0  0  0  0  0  0999 V2000
  -18.4380  -29.7620   28.5190 C   0  0  0  0  0
  -18.2910  -29.9350   27.3200 O   0  0  0  0  0
  -19.4970  -28.7830   28.9970 C   0  0  0  0  0
  -17.6740  -30.4570   29.3770 N   0  0  0  0  0
  -17.7920  -30.4320   30.8280 C   0  0  0  0  0
  -17.0800  -29.2420   31.4880 C   0  0  0  0  0
  -17.6430  -28.6420   32.4010 O   0  0  0  0  0
  -17.3900  -31.7920   31.4620 C   0  0  0  0  0
  -15.9030  -32.1190   31.6300 C   0  0  0  0  0
  -15.2400  -32.5490   30.3290 C   0  0  0  0  0
  -13.9070  -33.2420   30.5540 C   0  0  0  0  0
  -13.2650  -33.5670   29.2510 N   0  3  0  0  0
  -15.8830  -28.8680   31.0200 N   0  0  0  0  0
  -15.1410  -27.7630   31.6490 C   0  0  0  0  0
  -15.6010  -26.3920   31.1560 C   0  0  0  0  0
  -15.2110  -25.9450   30.0750 O   0  0  0  0  0
  -13.6240  -27.9170   31.4600 C   0  0  0  0  0
  -13.0220  -29.1720   32.0810 C   0  0  0  0  0
  -13.0670  -29.1480   33.6050 C   0  0  0  0  0
  -12.9140  -30.5410   34.1950 C   0  0  0  0  0
  -13.3200  -30.5620   35.6290 N   0  3  0  0  0
  -16.4410  -25.7420   31.9600 N   0  0  0  0  0
  -16.8680  -24.3690   31.7240 C   0  0  0  0  0
  -16.4850  -23.5270   32.9360 C   0  0  0  0  0
  -16.6660  -23.9560   34.0780 O   0  0  0  0  0
  -18.3740  -24.2930   31.4750 C   0  0  0  0  0
  -18.8610  -25.0740   30.2590 C   0  0  0  0  0
  -20.3630  -25.3440   30.3310 C   0  0  0  0  0
  -21.1650  -24.1270   30.1660 N   0  0  0  0  0
  -22.4510  -23.9820   30.5100 C   0  0  0  0  0
  -23.1380  -24.9750   31.0820 N   0  0  0  0  0
  -23.0600  -22.8120   30.2930 N   0  0  0  0  0
  -15.9450  -22.3400   32.6790 N   0  0  0  0  0
  -15.5960  -21.3890   33.7240 C   0  0  0  0  0
  -16.2930  -20.0650   33.4770 C   0  0  0  0  0
  -16.2880  -19.5500   32.3440 O   0  0  0  0  0
  -14.0750  -21.1600   33.7710 C   0  0  0  0  0
  -13.2870  -22.4080   34.0840 C   0  0  0  0  0
  -13.0520  -22.7950   35.4070 C   0  0  0  0  0
  -12.7850  -23.2170   33.0670 C   0  0  0  0  0
  -12.3280  -23.9410   35.7020 C   0  0  0  0  0
  -12.0700  -24.3710   33.3550 C   0  0  0  0  0
  -11.8380  -24.7270   34.6760 C   0  0  0  0  0
  -11.1180  -25.8710   34.9660 O   0  0  0  0  0
  -16.8740  -19.5010   34.5350 N   0  0  0  0  0
  -17.3840  -18.1330   34.4850 C   0  0  0  0  0
  -16.2210  -17.1530   34.3920 C   0  0  0  0  0
  -15.0830  -17.4840   34.7450 O   0  0  0  0  0
  -18.2130  -17.8060   35.7290 C   0  0  0  0  0
  -17.3920  -17.7800   36.8890 O   0  0  0  0  0
  -16.5300  -15.9480   33.9320 N   0  0  0  0  0
  -15.6030  -14.8160   33.9480 C   0  0  0  0  0
  -14.9580  -14.5980   35.3220 C   0  0  0  0  0
  -13.7410  -14.4320   35.4140 O   0  0  0  0  0
  -16.3450  -13.5480   33.5370 C   0  0  0  0  0
  -15.4750  -12.3210   33.4400 C   0  0  0  0  0
  -16.2890  -11.1290   32.9940 C   0  0  0  0  0
  -15.4780   -9.9230   33.0320 N   0  0  0  0  0
  -15.2350   -9.1870   34.1160 C   0  0  0  0  0
  -14.4680   -8.1100   34.0040 N   0  0  0  0  0
  -15.7340   -9.5060   35.3090 N   0  0  0  0  0
  -14.3960  -15.4200   38.1400 C   0  0  0  0  0
  -15.8180  -14.5800   36.3540 N   0  0  0  0  0
  -13.3510  -15.0470   38.6480 O   0  0  0  0  0
  -15.4590  -14.4020   37.7650 C   0  0  0  0  0
  -16.6860  -14.6250   38.6640 C   0  0  0  0  0
  -15.9620  -15.8380   40.8700 C   0  0  0  0  0
  -15.6760  -15.5420   42.3320 C   0  0  0  0  0
  -16.4250  -14.5510   40.1820 C   0  0  0  0  0
  -14.9730  -12.9530   37.9430 C   0  0  0  0  0
  -14.6700  -16.6430   37.9190 N   0  0  0  0  0
  -13.7780  -17.7630   38.2250 C   0  0  0  0  0
  -12.4030  -17.5970   37.5830 C   0  0  0  0  0
  -11.3810  -17.7930   38.2390 O   0  0  0  0  0
  -14.4080  -19.0420   37.6790 C   0  0  0  0  0
  -15.4380  -19.7050   38.5690 C   0  0  0  0  0
  -15.8940  -21.0370   37.9910 C   0  0  0  0  0
  -16.5640  -21.0830   36.9520 O   0  0  0  0  0
  -15.5200  -22.1260   38.6490 N   0  0  0  0  0
  -12.3870  -17.2480   36.2980 N   0  0  0  0  0
  -11.1090  -17.0780   35.5870 C   0  0  0  0  0
  -10.2650  -15.9610   36.1900 C   0  0  0  0  0
   -9.0590  -16.1290   36.3820 O   0  0  0  0  0
  -11.3430  -16.8570   34.0800 C   0  0  0  0  0
  -11.9460  -18.0610   33.3450 C   0  0  0  0  0
  -12.3630  -17.6610   31.9360 C   0  0  0  0  0
  -10.9690  -19.2290   33.2990 C   0  0  0  0  0
  -10.8950  -14.8350   36.5210 N   0  0  0  0  0
  -10.1780  -13.7050   37.1140 C   0  0  0  0  0
   -9.6270  -14.0270   38.5100 C   0  0  0  0  0
   -8.4950  -13.6480   38.8110 O   0  0  0  0  0
  -11.0490  -12.4440   37.1250 C   0  0  0  0  0
  -11.3960  -11.8780   35.7430 C   0  0  0  0  0
  -12.3560  -10.7030   35.8810 C   0  0  0  0  0
  -10.1540  -11.4470   34.9660 C   0  0  0  0  0
   -8.7120  -16.0360   40.5580 C   0  0  0  0  0
  -10.3960  -14.7610   39.3340 N   0  0  0  0  0
   -7.8010  -15.8800   41.3740 O   0  0  0  0  0
   -9.9850  -15.2020   40.6760 C   0  0  0  0  0
  -11.0310  -16.1160   41.3360 C   0  0  0  0  0
  -13.3080  -16.4380   42.3600 C   0  0  0  0  0
  -14.5320  -15.7900   42.9750 C   0  0  0  0  0
  -12.3020  -15.4090   41.8430 C   0  0  0  0  0
   -9.7310  -13.9920   41.5820 C   0  0  0  0  0
   -8.6520  -16.8900   39.6090 N   0  0  0  0  0
   -7.4880  -17.7720   39.3960 C   0  0  0  0  0
   -6.2050  -17.0700   38.9260 C   0  0  0  0  0
   -5.1330  -17.6720   38.9870 O   0  0  0  0  0
   -7.8550  -18.8820   38.3910 C   0  0  0  0  0
   -8.8070  -19.9400   38.9230 C   0  0  0  0  0
   -8.7480  -20.3980   40.2490 C   0  0  0  0  0
   -9.7340  -20.5310   38.0670 C   0  0  0  0  0
   -9.6200  -21.3850   40.7040 C   0  0  0  0  0
  -10.6020  -21.5170   38.5180 C   0  0  0  0  0
  -10.5490  -21.9390   39.8380 C   0  0  0  0  0
   -6.3220  -15.8300   38.4570 N   0  0  0  0  0
   -5.1890  -14.9610   38.1130 C   0  0  0  0  0
   -4.3820  -14.6560   39.3740 C   0  0  0  0  0
   -3.1640  -14.5370   39.3280 O   0  0  0  0  0
   -5.7220  -13.6530   37.5010 C   0  0  0  0  0
   -4.7680  -12.8130   36.6860 C   0  0  0  0  0
   -3.4320  -13.0030   36.5130 C   0  0  0  0  0
   -5.1020  -11.6240   35.9530 C   0  0  0  0  0
   -2.9100  -12.0180   35.7110 N   0  0  0  0  0
   -3.9140  -11.1600   35.3460 C   0  0  0  0  0
   -6.2980  -10.9110   35.7420 C   0  0  0  0  0
   -3.8790  -10.0110   34.5410 C   0  0  0  0  0
   -6.2670   -9.7730   34.9350 C   0  0  0  0  0
   -5.0610   -9.3360   34.3430 C   0  0  0  0  0
   -5.1070  -14.5500   40.6000 N   0  0  0  0  0
  -19.2780  -27.7912   28.6015 H   0  0  0  0  0
  -20.4759  -29.1080   28.6447 H   0  0  0  0  0
  -19.4941  -28.7499   30.0865 H   0  0  0  0  0
  -16.9490  -31.0534   28.9782 H   0  0  0  0  0
  -18.8504  -30.2768   31.0371 H   0  0  0  0  0
  -17.7685  -32.5470   30.7730 H   0  0  0  0  0
  -17.7876  -31.7586   32.4764 H   0  0  0  0  0
  -15.8218  -32.9469   32.3344 H   0  0  0  0  0
  -15.4008  -31.2159   31.9768 H   0  0  0  0  0
  -15.0567  -31.6542   29.7342 H   0  0  0  0  0
  -15.9050  -33.2545   29.8308 H   0  0  0  0  0
  -14.0760  -34.1660   31.1069 H   0  0  0  0  0
  -13.2517  -32.5772   31.1167 H   0  0  0  0  0
  -12.3725  -34.0311   29.4195 H   0  0  0  0  0
  -13.8758  -34.1855   28.7173 H   0  0  0  0  0
  -13.1084  -32.7063   28.7265 H   0  0  0  0  0
  -15.4805  -29.3540   30.2186 H   0  0  0  0  0
  -15.3634  -27.8198   32.7146 H   0  0  0  0  0
  -13.1570  -27.0656   31.9552 H   0  0  0  0  0
  -13.4453  -27.9801   30.3866 H   0  0  0  0  0
  -11.9771  -29.2303   31.7761 H   0  0  0  0  0
  -13.6042  -30.0283   31.7406 H   0  0  0  0  0
  -14.0333  -28.7489   33.9135 H   0  0  0  0  0
  -12.2426  -28.5313   33.9629 H   0  0  0  0  0
  -11.8676  -30.8377   34.1237 H   0  0  0  0  0
  -13.5538  -31.2275   33.6406 H   0  0  0  0  0
  -13.2078  -31.5058   35.9991 H   0  0  0  0  0
  -12.7326  -29.9165   36.1569 H   0  0  0  0  0
  -14.2964  -30.2780   35.7089 H   0  0  0  0  0
  -16.8026  -26.2288   32.7802 H   0  0  0  0  0
  -16.3723  -23.9866   30.8318 H   0  0  0  0  0
  -18.6125  -23.2449   31.2944 H   0  0  0  0  0
  -18.8615  -24.7287   32.3471 H   0  0  0  0  0
  -18.3394  -26.0307   30.2318 H   0  0  0  0  0
  -18.6591  -24.4829   29.3657 H   0  0  0  0  0
  -20.5819  -25.7584   31.3151 H   0  0  0  0  0
  -20.6197  -26.0266   29.5209 H   0  0  0  0  0
  -20.7014  -23.3183   29.7519 H   0  0  0  0  0
  -22.6836  -25.8694   31.2663 H   0  0  0  0  0
  -24.0356  -22.6870   30.5632 H   0  0  0  0  0
  -22.5491  -22.0442   29.8573 H   0  0  0  0  0
  -15.7675  -22.0846   31.7076 H   0  0  0  0  0
  -15.9205  -21.8027   34.6788 H   0  0  0  0  0
  -13.8768  -20.4400   34.5650 H   0  0  0  0  0
  -13.7651  -20.8162   32.7842 H   0  0  0  0  0
  -13.4446  -22.1855   36.2209 H   0  0  0  0  0
  -12.9568  -22.9388   32.0272 H   0  0  0  0  0
  -12.1461  -24.2207   36.7397 H   0  0  0  0  0
  -11.6918  -24.9959   32.5460 H   0  0  0  0  0
  -10.8533  -26.2972   34.1475 H   0  0  0  0  0
  -16.9647  -20.0360   35.3987 H   0  0  0  0  0
  -18.0222  -18.0440   33.6059 H   0  0  0  0  0
  -18.9761  -18.5741   35.8552 H   0  0  0  0  0
  -18.6700  -16.8250   35.5994 H   0  0  0  0  0
  -17.9307  -17.5735   37.6563 H   0  0  0  0  0
  -17.4632  -15.8027   33.5467 H   0  0  0  0  0
  -14.8031  -15.0444   33.2437 H   0  0  0  0  0
  -17.0915  -13.3507   34.3064 H   0  0  0  0  0
  -16.7578  -13.7266   32.5441 H   0  0  0  0  0
  -14.6855  -12.5034   32.7109 H   0  0  0  0  0
  -15.0480  -12.1113   34.4207 H   0  0  0  0  0
  -17.1398  -11.0075   33.6645 H   0  0  0  0  0
  -16.6336  -11.2946   31.9732 H   0  0  0  0  0
  -15.0595   -9.6140   32.1546 H   0  0  0  0  0
  -14.0742   -7.8563   33.0979 H   0  0  0  0  0
  -15.5249   -8.9253   36.1211 H   0  0  0  0  0
  -16.3252  -10.3310   35.4105 H   0  0  0  0  0
  -16.8074  -14.7007   36.1373 H   0  0  0  0  0
  -17.0382  -15.6362   38.4603 H   0  0  0  0  0
  -17.3882  -13.8242   38.4321 H   0  0  0  0  0
  -16.7415  -16.5961   40.7942 H   0  0  0  0  0
  -15.0582  -16.2085   40.3864 H   0  0  0  0  0
  -16.4790  -15.0847   42.9101 H   0  0  0  0  0
  -17.3826  -14.2977   40.6370 H   0  0  0  0  0
  -15.6126  -13.8357   40.3102 H   0  0  0  0  0
  -14.7010  -12.7878   38.9855 H   0  0  0  0  0
  -14.1037  -12.7821   37.3080 H   0  0  0  0  0
  -15.7711  -12.2662   37.6612 H   0  0  0  0  0
  -15.5744  -16.8580   37.4993 H   0  0  0  0  0
  -13.6453  -17.8024   39.3062 H   0  0  0  0  0
  -13.5953  -19.7591   37.5636 H   0  0  0  0  0
  -14.9290  -18.7607   36.7638 H   0  0  0  0  0
  -16.3033  -19.0468   38.6478 H   0  0  0  0  0
  -14.9876  -19.8865   39.5449 H   0  0  0  0  0
  -15.7847  -23.0478   38.3017 H   0  0  0  0  0
  -14.9676  -22.0418   39.5023 H   0  0  0  0  0
  -13.2660  -17.0974   35.8030 H   0  0  0  0  0
  -10.5430  -18.0016   35.7077 H   0  0  0  0  0
  -10.3684  -16.6653   33.6311 H   0  0  0  0  0
  -12.0547  -16.0369   33.9851 H   0  0  0  0  0
  -12.8276  -18.3865   33.8971 H   0  0  0  0  0
  -13.1067  -16.8660   31.9905 H   0  0  0  0  0
  -11.4905  -17.3070   31.3869 H   0  0  0  0  0
  -12.7893  -18.5247   31.4256 H   0  0  0  0  0
  -10.0625  -18.9224   32.7772 H   0  0  0  0  0
  -10.7195  -19.5326   34.3157 H   0  0  0  0  0
  -11.4285  -20.0648   32.7713 H   0  0  0  0  0
  -11.8989  -14.7585   36.3577 H   0  0  0  0  0
   -9.3127  -13.5083   36.4810 H   0  0  0  0  0
  -10.4783  -11.6740   37.6442 H   0  0  0  0  0
  -11.9925  -12.7195   37.5962 H   0  0  0  0  0
  -11.8747  -12.6779   35.1782 H   0  0  0  0  0
  -13.2708  -11.0383   36.3697 H   0  0  0  0  0
  -11.8881   -9.9216   36.4798 H   0  0  0  0  0
  -12.5935  -10.3114   34.8919 H   0  0  0  0  0
   -9.6268  -10.6744   35.5257 H   0  0  0  0  0
   -9.4987  -12.3065   34.8251 H   0  0  0  0  0
  -10.4531  -11.0535   33.9945 H   0  0  0  0  0
  -11.3243  -15.0293   39.0073 H   0  0  0  0  0
  -10.5512  -16.5571   42.2097 H   0  0  0  0  0
  -11.3527  -16.8230   40.5713 H   0  0  0  0  0
  -13.6355  -17.0438   41.5151 H   0  0  0  0  0
  -12.8172  -17.0318   43.1311 H   0  0  0  0  0
  -14.4742  -15.5037   44.0251 H   0  0  0  0  0
  -12.7520  -14.8516   41.0215 H   0  0  0  0  0
  -12.0343  -14.7326   42.6548 H   0  0  0  0  0
   -9.4325  -14.3372   42.5719 H   0  0  0  0  0
   -8.9368  -13.3800   41.1545 H   0  0  0  0  0
  -10.6437  -13.4014   41.6616 H   0  0  0  0  0
   -9.4438  -16.9653   38.9704 H   0  0  0  0  0
   -7.2561  -18.1771   40.3810 H   0  0  0  0  0
   -6.9274  -19.3936   38.1342 H   0  0  0  0  0
   -8.3592  -18.3962   37.5556 H   0  0  0  0  0
   -8.0103  -19.9759   40.9315 H   0  0  0  0  0
   -9.7788  -20.2140   37.0251 H   0  0  0  0  0
   -9.5714  -21.7208   41.7398 H   0  0  0  0  0
  -11.3257  -21.9597   37.8336 H   0  0  0  0  0
  -11.2373  -22.7056   40.1938 H   0  0  0  0  0
   -7.2628  -15.4577   38.3276 H   0  0  0  0  0
   -4.5449  -15.4611   37.3897 H   0  0  0  0  0
   -6.0040  -13.0299   38.3497 H   0  0  0  0  0
   -6.5061  -13.9563   36.8072 H   0  0  0  0  0
   -2.8578  -13.8205   36.9489 H   0  0  0  0  0
   -7.2300  -11.2417   36.2003 H   0  0  0  0  0
   -2.9490   -9.6660   34.0891 H   0  0  0  0  0
   -7.1858   -9.2136   34.7590 H   0  0  0  0  0
   -5.0673   -8.4446   33.7157 H   0  0  0  0  0
   -4.6101  -14.3700   41.4724 H   0  0  0  0  0
   -6.1216  -14.6543   40.6031 H   0  0  0  0  0
  1  2  2  0  0  0
  1  3  1  0  0  0
  4  1  1  0  0  0
  5  4  1  0  0  0
  6  5  1  0  0  0
  5  8  1  0  0  0
  6  7  2  0  0  0
 13  6  1  0  0  0
  8  9  1  0  0  0
  9 10  1  0  0  0
 10 11  1  0  0  0
 11 12  1  0  0  0
 14 13  1  0  0  0
 15 14  1  0  0  0
 14 17  1  0  0  0
 15 16  2  0  0  0
 22 15  1  0  0  0
 17 18  1  0  0  0
 18 19  1  0  0  0
 19 20  1  0  0  0
 20 21  1  0  0  0
 23 22  1  0  0  0
 24 23  1  0  0  0
 23 26  1  0  0  0
 24 25  2  0  0  0
 33 24  1  0  0  0
 26 27  1  0  0  0
 27 28  1  0  0  0
 28 29  1  0  0  0
 29 30  1  0  0  0
 30 31  2  0  0  0
 30 32  1  0  0  0
 34 33  1  0  0  0
 35 34  1  0  0  0
 34 37  1  0  0  0
 35 36  2  0  0  0
 45 35  1  0  0  0
 37 38  1  0  0  0
 38 39  4  0  0  0
 38 40  4  0  0  0
 39 41  4  0  0  0
 40 42  4  0  0  0
 41 43  4  0  0  0
 42 43  4  0  0  0
 43 44  1  0  0  0
 46 45  1  0  0  0
 47 46  1  0  0  0
 46 49  1  0  0  0
 47 48  2  0  0  0
 51 47  1  0  0  0
 49 50  1  0  0  0
 52 51  1  0  0  0
 53 52  1  0  0  0
 52 55  1  0  0  0
 53 54  2  0  0  0
 63 53  1  0  0  0
 55 56  1  0  0  0
 56 57  1  0  0  0
 57 58  1  0  0  0
 58 59  1  0  0  0
 59 60  2  0  0  0
 59 61  1  0  0  0
 62 64  2  0  0  0
 62 65  1  0  0  0
 71 62  1  0  0  0
 65 63  1  0  0  0
 65 66  1  0  0  0
 65 70  1  0  0  0
 66 69  1  0  0  0
 67 68  1  0  0  0
 69 67  1  0  0  0
 68102  2  0  0  0
 72 71  1  0  0  0
 73 72  1  0  0  0
 72 75  1  0  0  0
 73 74  2  0  0  0
 80 73  1  0  0  0
 75 76  1  0  0  0
 76 77  1  0  0  0
 77 78  2  0  0  0
 77 79  1  0  0  0
 81 80  1  0  0  0
 82 81  1  0  0  0
 81 84  1  0  0  0
 82 83  2  0  0  0
 88 82  1  0  0  0
 84 85  1  0  0  0
 85 86  1  0  0  0
 85 87  1  0  0  0
 89 88  1  0  0  0
 90 89  1  0  0  0
 89 92  1  0  0  0
 90 91  2  0  0  0
 97 90  1  0  0  0
 92 93  1  0  0  0
 93 94  1  0  0  0
 93 95  1  0  0  0
 96 98  2  0  0  0
 99 96  1  0  0  0
 96105  1  0  0  0
 97 99  1  0  0  0
 99100  1  0  0  0
 99104  1  0  0  0
100103  1  0  0  0
102101  1  0  0  0
101103  1  0  0  0
105106  1  0  0  0
106107  1  0  0  0
106109  1  0  0  0
107108  2  0  0  0
107116  1  0  0  0
109110  1  0  0  0
110111  4  0  0  0
110112  4  0  0  0
111113  4  0  0  0
112114  4  0  0  0
113115  4  0  0  0
114115  4  0  0  0
116117  1  0  0  0
117118  1  0  0  0
117120  1  0  0  0
118119  2  0  0  0
118130  1  0  0  0
120121  1  0  0  0
121122  4  0  0  0
121123  4  0  0  0
122124  4  0  0  0
123125  4  0  0  0
123126  4  0  0  0
124125  4  0  0  0
125127  4  0  0  0
126128  4  0  0  0
127129  4  0  0  0
128129  4  0  0  0
  3131  1  0  0  0
  3132  1  0  0  0
  3133  1  0  0  0
  4134  1  0  0  0
  5135  1  0  0  0
  8136  1  0  0  0
  8137  1  0  0  0
  9138  1  0  0  0
  9139  1  0  0  0
 10140  1  0  0  0
 10141  1  0  0  0
 11142  1  0  0  0
 11143  1  0  0  0
 12144  1  0  0  0
 12145  1  0  0  0
 12146  1  0  0  0
 13147  1  0  0  0
 14148  1  0  0  0
 17149  1  0  0  0
 17150  1  0  0  0
 18151  1  0  0  0
 18152  1  0  0  0
 19153  1  0  0  0
 19154  1  0  0  0
 20155  1  0  0  0
 20156  1  0  0  0
 21157  1  0  0  0
 21158  1  0  0  0
 21159  1  0  0  0
 22160  1  0  0  0
 23161  1  0  0  0
 26162  1  0  0  0
 26163  1  0  0  0
 27164  1  0  0  0
 27165  1  0  0  0
 28166  1  0  0  0
 28167  1  0  0  0
 29168  1  0  0  0
 31169  1  0  0  0
 32170  1  0  0  0
 32171  1  0  0  0
 33172  1  0  0  0
 34173  1  0  0  0
 37174  1  0  0  0
 37175  1  0  0  0
 39176  1  0  0  0
 40177  1  0  0  0
 41178  1  0  0  0
 42179  1  0  0  0
 44180  1  0  0  0
 45181  1  0  0  0
 46182  1  0  0  0
 49183  1  0  0  0
 49184  1  0  0  0
 50185  1  0  0  0
 51186  1  0  0  0
 52187  1  0  0  0
 55188  1  0  0  0
 55189  1  0  0  0
 56190  1  0  0  0
 56191  1  0  0  0
 57192  1  0  0  0
 57193  1  0  0  0
 58194  1  0  0  0
 60195  1  0  0  0
 61196  1  0  0  0
 61197  1  0  0  0
 63198  1  0  0  0
 66199  1  0  0  0
 66200  1  0  0  0
 67201  1  0  0  0
 67202  1  0  0  0
 68203  1  0  0  0
 69204  1  0  0  0
 69205  1  0  0  0
 70206  1  0  0  0
 70207  1  0  0  0
 70208  1  0  0  0
 71209  1  0  0  0
 72210  1  0  0  0
 75211  1  0  0  0
 75212  1  0  0  0
 76213  1  0  0  0
 76214  1  0  0  0
 79215  1  0  0  0
 79216  1  0  0  0
 80217  1  0  0  0
 81218  1  0  0  0
 84219  1  0  0  0
 84220  1  0  0  0
 85221  1  0  0  0
 86222  1  0  0  0
 86223  1  0  0  0
 86224  1  0  0  0
 87225  1  0  0  0
 87226  1  0  0  0
 87227  1  0  0  0
 88228  1  0  0  0
 89229  1  0  0  0
 92230  1  0  0  0
 92231  1  0  0  0
 93232  1  0  0  0
 94233  1  0  0  0
 94234  1  0  0  0
 94235  1  0  0  0
 95236  1  0  0  0
 95237  1  0  0  0
 95238  1  0  0  0
 97239  1  0  0  0
100240  1  0  0  0
100241  1  0  0  0
101242  1  0  0  0
101243  1  0  0  0
102244  1  0  0  0
103245  1  0  0  0
103246  1  0  0  0
104247  1  0  0  0
104248  1  0  0  0
104249  1  0  0  0
105250  1  0  0  0
106251  1  0  0  0
109252  1  0  0  0
109253  1  0  0  0
111254  1  0  0  0
112255  1  0  0  0
113256  1  0  0  0
114257  1  0  0  0
115258  1  0  0  0
116259  1  0  0  0
117260  1  0  0  0
120261  1  0  0  0
120262  1  0  0  0
122263  1  0  0  0
126264  1  0  0  0
127265  1  0  0  0
128266  1  0  0  0
129267  1  0  0  0
130268  1  0  0  0
130269  1  0  0  0
M  END
$$$$
