### 
### Created by X-TOOL on Mon Aug  2 16:10:30 2021
### 

@<TRIPOS>MOLECULE
5zjz_ligand
  272   276     1     0     0
SMALL
GAST_HUCK


@<TRIPOS>ATOM
      1 C         -18.4380  -29.7620   28.5190 C.2       1 ACE         0.1751
      2 O         -18.2910  -29.9350   27.3200 O.2       1 ACE        -0.3972
      3 CH3       -19.4970  -28.7830   28.9970 C.3       1 ACE         0.0258
      4 N         -17.6740  -30.4570   29.3770 N.am      1 ACE        -0.2658
      5 CA        -17.7920  -30.4320   30.8280 C.3       1 ACE         0.1309
      6 C         -17.0800  -29.2420   31.4880 C.2       1 ACE         0.2039
      7 O         -17.6430  -28.6420   32.4010 O.2       1 ACE        -0.3944
      8 CB        -17.3900  -31.7920   31.4620 C.3       1 ACE        -0.0122
      9 CG        -15.9030  -32.1190   31.6300 C.3       1 ACE        -0.0440
     10 CD        -15.2400  -32.5490   30.3290 C.3       1 ACE        -0.0124
     11 CE        -13.9070  -33.2420   30.5540 C.3       1 ACE        -0.0354
     12 NZ        -13.2650  -33.5670   29.2510 N.4       1 ACE         0.2185
     13 N         -15.8830  -28.8680   31.0200 N.am      1 ACE        -0.2637
     14 CA        -15.1410  -27.7630   31.6490 C.3       1 ACE         0.1310
     15 C         -15.6010  -26.3920   31.1560 C.2       1 ACE         0.2039
     16 O         -15.2110  -25.9450   30.0750 O.2       1 ACE        -0.3944
     17 CB        -13.6240  -27.9170   31.4600 C.3       1 ACE        -0.0122
     18 CG        -13.0220  -29.1720   32.0810 C.3       1 ACE        -0.0440
     19 CD        -13.0670  -29.1480   33.6050 C.3       1 ACE        -0.0124
     20 CE        -12.9140  -30.5410   34.1950 C.3       1 ACE        -0.0354
     21 NZ        -13.3200  -30.5620   35.6290 N.4       1 ACE         0.2185
     22 N         -16.4410  -25.7420   31.9600 N.am      1 ACE        -0.2637
     23 CA        -16.8680  -24.3690   31.7240 C.3       1 ACE         0.1311
     24 C         -16.4850  -23.5270   32.9360 C.2       1 ACE         0.2040
     25 O         -16.6660  -23.9560   34.0780 O.2       1 ACE        -0.3944
     26 CB        -18.3740  -24.2930   31.4750 C.3       1 ACE        -0.0092
     27 CG        -18.8610  -25.0740   30.2590 C.3       1 ACE        -0.0156
     28 CD        -20.3630  -25.3440   30.3310 C.3       1 ACE         0.0627
     29 NE        -21.1650  -24.1270   30.1660 N.pl3     1 ACE        -0.2723
     30 CZ        -22.4510  -23.9820   30.5100 C.cat     1 ACE         0.2882
     31 NH1       -23.1380  -24.9750   31.0820 N.pl3     1 ACE        -0.2849
     32 NH2       -23.0600  -22.8120   30.2930 N.pl3     1 ACE        -0.2849
     33 N         -15.9450  -22.3400   32.6790 N.am      1 ACE        -0.2621
     34 CA        -15.5960  -21.3890   33.7240 C.3       1 ACE         0.1390
     35 C         -16.2930  -20.0650   33.4770 C.2       1 ACE         0.2058
     36 O         -16.2880  -19.5500   32.3440 O.2       1 ACE        -0.3942
     37 CB        -14.0750  -21.1600   33.7710 C.3       1 ACE         0.0163
     38 CG        -13.2870  -22.4080   34.0840 C.ar      1 ACE        -0.0493
     39 CD1       -13.0520  -22.7950   35.4070 C.ar      1 ACE        -0.0685
     40 CD2       -12.7850  -23.2170   33.0670 C.ar      1 ACE        -0.0685
     41 CE1       -12.3280  -23.9410   35.7020 C.ar      1 ACE        -0.0398
     42 CE2       -12.0700  -24.3710   33.3550 C.ar      1 ACE        -0.0398
     43 CZ        -11.8380  -24.7270   34.6760 C.ar      1 ACE         0.0805
     44 OH        -11.1180  -25.8710   34.9660 O.3       1 ACE        -0.3376
     45 N         -16.8740  -19.5010   34.5350 N.am      1 ACE        -0.2614
     46 CA        -17.3840  -18.1330   34.4850 C.3       1 ACE         0.1539
     47 C         -16.2210  -17.1530   34.3920 C.2       1 ACE         0.2062
     48 O         -15.0830  -17.4840   34.7450 O.2       1 ACE        -0.3943
     49 CB        -18.2130  -17.8060   35.7290 C.3       1 ACE         0.0843
     50 OG        -17.3920  -17.7800   36.8890 O.3       1 ACE        -0.3903
     51 N         -16.5300  -15.9480   33.9320 N.am      1 ACE        -0.2637
     52 CA        -15.6030  -14.8160   33.9480 C.3       1 ACE         0.1308
     53 C         -14.9580  -14.5980   35.3220 C.2       1 ACE         0.2010
     54 O         -13.7410  -14.4320   35.4140 O.2       1 ACE        -0.3947
     55 CB        -16.3450  -13.5480   33.5370 C.3       1 ACE        -0.0092
     56 CG        -15.4750  -12.3210   33.4400 C.3       1 ACE        -0.0156
     57 CD        -16.2890  -11.1290   32.9940 C.3       1 ACE         0.0627
     58 NE        -15.4780   -9.9230   33.0320 N.pl3     1 ACE        -0.2723
     59 CZ        -15.2350   -9.1870   34.1160 C.cat     1 ACE         0.2882
     60 NH1       -14.4680   -8.1100   34.0040 N.pl3     1 ACE        -0.2849
     61 NH2       -15.7340   -9.5060   35.3090 N.pl3     1 ACE        -0.2849
     62 C         -14.3960  -15.4200   38.1400 C.2       1 ACE         0.2263
     63 N         -15.8180  -14.5800   36.3540 N.am      1 ACE        -0.2743
     64 O         -13.3510  -15.0470   38.6480 O.2       1 ACE        -0.3419
     65 CA        -15.4590  -14.4020   37.7650 C.3       1 ACE         0.1304
     66 CB        -16.6860  -14.6250   38.6640 C.3       1 ACE        -0.0186
     67 CD        -15.9620  -15.8380   40.8700 C.3       1 ACE        -0.0365
     68 CE        -15.6760  -15.5420   42.3320 C.2       1 ACE        -0.0987
     69 CG        -16.4250  -14.5510   40.1820 C.3       1 ACE        -0.0449
     70 CB1       -14.9730  -12.9530   37.9430 C.3       1 ACE        -0.0320
     71 N         -14.6700  -16.6430   37.9190 N.am      1 ACE        -0.2627
     72 CA        -13.7780  -17.7630   38.2250 C.3       1 ACE         0.1332
     73 C         -12.4030  -17.5970   37.5830 C.2       1 ACE         0.2042
     74 O         -11.3810  -17.7930   38.2390 O.2       1 ACE        -0.3944
     75 CB        -14.4080  -19.0420   37.6790 C.3       1 ACE         0.0047
     76 CG        -15.4380  -19.7050   38.5690 C.3       1 ACE         0.0413
     77 CD        -15.8940  -21.0370   37.9910 C.2       1 ACE         0.1737
     78 OE1       -16.5640  -21.0830   36.9520 O.2       1 ACE        -0.3973
     79 NE2       -15.5200  -22.1260   38.6490 N.am      1 ACE        -0.3009
     80 N         -12.3870  -17.2480   36.2980 N.am      1 ACE        -0.2637
     81 CA        -11.1090  -17.0780   35.5870 C.3       1 ACE         0.1312
     82 C         -10.2650  -15.9610   36.1900 C.2       1 ACE         0.2039
     83 O          -9.0590  -16.1290   36.3820 O.2       1 ACE        -0.3944
     84 CB        -11.3430  -16.8570   34.0800 C.3       1 ACE        -0.0101
     85 CG        -11.9460  -18.0610   33.3450 C.3       1 ACE        -0.0425
     86 CD1       -12.3630  -17.6610   31.9360 C.3       1 ACE        -0.0625
     87 CD2       -10.9690  -19.2290   33.2990 C.3       1 ACE        -0.0625
     88 N         -10.8950  -14.8350   36.5210 N.am      1 ACE        -0.2637
     89 CA        -10.1780  -13.7050   37.1140 C.3       1 ACE         0.1309
     90 C          -9.6270  -14.0270   38.5100 C.2       1 ACE         0.2010
     91 O          -8.4950  -13.6480   38.8110 O.2       1 ACE        -0.3947
     92 CB        -11.0490  -12.4440   37.1250 C.3       1 ACE        -0.0101
     93 CG        -11.3960  -11.8780   35.7430 C.3       1 ACE        -0.0425
     94 CD1       -12.3560  -10.7030   35.8810 C.3       1 ACE        -0.0625
     95 CD2       -10.1540  -11.4470   34.9660 C.3       1 ACE        -0.0625
     96 C          -8.7120  -16.0360   40.5580 C.2       1 ACE         0.2265
     97 N         -10.3960  -14.7610   39.3340 N.am      1 ACE        -0.2743
     98 O          -7.8010  -15.8800   41.3740 O.2       1 ACE        -0.3419
     99 CA         -9.9850  -15.2020   40.6760 C.3       1 ACE         0.1304
    100 CB        -11.0310  -16.1160   41.3360 C.3       1 ACE        -0.0186
    101 CD        -13.3080  -16.4380   42.3600 C.3       1 ACE        -0.0365
    102 CE        -14.5320  -15.7900   42.9750 C.2       1 ACE        -0.0987
    103 CG        -12.3020  -15.4090   41.8430 C.3       1 ACE        -0.0449
    104 CB1        -9.7310  -13.9920   41.5820 C.3       1 ACE        -0.0320
    105 N          -8.6520  -16.8900   39.6090 N.am      1 ACE        -0.2611
    106 CA         -7.4880  -17.7720   39.3960 C.3       1 ACE         0.1406
    107 C          -6.2050  -17.0700   38.9260 C.2       1 ACE         0.2062
    108 O          -5.1330  -17.6720   38.9870 O.2       1 ACE        -0.3942
    109 CB         -7.8550  -18.8820   38.3910 C.3       1 ACE         0.0216
    110 CG         -8.8070  -19.9400   38.9230 C.ar      1 ACE        -0.0385
    111 CD1        -8.7480  -20.3980   40.2490 C.ar      1 ACE        -0.0601
    112 CD2        -9.7340  -20.5310   38.0670 C.ar      1 ACE        -0.0601
    113 CE1        -9.6200  -21.3850   40.7040 C.ar      1 ACE        -0.0686
    114 CE2       -10.6020  -21.5170   38.5180 C.ar      1 ACE        -0.0686
    115 CZ        -10.5490  -21.9390   39.8380 C.ar      1 ACE        -0.0687
    116 N          -6.3220  -15.8300   38.4570 N.am      1 ACE        -0.2625
    117 CA         -5.1890  -14.9610   38.1130 C.3       1 ACE         0.1348
    118 C          -4.3820  -14.6560   39.3740 C.2       1 ACE         0.2004
    119 O          -3.1640  -14.5370   39.3280 O.2       1 ACE        -0.3946
    120 CB         -5.7220  -13.6530   37.5010 C.3       1 ACE         0.0042
    121 CG         -4.7680  -12.8130   36.6860 C.2       1 ACE        -0.0418
    122 CD1        -3.4320  -13.0030   36.5130 C.2       1 ACE         0.0167
    123 CD2        -5.1020  -11.6240   35.9530 C.ar      1 ACE        -0.0214
    124 NE1        -2.9100  -12.0180   35.7110 N.pl3     1 ACE        -0.2890
    125 CE2        -3.9140  -11.1600   35.3460 C.ar      1 ACE         0.0603
    126 CE3        -6.2980  -10.9110   35.7420 C.ar      1 ACE        -0.0747
    127 CZ2        -3.8790  -10.0110   34.5410 C.ar      1 ACE        -0.0443
    128 CZ3        -6.2670   -9.7730   34.9350 C.ar      1 ACE        -0.0792
    129 CH2        -5.0610   -9.3360   34.3430 C.ar      1 ACE        -0.0768
    130 N          -5.1070  -14.5500   40.6000 N.am      1 ACE        -0.2989
    131 H1        -19.4951  -28.7487   30.0965 H         1 ACE         0.0467
    132 H2        -20.4855  -29.1099   28.6421 H         1 ACE         0.0467
    133 H3        -19.2771  -27.7815   28.5986 H         1 ACE         0.0467
    134 H4        -16.9632  -31.0418   28.9860 H         1 ACE         0.1882
    135 H5        -18.8625  -30.2975   31.0423 H         1 ACE         0.0800
    136 H6        -17.8255  -32.5827   30.8334 H         1 ACE         0.0312
    137 H7        -17.8437  -31.8282   32.4634 H         1 ACE         0.0312
    138 H8        -15.8035  -32.9350   32.3609 H         1 ACE         0.0269
    139 H9        -15.3873  -31.2237   32.0074 H         1 ACE         0.0269
    140 H10       -15.0729  -31.6572   29.7072 H         1 ACE         0.0317
    141 H11       -15.9129  -33.2420   29.8029 H         1 ACE         0.0317
    142 H12       -14.0724  -34.1716   31.1184 H         1 ACE         0.0813
    143 H13       -13.2451  -32.5771   31.1283 H         1 ACE         0.0813
    144 H14       -12.3828  -34.0257   29.4163 H         1 ACE         0.1994
    145 H15       -13.1096  -32.7172   28.7317 H         1 ACE         0.1994
    146 H16       -13.8677  -34.1782   28.7226 H         1 ACE         0.1994
    147 H17       -15.4884  -29.3445   30.2344 H         1 ACE         0.1883
    148 H18       -15.3465  -27.8092   32.7286 H         1 ACE         0.0800
    149 H19       -13.1331  -27.0430   31.9129 H         1 ACE         0.0312
    150 H20       -13.4148  -27.9365   30.3803 H         1 ACE         0.0312
    151 H21       -11.9732  -29.2562   31.7603 H         1 ACE         0.0269
    152 H22       -13.5856  -30.0470   31.7251 H         1 ACE         0.0269
    153 H23       -14.0319  -28.7289   33.9265 H         1 ACE         0.0317
    154 H24       -12.2494  -28.5123   33.9757 H         1 ACE         0.0317
    155 H25       -11.8620  -30.8520   34.1146 H         1 ACE         0.0813
    156 H26       -13.5477  -31.2417   33.6316 H         1 ACE         0.0813
    157 H27       -13.2096  -31.4944   35.9958 H         1 ACE         0.1994
    158 H28       -14.2849  -30.2815   35.7092 H         1 ACE         0.1994
    159 H29       -12.7401  -29.9244   36.1518 H         1 ACE         0.1994
    160 H30       -16.7955  -26.2192   32.7641 H         1 ACE         0.1883
    161 H31       -16.3465  -23.9805   30.8368 H         1 ACE         0.0800
    162 H32       -18.6447  -23.2362   31.3339 H         1 ACE         0.0313
    163 H33       -18.8882  -24.6877   32.3637 H         1 ACE         0.0313
    164 H34       -18.3271  -26.0347   30.2140 H         1 ACE         0.0301
    165 H35       -18.6458  -24.4919   29.3508 H         1 ACE         0.0301
    166 H36       -20.5943  -25.7878   31.3105 H         1 ACE         0.0689
    167 H37       -20.6317  -26.0533   29.5344 H         1 ACE         0.0689
    168 H38       -20.6968  -23.3104   29.7479 H         1 ACE         0.2642
    169 H39       -24.1264  -24.8373   31.3369 H         1 ACE         0.2615
    170 H40       -22.6792  -25.8782   31.2681 H         1 ACE         0.2615
    171 H41       -22.5441  -22.0367   29.8530 H         1 ACE         0.2615
    172 H42       -24.0452  -22.6858   30.5658 H         1 ACE         0.2615
    173 H43       -15.7710  -22.0896   31.7266 H         1 ACE         0.1885
    174 H44       -15.9253  -21.7926   34.6928 H         1 ACE         0.0821
    175 H45       -13.8599  -20.4092   34.5456 H         1 ACE         0.0453
    176 H46       -13.7499  -20.7797   32.7914 H         1 ACE         0.0453
    177 H47       -13.4425  -22.1888   36.2164 H         1 ACE         0.0530
    178 H48       -12.9558  -22.9403   32.0329 H         1 ACE         0.0530
    179 H49       -12.1471  -24.2192   36.7340 H         1 ACE         0.0525
    180 H50       -11.6938  -24.9925   32.5504 H         1 ACE         0.0525
    181 H51       -10.2484  -25.8004   34.5899 H         1 ACE         0.2458
    182 H52       -16.9629  -20.0255   35.3817 H         1 ACE         0.1884
    183 H53       -18.0202  -18.0249   33.5942 H         1 ACE         0.0823
    184 H54       -18.9918  -18.5725   35.8553 H         1 ACE         0.0606
    185 H55       -18.6854  -16.8211   35.5992 H         1 ACE         0.0606
    186 H56       -16.9845  -18.6301   37.0063 H         1 ACE         0.2097
    187 H57       -17.4449  -15.8056   33.5543 H         1 ACE         0.1883
    188 H58       -14.8038  -15.0148   33.2188 H         1 ACE         0.0800
    189 H59       -17.1320  -13.3537   34.2805 H         1 ACE         0.0313
    190 H60       -16.8049  -13.7222   32.5531 H         1 ACE         0.0313
    191 H61       -14.6715  -12.5037   32.7113 H         1 ACE         0.0301
    192 H62       -15.0350  -12.1104   34.4259 H         1 ACE         0.0301
    193 H63       -17.1522  -11.0073   33.6648 H         1 ACE         0.0689
    194 H64       -16.6439  -11.2956   31.9662 H         1 ACE         0.0689
    195 H65       -15.0554   -9.6110   32.1460 H         1 ACE         0.2642
    196 H66       -14.2703   -7.5302   34.8320 H         1 ACE         0.2615
    197 H67       -14.0704   -7.8538   33.0890 H         1 ACE         0.2615
    198 H68       -16.3310  -10.3391   35.4115 H         1 ACE         0.2615
    199 H69       -15.5229   -8.9196   36.1291 H         1 ACE         0.2615
    200 H70       -16.7880  -14.6983   36.1416 H         1 ACE         0.1839
    201 H71       -17.0929  -15.6219   38.4393 H         1 ACE         0.0279
    202 H72       -17.4335  -13.8584   38.4119 H         1 ACE         0.0279
    203 H73       -16.7514  -16.6004   40.7957 H         1 ACE         0.0388
    204 H74       -15.0478  -16.2081   40.3830 H         1 ACE         0.0388
    205 H75       -16.4782  -15.0851   42.9096 H         1 ACE         0.0450
    206 H76       -17.3613  -14.2347   40.6649 H         1 ACE         0.0284
    207 H77       -15.6504  -13.7881   40.3490 H         1 ACE         0.0284
    208 H78       -14.6950  -12.7861   38.9941 H         1 ACE         0.0242
    209 H79       -15.7788  -12.2589   37.6622 H         1 ACE         0.0242
    210 H80       -14.0978  -12.7782   37.3000 H         1 ACE         0.0242
    211 H81       -15.5567  -16.8538   37.5075 H         1 ACE         0.1889
    212 H82       -13.6592  -17.8406   39.3158 H         1 ACE         0.0803
    213 H83       -13.5996  -19.7666   37.5017 H         1 ACE         0.0337
    214 H84       -14.8960  -18.7962   36.7243 H         1 ACE         0.0337
    215 H85       -16.3087  -19.0399   38.6662 H         1 ACE         0.0504
    216 H86       -14.9959  -19.8777   39.5613 H         1 ACE         0.0504
    217 H87       -15.7905  -23.0292   38.3157 H         1 ACE         0.1814
    218 H88       -14.9675  -22.0440   39.4785 H         1 ACE         0.1814
    219 H89       -13.2488  -17.1004   35.8127 H         1 ACE         0.1883
    220 H90       -10.5423  -18.0139   35.7002 H         1 ACE         0.0800
    221 H91       -10.3755  -16.6195   33.6136 H         1 ACE         0.0315
    222 H92       -12.0271  -16.0040   33.9603 H         1 ACE         0.0315
    223 H93       -12.8425  -18.3852   33.8937 H         1 ACE         0.0298
    224 H94       -12.7934  -18.5319   31.4199 H         1 ACE         0.0232
    225 H95       -11.4833  -17.3036   31.3808 H         1 ACE         0.0232
    226 H96       -13.1136  -16.8587   31.9896 H         1 ACE         0.0232
    227 H97       -10.6786  -19.5046   34.3235 H         1 ACE         0.0232
    228 H98       -10.0740  -18.9363   32.7304 H         1 ACE         0.0232
    229 H99       -11.4490  -20.0895   32.8099 H         1 ACE         0.0232
    230 H100      -11.8793  -14.7600   36.3609 H         1 ACE         0.1883
    231 H101       -9.3124  -13.4970   36.4679 H         1 ACE         0.0800
    232 H102      -10.5129  -11.6650   37.6869 H         1 ACE         0.0315
    233 H103      -11.9905  -12.6853   37.6400 H         1 ACE         0.0315
    234 H104      -11.8978  -12.6706   35.1687 H         1 ACE         0.0298
    235 H105      -12.5964  -10.3069   34.8834 H         1 ACE         0.0232
    236 H106      -11.8850   -9.9136   36.4852 H         1 ACE         0.0232
    237 H107      -13.2797  -11.0401   36.3740 H         1 ACE         0.0232
    238 H108       -9.4666  -12.3004   34.8709 H         1 ACE         0.0232
    239 H109       -9.6511  -10.6292   35.5029 H         1 ACE         0.0232
    240 H110      -10.4497  -11.1010   33.9646 H         1 ACE         0.0232
    241 H111      -11.3061  -15.0240   39.0137 H         1 ACE         0.1839
    242 H112      -10.5543  -16.6128   42.1938 H         1 ACE         0.0279
    243 H113      -11.3353  -16.8719   40.5971 H         1 ACE         0.0279
    244 H114      -13.6282  -17.0720   41.5201 H         1 ACE         0.0388
    245 H115      -12.8167  -17.0602   43.1226 H         1 ACE         0.0388
    246 H116      -14.4742  -15.5039   44.0242 H         1 ACE         0.0450
    247 H117      -12.7554  -14.8405   41.0176 H         1 ACE         0.0284
    248 H118      -12.0344  -14.7210   42.6585 H         1 ACE         0.0284
    249 H119       -9.4251  -14.3390   42.5800 H         1 ACE         0.0242
    250 H120      -10.6527  -13.3977   41.6671 H         1 ACE         0.0242
    251 H121       -8.9329  -13.3709   41.1492 H         1 ACE         0.0242
    252 H122       -9.4283  -16.9639   38.9830 H         1 ACE         0.1891
    253 H123       -7.2618  -18.2446   40.3632 H         1 ACE         0.0825
    254 H124       -6.9260  -19.3833   38.0817 H         1 ACE         0.0474
    255 H125       -8.3250  -18.4088   37.5163 H         1 ACE         0.0474
    256 H126       -8.0144  -19.9782   40.9277 H         1 ACE         0.0557
    257 H127       -9.7785  -20.2157   37.0308 H         1 ACE         0.0557
    258 H128       -9.5717  -21.7190   41.7341 H         1 ACE         0.0599
    259 H129      -11.3218  -21.9572   37.8374 H         1 ACE         0.0599
    260 H130      -11.2336  -22.7014   40.1919 H         1 ACE         0.0559
    261 H131       -7.2443  -15.4650   38.3302 H         1 ACE         0.1884
    262 H132       -4.5441  -15.4703   37.3817 H         1 ACE         0.0815
    263 H133       -6.0830  -13.0268   38.3302 H         1 ACE         0.0397
    264 H134       -6.5659  -13.9176   36.8469 H         1 ACE         0.0397
    265 H135       -2.8583  -13.8198   36.9485 H         1 ACE         0.0795
    266 H136       -1.9226  -11.9372   35.4292 H         1 ACE         0.2216
    267 H137       -7.2249  -11.2399   36.1978 H         1 ACE         0.0540
    268 H138       -2.9541   -9.6679   34.0916 H         1 ACE         0.0541
    269 H139       -7.1808   -9.2167   34.7600 H         1 ACE         0.0510
    270 H140       -5.0673   -8.4495   33.7192 H         1 ACE         0.0530
    271 H141       -4.6224  -14.3516   41.4519 H         1 ACE         0.1815
    272 H142       -6.0992  -14.6742   40.6065 H         1 ACE         0.1815
@<TRIPOS>BOND
     1    1    2 2  
     2    1    3 1  
     3    4    1 am 
     4    5    4 1  
     5    6    5 1  
     6    5    8 1  
     7    6    7 2  
     8   13    6 am 
     9    8    9 1  
    10    9   10 1  
    11   10   11 1  
    12   11   12 1  
    13   14   13 1  
    14   15   14 1  
    15   14   17 1  
    16   15   16 2  
    17   22   15 am 
    18   17   18 1  
    19   18   19 1  
    20   19   20 1  
    21   20   21 1  
    22   23   22 1  
    23   24   23 1  
    24   23   26 1  
    25   24   25 2  
    26   33   24 am 
    27   26   27 1  
    28   27   28 1  
    29   28   29 1  
    30   29   30 ar 
    31   30   31 ar 
    32   30   32 ar 
    33   34   33 1  
    34   35   34 1  
    35   34   37 1  
    36   35   36 2  
    37   45   35 am 
    38   37   38 1  
    39   38   39 ar 
    40   38   40 ar 
    41   39   41 ar 
    42   40   42 ar 
    43   41   43 ar 
    44   42   43 ar 
    45   43   44 1  
    46   46   45 1  
    47   47   46 1  
    48   46   49 1  
    49   47   48 2  
    50   51   47 am 
    51   49   50 1  
    52   52   51 1  
    53   53   52 1  
    54   52   55 1  
    55   53   54 2  
    56   63   53 am 
    57   55   56 1  
    58   56   57 1  
    59   57   58 1  
    60   58   59 ar 
    61   59   60 ar 
    62   59   61 ar 
    63   62   64 2  
    64   62   65 1  
    65   71   62 am 
    66   65   63 1  
    67   65   66 1  
    68   65   70 1  
    69   66   69 1  
    70   67   68 1  
    71   69   67 1  
    72   68  102 2  
    73   72   71 1  
    74   73   72 1  
    75   72   75 1  
    76   73   74 2  
    77   80   73 am 
    78   75   76 1  
    79   76   77 1  
    80   77   78 2  
    81   77   79 am 
    82   81   80 1  
    83   82   81 1  
    84   81   84 1  
    85   82   83 2  
    86   88   82 am 
    87   84   85 1  
    88   85   86 1  
    89   85   87 1  
    90   89   88 1  
    91   90   89 1  
    92   89   92 1  
    93   90   91 2  
    94   97   90 am 
    95   92   93 1  
    96   93   94 1  
    97   93   95 1  
    98   96   98 2  
    99   99   96 1  
   100   96  105 am 
   101   97   99 1  
   102   99  100 1  
   103   99  104 1  
   104  100  103 1  
   105  102  101 1  
   106  101  103 1  
   107  105  106 1  
   108  106  107 1  
   109  106  109 1  
   110  107  108 2  
   111  107  116 am 
   112  109  110 1  
   113  110  111 ar 
   114  110  112 ar 
   115  111  113 ar 
   116  112  114 ar 
   117  113  115 ar 
   118  114  115 ar 
   119  116  117 1  
   120  117  118 1  
   121  117  120 1  
   122  118  119 2  
   123  118  130 am 
   124  120  121 1  
   125  121  122 2  
   126  121  123 1  
   127  122  124 1  
   128  123  125 ar 
   129  123  126 ar 
   130  124  125 1  
   131  125  127 ar 
   132  126  128 ar 
   133  127  129 ar 
   134  128  129 ar 
   135    3  131 1  
   136    3  132 1  
   137    3  133 1  
   138    4  134 1  
   139    5  135 1  
   140    8  136 1  
   141    8  137 1  
   142    9  138 1  
   143    9  139 1  
   144   10  140 1  
   145   10  141 1  
   146   11  142 1  
   147   11  143 1  
   148   12  144 1  
   149   12  145 1  
   150   12  146 1  
   151   13  147 1  
   152   14  148 1  
   153   17  149 1  
   154   17  150 1  
   155   18  151 1  
   156   18  152 1  
   157   19  153 1  
   158   19  154 1  
   159   20  155 1  
   160   20  156 1  
   161   21  157 1  
   162   21  158 1  
   163   21  159 1  
   164   22  160 1  
   165   23  161 1  
   166   26  162 1  
   167   26  163 1  
   168   27  164 1  
   169   27  165 1  
   170   28  166 1  
   171   28  167 1  
   172   29  168 1  
   173   31  169 1  
   174   31  170 1  
   175   32  171 1  
   176   32  172 1  
   177   33  173 1  
   178   34  174 1  
   179   37  175 1  
   180   37  176 1  
   181   39  177 1  
   182   40  178 1  
   183   41  179 1  
   184   42  180 1  
   185   44  181 1  
   186   45  182 1  
   187   46  183 1  
   188   49  184 1  
   189   49  185 1  
   190   50  186 1  
   191   51  187 1  
   192   52  188 1  
   193   55  189 1  
   194   55  190 1  
   195   56  191 1  
   196   56  192 1  
   197   57  193 1  
   198   57  194 1  
   199   58  195 1  
   200   60  196 1  
   201   60  197 1  
   202   61  198 1  
   203   61  199 1  
   204   63  200 1  
   205   66  201 1  
   206   66  202 1  
   207   67  203 1  
   208   67  204 1  
   209   68  205 1  
   210   69  206 1  
   211   69  207 1  
   212   70  208 1  
   213   70  209 1  
   214   70  210 1  
   215   71  211 1  
   216   72  212 1  
   217   75  213 1  
   218   75  214 1  
   219   76  215 1  
   220   76  216 1  
   221   79  217 1  
   222   79  218 1  
   223   80  219 1  
   224   81  220 1  
   225   84  221 1  
   226   84  222 1  
   227   85  223 1  
   228   86  224 1  
   229   86  225 1  
   230   86  226 1  
   231   87  227 1  
   232   87  228 1  
   233   87  229 1  
   234   88  230 1  
   235   89  231 1  
   236   92  232 1  
   237   92  233 1  
   238   93  234 1  
   239   94  235 1  
   240   94  236 1  
   241   94  237 1  
   242   95  238 1  
   243   95  239 1  
   244   95  240 1  
   245   97  241 1  
   246  100  242 1  
   247  100  243 1  
   248  101  244 1  
   249  101  245 1  
   250  102  246 1  
   251  103  247 1  
   252  103  248 1  
   253  104  249 1  
   254  104  250 1  
   255  104  251 1  
   256  105  252 1  
   257  106  253 1  
   258  109  254 1  
   259  109  255 1  
   260  111  256 1  
   261  112  257 1  
   262  113  258 1  
   263  114  259 1  
   264  115  260 1  
   265  116  261 1  
   266  117  262 1  
   267  120  263 1  
   268  120  264 1  
   269  122  265 1  
   270  124  266 1  
   271  126  267 1  
   272  127  268 1  
   273  128  269 1  
   274  129  270 1  
   275  130  271 1  
   276  130  272 1  
@<TRIPOS>SUBSTRUCTURE
     1 ACE         1

