3dk1_ligand
  -I-interpret- 

 80 83  0  0  0  0  0  0  0  0999 V2000
   20.8680   27.7330   14.8850 C   0  0  0  0  0
   21.4580   28.9590   14.7130 O   0  0  0  0  0
   22.8290   28.9460   15.0250 C   0  0  0  0  0
   21.4340   26.6140   15.4840 C   0  0  0  0  0
   20.6410   25.5190   15.7310 C   0  0  0  0  0
   19.2830   25.5310   15.4250 C   0  0  0  0  0
   18.7090   26.6500   14.8530 C   0  0  0  0  0
   19.5250   27.7590   14.6000 C   0  0  0  0  0
   18.2990   24.1590   15.9000 S   0  0  0  0  0
   17.1840   24.0540   14.9470 O   0  0  0  0  0
   19.1870   23.0200   16.0500 O   0  0  0  0  0
   17.6260   24.4540   17.3920 N   0  0  0  0  0
   18.5710   24.7340   18.4620 C   0  0  0  0  0
   18.2970   24.0360   19.8010 C   0  0  0  0  0
   18.3460   22.5130   19.6590 C   0  0  0  0  0
   19.3290   24.5420   20.8460 C   0  0  0  0  0
   16.3340   25.1440   17.4410 C   0  0  0  0  0
   15.2320   24.2270   17.9790 C   0  0  0  0  0
   14.0600   25.0110   18.2740 O   0  0  0  0  0
   14.8660   23.0850   17.0340 C   0  0  0  0  0
   13.9520   22.1820   17.7540 N   0  0  0  0  0
   14.2950   20.9940   18.1590 C   0  0  0  0  0
   15.4020   20.4420   18.0020 O   0  0  0  0  0
   13.3030   20.3560   18.8090 O   0  0  0  0  0
   13.5610   18.9970   19.2350 C   0  0  0  0  0
   12.3380   18.6100   20.0800 C   0  0  0  0  0
   11.3020   18.0090   19.1070 C   0  0  0  0  0
   10.6550   19.1440   18.4210 O   0  0  0  0  0
    9.9330   18.7060   17.2580 C   0  0  0  0  0
   10.9550   18.1230   16.2780 C   0  0  0  0  0
   11.5180   16.9510   16.8810 O   0  0  0  0  0
   12.1490   17.2850   18.1360 C   0  0  0  0  0
   13.4480   18.0590   18.0260 C   0  0  0  0  0
   14.1440   23.5310   15.7810 C   0  0  0  0  0
   12.5080   21.8350   14.8170 C   0  0  0  0  0
   12.2340   20.6820   14.0940 C   0  0  0  0  0
   13.2230   20.0520   13.3500 C   0  0  0  0  0
   14.5000   20.6090   13.3780 C   0  0  0  0  0
   14.7820   21.7640   14.1240 C   0  0  0  0  0
   13.7850   22.3820   14.8560 C   0  0  0  0  0
   22.9605   28.6530   16.0666 H   0  0  0  0  0
   23.3407   28.2332   14.3784 H   0  0  0  0  0
   23.2448   29.9417   14.8710 H   0  0  0  0  0
   22.4901   26.6049   15.7536 H   0  0  0  0  0
   21.0827   24.6263   16.1739 H   0  0  0  0  0
   17.6478   26.6689   14.6050 H   0  0  0  0  0
   19.0865   28.6591   14.1691 H   0  0  0  0  0
   18.5056   25.8046   18.6558 H   0  0  0  0  0
   19.5390   24.3689   18.1189 H   0  0  0  0  0
   17.2902   24.2830   20.1377 H   0  0  0  0  0
   17.5916   22.1919   18.9408 H   0  0  0  0  0
   19.3338   22.2136   19.3086 H   0  0  0  0  0
   18.1474   22.0526   20.6268 H   0  0  0  0  0
   20.3365   24.3057   20.5037 H   0  0  0  0  0
   19.2272   25.6210   20.9623 H   0  0  0  0  0
   19.1449   24.0532   21.8027 H   0  0  0  0  0
   16.0665   25.4508   16.4299 H   0  0  0  0  0
   16.4250   26.0031   18.1056 H   0  0  0  0  0
   15.6256   23.7608   18.8822 H   0  0  0  0  0
   13.3687   24.4366   18.6114 H   0  0  0  0  0
   15.8017   22.6165   16.7288 H   0  0  0  0  0
   13.0031   22.5039   17.9446 H   0  0  0  0  0
   14.5309   18.9270   19.7275 H   0  0  0  0  0
   11.9297   19.4796   20.5949 H   0  0  0  0  0
   12.6103   17.8903   20.8520 H   0  0  0  0  0
   10.5426   17.3789   19.5699 H   0  0  0  0  0
    9.3995   19.5403   16.8026 H   0  0  0  0  0
    9.1914   17.9545   17.5290 H   0  0  0  0  0
   11.7363   18.8529   16.0660 H   0  0  0  0  0
   10.4731   17.8694   15.3338 H   0  0  0  0  0
   12.3493   16.2802   18.5081 H   0  0  0  0  0
   14.2917   17.3690   18.0108 H   0  0  0  0  0
   13.4580   18.6391   17.1033 H   0  0  0  0  0
   14.8113   24.1981   15.2352 H   0  0  0  0  0
   13.2145   24.0101   16.0884 H   0  0  0  0  0
   11.7030   22.3226   15.3668 H   0  0  0  0  0
   11.2271   20.2648   14.1105 H   0  0  0  0  0
   13.0087   19.1565   12.7667 H   0  0  0  0  0
   15.2991   20.1364   12.8069 H   0  0  0  0  0
   15.7913   22.1755   14.1263 H   0  0  0  0  0
  1  2  1  0  0  0
  4  1  4  0  0  0
  8  1  4  0  0  0
  2  3  1  0  0  0
  5  4  4  0  0  0
  6  5  4  0  0  0
  6  7  4  0  0  0
  9  6  1  0  0  0
  7  8  4  0  0  0
  9 10  2  0  0  0
  9 11  2  0  0  0
 12  9  1  0  0  0
 12 13  1  0  0  0
 17 12  1  0  0  0
 13 14  1  0  0  0
 14 15  1  0  0  0
 14 16  1  0  0  0
 18 17  1  0  0  0
 18 19  1  0  0  0
 20 18  1  0  0  0
 20 21  1  0  0  0
 34 20  1  0  0  0
 21 22  1  0  0  0
 22 23  2  0  0  0
 22 24  1  0  0  0
 24 25  1  0  0  0
 25 26  1  0  0  0
 25 33  1  0  0  0
 26 27  1  0  0  0
 27 28  1  0  0  0
 32 27  1  0  0  0
 28 29  1  0  0  0
 30 29  1  0  0  0
 31 30  1  0  0  0
 32 31  1  0  0  0
 33 32  1  0  0  0
 40 34  1  0  0  0
 35 36  4  0  0  0
 35 40  4  0  0  0
 36 37  4  0  0  0
 37 38  4  0  0  0
 38 39  4  0  0  0
 39 40  4  0  0  0
  3 41  1  0  0  0
  3 42  1  0  0  0
  3 43  1  0  0  0
  4 44  1  0  0  0
  5 45  1  0  0  0
  7 46  1  0  0  0
  8 47  1  0  0  0
 13 48  1  0  0  0
 13 49  1  0  0  0
 14 50  1  0  0  0
 15 51  1  0  0  0
 15 52  1  0  0  0
 15 53  1  0  0  0
 16 54  1  0  0  0
 16 55  1  0  0  0
 16 56  1  0  0  0
 17 57  1  0  0  0
 17 58  1  0  0  0
 18 59  1  0  0  0
 19 60  1  0  0  0
 20 61  1  0  0  0
 21 62  1  0  0  0
 25 63  1  0  0  0
 26 64  1  0  0  0
 26 65  1  0  0  0
 27 66  1  0  0  0
 29 67  1  0  0  0
 29 68  1  0  0  0
 30 69  1  0  0  0
 30 70  1  0  0  0
 32 71  1  0  0  0
 33 72  1  0  0  0
 33 73  1  0  0  0
 34 74  1  0  0  0
 34 75  1  0  0  0
 35 76  1  0  0  0
 36 77  1  0  0  0
 37 78  1  0  0  0
 38 79  1  0  0  0
 39 80  1  0  0  0
M  END
$$$$
