1pyg_ligand
  -I-interpret- 

 37 39  0  0  0  0  0  0  0  0999 V2000
   59.7410   24.8920   43.7380 P   0  0  0  0  0
   59.7440   24.7550   45.2190 O   0  0  0  0  0
   58.8020   24.0120   43.0100 O   0  0  0  0  0
   59.7400   26.2830   43.2100 O   0  0  0  0  0
   61.1910   24.2820   43.3290 O   0  0  0  0  0
   62.3590   24.3570   44.1290 C   0  0  0  0  0
   63.2040   23.1040   43.9710 C   0  0  0  0  0
   62.4590   21.9700   44.3870 O   0  0  0  0  0
   63.5910   22.8440   42.5180 C   0  0  0  0  0
   64.8430   23.4550   42.1590 O   0  0  0  0  0
   63.6990   21.3480   42.4400 C   0  0  0  0  0
   65.0060   20.8930   42.8060 O   0  0  0  0  0
   62.6760   20.8950   43.4710 C   0  0  0  0  0
   61.4200   20.5220   42.8260 N   0  0  0  0  0
   60.4120   21.3350   42.3840 C   0  0  0  0  0
   59.3910   20.6960   41.8940 N   0  0  0  0  0
   59.7550   19.3570   42.0250 C   0  0  0  0  0
   59.0900   18.1640   41.6990 C   0  0  0  0  0
   57.8890   18.1490   41.1410 N   0  0  0  0  0
   59.7140   17.0210   42.0120 N   0  0  0  0  0
   60.9050   17.0760   42.6040 C   0  0  0  0  0
   61.6700   18.1190   42.8600 N   0  0  0  0  0
   60.9930   19.2460   42.5980 C   0  0  0  0  0
   60.3830   25.3652   45.5944 H   0  0  0  0  0
   60.3621   26.8149   43.7116 H   0  0  0  0  0
   62.0634   24.4516   45.1739 H   0  0  0  0  0
   62.9465   25.2189   43.8126 H   0  0  0  0  0
   64.0998   23.2608   44.5719 H   0  0  0  0  0
   62.8614   23.2688   41.8285 H   0  0  0  0  0
   65.0398   23.2623   41.2394 H   0  0  0  0  0
   63.5271   20.9603   41.4359 H   0  0  0  0  0
   65.0390   19.9355   42.7450 H   0  0  0  0  0
   63.0507   20.0180   43.9988 H   0  0  0  0  0
   60.4606   22.4226   42.4379 H   0  0  0  0  0
   57.4126   19.0264   40.9324 H   0  0  0  0  0
   57.4404   17.2600   40.9199 H   0  0  0  0  0
   61.3080   16.1155   42.9250 H   0  0  0  0  0
  1  2  1  0  0  0
  1  3  2  0  0  0
  1  4  1  0  0  0
  1  5  1  0  0  0
  5  6  1  0  0  0
  6  7  1  0  0  0
  7  8  1  0  0  0
  7  9  1  0  0  0
  8 13  1  0  0  0
  9 10  1  0  0  0
  9 11  1  0  0  0
 11 12  1  0  0  0
 11 13  1  0  0  0
 13 14  1  0  0  0
 14 15  4  0  0  0
 14 23  4  0  0  0
 15 16  4  0  0  0
 16 17  4  0  0  0
 17 18  4  0  0  0
 17 23  4  0  0  0
 18 19  1  0  0  0
 18 20  4  0  0  0
 20 21  4  0  0  0
 21 22  4  0  0  0
 22 23  4  0  0  0
  2 24  1  0  0  0
  4 25  1  0  0  0
  6 26  1  0  0  0
  6 27  1  0  0  0
  7 28  1  0  0  0
  9 29  1  0  0  0
 10 30  1  0  0  0
 11 31  1  0  0  0
 12 32  1  0  0  0
 13 33  1  0  0  0
 15 34  1  0  0  0
 19 35  1  0  0  0
 19 36  1  0  0  0
 21 37  1  0  0  0
M  END
$$$$
