### 
### Created by X-TOOL on Mon Sep 10 21:12:45 2018
### 

@<TRIPOS>MOLECULE
1pyg_ligand
   35    37     1     0     0
SMALL
GAST_HUCK


@<TRIPOS>ATOM
      1 P          59.7410   24.8920   43.7380 P.3       1 AMP         0.2008
      2 O1P        59.7440   24.7550   45.2190 O.co2     1 AMP        -0.5537
      3 O2P        58.8020   24.0120   43.0100 O.co2     1 AMP        -0.5537
      4 O3P        59.7400   26.2830   43.2100 O.co2     1 AMP        -0.5537
      5 O5         61.1910   24.2820   43.3290 O.3       1 AMP        -0.2734
      6 C5         62.3590   24.3570   44.1290 C.3       1 AMP         0.1072
      7 C4         63.2040   23.1040   43.9710 C.3       1 AMP         0.1182
      8 O4         62.4590   21.9700   44.3870 O.3       1 AMP        -0.3365
      9 C3         63.5910   22.8440   42.5180 C.3       1 AMP         0.1149
     10 O3         64.8430   23.4550   42.1590 O.3       1 AMP        -0.3864
     11 C2         63.6990   21.3480   42.4400 C.3       1 AMP         0.1385
     12 O2         65.0060   20.8930   42.8060 O.3       1 AMP        -0.3836
     13 C1         62.6760   20.8950   43.4710 C.3       1 AMP         0.2010
     14 N9         61.4200   20.5220   42.8260 N.pl3     1 AMP        -0.1919
     15 C8         60.4120   21.3350   42.3840 C.2       1 AMP         0.1123
     16 N7         59.3910   20.6960   41.8940 N.2       1 AMP        -0.2958
     17 C5         59.7550   19.3570   42.0250 C.ar      1 AMP         0.1045
     18 C6         59.0900   18.1640   41.6990 C.ar      1 AMP         0.1298
     19 N6         57.8890   18.1490   41.1410 N.pl3     1 AMP        -0.3152
     20 N1         59.7140   17.0210   42.0120 N.ar      1 AMP        -0.2698
     21 C2         60.9050   17.0760   42.6040 C.ar      1 AMP         0.0533
     22 N3         61.6700   18.1190   42.8600 N.ar      1 AMP        -0.2714
     23 C4         60.9930   19.2460   42.5980 C.ar      1 AMP         0.1613
     24 H1         62.0670   24.4640   45.1841 H         1 AMP         0.0639
     25 H2         62.9508   25.2319   43.8217 H         1 AMP         0.0639
     26 H3         64.1124   23.2068   44.5827 H         1 AMP         0.0650
     27 H4         62.8057   23.2139   41.8424 H         1 AMP         0.0648
     28 H5         65.5335   23.1076   42.7113 H         1 AMP         0.2100
     29 H6         63.4475   20.9820   41.4336 H         1 AMP         0.0676
     30 H7         65.0387   19.9455   42.7457 H         1 AMP         0.2101
     31 H8         63.0696   20.0240   44.0155 H         1 AMP         0.0996
     32 H9         60.4606   22.4216   42.4379 H         1 AMP         0.1349
     33 H10        57.4360   17.2513   40.9177 H         1 AMP         0.1820
     34 H11        57.4079   19.0350   40.9303 H         1 AMP         0.1820
     35 H12        61.3058   16.1208   42.9233 H         1 AMP         0.0996
@<TRIPOS>BOND
     1    1    2 ar 
     2    1    3 ar 
     3    1    4 ar 
     4    1    5 1  
     5    5    6 1  
     6    6    7 1  
     7    7    8 1  
     8    7    9 1  
     9    8   13 1  
    10    9   10 1  
    11    9   11 1  
    12   11   12 1  
    13   11   13 1  
    14   13   14 1  
    15   14   15 1  
    16   14   23 1  
    17   15   16 2  
    18   16   17 1  
    19   17   18 ar 
    20   17   23 ar 
    21   18   19 1  
    22   18   20 ar 
    23   20   21 ar 
    24   21   22 ar 
    25   22   23 ar 
    26    6   24 1  
    27    6   25 1  
    28    7   26 1  
    29    9   27 1  
    30   10   28 1  
    31   11   29 1  
    32   12   30 1  
    33   13   31 1  
    34   15   32 1  
    35   19   33 1  
    36   19   34 1  
    37   21   35 1  
@<TRIPOS>SUBSTRUCTURE
     1 AMP         1

