5c5h_ligand
  -I-interpret- 

 60 63  0  0  0  0  0  0  0  0999 V2000
   98.1610  -23.5510  -16.8210 C   0  0  0  0  0
   97.2350  -23.8830  -17.7220 C   0  0  0  0  0
   96.0030  -24.2160  -17.3210 C   0  0  0  0  0
   99.0790  -23.4400  -18.7620 C   0  0  0  0  0
   95.6410  -24.2230  -16.0280 N   0  0  0  0  0
   97.8780  -23.5380  -15.5150 N   0  0  0  0  0
   97.7930  -22.7310  -28.0100 O   0  0  0  0  0
   97.7480  -22.7710  -26.7590 C   0  0  0  0  0
   97.9030  -23.8630  -26.1640 O   0  0  0  0  0
   97.4500  -21.6030  -26.0440 C   0  0  0  0  0
   96.2030  -21.0380  -26.3110 C   0  0  0  0  0
   95.7950  -19.8690  -25.6660 C   0  0  0  0  0
   96.6280  -19.2590  -24.7410 C   0  0  0  0  0
   97.8690  -19.8200  -24.4600 C   0  0  0  0  0
   98.3010  -21.0000  -25.0940 C   0  0  0  0  0
   99.5690  -21.5230  -24.7950 C   0  0  0  0  0
  100.2640  -22.0390  -25.6750 O   0  0  0  0  0
  100.1020  -21.3660  -23.3500 C   0  0  0  0  0
  101.5600  -21.8020  -23.2680 C   0  0  0  0  0
  102.2240  -21.3720  -21.9400 C   0  0  0  0  0
  101.6330  -20.7550  -21.0610 O   0  0  0  0  0
  103.4850  -21.7760  -21.8260 N   0  0  0  0  0
  104.3240  -21.3210  -20.5560 S   0  0  0  0  0
  104.4910  -19.8160  -20.6940 O   0  0  0  0  0
  105.6790  -21.9790  -20.6340 O   0  0  0  0  0
  103.6740  -21.6470  -19.2090 O   0  0  0  0  0
  103.1880  -22.9490  -19.0370 C   0  0  0  0  0
  102.6190  -22.9640  -17.6400 C   0  0  0  0  0
  101.3960  -22.2150  -17.6640 O   0  0  0  0  0
  102.1800  -24.3540  -17.3080 C   0  0  0  0  0
  103.3010  -25.0930  -16.8630 O   0  0  0  0  0
  101.1980  -24.0780  -16.1840 C   0  0  0  0  0
  101.8970  -23.7060  -15.0120 O   0  0  0  0  0
  100.4800  -22.8740  -16.7320 C   0  0  0  0  0
   99.2870  -23.2840  -17.4620 N   0  0  0  0  0
   97.8050  -23.8160  -18.9290 N   0  0  0  0  0
   96.6010  -23.8710  -15.0700 C   0  0  0  0  0
   95.1290  -24.5340  -18.2580 N   0  0  0  0  0
   99.8136  -23.2892  -19.5531 H   0  0  0  0  0
   97.8407  -23.7215  -25.2165 H   0  0  0  0  0
   95.5390  -21.5149  -27.0320 H   0  0  0  0  0
   94.8203  -19.4355  -25.8900 H   0  0  0  0  0
   96.3123  -18.3455  -24.2371 H   0  0  0  0  0
   98.5211  -19.3356  -23.7332 H   0  0  0  0  0
   99.5076  -21.9911  -22.6836 H   0  0  0  0  0
  100.0288  -20.3185  -23.0576 H   0  0  0  0  0
  102.1020  -21.3291  -24.0870 H   0  0  0  0  0
  101.5925  -22.8899  -23.3268 H   0  0  0  0  0
  103.9068  -22.3680  -22.5416 H   0  0  0  0  0
  103.9716  -23.6958  -19.1649 H   0  0  0  0  0
  102.4372  -23.2049  -19.7846 H   0  0  0  0  0
  103.3632  -22.5793  -16.9426 H   0  0  0  0  0
  101.7490  -24.9321  -18.1254 H   0  0  0  0  0
  103.0279  -25.9877  -16.6474 H   0  0  0  0  0
  100.5615  -24.9224  -15.9195 H   0  0  0  0  0
  101.2685  -23.5335  -14.3071 H   0  0  0  0  0
  100.1814  -22.2114  -15.9196 H   0  0  0  0  0
   96.3557  -23.8582  -14.0080 H   0  0  0  0  0
   95.4056  -24.5189  -19.2397 H   0  0  0  0  0
   94.1772  -24.7948  -18.0003 H   0  0  0  0  0
  1  2  4  0  0  0
  1  6  4  0  0  0
 35  1  4  0  0  0
  2  3  4  0  0  0
 36  2  4  0  0  0
  3  5  4  0  0  0
  3 38  1  0  0  0
 35  4  4  0  0  0
  4 36  4  0  0  0
 37  5  4  0  0  0
  6 37  4  0  0  0
  8  7  2  0  0  0
  8  9  1  0  0  0
 10  8  1  0  0  0
 10 11  4  0  0  0
 15 10  4  0  0  0
 11 12  4  0  0  0
 13 12  4  0  0  0
 14 13  4  0  0  0
 15 14  4  0  0  0
 16 15  1  0  0  0
 16 17  2  0  0  0
 18 16  1  0  0  0
 19 18  1  0  0  0
 20 19  1  0  0  0
 20 21  2  0  0  0
 22 20  1  0  0  0
 23 22  1  0  0  0
 23 24  2  0  0  0
 23 25  2  0  0  0
 26 23  1  0  0  0
 27 26  1  0  0  0
 28 27  1  0  0  0
 29 28  1  0  0  0
 30 28  1  0  0  0
 34 29  1  0  0  0
 30 31  1  0  0  0
 32 30  1  0  0  0
 32 33  1  0  0  0
 34 32  1  0  0  0
 34 35  1  0  0  0
  4 39  1  0  0  0
  9 40  1  0  0  0
 11 41  1  0  0  0
 12 42  1  0  0  0
 13 43  1  0  0  0
 14 44  1  0  0  0
 18 45  1  0  0  0
 18 46  1  0  0  0
 19 47  1  0  0  0
 19 48  1  0  0  0
 22 49  1  0  0  0
 27 50  1  0  0  0
 27 51  1  0  0  0
 28 52  1  0  0  0
 30 53  1  0  0  0
 31 54  1  0  0  0
 32 55  1  0  0  0
 33 56  1  0  0  0
 34 57  1  0  0  0
 37 58  1  0  0  0
 38 59  1  0  0  0
 38 60  1  0  0  0
M  END
$$$$
