3bva_ligand
  -I-interpret- 

122121  0  0  0  0  0  0  0  0999 V2000
   23.5130   25.2630   18.7010 N   0  0  0  0  0
   22.9570   26.5810   18.6720 C   0  0  0  0  0
   21.5600   26.6530   18.0060 C   0  0  0  0  0
   20.9080   27.6950   18.1040 O   0  0  0  0  0
   23.8680   27.6060   17.9800 C   0  0  0  0  0
   24.0350   27.1310   16.6510 O   0  0  0  0  0
   25.2550   27.6750   18.6780 C   0  0  0  0  0
   21.1080   25.5940   17.3570 N   0  0  0  0  0
   19.8230   25.5800   16.6520 C   0  0  0  0  0
   18.9780   24.4680   17.1950 C   0  0  0  0  0
   19.0370   23.3320   16.8010 O   0  0  0  0  0
   20.0090   25.4230   15.1210 C   0  0  0  0  0
   21.0470   26.3660   14.5320 C   0  0  0  0  0
   18.6810   25.5440   14.4350 C   0  0  0  0  0
   20.7000   27.8180   14.6180 C   0  0  0  0  0
   13.2950   21.0540   18.0540 N   0  0  0  0  0
   13.1250   19.6530   18.4510 C   0  0  0  0  0
   11.7040   19.2390   18.0730 C   0  0  0  0  0
   10.7210   19.9210   18.3560 O   0  0  0  0  0
   13.4570   19.4510   19.9070 C   0  0  0  0  0
   13.2250   18.0700   20.4260 C   0  0  0  0  0
   11.8320   17.7650   20.8780 C   0  0  0  0  0
   11.1010   18.6710   21.2590 O   0  0  0  0  0
   11.3790   16.5420   20.8190 N   0  0  0  0  0
   11.6200   18.0400   17.5350 N   0  0  0  0  0
   10.3540   17.4770   17.1340 C   0  0  0  0  0
   10.2450   16.0810   17.7450 C   0  0  0  0  0
   11.1950   15.3030   17.7680 O   0  0  0  0  0
    8.9850   15.7220   18.2850 N   0  0  0  0  0
   10.2140   17.4190   15.6260 C   0  0  0  0  0
   10.6520   18.6750   14.8900 C   0  0  0  0  0
   10.6780   18.4630   13.3710 C   0  0  0  0  0
    9.3550   18.0530   12.8630 N   0  0  0  0  0
    9.0810   17.8760   11.5920 C   0  0  0  0  0
   10.0980   18.0770   10.7490 N   0  0  0  0  0
    7.8840   17.5060   11.1510 N   0  0  0  0  0
   23.6500   24.5060   19.9100 C   0  0  0  0  0
   23.2500   25.0390   20.9460 O   0  0  0  0  0
   24.2670   23.1760   19.7500 C   0  0  0  0  0
   18.1910   24.8030   18.2780 N   0  0  0  0  0
   17.4300   23.8350   19.0620 C   0  0  0  0  0
   15.9730   23.8170   18.7570 C   0  0  0  0  0
   17.7360   24.0470   20.5580 C   0  0  0  0  0
   19.1910   24.0780   20.9400 C   0  0  0  0  0
   19.9770   22.8930   20.5270 C   0  0  0  0  0
   19.4160   21.5720   21.0660 C   0  0  0  0  0
   15.6780   23.6430   17.3630 N   0  3  0  0  0
   14.4680   22.9350   17.0580 C   0  0  0  0  0
   14.4680   21.5300   17.6480 C   0  0  0  0  0
   15.4760   20.8120   17.6670 O   0  0  0  0  0
   14.1020   22.9110   15.5610 C   0  0  0  0  0
   15.0530   22.1010   14.7650 C   0  0  0  0  0
   14.5350   21.5870   13.4440 C   0  0  0  0  0
   14.0640   20.1500   13.6340 C   0  0  0  0  0
   23.8249   24.8448   17.8245 H   0  0  0  0  0
   22.8589   26.8355   19.7273 H   0  0  0  0  0
   23.4331   28.6048   18.0171 H   0  0  0  0  0
   23.1793   27.0876   16.2180 H   0  0  0  0  0
   25.7000   26.6802   18.6983 H   0  0  0  0  0
   25.9048   28.3539   18.1258 H   0  0  0  0  0
   25.1295   28.0391   19.6977 H   0  0  0  0  0
   21.6789   24.7488   17.3463 H   0  0  0  0  0
   19.3267   26.5363   16.8174 H   0  0  0  0  0
   20.4109   24.4255   14.9432 H   0  0  0  0  0
   21.1283   26.1234   13.4725 H   0  0  0  0  0
   21.9625   26.2260   15.1068 H   0  0  0  0  0
   18.0125   24.7643   14.8001 H   0  0  0  0  0
   18.2509   26.5225   14.6487 H   0  0  0  0  0
   18.8177   25.4329   13.3593 H   0  0  0  0  0
   19.7696   28.0004   14.0803 H   0  0  0  0  0
   20.5779   28.0997   15.6639 H   0  0  0  0  0
   21.5005   28.4086   14.1724 H   0  0  0  0  0
   12.4911   21.6808   18.0903 H   0  0  0  0  0
   13.8245   19.0046   17.9235 H   0  0  0  0  0
   12.8006   20.1124   20.4725 H   0  0  0  0  0
   14.5229   19.6514   20.0158 H   0  0  0  0  0
   13.8623   17.9617   21.3036 H   0  0  0  0  0
   13.4334   17.3926   19.5978 H   0  0  0  0  0
   10.4165   16.3410   21.0902 H   0  0  0  0  0
   11.9876   15.7875   20.5017 H   0  0  0  0  0
   12.4717   17.4957   17.3984 H   0  0  0  0  0
    9.5452   18.1133   17.4932 H   0  0  0  0  0
    8.8532   14.8013   18.7037 H   0  0  0  0  0
    8.2098   16.3843   18.2550 H   0  0  0  0  0
    9.1534   17.2843   15.4139 H   0  0  0  0  0
   10.8599   16.6115   15.2813 H   0  0  0  0  0
   11.6593   18.9315   15.2181 H   0  0  0  0  0
    9.9403   19.4697   15.1136 H   0  0  0  0  0
   11.3960   17.6751   13.1433 H   0  0  0  0  0
   10.9560   19.4032   12.8946 H   0  0  0  0  0
    8.6084   17.8978   13.5405 H   0  0  0  0  0
    9.9628   17.9465    9.7465 H   0  0  0  0  0
   11.0095   18.3609   11.1080 H   0  0  0  0  0
    7.1241   17.3454   11.8122 H   0  0  0  0  0
   25.1802   23.1268   20.3430 H   0  0  0  0  0
   23.5698   22.4102   20.0900 H   0  0  0  0  0
   24.5053   23.0115   18.6992 H   0  0  0  0  0
   18.1379   25.7856   18.5466 H   0  0  0  0  0
   17.7578   22.8365   18.7727 H   0  0  0  0  0
   15.5646   24.7815   19.0589 H   0  0  0  0  0
   15.5386   22.9715   19.2903 H   0  0  0  0  0
   17.3018   23.1952   21.0814 H   0  0  0  0  0
   17.3325   25.0263   20.8156 H   0  0  0  0  0
   19.2279   24.1139   22.0288 H   0  0  0  0  0
   19.6296   24.9369   20.4320 H   0  0  0  0  0
   20.9837   23.0104   20.9282 H   0  0  0  0  0
   19.9478   22.8425   19.4386 H   0  0  0  0  0
   19.4109   21.5986   22.1557 H   0  0  0  0  0
   18.3986   21.4345   20.6999 H   0  0  0  0  0
   20.0411   20.7470   20.7243 H   0  0  0  0  0
   16.4402   23.0859   16.9769 H   0  0  0  0  0
   15.5664   24.5799   16.9754 H   0  0  0  0  0
   13.6800   23.5126   17.5412 H   0  0  0  0  0
   14.1336   23.9347   15.1879 H   0  0  0  0  0
   13.1118   22.4664   15.4612 H   0  0  0  0  0
   15.2865   21.2224   15.3663 H   0  0  0  0  0
   15.8934   22.7548   14.5320 H   0  0  0  0  0
   15.3263   21.6228   12.6952 H   0  0  0  0  0
   13.7064   22.2076   13.1028 H   0  0  0  0  0
   14.8999   19.5365   13.9702 H   0  0  0  0  0
   13.2700   20.1249   14.3803 H   0  0  0  0  0
   13.6865   19.7645   12.6869 H   0  0  0  0  0
  2  1  1  0  0  0
  1 37  1  0  0  0
  3  2  1  0  0  0
  2  5  1  0  0  0
  3  4  2  0  0  0
  8  3  1  0  0  0
  5  6  1  0  0  0
  5  7  1  0  0  0
  9  8  1  0  0  0
 10  9  1  0  0  0
  9 12  1  0  0  0
 10 11  2  0  0  0
 40 10  1  0  0  0
 12 13  1  0  0  0
 12 14  1  0  0  0
 13 15  1  0  0  0
 16 17  1  0  0  0
 49 16  1  0  0  0
 17 18  1  0  0  0
 17 20  1  0  0  0
 18 19  2  0  0  0
 18 25  1  0  0  0
 20 21  1  0  0  0
 21 22  1  0  0  0
 22 23  2  0  0  0
 22 24  1  0  0  0
 25 26  1  0  0  0
 26 27  1  0  0  0
 26 30  1  0  0  0
 27 28  2  0  0  0
 27 29  1  0  0  0
 30 31  1  0  0  0
 31 32  1  0  0  0
 32 33  1  0  0  0
 33 34  1  0  0  0
 34 35  1  0  0  0
 34 36  2  0  0  0
 37 38  2  0  0  0
 37 39  1  0  0  0
 41 40  1  0  0  0
 42 41  1  0  0  0
 41 43  1  0  0  0
 47 42  1  0  0  0
 43 44  1  0  0  0
 44 45  1  0  0  0
 45 46  1  0  0  0
 48 47  1  0  0  0
 48 49  1  0  0  0
 48 51  1  0  0  0
 49 50  2  0  0  0
 51 52  1  0  0  0
 52 53  1  0  0  0
 53 54  1  0  0  0
  1 55  1  0  0  0
  2 56  1  0  0  0
  5 57  1  0  0  0
  6 58  1  0  0  0
  7 59  1  0  0  0
  7 60  1  0  0  0
  7 61  1  0  0  0
  8 62  1  0  0  0
  9 63  1  0  0  0
 12 64  1  0  0  0
 13 65  1  0  0  0
 13 66  1  0  0  0
 14 67  1  0  0  0
 14 68  1  0  0  0
 14 69  1  0  0  0
 15 70  1  0  0  0
 15 71  1  0  0  0
 15 72  1  0  0  0
 16 73  1  0  0  0
 17 74  1  0  0  0
 20 75  1  0  0  0
 20 76  1  0  0  0
 21 77  1  0  0  0
 21 78  1  0  0  0
 24 79  1  0  0  0
 24 80  1  0  0  0
 25 81  1  0  0  0
 26 82  1  0  0  0
 29 83  1  0  0  0
 29 84  1  0  0  0
 30 85  1  0  0  0
 30 86  1  0  0  0
 31 87  1  0  0  0
 31 88  1  0  0  0
 32 89  1  0  0  0
 32 90  1  0  0  0
 33 91  1  0  0  0
 35 92  1  0  0  0
 35 93  1  0  0  0
 36 94  1  0  0  0
 39 95  1  0  0  0
 39 96  1  0  0  0
 39 97  1  0  0  0
 40 98  1  0  0  0
 41 99  1  0  0  0
 42100  1  0  0  0
 42101  1  0  0  0
 43102  1  0  0  0
 43103  1  0  0  0
 44104  1  0  0  0
 44105  1  0  0  0
 45106  1  0  0  0
 45107  1  0  0  0
 46108  1  0  0  0
 46109  1  0  0  0
 46110  1  0  0  0
 47111  1  0  0  0
 47112  1  0  0  0
 48113  1  0  0  0
 51114  1  0  0  0
 51115  1  0  0  0
 52116  1  0  0  0
 52117  1  0  0  0
 53118  1  0  0  0
 53119  1  0  0  0
 54120  1  0  0  0
 54121  1  0  0  0
 54122  1  0  0  0
M  END
$$$$
