4rr6_ligand
  -I-interpret- 

 45 47  0  0  0  0  0  0  0  0999 V2000
   15.3090   -2.4730   -5.8320 O   0  0  0  0  0
   14.9510   -3.8420   -6.0550 C   0  0  0  0  0
   14.7700   -4.5290   -4.7390 C   0  0  0  0  0
   16.0290   -4.4600   -4.0160 O   0  0  0  0  0
   15.7310   -3.9270   -2.6910 C   0  0  0  0  0
   16.5160   -2.6300   -2.5220 N   0  0  0  0  0
   16.3740   -1.7930   -1.4920 C   0  0  0  0  0
   15.5470   -1.8140   -0.4370 N   0  0  0  0  0
   15.6340   -0.8380    0.4740 C   0  0  0  0  0
   16.5370    0.1200    0.3500 N   0  0  0  0  0
   17.3920    0.2080   -0.6900 C   0  0  0  0  0
   18.2800    1.2090   -0.7870 N   0  0  0  0  0
   17.3150   -0.7930   -1.6490 C   0  0  0  0  0
   17.9690   -1.0290   -2.7940 N   0  0  0  0  0
   17.5020   -2.1690   -3.3270 C   0  0  0  0  0
   14.2210   -4.0000   -2.5010 C   0  0  0  0  0
   13.8330   -5.2990   -2.0720 O   0  0  0  0  0
   13.7590   -3.7320   -3.9270 C   0  0  0  0  0
   12.4300   -4.2550   -4.0930 N   0  0  0  0  0
    9.0940   -3.9600   -2.9500 N   0  3  0  0  0
   10.0420   -4.1950   -4.0810 C   0  0  0  0  0
    9.3970   -3.7480   -5.4180 C   0  0  0  0  0
    8.3330   -4.6810   -5.7630 O   0  0  0  0  0
   11.3760   -3.5090   -3.8960 C   0  0  0  0  0
   11.4660   -2.1840   -3.6120 O   0  0  0  0  0
   15.4252   -2.0321   -6.6768 H   0  0  0  0  0
   15.7414   -4.3377   -6.6186 H   0  0  0  0  0
   14.0201   -3.8873   -6.6202 H   0  0  0  0  0
   14.4471   -5.5591   -4.8899 H   0  0  0  0  0
   16.0812   -4.4893   -1.8254 H   0  0  0  0  0
   14.9544   -0.8325    1.3261 H   0  0  0  0  0
   18.3200    1.9272   -0.0638 H   0  0  0  0  0
   18.9152    1.2519   -1.5839 H   0  0  0  0  0
   17.8541   -2.6399   -4.2448 H   0  0  0  0  0
   13.8124   -3.3207   -1.7529 H   0  0  0  0  0
   14.1360   -5.4414   -1.1723 H   0  0  0  0  0
   13.7162   -2.6806   -4.2113 H   0  0  0  0  0
   12.3077   -5.2289   -4.3704 H   0  0  0  0  0
    9.5285   -4.2574   -2.0764 H   0  0  0  0  0
    8.8683   -2.9667   -2.8979 H   0  0  0  0  0
    8.2405   -4.4961   -3.1064 H   0  0  0  0  0
   10.2419   -5.2663   -4.1010 H   0  0  0  0  0
   10.1500   -3.7398   -6.2060 H   0  0  0  0  0
    8.9867   -2.7438   -5.3118 H   0  0  0  0  0
    7.9281   -4.4110   -6.5905 H   0  0  0  0  0
  2  1  1  0  0  0
  3  2  1  0  0  0
  3  4  1  0  0  0
 18  3  1  0  0  0
  5  4  1  0  0  0
  5  6  1  0  0  0
 16  5  1  0  0  0
  6  7  4  0  0  0
  6 15  4  0  0  0
  7  8  4  0  0  0
  7 13  4  0  0  0
  8  9  4  0  0  0
  9 10  4  0  0  0
 11 10  4  0  0  0
 11 12  1  0  0  0
 13 11  4  0  0  0
 14 13  4  0  0  0
 15 14  4  0  0  0
 16 17  1  0  0  0
 18 16  1  0  0  0
 19 18  1  0  0  0
 24 19  1  0  0  0
 21 20  1  0  0  0
 21 22  1  0  0  0
 21 24  1  0  0  0
 22 23  1  0  0  0
 24 25  2  0  0  0
  1 26  1  0  0  0
  2 27  1  0  0  0
  2 28  1  0  0  0
  3 29  1  0  0  0
  5 30  1  0  0  0
  9 31  1  0  0  0
 12 32  1  0  0  0
 12 33  1  0  0  0
 15 34  1  0  0  0
 16 35  1  0  0  0
 17 36  1  0  0  0
 18 37  1  0  0  0
 19 38  1  0  0  0
 20 39  1  0  0  0
 20 40  1  0  0  0
 20 41  1  0  0  0
 21 42  1  0  0  0
 22 43  1  0  0  0
 22 44  1  0  0  0
 23 45  1  0  0  0
M  END
$$$$
