1ddm_ligand
  -I-interpret- 

167170  0  0  0  0  0  0  0  0999 V2000
    4.5040    5.6120   10.0500 N   0  3  0  0  0
    3.2330    6.2650   10.4640 C   0  0  0  0  0
    2.8820    7.4560    9.5950 C   0  0  0  0  0
    3.1300    8.6020    9.9730 O   0  0  0  0  0
    2.3060    7.1870    8.4260 N   0  0  0  0  0
    1.9190    8.2500    7.5040 C   0  0  0  0  0
    0.5480    7.9720    6.8940 C   0  0  0  0  0
   -0.0650    6.9390    7.1640 O   0  0  0  0  0
    2.9640    8.4000    6.3910 C   0  0  0  0  0
    3.5910    7.1030    5.9590 C   0  0  0  0  0
    4.9680    6.9530    5.9620 C   0  0  0  0  0
    2.8060    6.0380    5.5400 C   0  0  0  0  0
    5.5520    5.7640    5.5650 C   0  0  0  0  0
    3.3850    4.8480    5.1420 C   0  0  0  0  0
    4.7590    4.7110    5.1540 C   0  0  0  0  0
    0.0780    8.9010    6.0670 N   0  0  0  0  0
   -1.2180    8.7620    5.4120 C   0  0  0  0  0
   -1.3880    9.8140    4.3190 C   0  0  0  0  0
   -0.9060   10.9380    4.4510 O   0  0  0  0  0
   -2.3480    8.8880    6.4380 C   0  0  0  0  0
   -2.0990    9.9470    7.3450 O   0  0  0  0  0
   -2.0670    9.4380    3.2380 N   0  0  0  0  0
   -2.2890   10.3480    2.1210 C   0  0  0  0  0
   -3.0640   11.5850    2.5680 C   0  0  0  0  0
   -3.7960   11.5460    3.5570 O   0  0  0  0  0
   -3.0410    9.6340    0.9950 C   0  0  0  0  0
   -4.5440    9.6460    1.1970 C   0  0  0  0  0
   -5.0420    9.2790    2.2600 O   0  0  0  0  0
   -5.2730   10.0700    0.1700 N   0  0  0  0  0
   -2.8940   12.6830    1.8370 N   0  0  0  0  0
   -3.5700   13.9330    2.1640 C   0  0  0  0  0
   -4.2870   14.5090    0.9470 C   0  0  0  0  0
   -5.1380   15.3900    1.0760 O   0  0  0  0  0
   -2.5640   14.9500    2.7070 C   0  0  0  0  0
   -2.2940   14.8030    4.1950 C   0  0  0  0  0
   -3.5310   15.6340    5.2080 S   0  0  0  0  0
   -2.6680   17.1500    5.6190 C   0  0  0  0  0
   -3.9410   14.0050   -0.2330 N   0  0  0  0  0
   -4.5530   14.4700   -1.4740 C   0  0  0  0  0
   -5.8640   13.7370   -1.7450 C   0  0  0  0  0
   -6.3340   13.6880   -2.8830 O   0  0  0  0  0
   -3.5920   14.2710   -2.6460 C   0  0  0  0  0
   -4.0360   14.9680   -3.7970 O   0  0  0  0  0
   -6.4480   13.1700   -0.6950 N   0  0  0  0  0
   -7.7040   12.4370   -0.8210 C   0  0  0  0  0
   -8.8320   13.3600   -1.2730 C   0  0  0  0  0
   -8.7470   14.5790   -1.1260 O   0  0  0  0  0
   -8.0710   11.7820    0.5150 C   0  0  0  0  0
   -8.0980   12.7430    1.6700 C   0  0  0  0  0
   -6.9680   12.9490    2.4450 C   0  0  0  0  0
   -9.2560   13.4390    1.9820 C   0  0  0  0  0
   -6.9910   13.8330    3.5060 C   0  0  0  0  0
   -9.2840   14.3250    3.0420 C   0  0  0  0  0
   -8.1500   14.5210    3.8070 C   0  0  0  0  0
   -9.8900   12.7670   -1.8160 N   0  0  0  0  0
  -11.0400   13.5320   -2.2860 C   0  0  0  0  0
  -12.0860   13.6690   -1.1840 C   0  0  0  0  0
  -13.1400   14.2740   -1.3880 O   0  0  0  0  0
  -11.6620   12.8580   -3.5120 C   0  0  0  0  0
  -10.6560   12.5430   -4.6060 C   0  0  0  0  0
  -11.2110   11.5950   -5.6510 C   0  0  0  0  0
  -11.3230   12.0050   -6.8250 O   0  0  0  0  0
  -11.5350   10.4420   -5.2940 O   0  0  0  0  0
  -11.7820   13.1050   -0.0180 N   0  0  0  0  0
  -12.6900   13.1580    1.1250 C   0  0  0  0  0
  -14.0330   12.5150    0.7910 C   0  0  0  0  0
  -14.9990   13.2060    0.4670 O   0  0  0  0  0
  -12.9000   14.6060    1.5740 C   0  0  0  0  0
  -13.4390   14.7000    2.9890 C   0  0  0  0  0
  -14.5490   14.1870    3.2360 O   0  0  0  0  0
  -12.7490   15.2880    3.8480 O   0  0  0  0  0
  -14.0840   11.1900    0.8770 N   0  0  0  0  0
  -15.3080   10.4510    0.5900 C   0  0  0  0  0
  -16.3170   10.6060    1.7280 C   0  0  0  0  0
  -15.9330   10.7880    2.8840 O   0  0  0  0  0
  -14.9910    8.9700    0.3720 C   0  0  0  0  0
  -14.4470    8.6680   -0.9940 C   0  0  0  0  0
  -13.0980    8.8300   -1.2660 C   0  0  0  0  0
  -15.2820    8.2230   -2.0040 C   0  0  0  0  0
  -12.5930    8.5540   -2.5210 C   0  0  0  0  0
  -14.7830    7.9450   -3.2630 C   0  0  0  0  0
  -13.4360    8.1110   -3.5220 C   0  0  0  0  0
  -17.6250   10.5310    1.4160 N   0  0  0  0  0
  -18.6860   10.6660    2.4210 C   0  0  0  0  0
  -18.5130    9.6930    3.5830 C   0  0  0  0  0
  -18.0620   10.1340    4.6610 O   0  0  0  0  0
  -19.9620   10.3440    1.6400 C   0  0  0  0  0
  -19.6280   10.6610    0.2250 C   0  0  0  0  0
  -18.1740   10.3160    0.0620 C   0  0  0  0  0
  -18.8290    8.4960    3.4060 O   0  0  0  0  0
    4.6936    4.8199   10.6641 H   0  0  0  0  0
    4.4190    5.2849    9.0876 H   0  0  0  0  0
    5.2677    6.2850   10.1155 H   0  0  0  0  0
    3.3552    6.6199   11.4873 H   0  0  0  0  0
    2.4320    5.5319   10.3690 H   0  0  0  0  0
    2.1310    6.2157    8.1685 H   0  0  0  0  0
    1.8640    9.1805    8.0690 H   0  0  0  0  0
    3.7630    9.0303    6.7815 H   0  0  0  0  0
    2.4531    8.8163    5.5228 H   0  0  0  0  0
    5.5991    7.7824    6.2812 H   0  0  0  0  0
    1.7210    6.1413    5.5247 H   0  0  0  0  0
    6.6368    5.6582    5.5765 H   0  0  0  0  0
    2.7572    4.0177    4.8187 H   0  0  0  0  0
    5.2168    3.7731    4.8395 H   0  0  0  0  0
    0.6389    9.7334    5.8857 H   0  0  0  0  0
   -1.2627    7.7744    4.9529 H   0  0  0  0  0
   -2.4138    7.9563    6.9999 H   0  0  0  0  0
   -3.2780    9.0944    5.9083 H   0  0  0  0  0
   -2.8209   10.0034    7.9753 H   0  0  0  0  0
   -2.4411    8.4903    3.1899 H   0  0  0  0  0
   -1.3163   10.6702    1.7494 H   0  0  0  0  0
   -2.7133    8.5946    0.9797 H   0  0  0  0  0
   -2.8240   10.1564    0.0633 H   0  0  0  0  0
   -6.2898   10.1006    0.2445 H   0  0  0  0  0
   -4.8157   10.3648   -0.6928 H   0  0  0  0  0
   -2.2750   12.6499    1.0270 H   0  0  0  0  0
   -4.3167   13.7208    2.9292 H   0  0  0  0  0
   -2.9844   15.9429    2.5475 H   0  0  0  0  0
   -1.6206   14.7870    2.1859 H   0  0  0  0  0
   -1.3261   15.2572    4.4071 H   0  0  0  0  0
   -2.3199   13.7407    4.4376 H   0  0  0  0  0
   -1.7516   16.9101    6.1582 H   0  0  0  0  0
   -2.4221   17.6865    4.7026 H   0  0  0  0  0
   -3.3073   17.7722    6.2453 H   0  0  0  0  0
   -3.2299   13.2748   -0.2725 H   0  0  0  0  0
   -4.7692   15.5329   -1.3663 H   0  0  0  0  0
   -3.5445   13.2075   -2.8801 H   0  0  0  0  0
   -2.6127   14.6564   -2.3622 H   0  0  0  0  0
   -3.4152   14.8256   -4.5153 H   0  0  0  0  0
   -6.0079   13.2488    0.2218 H   0  0  0  0  0
   -7.5692   11.6621   -1.5757 H   0  0  0  0  0
   -7.3094   11.0328    0.7314 H   0  0  0  0  0
   -9.0740   11.3682    0.4111 H   0  0  0  0  0
   -6.0506   12.4073    2.2147 H   0  0  0  0  0
  -10.1545   13.2855    1.3843 H   0  0  0  0  0
   -6.0942   13.9876    4.1059 H   0  0  0  0  0
  -10.1996   14.8687    3.2745 H   0  0  0  0  0
   -8.1702   15.2168    4.6458 H   0  0  0  0  0
   -9.8983   11.7511   -1.9065 H   0  0  0  0  0
  -10.6943   14.5278   -2.5635 H   0  0  0  0  0
  -12.3944   13.5490   -3.9295 H   0  0  0  0  0
  -12.0942   11.9132   -3.1824 H   0  0  0  0  0
   -9.7939   12.0640   -4.1419 H   0  0  0  0  0
  -10.3973   13.4776   -5.1038 H   0  0  0  0  0
  -11.3666   10.3400   -4.3544 H   0  0  0  0  0
  -10.8892   12.6217    0.0806 H   0  0  0  0  0
  -12.2345   12.5957    1.9401 H   0  0  0  0  0
  -13.6278   15.0646    0.9046 H   0  0  0  0  0
  -11.9345   15.1111    1.5465 H   0  0  0  0  0
  -11.9375   15.6036    3.4437 H   0  0  0  0  0
  -13.2460   10.6769    1.1506 H   0  0  0  0  0
  -15.7480   10.8605   -0.3193 H   0  0  0  0  0
  -15.9231    8.4160    0.4829 H   0  0  0  0  0
  -14.2281    8.6883    1.0977 H   0  0  0  0  0
  -12.4280    9.1792   -0.4804 H   0  0  0  0  0
  -16.3453    8.0902   -1.8046 H   0  0  0  0  0
  -11.5298    8.6855   -2.7220 H   0  0  0  0  0
  -15.4512    7.5954   -4.0500 H   0  0  0  0  0
  -13.0394    7.8930   -4.5136 H   0  0  0  0  0
  -18.6887   11.6559    2.8773 H   0  0  0  0  0
  -20.8142   10.9226    1.9964 H   0  0  0  0  0
  -20.2633    9.3038    1.7638 H   0  0  0  0  0
  -19.8149   11.7107   -0.0016 H   0  0  0  0  0
  -20.2507   10.0937   -0.4667 H   0  0  0  0  0
  -18.0200    9.2990   -0.2986 H   0  0  0  0  0
  -17.6789   10.9242   -0.6950 H   0  0  0  0  0
  -19.1503    8.3803    2.5088 H   0  0  0  0  0
  1  2  1  0  0  0
  2  3  1  0  0  0
  3  4  2  0  0  0
  3  5  1  0  0  0
  5  6  1  0  0  0
  6  7  1  0  0  0
  6  9  1  0  0  0
  7  8  2  0  0  0
  7 16  1  0  0  0
  9 10  1  0  0  0
 10 11  4  0  0  0
 10 12  4  0  0  0
 11 13  4  0  0  0
 12 14  4  0  0  0
 13 15  4  0  0  0
 14 15  4  0  0  0
 16 17  1  0  0  0
 17 18  1  0  0  0
 17 20  1  0  0  0
 18 19  2  0  0  0
 18 22  1  0  0  0
 20 21  1  0  0  0
 22 23  1  0  0  0
 23 24  1  0  0  0
 23 26  1  0  0  0
 24 25  2  0  0  0
 24 30  1  0  0  0
 26 27  1  0  0  0
 27 28  2  0  0  0
 27 29  1  0  0  0
 30 31  1  0  0  0
 31 32  1  0  0  0
 31 34  1  0  0  0
 32 33  2  0  0  0
 32 38  1  0  0  0
 34 35  1  0  0  0
 35 36  1  0  0  0
 36 37  1  0  0  0
 38 39  1  0  0  0
 39 40  1  0  0  0
 39 42  1  0  0  0
 40 41  2  0  0  0
 40 44  1  0  0  0
 42 43  1  0  0  0
 44 45  1  0  0  0
 45 46  1  0  0  0
 45 48  1  0  0  0
 46 47  2  0  0  0
 46 55  1  0  0  0
 48 49  1  0  0  0
 49 50  4  0  0  0
 49 51  4  0  0  0
 50 52  4  0  0  0
 51 53  4  0  0  0
 52 54  4  0  0  0
 53 54  4  0  0  0
 55 56  1  0  0  0
 56 57  1  0  0  0
 56 59  1  0  0  0
 57 58  2  0  0  0
 57 64  1  0  0  0
 59 60  1  0  0  0
 60 61  1  0  0  0
 61 62  2  0  0  0
 61 63  1  0  0  0
 64 65  1  0  0  0
 65 66  1  0  0  0
 65 68  1  0  0  0
 66 67  2  0  0  0
 66 72  1  0  0  0
 68 69  1  0  0  0
 69 70  2  0  0  0
 69 71  1  0  0  0
 72 73  1  0  0  0
 73 74  1  0  0  0
 73 76  1  0  0  0
 74 75  2  0  0  0
 74 83  1  0  0  0
 76 77  1  0  0  0
 77 78  4  0  0  0
 77 79  4  0  0  0
 78 80  4  0  0  0
 79 81  4  0  0  0
 80 82  4  0  0  0
 81 82  4  0  0  0
 83 84  1  0  0  0
 83 89  1  0  0  0
 84 85  1  0  0  0
 84 87  1  0  0  0
 85 86  2  0  0  0
 85 90  1  0  0  0
 87 88  1  0  0  0
 88 89  1  0  0  0
  1 91  1  0  0  0
  1 92  1  0  0  0
  1 93  1  0  0  0
  2 94  1  0  0  0
  2 95  1  0  0  0
  5 96  1  0  0  0
  6 97  1  0  0  0
  9 98  1  0  0  0
  9 99  1  0  0  0
 11100  1  0  0  0
 12101  1  0  0  0
 13102  1  0  0  0
 14103  1  0  0  0
 15104  1  0  0  0
 16105  1  0  0  0
 17106  1  0  0  0
 20107  1  0  0  0
 20108  1  0  0  0
 21109  1  0  0  0
 22110  1  0  0  0
 23111  1  0  0  0
 26112  1  0  0  0
 26113  1  0  0  0
 29114  1  0  0  0
 29115  1  0  0  0
 30116  1  0  0  0
 31117  1  0  0  0
 34118  1  0  0  0
 34119  1  0  0  0
 35120  1  0  0  0
 35121  1  0  0  0
 37122  1  0  0  0
 37123  1  0  0  0
 37124  1  0  0  0
 38125  1  0  0  0
 39126  1  0  0  0
 42127  1  0  0  0
 42128  1  0  0  0
 43129  1  0  0  0
 44130  1  0  0  0
 45131  1  0  0  0
 48132  1  0  0  0
 48133  1  0  0  0
 50134  1  0  0  0
 51135  1  0  0  0
 52136  1  0  0  0
 53137  1  0  0  0
 54138  1  0  0  0
 55139  1  0  0  0
 56140  1  0  0  0
 59141  1  0  0  0
 59142  1  0  0  0
 60143  1  0  0  0
 60144  1  0  0  0
 63145  1  0  0  0
 64146  1  0  0  0
 65147  1  0  0  0
 68148  1  0  0  0
 68149  1  0  0  0
 71150  1  0  0  0
 72151  1  0  0  0
 73152  1  0  0  0
 76153  1  0  0  0
 76154  1  0  0  0
 78155  1  0  0  0
 79156  1  0  0  0
 80157  1  0  0  0
 81158  1  0  0  0
 82159  1  0  0  0
 84160  1  0  0  0
 87161  1  0  0  0
 87162  1  0  0  0
 88163  1  0  0  0
 88164  1  0  0  0
 89165  1  0  0  0
 89166  1  0  0  0
 90167  1  0  0  0
M  END
$$$$
