### 
### Created by X-TOOL on Mon Sep 10 21:12:48 2018
### 

@<TRIPOS>MOLECULE
1ddm_ligand
  164   167     1     0     0
SMALL
GAST_HUCK


@<TRIPOS>ATOM
      1 N           4.5040    5.6120   10.0500 N.4       1 GLY         0.2357
      2 CA          3.2330    6.2650   10.4640 C.3       1 GLY         0.0545
      3 C           2.8820    7.4560    9.5950 C.2       1 GLY         0.2238
      4 O           3.1300    8.6020    9.9730 O.2       1 GLY        -0.3910
      5 H1          4.6924    4.8290   10.6562 H         1 GLY         0.2012
      6 H2          5.2595    6.2762   10.1143 H         1 GLY         0.2012
      7 H3          4.4212    5.2883    9.0990 H         1 GLY         0.2012
      8 H4          3.3343    6.6057   11.5050 H         1 GLY         0.1061
      9 H5          2.4195    5.5276   10.3970 H         1 GLY         0.1061
     10 N           2.3060    7.1870    8.4260 N.am      1 PHE        -0.2595
     11 CA          1.9190    8.2500    7.5040 C.3       1 PHE         0.1406
     12 C           0.5480    7.9720    6.8940 C.2       1 PHE         0.2060
     13 O          -0.0650    6.9390    7.1640 O.2       1 PHE        -0.3942
     14 CB          2.9640    8.4000    6.3910 C.3       1 PHE         0.0214
     15 CG          3.5910    7.1030    5.9590 C.ar      1 PHE        -0.0386
     16 CD1         4.9680    6.9530    5.9620 C.ar      1 PHE        -0.0601
     17 CD2         2.8060    6.0380    5.5400 C.ar      1 PHE        -0.0601
     18 CE1         5.5520    5.7640    5.5650 C.ar      1 PHE        -0.0686
     19 CE2         3.3850    4.8480    5.1420 C.ar      1 PHE        -0.0686
     20 CZ          4.7590    4.7110    5.1540 C.ar      1 PHE        -0.0687
     21 H6          2.1344    6.2347    8.1735 H         1 PHE         0.1886
     22 H7          1.8662    9.1944    8.0656 H         1 PHE         0.0823
     23 H8          3.7615    9.0655    6.7532 H         1 PHE         0.0474
     24 H9          2.4751    8.8553    5.5171 H         1 PHE         0.0474
     25 H10         5.5956    7.7778    6.2795 H         1 PHE         0.0557
     26 H11         1.7270    6.1407    5.5248 H         1 PHE         0.0557
     27 H12         6.6308    5.6588    5.5764 H         1 PHE         0.0599
     28 H13         2.7607    4.0222    4.8204 H         1 PHE         0.0599
     29 H14         5.2143    3.7783    4.8413 H         1 PHE         0.0559
     30 N           0.0780    8.9010    6.0670 N.am      1 SER        -0.2614
     31 CA         -1.2180    8.7620    5.4120 C.3       1 SER         0.1539
     32 C          -1.3880    9.8140    4.3190 C.2       1 SER         0.2063
     33 O          -0.9060   10.9380    4.4510 O.2       1 SER        -0.3943
     34 CB         -2.3480    8.8880    6.4380 C.3       1 SER         0.0843
     35 OG         -2.0990    9.9470    7.3450 O.3       1 SER        -0.3903
     36 H15         0.6279    9.7171    5.8892 H         1 SER         0.1884
     37 H16        -1.2709    7.7650    4.9503 H         1 SER         0.0823
     38 H17        -2.4295    7.9458    6.9998 H         1 SER         0.0606
     39 H18        -3.2928    9.0827    5.9094 H         1 SER         0.0606
     40 H19        -2.8134   10.0028    7.9688 H         1 SER         0.2097
     41 N          -2.0670    9.4380    3.2380 N.am      1 ASN        -0.2615
     42 CA         -2.2890   10.3480    2.1210 C.3       1 ASN         0.1476
     43 C          -3.0640   11.5850    2.5680 C.2       1 ASN         0.2063
     44 O          -3.7960   11.5460    3.5570 O.2       1 ASN        -0.3942
     45 CB         -3.0410    9.6340    0.9950 C.3       1 ASN         0.0773
     46 CG         -4.5440    9.6460    1.1970 C.2       1 ASN         0.1780
     47 OD1        -5.0420    9.2790    2.2600 O.2       1 ASN        -0.3970
     48 ND2        -5.2730   10.0700    0.1700 N.am      1 ASN        -0.3007
     49 H20        -2.4338    8.5089    3.1908 H         1 ASN         0.1885
     50 H21        -1.3100   10.6713    1.7376 H         1 ASN         0.0826
     51 H22        -2.7000    8.5891    0.9511 H         1 ASN         0.0551
     52 H23        -2.8096   10.1355    0.0437 H         1 ASN         0.0551
     53 H24        -6.2698   10.1005    0.2432 H         1 ASN         0.1814
     54 H25        -4.8247   10.3585   -0.6761 H         1 ASN         0.1814
     55 N          -2.8940   12.6830    1.8370 N.am      1 MET        -0.2636
     56 CA         -3.5700   13.9330    2.1640 C.3       1 MET         0.1317
     57 C          -4.2870   14.5090    0.9470 C.2       1 MET         0.2040
     58 O          -5.1380   15.3900    1.0760 O.2       1 MET        -0.3944
     59 CB         -2.5640   14.9500    2.7070 C.3       1 MET        -0.0034
     60 CG         -2.2940   14.8030    4.1950 C.3       1 MET        -0.0024
     61 SD         -3.5310   15.6340    5.2080 S.3       1 MET        -0.1639
     62 CE         -2.6680   17.1500    5.6190 C.3       1 MET        -0.0181
     63 H26        -2.2871   12.6505    1.0429 H         1 MET         0.1883
     64 H27        -4.3185   13.7286    2.9437 H         1 MET         0.0800
     65 H28        -2.9574   15.9607    2.5231 H         1 MET         0.0320
     66 H29        -1.6143   14.8223    2.1669 H         1 MET         0.0320
     67 H30        -1.3074   15.2349    4.4186 H         1 MET         0.0378
     68 H31        -2.2918   13.7327    4.4488 H         1 MET         0.0378
     69 H32        -3.3122   17.7788    6.2511 H         1 MET         0.0340
     70 H33        -2.4193   17.6924    4.6949 H         1 MET         0.0340
     71 H34        -1.7429   16.9093    6.1633 H         1 MET         0.0340
     72 N          -3.9410   14.0050   -0.2330 N.am      1 SER        -0.2616
     73 CA         -4.5530   14.4700   -1.4740 C.3       1 SER         0.1539
     74 C          -5.8640   13.7370   -1.7450 C.2       1 SER         0.2063
     75 O          -6.3340   13.6880   -2.8830 O.2       1 SER        -0.3943
     76 CB         -3.5920   14.2710   -2.6460 C.3       1 SER         0.0843
     77 OG         -4.0360   14.9680   -3.7970 O.3       1 SER        -0.3903
     78 H35        -3.2438   13.2892   -0.2717 H         1 SER         0.1884
     79 H36        -4.7680   15.5442   -1.3745 H         1 SER         0.0823
     80 H37        -3.5277   13.1979   -2.8790 H         1 SER         0.0606
     81 H38        -2.5973   14.6448   -2.3618 H         1 SER         0.0606
     82 H39        -4.8935   14.6462   -4.0496 H         1 SER         0.2097
     83 N          -6.4480   13.1700   -0.6950 N.am      1 PHE        -0.2619
     84 CA         -7.7040   12.4370   -0.8210 C.3       1 PHE         0.1404
     85 C          -8.8320   13.3600   -1.2730 C.2       1 PHE         0.2060
     86 O          -8.7470   14.5790   -1.1260 O.2       1 PHE        -0.3942
     87 CB         -8.0710   11.7820    0.5150 C.3       1 PHE         0.0214
     88 CG         -8.0980   12.7430    1.6700 C.ar      1 PHE        -0.0386
     89 CD1        -6.9680   12.9490    2.4450 C.ar      1 PHE        -0.0601
     90 CD2        -9.2560   13.4390    1.9820 C.ar      1 PHE        -0.0601
     91 CE1        -6.9910   13.8330    3.5060 C.ar      1 PHE        -0.0686
     92 CE2        -9.2840   14.3250    3.0420 C.ar      1 PHE        -0.0686
     93 CZ         -8.1500   14.5210    3.8070 C.ar      1 PHE        -0.0687
     94 H40        -6.0165   13.2473    0.2038 H         1 PHE         0.1885
     95 H41        -7.5732   11.6482   -1.5764 H         1 PHE         0.0823
     96 H42        -7.3309   10.9979    0.7326 H         1 PHE         0.0474
     97 H43        -9.0682   11.3281    0.4172 H         1 PHE         0.0474
     98 H44        -6.0556   12.4103    2.2160 H         1 PHE         0.0557
     99 H45       -10.1495   13.2863    1.3876 H         1 PHE         0.0557
    100 H46        -6.0991   13.9868    4.1026 H         1 PHE         0.0599
    101 H47       -10.1946   14.8658    3.2732 H         1 PHE         0.0599
    102 H48        -8.1701   15.2130    4.6412 H         1 PHE         0.0559
    103 N          -9.8900   12.7670   -1.8160 N.am      1 GLU        -0.2635
    104 CA        -11.0400   13.5320   -2.2860 C.3       1 GLU         0.1325
    105 C         -12.0860   13.6690   -1.1840 C.2       1 GLU         0.2041
    106 O         -13.1400   14.2740   -1.3880 O.2       1 GLU        -0.3944
    107 CB        -11.6620   12.8580   -3.5120 C.3       1 GLU        -0.0008
    108 CG        -10.6560   12.5430   -4.6060 C.3       1 GLU         0.0044
    109 CD        -11.2110   11.5950   -5.6510 C.2       1 GLU         0.0350
    110 OE1       -11.3230   12.0050   -6.8250 O.co2     1 GLU        -0.5690
    111 OE2       -11.5350   10.4420   -5.2940 O.co2     1 GLU        -0.5690
    112 H49        -9.8982   11.7710   -1.9047 H         1 GLU         0.1883
    113 H50       -10.6975   14.5374   -2.5720 H         1 GLU         0.0801
    114 H51       -12.4287   13.5290   -3.9267 H         1 GLU         0.0330
    115 H52       -12.1329   11.9173   -3.1907 H         1 GLU         0.0330
    116 H53        -9.7690   12.0818   -4.1472 H         1 GLU         0.0433
    117 H54       -10.3668   13.4822   -5.1002 H         1 GLU         0.0433
    118 N         -11.7820   13.1050   -0.0180 N.am      1 ASP        -0.2622
    119 CA        -12.6900   13.1580    1.1250 C.3       1 ASP         0.1423
    120 C         -14.0330   12.5150    0.7910 C.2       1 ASP         0.2057
    121 O         -14.9990   13.2060    0.4670 O.2       1 ASP        -0.3943
    122 CB        -12.9000   14.6060    1.5740 C.3       1 ASP         0.0406
    123 CG        -13.4390   14.7000    2.9890 C.2       1 ASP         0.0393
    124 OD1       -14.5490   14.1870    3.2360 O.co2     1 ASP        -0.5688
    125 OD2       -12.7490   15.2880    3.8480 O.co2     1 ASP        -0.5688
    126 H55       -10.9067   12.6312    0.0787 H         1 ASP         0.1884
    127 H56       -12.2340   12.5977    1.9545 H         1 ASP         0.0819
    128 H57       -13.6151   15.0876    0.8909 H         1 ASP         0.0478
    129 H58       -11.9360   15.1337    1.5274 H         1 ASP         0.0478
    130 N         -14.0840   11.1900    0.8770 N.am      1 PHE        -0.2618
    131 CA        -15.3080   10.4510    0.5900 C.3       1 PHE         0.1406
    132 C         -16.3170   10.6060    1.7280 C.2       1 PHE         0.2079
    133 O         -15.9330   10.7880    2.8840 O.2       1 PHE        -0.3940
    134 CB        -14.9910    8.9700    0.3720 C.3       1 PHE         0.0214
    135 CG        -14.4470    8.6680   -0.9940 C.ar      1 PHE        -0.0386
    136 CD1       -13.0980    8.8300   -1.2660 C.ar      1 PHE        -0.0601
    137 CD2       -15.2820    8.2230   -2.0040 C.ar      1 PHE        -0.0601
    138 CE1       -12.5930    8.5540   -2.5210 C.ar      1 PHE        -0.0686
    139 CE2       -14.7830    7.9450   -3.2630 C.ar      1 PHE        -0.0686
    140 CZ        -13.4360    8.1110   -3.5220 C.ar      1 PHE        -0.0687
    141 H59       -13.2624   10.6870    1.1453 H         1 PHE         0.1885
    142 H60       -15.7532   10.8559   -0.3308 H         1 PHE         0.0823
    143 H61       -15.9158    8.3916    0.5139 H         1 PHE         0.0474
    144 H62       -14.2461    8.6598    1.1196 H         1 PHE         0.0474
    145 H63       -12.4317    9.1773   -0.4847 H         1 PHE         0.0557
    146 H64       -16.3395    8.0909   -1.8057 H         1 PHE         0.0557
    147 H65       -11.5356    8.6848   -2.7209 H         1 PHE         0.0599
    148 H66       -15.4475    7.5973   -4.0457 H         1 PHE         0.0599
    149 H67       -13.0416    7.8942   -4.5082 H         1 PHE         0.0559
    150 N         -17.6250   10.5310    1.4160 N.am      1 PRO        -0.2554
    151 CA        -18.6860   10.6660    2.4210 C.3       1 PRO         0.0972
    152 C         -18.5130    9.6930    3.5830 C.2       1 PRO         0.0603
    153 O         -18.0620   10.1340    4.6610 O.co2     1 PRO        -0.5666
    154 CB        -19.9620   10.3440    1.6400 C.3       1 PRO        -0.0159
    155 CG        -19.6280   10.6610    0.2250 C.3       1 PRO        -0.0288
    156 CD        -18.1740   10.3160    0.0620 C.3       1 PRO         0.0362
    157 OXT       -18.8290    8.4960    3.4060 O.co2     1 PRO        -0.5666
    158 H68       -18.7155   11.6933    2.8131 H         1 PRO         0.0728
    159 H69       -20.7987   10.9664    1.9900 H         1 PRO         0.0306
    160 H70       -20.2253    9.2814    1.7478 H         1 PRO         0.0306
    161 H71       -19.7935   11.7294    0.0221 H         1 PRO         0.0286
    162 H72       -20.2439   10.0582   -0.4586 H         1 PRO         0.0286
    163 H73       -18.0494    9.2695   -0.2531 H         1 PRO         0.0524
    164 H74       -17.6905   10.9794   -0.6701 H         1 PRO         0.0524
@<TRIPOS>BOND
     1    1    2 1  
     2    1    5 1  
     3    1    6 1  
     4    1    7 1  
     5    2    3 1  
     6    2    8 1  
     7    2    9 1  
     8    3    4 2  
     9    3   10 am 
    10   10   11 1  
    11   10   21 1  
    12   11   12 1  
    13   11   14 1  
    14   11   22 1  
    15   12   13 2  
    16   12   30 am 
    17   14   15 1  
    18   14   23 1  
    19   14   24 1  
    20   15   16 ar 
    21   15   17 ar 
    22   16   18 ar 
    23   16   25 1  
    24   17   19 ar 
    25   17   26 1  
    26   18   20 ar 
    27   18   27 1  
    28   19   20 ar 
    29   19   28 1  
    30   20   29 1  
    31   30   31 1  
    32   30   36 1  
    33   31   32 1  
    34   31   34 1  
    35   31   37 1  
    36   32   33 2  
    37   32   41 am 
    38   34   35 1  
    39   34   38 1  
    40   34   39 1  
    41   35   40 1  
    42   41   42 1  
    43   41   49 1  
    44   42   43 1  
    45   42   45 1  
    46   42   50 1  
    47   43   44 2  
    48   43   55 am 
    49   45   46 1  
    50   45   51 1  
    51   45   52 1  
    52   46   47 2  
    53   46   48 am 
    54   48   53 1  
    55   48   54 1  
    56   55   56 1  
    57   55   63 1  
    58   56   57 1  
    59   56   59 1  
    60   56   64 1  
    61   57   58 2  
    62   57   72 am 
    63   59   60 1  
    64   59   65 1  
    65   59   66 1  
    66   60   61 1  
    67   60   67 1  
    68   60   68 1  
    69   61   62 1  
    70   62   69 1  
    71   62   70 1  
    72   62   71 1  
    73   72   73 1  
    74   72   78 1  
    75   73   74 1  
    76   73   76 1  
    77   73   79 1  
    78   74   75 2  
    79   74   83 am 
    80   76   77 1  
    81   76   80 1  
    82   76   81 1  
    83   77   82 1  
    84   83   84 1  
    85   83   94 1  
    86   84   85 1  
    87   84   87 1  
    88   84   95 1  
    89   85   86 2  
    90   85  103 am 
    91   87   88 1  
    92   87   96 1  
    93   87   97 1  
    94   88   89 ar 
    95   88   90 ar 
    96   89   91 ar 
    97   89   98 1  
    98   90   92 ar 
    99   90   99 1  
   100   91   93 ar 
   101   91  100 1  
   102   92   93 ar 
   103   92  101 1  
   104   93  102 1  
   105  103  104 1  
   106  103  112 1  
   107  104  105 1  
   108  104  107 1  
   109  104  113 1  
   110  105  106 2  
   111  105  118 am 
   112  107  108 1  
   113  107  114 1  
   114  107  115 1  
   115  108  109 1  
   116  108  116 1  
   117  108  117 1  
   118  109  110 ar 
   119  109  111 ar 
   120  118  119 1  
   121  118  126 1  
   122  119  120 1  
   123  119  122 1  
   124  119  127 1  
   125  120  121 2  
   126  120  130 am 
   127  122  123 1  
   128  122  128 1  
   129  122  129 1  
   130  123  124 ar 
   131  123  125 ar 
   132  130  131 1  
   133  130  141 1  
   134  131  132 1  
   135  131  134 1  
   136  131  142 1  
   137  132  133 2  
   138  132  150 am 
   139  134  135 1  
   140  134  143 1  
   141  134  144 1  
   142  135  136 ar 
   143  135  137 ar 
   144  136  138 ar 
   145  136  145 1  
   146  137  139 ar 
   147  137  146 1  
   148  138  140 ar 
   149  138  147 1  
   150  139  140 ar 
   151  139  148 1  
   152  140  149 1  
   153  150  151 1  
   154  150  156 1  
   155  151  152 1  
   156  151  154 1  
   157  151  158 1  
   158  152  153 ar 
   159  152  157 ar 
   160  154  155 1  
   161  154  159 1  
   162  154  160 1  
   163  155  156 1  
   164  155  161 1  
   165  155  162 1  
   166  156  163 1  
   167  156  164 1  
@<TRIPOS>SUBSTRUCTURE
     1 GLY         1

