5ggn_ligand
  -I-interpret- 

 42 43  0  0  0  0  0  0  0  0999 V2000
  -18.3890  -11.9020  -31.3100 C   0  0  0  0  0
  -19.0530  -11.3000  -30.0680 C   0  0  0  0  0
  -20.2670  -11.3690  -29.8620 O   0  0  0  0  0
  -18.2370  -10.6250  -29.1790 N   0  0  0  0  0
  -18.7230   -9.9960  -27.9550 C   0  0  0  0  0
  -18.0600   -8.6820  -27.7320 C   0  0  0  0  0
  -18.4040   -7.7670  -28.8480 O   0  0  0  0  0
  -18.4540   -8.0890  -26.4480 C   0  0  0  0  0
  -17.7000   -6.8410  -26.2540 O   0  0  0  0  0
  -18.1660   -9.0130  -25.3080 C   0  0  0  0  0
  -18.6270   -8.4770  -23.9790 C   0  0  0  0  0
  -20.0660   -8.2370  -23.9360 O   0  0  0  0  0
  -18.9010  -10.2540  -25.5430 O   0  0  0  0  0
  -18.4730  -10.9650  -26.7740 C   0  0  0  0  0
  -19.2950  -12.0010  -26.9260 O   0  0  0  0  0
  -19.0030  -13.1540  -26.1860 C   0  0  0  0  0
  -18.0710  -13.1880  -25.1630 C   0  0  0  0  0
  -17.8380  -14.3880  -24.4830 C   0  0  0  0  0
  -18.5560  -15.5170  -24.8250 C   0  0  0  0  0
  -18.3170  -16.7480  -24.1240 N   0  0  0  0  0
  -17.3040  -16.7790  -23.2100 O   0  0  0  0  0
  -18.9880  -17.7260  -24.3460 O   0  0  0  0  0
  -19.5020  -15.4650  -25.8600 C   0  0  0  0  0
  -19.7250  -14.2710  -26.5330 C   0  0  0  0  0
  -18.5728  -12.9761  -31.3341 H   0  0  0  0  0
  -18.8077  -11.4402  -32.2042 H   0  0  0  0  0
  -17.3155  -11.7165  -31.2725 H   0  0  0  0  0
  -17.2410  -10.5633  -29.3902 H   0  0  0  0  0
  -19.7915   -9.7979  -28.0392 H   0  0  0  0  0
  -16.9819   -8.8393  -27.7007 H   0  0  0  0  0
  -18.1413   -8.1665  -29.6804 H   0  0  0  0  0
  -19.5269   -7.8980  -26.4697 H   0  0  0  0  0
  -17.8804   -6.2428  -26.9829 H   0  0  0  0  0
  -17.0852   -9.1476  -25.2645 H   0  0  0  0  0
  -18.1240   -7.5249  -23.8098 H   0  0  0  0  0
  -18.3891   -9.2202  -23.2180 H   0  0  0  0  0
  -20.3069   -7.8974  -23.0710 H   0  0  0  0  0
  -17.4317  -11.2837  -26.7272 H   0  0  0  0  0
  -17.5228  -12.2865  -24.8894 H   0  0  0  0  0
  -17.0939  -14.4317  -23.6877 H   0  0  0  0  0
  -20.0605  -16.3597  -26.1351 H   0  0  0  0  0
  -20.4667  -14.2199  -27.3301 H   0  0  0  0  0
  1  2  1  0  0  0
  2  3  2  0  0  0
  2  4  1  0  0  0
  4  5  1  0  0  0
  5  6  1  0  0  0
  5 14  1  0  0  0
  6  7  1  0  0  0
  6  8  1  0  0  0
  8  9  1  0  0  0
  8 10  1  0  0  0
 10 11  1  0  0  0
 10 13  1  0  0  0
 11 12  1  0  0  0
 13 14  1  0  0  0
 14 15  1  0  0  0
 15 16  1  0  0  0
 16 17  4  0  0  0
 16 24  4  0  0  0
 17 18  4  0  0  0
 18 19  4  0  0  0
 19 20  1  0  0  0
 19 23  4  0  0  0
 20 21  2  0  0  0
 20 22  2  0  0  0
 23 24  4  0  0  0
  1 25  1  0  0  0
  1 26  1  0  0  0
  1 27  1  0  0  0
  4 28  1  0  0  0
  5 29  1  0  0  0
  6 30  1  0  0  0
  7 31  1  0  0  0
  8 32  1  0  0  0
  9 33  1  0  0  0
 10 34  1  0  0  0
 11 35  1  0  0  0
 11 36  1  0  0  0
 12 37  1  0  0  0
 14 38  1  0  0  0
 17 39  1  0  0  0
 18 40  1  0  0  0
 23 41  1  0  0  0
 24 42  1  0  0  0
M  END
$$$$
