2z5s_ligand
  -I-interpret- 

191194  0  0  0  0  0  0  0  0999 V2000
   13.2360   13.5870   51.4910 N   0  3  0  0  0
   13.2330   13.1880   50.0470 C   0  0  0  0  0
   13.1110   11.6750   49.8750 C   0  0  0  0  0
   13.5590   10.8970   50.7270 O   0  0  0  0  0
   14.4810   13.7120   49.3310 C   0  0  0  0  0
   14.2980   15.0900   48.6770 C   0  0  0  0  0
   12.4890   11.2700   48.7730 N   0  0  0  0  0
   12.2280    9.8610   48.5140 C   0  0  0  0  0
   13.3710    9.3380   47.6740 C   0  0  0  0  0
   14.0360   10.1240   46.9770 O   0  0  0  0  0
   10.8890    9.6300   47.7730 C   0  0  0  0  0
   10.9450   10.2260   46.4730 O   0  0  0  0  0
    9.7260   10.2170   48.5540 C   0  0  0  0  0
   13.5980    8.0230   47.7380 N   0  0  0  0  0
   14.6730    7.4110   46.9730 C   0  0  0  0  0
   14.5820    7.7550   45.4790 C   0  0  0  0  0
   15.5990    8.0220   44.8560 O   0  0  0  0  0
   14.7310    5.8880   47.1470 C   0  0  0  0  0
   15.5440    5.2140   46.0840 C   0  0  0  0  0
   16.9180    5.0930   46.2250 C   0  0  0  0  0
   14.9450    4.7760   44.9050 C   0  0  0  0  0
   17.6770    4.5200   45.2260 C   0  0  0  0  0
   15.6880    4.2060   43.8950 C   0  0  0  0  0
   17.0520    4.0650   44.0500 C   0  0  0  0  0
   13.3810    7.7290   44.8990 N   0  0  0  0  0
   13.2690    7.9570   43.4610 C   0  0  0  0  0
   13.5190    9.4190   43.0450 C   0  0  0  0  0
   13.9500    9.6760   41.9150 O   0  0  0  0  0
   11.9530    7.4160   42.9040 C   0  0  0  0  0
   10.8360    7.9660   43.5540 O   0  0  0  0  0
   13.2610   10.3620   43.9630 N   0  0  0  0  0
   13.6000   11.7770   43.7520 C   0  0  0  0  0
   15.1200   11.9190   43.7010 C   0  0  0  0  0
   15.6600   12.4880   42.7640 O   0  0  0  0  0
   13.0450   12.6660   44.8810 C   0  0  0  0  0
   11.5390   12.8910   44.7890 C   0  0  0  0  0
   10.9120   13.0900   45.8690 O   0  0  0  0  0
   10.9900   12.8790   43.6510 O   0  0  0  0  0
   15.7890   11.3940   44.7260 N   0  0  0  0  0
   17.2500   11.3070   44.7810 C   0  0  0  0  0
   17.8940   10.5470   43.6010 C   0  0  0  0  0
   18.8810   11.0070   43.0360 O   0  0  0  0  0
   17.6840   10.6870   46.1150 C   0  0  0  0  0
   17.2130   11.3910   47.3830 C   0  0  0  0  0
   17.1660   10.4470   48.5530 C   0  0  0  0  0
   18.1000   12.5970   47.6860 C   0  0  0  0  0
   17.3430    9.4010   43.2230 N   0  0  0  0  0
   17.9080    8.6380   42.1060 C   0  0  0  0  0
   17.9790    9.4100   40.7810 C   0  0  0  0  0
   19.0250    9.4650   40.1590 O   0  0  0  0  0
   17.1810    7.3090   41.8850 C   0  0  0  0  0
   17.9190    6.4280   40.9360 C   0  0  0  0  0
   17.6590    6.2360   39.6000 C   0  0  0  0  0
   19.0740    5.6460   41.2330 C   0  0  0  0  0
   18.5710    5.3540   39.0550 N   0  0  0  0  0
   19.4550    4.9840   40.0360 C   0  0  0  0  0
   19.8210    5.4280   42.3970 C   0  0  0  0  0
   20.5420    4.1280   39.9800 C   0  0  0  0  0
   20.8920    4.5840   42.3350 C   0  0  0  0  0
   21.2460    3.9370   41.1320 C   0  0  0  0  0
   16.8670    9.9970   40.3490 N   0  0  0  0  0
   16.8200   10.7060   39.0570 C   0  0  0  0  0
   17.6870   11.9740   39.0280 C   0  0  0  0  0
   17.8620   12.5980   37.9820 O   0  0  0  0  0
   15.3680   10.9990   38.6440 C   0  0  0  0  0
   14.6120   11.9590   39.5380 C   0  0  0  0  0
   13.2000   12.1720   38.9970 C   0  0  0  0  0
   12.4200   13.2060   39.8080 C   0  0  0  0  0
   11.0120   13.3370   39.3160 N   0  3  0  0  0
   18.2330   12.3200   40.1910 N   0  0  0  0  0
   19.0800   13.4800   40.3840 C   0  0  0  0  0
   20.5460   13.0290   40.2380 C   0  0  0  0  0
   21.3950   13.3570   41.0730 O   0  0  0  0  0
   18.8060   14.0280   41.7900 C   0  0  0  0  0
   18.7690   15.5080   42.1770 C   0  0  0  0  0
   17.7970   16.3150   41.3170 C   0  0  0  0  0
   18.4010   15.6260   43.6560 C   0  0  0  0  0
   20.8240   12.2670   39.1760 N   0  0  0  0  0
   22.1180   11.6110   38.9710 C   0  0  0  0  0
   22.6780   11.7900   37.5470 C   0  0  0  0  0
   21.9250   11.7050   36.5720 O   0  0  0  0  0
   22.0190   10.1040   39.2710 C   0  0  0  0  0
   22.4170    9.5070   40.6230 C   0  0  0  0  0
   22.3840    7.9940   40.5300 C   0  0  0  0  0
   23.7950    9.9710   41.0580 C   0  0  0  0  0
   24.0060   12.0390   37.4350 N   0  0  0  0  0
   24.7440   12.1230   36.1640 C   0  0  0  0  0
   24.9560   10.7810   35.4410 C   0  0  0  0  0
   24.5930    9.7110   35.9570 O   0  0  0  0  0
   26.1030   12.6890   36.5930 C   0  0  0  0  0
   26.2640   12.2300   38.0150 C   0  0  0  0  0
   24.8850   12.3110   38.5930 C   0  0  0  0  0
   25.5371   10.7667   34.2447 O   0  0  0  0  0
   13.3187   14.6012   51.5621 H   0  0  0  0  0
   12.3655   13.2842   51.9280 H   0  0  0  0  0
   14.0258   13.1464   51.9626 H   0  0  0  0  0
   12.3545   13.6431   49.5897 H   0  0  0  0  0
   14.7157   13.0060   48.5344 H   0  0  0  0  0
   15.2645   13.8133   50.0819 H   0  0  0  0  0
   13.5012   15.0357   47.9352 H   0  0  0  0  0
   14.0354   15.8215   49.4413 H   0  0  0  0  0
   15.2280   15.3870   48.1922 H   0  0  0  0  0
   12.1862   11.9646   48.0902 H   0  0  0  0  0
   12.1501    9.3359   49.4660 H   0  0  0  0  0
   10.7326    8.5555   47.6775 H   0  0  0  0  0
   10.1121   10.0793   46.0188 H   0  0  0  0  0
    9.8640   11.2936   48.6544 H   0  0  0  0  0
    8.7954   10.0166   48.0230 H   0  0  0  0  0
    9.6870    9.7606   49.5431 H   0  0  0  0  0
   13.0088    7.4397   48.3321 H   0  0  0  0  0
   15.5937    7.8323   47.3766 H   0  0  0  0  0
   13.7125    5.5051   47.0821 H   0  0  0  0  0
   15.1993    5.6790   48.1089 H   0  0  0  0  0
   17.4022    5.4536   47.1325 H   0  0  0  0  0
   13.8679    4.8865   44.7794 H   0  0  0  0  0
   18.7557    4.4201   45.3468 H   0  0  0  0  0
   15.2020    3.8686   42.9796 H   0  0  0  0  0
   17.6452    3.6013   43.2618 H   0  0  0  0  0
   12.5458    7.5509   45.4567 H   0  0  0  0  0
   14.0783    7.3862   43.0056 H   0  0  0  0  0
   11.9377    6.3370   43.0577 H   0  0  0  0  0
   11.8964    7.6822   41.8485 H   0  0  0  0  0
   10.0339    7.6000   43.1742 H   0  0  0  0  0
   12.8141   10.0880   44.8380 H   0  0  0  0  0
   13.1502   12.1023   42.8139 H   0  0  0  0  0
   13.5285   13.6396   44.8007 H   0  0  0  0  0
   13.2449   12.1607   45.8259 H   0  0  0  0  0
   11.5267   13.0554   46.6056 H   0  0  0  0  0
   15.2545   11.0327   45.5161 H   0  0  0  0  0
   17.6140   12.3310   44.6977 H   0  0  0  0  0
   18.7727   10.7385   46.1298 H   0  0  0  0  0
   17.2404    9.6917   46.1418 H   0  0  0  0  0
   16.1967   11.7459   47.2117 H   0  0  0  0  0
   16.4758    9.6324   48.3335 H   0  0  0  0  0
   18.1622   10.0426   48.7321 H   0  0  0  0  0
   16.8260   10.9843   49.4383 H   0  0  0  0  0
   19.1284   12.2640   47.8263 H   0  0  0  0  0
   18.0543   13.2985   46.8529 H   0  0  0  0  0
   17.7481   13.0862   48.5943 H   0  0  0  0  0
   16.5207    9.0484   43.7128 H   0  0  0  0  0
   18.9346    8.4422   42.4156 H   0  0  0  0  0
   16.1985    7.5210   41.4634 H   0  0  0  0  0
   17.1062    6.7950   42.8433 H   0  0  0  0  0
   16.8481    6.7123   39.0490 H   0  0  0  0  0
   19.5534    5.9211   43.3315 H   0  0  0  0  0
   20.8232    3.6276   39.0534 H   0  0  0  0  0
   21.4852    4.4064   43.2320 H   0  0  0  0  0
   22.1053    3.2665   41.1234 H   0  0  0  0  0
   16.0263    9.9559   40.9251 H   0  0  0  0  0
   17.2569   10.0344   38.3179 H   0  0  0  0  0
   14.8359   10.0489   38.6916 H   0  0  0  0  0
   15.4152   11.4657   37.6601 H   0  0  0  0  0
   15.1353   12.9149   39.5624 H   0  0  0  0  0
   14.5523   11.5422   40.5434 H   0  0  0  0  0
   12.6675   11.2228   39.0567 H   0  0  0  0  0
   13.2809   12.5357   37.9727 H   0  0  0  0  0
   12.9143   14.1719   39.7042 H   0  0  0  0  0
   12.3944   12.8822   40.8485 H   0  0  0  0  0
   10.5205   14.0328   39.8769 H   0  0  0  0  0
   11.0204   13.6303   38.3391 H   0  0  0  0  0
   10.5393   12.4369   39.3980 H   0  0  0  0  0
   18.0428   11.7295   41.0006 H   0  0  0  0  0
   18.8797   14.2622   39.6518 H   0  0  0  0  0
   19.6708   13.6682   42.3474 H   0  0  0  0  0
   17.7728   13.7230   41.9562 H   0  0  0  0  0
   19.7591   15.9283   42.0006 H   0  0  0  0  0
   18.0979   16.2488   40.2714 H   0  0  0  0  0
   16.7908   15.9124   41.4331 H   0  0  0  0  0
   17.8116   17.3574   41.6353 H   0  0  0  0  0
   17.4217   15.1771   43.8224 H   0  0  0  0  0
   19.1471   15.1065   44.2573 H   0  0  0  0  0
   18.3727   16.6782   43.9392 H   0  0  0  0  0
   20.0979   12.1353   38.4718 H   0  0  0  0  0
   22.8041   12.0984   39.6637 H   0  0  0  0  0
   22.7355    9.6614   38.5791 H   0  0  0  0  0
   20.9489    9.9049   39.2125 H   0  0  0  0  0
   21.7040    9.8510   41.3723 H   0  0  0  0  0
   21.3769    7.6692   40.2686 H   0  0  0  0  0
   23.0844    7.6630   39.7632 H   0  0  0  0  0
   22.6671    7.5659   41.4916 H   0  0  0  0  0
   24.5317    9.6629   40.3161 H   0  0  0  0  0
   23.7998   11.0573   41.1473 H   0  0  0  0  0
   24.0397    9.5249   42.0219 H   0  0  0  0  0
   24.1854   12.7214   35.4443 H   0  0  0  0  0
   26.1416   13.7748   36.5053 H   0  0  0  0  0
   26.9137   12.3385   35.9543 H   0  0  0  0  0
   26.6738   11.2218   38.0751 H   0  0  0  0  0
   26.9748   12.8464   38.5655 H   0  0  0  0  0
   24.7322   11.6031   39.4077 H   0  0  0  0  0
   24.6818   13.2783   39.0525 H   0  0  0  0  0
   25.7568   11.6648   33.9861 H   0  0  0  0  0
  2  1  1  0  0  0
  2  5  1  0  0  0
  3  2  1  0  0  0
  3  4  2  0  0  0
  5  6  1  0  0  0
  8  7  1  0  0  0
  8 11  1  0  0  0
  9  8  1  0  0  0
  9 10  2  0  0  0
 11 13  1  0  0  0
 11 12  1  0  0  0
  7  3  1  0  0  0
 15 14  1  0  0  0
 15 18  1  0  0  0
 16 15  1  0  0  0
 16 17  2  0  0  0
 18 19  1  0  0  0
 19 20  4  0  0  0
 19 21  4  0  0  0
 21 23  4  0  0  0
 23 24  4  0  0  0
 22 24  4  0  0  0
 20 22  4  0  0  0
 14  9  1  0  0  0
 26 25  1  0  0  0
 26 29  1  0  0  0
 27 26  1  0  0  0
 27 28  2  0  0  0
 29 30  1  0  0  0
 25 16  1  0  0  0
 32 31  1  0  0  0
 32 35  1  0  0  0
 33 32  1  0  0  0
 33 34  2  0  0  0
 35 36  1  0  0  0
 36 37  1  0  0  0
 36 38  2  0  0  0
 31 27  1  0  0  0
 40 39  1  0  0  0
 40 43  1  0  0  0
 41 40  1  0  0  0
 41 42  2  0  0  0
 43 44  1  0  0  0
 44 45  1  0  0  0
 44 46  1  0  0  0
 39 33  1  0  0  0
 48 47  1  0  0  0
 48 51  1  0  0  0
 49 48  1  0  0  0
 49 50  2  0  0  0
 51 52  1  0  0  0
 52 53  4  0  0  0
 52 54  4  0  0  0
 54 57  4  0  0  0
 54 56  4  0  0  0
 56 58  4  0  0  0
 56 55  4  0  0  0
 53 55  4  0  0  0
 58 60  4  0  0  0
 59 60  4  0  0  0
 57 59  4  0  0  0
 47 41  1  0  0  0
 62 61  1  0  0  0
 62 65  1  0  0  0
 63 62  1  0  0  0
 63 64  2  0  0  0
 65 66  1  0  0  0
 66 67  1  0  0  0
 67 68  1  0  0  0
 68 69  1  0  0  0
 61 49  1  0  0  0
 71 70  1  0  0  0
 71 74  1  0  0  0
 72 71  1  0  0  0
 72 73  2  0  0  0
 74 75  1  0  0  0
 75 76  1  0  0  0
 75 77  1  0  0  0
 70 63  1  0  0  0
 79 78  1  0  0  0
 79 82  1  0  0  0
 80 79  1  0  0  0
 80 81  2  0  0  0
 82 83  1  0  0  0
 83 84  1  0  0  0
 83 85  1  0  0  0
 78 72  1  0  0  0
 87 88  1  0  0  0
 87 90  1  0  0  0
 86 87  1  0  0  0
 86 92  1  0  0  0
 92 91  1  0  0  0
 91 90  1  0  0  0
 88 89  2  0  0  0
 80 86  1  0  0  0
 88 93  1  0  0  0
  1 94  1  0  0  0
  1 95  1  0  0  0
  1 96  1  0  0  0
  2 97  1  0  0  0
  5 98  1  0  0  0
  5 99  1  0  0  0
  6100  1  0  0  0
  6101  1  0  0  0
  6102  1  0  0  0
  7103  1  0  0  0
  8104  1  0  0  0
 11105  1  0  0  0
 12106  1  0  0  0
 13107  1  0  0  0
 13108  1  0  0  0
 13109  1  0  0  0
 14110  1  0  0  0
 15111  1  0  0  0
 18112  1  0  0  0
 18113  1  0  0  0
 20114  1  0  0  0
 21115  1  0  0  0
 22116  1  0  0  0
 23117  1  0  0  0
 24118  1  0  0  0
 25119  1  0  0  0
 26120  1  0  0  0
 29121  1  0  0  0
 29122  1  0  0  0
 30123  1  0  0  0
 31124  1  0  0  0
 32125  1  0  0  0
 35126  1  0  0  0
 35127  1  0  0  0
 37128  1  0  0  0
 39129  1  0  0  0
 40130  1  0  0  0
 43131  1  0  0  0
 43132  1  0  0  0
 44133  1  0  0  0
 45134  1  0  0  0
 45135  1  0  0  0
 45136  1  0  0  0
 46137  1  0  0  0
 46138  1  0  0  0
 46139  1  0  0  0
 47140  1  0  0  0
 48141  1  0  0  0
 51142  1  0  0  0
 51143  1  0  0  0
 53144  1  0  0  0
 57145  1  0  0  0
 58146  1  0  0  0
 59147  1  0  0  0
 60148  1  0  0  0
 61149  1  0  0  0
 62150  1  0  0  0
 65151  1  0  0  0
 65152  1  0  0  0
 66153  1  0  0  0
 66154  1  0  0  0
 67155  1  0  0  0
 67156  1  0  0  0
 68157  1  0  0  0
 68158  1  0  0  0
 69159  1  0  0  0
 69160  1  0  0  0
 69161  1  0  0  0
 70162  1  0  0  0
 71163  1  0  0  0
 74164  1  0  0  0
 74165  1  0  0  0
 75166  1  0  0  0
 76167  1  0  0  0
 76168  1  0  0  0
 76169  1  0  0  0
 77170  1  0  0  0
 77171  1  0  0  0
 77172  1  0  0  0
 78173  1  0  0  0
 79174  1  0  0  0
 82175  1  0  0  0
 82176  1  0  0  0
 83177  1  0  0  0
 84178  1  0  0  0
 84179  1  0  0  0
 84180  1  0  0  0
 85181  1  0  0  0
 85182  1  0  0  0
 85183  1  0  0  0
 87184  1  0  0  0
 90185  1  0  0  0
 90186  1  0  0  0
 91187  1  0  0  0
 91188  1  0  0  0
 92189  1  0  0  0
 92190  1  0  0  0
 93191  1  0  0  0
M  END
$$$$
