### 
### Created by X-TOOL on Mon Sep 10 21:12:56 2018
### 

@<TRIPOS>MOLECULE
2z5s_ligand
  191   194     1     0     0
SMALL
GAST_HUCK


@<TRIPOS>ATOM
      1 N          13.2360   13.5870   51.4910 N.4       1 GLU         0.2379
      2 CA         13.2330   13.1880   50.0470 C.3       1 GLU         0.0647
      3 C          13.1110   11.6750   49.8750 C.2       1 GLU         0.2268
      4 O          13.5590   10.8970   50.7270 O.2       1 GLU        -0.3907
      5 CB         14.4810   13.7120   49.3310 C.3       1 GLU         0.0050
      6 CG         14.2980   15.0900   48.6770 C.3       1 GLU        -0.0580
      7 N          12.4890   11.2700   48.7730 N.am      1 THR        -0.2586
      8 CA         12.2280    9.8610   48.5140 C.3       1 THR         0.1566
      9 C          13.3710    9.3380   47.6740 C.2       1 THR         0.2066
     10 O          14.0360   10.1240   46.9770 O.2       1 THR        -0.3943
     11 CB         10.8890    9.6300   47.7730 C.3       1 THR         0.0924
     12 OG1        10.9450   10.2260   46.4730 O.3       1 THR        -0.3874
     13 CG2         9.7260   10.2170   48.5540 C.3       1 THR        -0.0346
     14 N          13.5980    8.0230   47.7380 N.am      1 PHE        -0.2619
     15 CA         14.6730    7.4110   46.9730 C.3       1 PHE         0.1404
     16 C          14.5820    7.7550   45.4790 C.2       1 PHE         0.2060
     17 O          15.5990    8.0220   44.8560 O.2       1 PHE        -0.3942
     18 CB         14.7310    5.8880   47.1470 C.3       1 PHE         0.0214
     19 CG         15.5440    5.2140   46.0840 C.ar      1 PHE        -0.0386
     20 CD1        16.9180    5.0930   46.2250 C.ar      1 PHE        -0.0601
     21 CD2        14.9450    4.7760   44.9050 C.ar      1 PHE        -0.0601
     22 CE1        17.6770    4.5200   45.2260 C.ar      1 PHE        -0.0686
     23 CE2        15.6880    4.2060   43.8950 C.ar      1 PHE        -0.0686
     24 CZ         17.0520    4.0650   44.0500 C.ar      1 PHE        -0.0687
     25 N          13.3810    7.7290   44.8990 N.am      1 SER        -0.2614
     26 CA         13.2690    7.9570   43.4610 C.3       1 SER         0.1539
     27 C          13.5190    9.4190   43.0450 C.2       1 SER         0.2063
     28 O          13.9500    9.6760   41.9150 O.2       1 SER        -0.3943
     29 CB         11.9530    7.4160   42.9040 C.3       1 SER         0.0843
     30 OG         10.8360    7.9660   43.5540 O.3       1 SER        -0.3903
     31 N          13.2610   10.3620   43.9630 N.am      1 ASP        -0.2621
     32 CA         13.6000   11.7770   43.7520 C.3       1 ASP         0.1423
     33 C          15.1200   11.9190   43.7010 C.2       1 ASP         0.2056
     34 O          15.6600   12.4880   42.7640 O.2       1 ASP        -0.3943
     35 CB         13.0450   12.6660   44.8810 C.3       1 ASP         0.0406
     36 CG         11.5390   12.8910   44.7890 C.2       1 ASP         0.0393
     37 OD1        10.9120   13.0900   45.8690 O.co2     1 ASP        -0.5688
     38 OD2        10.9900   12.8790   43.6510 O.co2     1 ASP        -0.5688
     39 N          15.7890   11.3940   44.7260 N.am      1 LEU        -0.2636
     40 CA         17.2500   11.3070   44.7810 C.3       1 LEU         0.1312
     41 C          17.8940   10.5470   43.6010 C.2       1 LEU         0.2040
     42 O          18.8810   11.0070   43.0360 O.2       1 LEU        -0.3944
     43 CB         17.6840   10.6870   46.1150 C.3       1 LEU        -0.0101
     44 CG         17.2130   11.3910   47.3830 C.3       1 LEU        -0.0425
     45 CD1        17.1660   10.4470   48.5530 C.3       1 LEU        -0.0625
     46 CD2        18.1000   12.5970   47.6860 C.3       1 LEU        -0.0625
     47 N          17.3430    9.4010   43.2230 N.am      1 TRP        -0.2627
     48 CA         17.9080    8.6380   42.1060 C.3       1 TRP         0.1352
     49 C          17.9790    9.4100   40.7810 C.2       1 TRP         0.2052
     50 O          19.0250    9.4650   40.1590 O.2       1 TRP        -0.3942
     51 CB         17.1810    7.3090   41.8850 C.3       1 TRP         0.0042
     52 CG         17.9190    6.4280   40.9360 C.2       1 TRP        -0.0418
     53 CD1        17.6590    6.2360   39.6000 C.2       1 TRP         0.0167
     54 CD2        19.0740    5.6460   41.2330 C.ar      1 TRP        -0.0214
     55 NE1        18.5710    5.3540   39.0550 N.pl3     1 TRP        -0.2890
     56 CE2        19.4550    4.9840   40.0360 C.ar      1 TRP         0.0603
     57 CE3        19.8210    5.4280   42.3970 C.ar      1 TRP        -0.0747
     58 CZ2        20.5420    4.1280   39.9800 C.ar      1 TRP        -0.0443
     59 CZ3        20.8920    4.5840   42.3350 C.ar      1 TRP        -0.0792
     60 CH2        21.2460    3.9370   41.1320 C.ar      1 TRP        -0.0768
     61 N          16.8670    9.9970   40.3490 N.am      1 LYS        -0.2636
     62 CA         16.8200   10.7060   39.0570 C.3       1 LYS         0.1310
     63 C          17.6870   11.9740   39.0280 C.2       1 LYS         0.2039
     64 O          17.8620   12.5980   37.9820 O.2       1 LYS        -0.3944
     65 CB         15.3680   10.9990   38.6440 C.3       1 LYS        -0.0122
     66 CG         14.6120   11.9590   39.5380 C.3       1 LYS        -0.0440
     67 CD         13.2000   12.1720   38.9970 C.3       1 LYS        -0.0124
     68 CE         12.4200   13.2060   39.8080 C.3       1 LYS        -0.0354
     69 NZ         11.0120   13.3370   39.3160 N.4       1 LYS         0.2185
     70 N          18.2330   12.3200   40.1910 N.am      1 LEU        -0.2637
     71 CA         19.0800   13.4800   40.3840 C.3       1 LEU         0.1312
     72 C          20.5460   13.0290   40.2380 C.2       1 LEU         0.2039
     73 O          21.3950   13.3570   41.0730 O.2       1 LEU        -0.3944
     74 CB         18.8060   14.0280   41.7900 C.3       1 LEU        -0.0101
     75 CG         18.7690   15.5080   42.1770 C.3       1 LEU        -0.0425
     76 CD1        17.7970   16.3150   41.3170 C.3       1 LEU        -0.0625
     77 CD2        18.4010   15.6260   43.6560 C.3       1 LEU        -0.0625
     78 N          20.8240   12.2670   39.1760 N.am      1 LEU        -0.2637
     79 CA         22.1180   11.6110   38.9710 C.3       1 LEU         0.1314
     80 C          22.6780   11.7900   37.5470 C.2       1 LEU         0.2065
     81 O          21.9250   11.7050   36.5720 O.2       1 LEU        -0.3942
     82 CB         22.0190   10.1040   39.2710 C.3       1 LEU        -0.0101
     83 CG         22.4170    9.5070   40.6230 C.3       1 LEU        -0.0425
     84 CD1        22.3840    7.9940   40.5300 C.3       1 LEU        -0.0625
     85 CD2        23.7950    9.9710   41.0580 C.3       1 LEU        -0.0625
     86 N          24.0060   12.0390   37.4350 N.am      1 PRO        -0.2485
     87 CA         24.7440   12.1230   36.1640 C.3       1 PRO         0.1448
     88 C          24.9560   10.7810   35.4410 C.2       1 PRO         0.2573
     89 O          24.5930    9.7110   35.9570 O.2       1 PRO        -0.3680
     90 CB         26.1030   12.6890   36.5930 C.3       1 PRO        -0.0090
     91 CG         26.2640   12.2300   38.0150 C.3       1 PRO        -0.0280
     92 CD         24.8850   12.3110   38.5930 C.3       1 PRO         0.0371
     93 O1         25.5371   10.7667   34.2447 O.3       1 PRO        -0.2910
     94 H1         13.3177   14.5891   51.5625 H         1 GLU         0.2015
     95 H2         14.0162   13.1522   51.9582 H         1 GLU         0.2015
     96 H3         12.3761   13.2883   51.9239 H         1 GLU         0.2015
     97 H4         12.3535   13.6505   49.5752 H         1 GLU         0.1098
     98 H5         14.7572   12.9917   48.5469 H         1 GLU         0.0343
     99 H6         15.2961   13.7843   50.0661 H         1 GLU         0.0343
    100 H7         15.2359   15.3909   48.1874 H         1 GLU         0.0233
    101 H8         14.0330   15.8292   49.4473 H         1 GLU         0.0233
    102 H9         13.4942   15.0366   47.9280 H         1 GLU         0.0233
    103 H10        12.1922   11.9510   48.1036 H         1 THR         0.1885
    104 H11        12.1961    9.3205   49.4715 H         1 THR         0.0826
    105 H12        10.7295    8.5472   47.6630 H         1 THR         0.0639
    106 H13        10.1337   10.0514   46.0106 H         1 THR         0.2101
    107 H14         8.7891   10.0389   48.0058 H         1 THR         0.0257
    108 H15         9.8774   11.2993   48.6792 H         1 THR         0.0257
    109 H16         9.6691    9.7379   49.5425 H         1 THR         0.0257
    110 H17        13.0203    7.4511   48.3204 H         1 PHE         0.1885
    111 H18        15.6179    7.8249   47.3548 H         1 PHE         0.0823
    112 H19        13.7060    5.4906   47.1107 H         1 PHE         0.0474
    113 H20        15.1772    5.6627   48.1268 H         1 PHE         0.0474
    114 H21        17.3995    5.4516   47.1276 H         1 PHE         0.0557
    115 H22        13.8738    4.8859   44.7801 H         1 PHE         0.0557
    116 H23        18.7497    4.4206   45.3461 H         1 PHE         0.0599
    117 H24        15.2046    3.8705   42.9846 H         1 PHE         0.0599
    118 H25        17.6419    3.6039   43.2661 H         1 PHE         0.0559
    119 H26        12.5621    7.5544   45.4458 H         1 SER         0.1884
    120 H27        14.0710    7.3664   42.9941 H         1 SER         0.0823
    121 H28        11.9359    6.3238   43.0333 H         1 SER         0.0606
    122 H29        11.8949    7.6594   41.8328 H         1 SER         0.0606
    123 H30        10.8742    7.7554   44.4796 H         1 SER         0.2097
    124 H31        12.8228   10.0934   44.8208 H         1 ASP         0.1884
    125 H32        13.1701   12.1079   42.7951 H         1 ASP         0.0819
    126 H33        13.5472   13.6435   44.8341 H         1 ASP         0.0478
    127 H34        13.2676   12.1852   45.8450 H         1 ASP         0.0478
    128 H35        15.2650   11.0398   45.5006 H         1 LEU         0.1883
    129 H36        17.6352   12.3368   44.7465 H         1 LEU         0.0800
    130 H37        18.7837   10.6697   46.1324 H         1 LEU         0.0315
    131 H38        17.3005    9.6564   46.1440 H         1 LEU         0.0315
    132 H39        16.1910   11.7574   47.2061 H         1 LEU         0.0298
    133 H40        16.8230   10.9881   49.4472 H         1 LEU         0.0232
    134 H41        18.1709   10.0381   48.7349 H         1 LEU         0.0232
    135 H42        16.4697    9.6244   48.3327 H         1 LEU         0.0232
    136 H43        18.1157   13.2686   46.8150 H         1 LEU         0.0232
    137 H44        19.1225   12.2547   47.9035 H         1 LEU         0.0232
    138 H45        17.7006   13.1362   48.5576 H         1 LEU         0.0232
    139 H46        16.5368    9.0553   43.7032 H         1 TRP         0.1884
    140 H47        18.9436    8.3989   42.3896 H         1 TRP         0.0815
    141 H48        16.1804    7.5137   41.4766 H         1 TRP         0.0397
    142 H49        17.0841    6.7908   42.8504 H         1 TRP         0.0397
    143 H50        16.8488    6.7119   39.0495 H         1 TRP         0.0795
    144 H51        18.5850    5.0292   38.0777 H         1 TRP         0.2216
    145 H52        19.5548    5.9184   43.3264 H         1 TRP         0.0540
    146 H53        20.8217    3.6303   39.0585 H         1 TRP         0.0541
    147 H54        21.4819    4.4074   43.2271 H         1 TRP         0.0510
    148 H55        22.1006    3.2702   41.1235 H         1 TRP         0.0530
    149 H56        16.0428    9.9567   40.9138 H         1 LYS         0.1883
    150 H57        17.2383   10.0218   38.3040 H         1 LYS         0.0800
    151 H58        14.8206   10.0450   38.6333 H         1 LYS         0.0312
    152 H59        15.3844   11.4238   37.6295 H         1 LYS         0.0312
    153 H60        15.1406   12.9232   39.5670 H         1 LYS         0.0269
    154 H61        14.5539   11.5419   40.5542 H         1 LYS         0.0269
    155 H62        12.6596   11.2145   39.0310 H         1 LYS         0.0317
    156 H63        13.2684   12.5177   37.9550 H         1 LYS         0.0317
    157 H64        12.9215   14.1812   39.7215 H         1 LYS         0.0813
    158 H65        12.4030   12.8947   40.8629 H         1 LYS         0.0813
    159 H66        10.5252   14.0245   39.8697 H         1 LYS         0.1994
    160 H67        10.5438   12.4480   39.3966 H         1 LYS         0.1994
    161 H68        11.0190   13.6268   38.3506 H         1 LYS         0.1994
    162 H69        18.0465   11.7411   40.9848 H         1 LEU         0.1883
    163 H70        18.8524   14.2509   39.6330 H         1 LEU         0.0800
    164 H71        19.5780   13.5791   42.4322 H         1 LEU         0.0315
    165 H72        17.8194   13.6300   42.0697 H         1 LEU         0.0315
    166 H73        19.7760   15.9262   42.0317 H         1 LEU         0.0298
    167 H74        17.8108   17.3673   41.6373 H         1 LEU         0.0232
    168 H75        16.7810   15.9097   41.4333 H         1 LEU         0.0232
    169 H76        18.0996   16.2490   40.2615 H         1 LEU         0.0232
    170 H77        19.1105   15.0396   44.2583 H         1 LEU         0.0232
    171 H78        17.3823   15.2416   43.8122 H         1 LEU         0.0232
    172 H79        18.4455   16.6817   43.9619 H         1 LEU         0.0232
    173 H80        20.1122   12.1378   38.4856 H         1 LEU         0.1883
    174 H81        22.8328   12.0611   39.6756 H         1 LEU         0.0800
    175 H82        22.6446    9.6010   38.5189 H         1 LEU         0.0315
    176 H83        20.9653    9.8298   39.1143 H         1 LEU         0.0315
    177 H84        21.6867    9.8333   41.3781 H         1 LEU         0.0298
    178 H85        22.6695    7.5607   41.4999 H         1 LEU         0.0232
    179 H86        23.0905    7.6587   39.7565 H         1 LEU         0.0232
    180 H87        21.3681    7.6649   40.2663 H         1 LEU         0.0232
    181 H88        23.8087   11.0690   41.1225 H         1 LEU         0.0232
    182 H89        24.5430    9.6375   40.3237 H         1 LEU         0.0232
    183 H90        24.0320    9.5429   42.0432 H         1 LEU         0.0232
    184 H91        24.2284   12.8121   35.4790 H         1 PRO         0.0818
    185 H92        26.1033   13.7875   36.5357 H         1 PRO         0.0314
    186 H93        26.9091   12.2886   35.9607 H         1 PRO         0.0314
    187 H94        26.6403   11.1970   38.0499 H         1 PRO         0.0287
    188 H95        26.9539   12.8902   38.5610 H         1 PRO         0.0287
    189 H96        24.7438   11.5550   39.3794 H         1 PRO         0.0524
    190 H97        24.6909   13.3114   39.0070 H         1 PRO         0.0524
    191 H98        26.3298   10.2448   34.2852 H         1 PRO         0.2540
@<TRIPOS>BOND
     1    2    1 1  
     2    2    5 1  
     3    3    2 1  
     4    3    4 2  
     5    5    6 1  
     6    8    7 1  
     7    8   11 1  
     8    9    8 1  
     9    9   10 2  
    10   11   13 1  
    11   11   12 1  
    12    7    3 am 
    13   15   14 1  
    14   15   18 1  
    15   16   15 1  
    16   16   17 2  
    17   18   19 1  
    18   19   20 ar 
    19   19   21 ar 
    20   21   23 ar 
    21   23   24 ar 
    22   22   24 ar 
    23   20   22 ar 
    24   14    9 am 
    25   26   25 1  
    26   26   29 1  
    27   27   26 1  
    28   27   28 2  
    29   29   30 1  
    30   25   16 am 
    31   32   31 1  
    32   32   35 1  
    33   33   32 1  
    34   33   34 2  
    35   35   36 1  
    36   36   37 ar 
    37   36   38 ar 
    38   31   27 am 
    39   40   39 1  
    40   40   43 1  
    41   41   40 1  
    42   41   42 2  
    43   43   44 1  
    44   44   45 1  
    45   44   46 1  
    46   39   33 am 
    47   48   47 1  
    48   48   51 1  
    49   49   48 1  
    50   49   50 2  
    51   51   52 1  
    52   52   53 2  
    53   52   54 1  
    54   54   57 ar 
    55   54   56 ar 
    56   56   58 ar 
    57   56   55 1  
    58   53   55 1  
    59   58   60 ar 
    60   59   60 ar 
    61   57   59 ar 
    62   47   41 am 
    63   62   61 1  
    64   62   65 1  
    65   63   62 1  
    66   63   64 2  
    67   65   66 1  
    68   66   67 1  
    69   67   68 1  
    70   68   69 1  
    71   61   49 am 
    72   71   70 1  
    73   71   74 1  
    74   72   71 1  
    75   72   73 2  
    76   74   75 1  
    77   75   76 1  
    78   75   77 1  
    79   70   63 am 
    80   79   78 1  
    81   79   82 1  
    82   80   79 1  
    83   80   81 2  
    84   82   83 1  
    85   83   84 1  
    86   83   85 1  
    87   78   72 am 
    88   87   88 1  
    89   87   90 1  
    90   86   87 1  
    91   86   92 1  
    92   92   91 1  
    93   91   90 1  
    94   88   89 2  
    95   80   86 am 
    96   88   93 1  
    97    1   94 1  
    98    1   95 1  
    99    1   96 1  
   100    2   97 1  
   101    5   98 1  
   102    5   99 1  
   103    6  100 1  
   104    6  101 1  
   105    6  102 1  
   106    7  103 1  
   107    8  104 1  
   108   11  105 1  
   109   12  106 1  
   110   13  107 1  
   111   13  108 1  
   112   13  109 1  
   113   14  110 1  
   114   15  111 1  
   115   18  112 1  
   116   18  113 1  
   117   20  114 1  
   118   21  115 1  
   119   22  116 1  
   120   23  117 1  
   121   24  118 1  
   122   25  119 1  
   123   26  120 1  
   124   29  121 1  
   125   29  122 1  
   126   30  123 1  
   127   31  124 1  
   128   32  125 1  
   129   35  126 1  
   130   35  127 1  
   131   39  128 1  
   132   40  129 1  
   133   43  130 1  
   134   43  131 1  
   135   44  132 1  
   136   45  133 1  
   137   45  134 1  
   138   45  135 1  
   139   46  136 1  
   140   46  137 1  
   141   46  138 1  
   142   47  139 1  
   143   48  140 1  
   144   51  141 1  
   145   51  142 1  
   146   53  143 1  
   147   55  144 1  
   148   57  145 1  
   149   58  146 1  
   150   59  147 1  
   151   60  148 1  
   152   61  149 1  
   153   62  150 1  
   154   65  151 1  
   155   65  152 1  
   156   66  153 1  
   157   66  154 1  
   158   67  155 1  
   159   67  156 1  
   160   68  157 1  
   161   68  158 1  
   162   69  159 1  
   163   69  160 1  
   164   69  161 1  
   165   70  162 1  
   166   71  163 1  
   167   74  164 1  
   168   74  165 1  
   169   75  166 1  
   170   76  167 1  
   171   76  168 1  
   172   76  169 1  
   173   77  170 1  
   174   77  171 1  
   175   77  172 1  
   176   78  173 1  
   177   79  174 1  
   178   82  175 1  
   179   82  176 1  
   180   83  177 1  
   181   84  178 1  
   182   84  179 1  
   183   84  180 1  
   184   85  181 1  
   185   85  182 1  
   186   85  183 1  
   187   87  184 1  
   188   90  185 1  
   189   90  186 1  
   190   91  187 1  
   191   91  188 1  
   192   92  189 1  
   193   92  190 1  
   194   93  191 1  
@<TRIPOS>SUBSTRUCTURE
     1 GLU         1

