4g2l_ligand
  -I-interpret- 

 51 55  0  0  0  0  0  0  0  0999 V2000
   70.3970   52.8950   36.6390 C   0  0  0  0  0
   70.4220   53.4460   37.9220 C   0  0  0  0  0
   71.5960   52.5460   36.0120 C   0  0  0  0  0
   78.3710   51.2040   44.0620 C   0  0  0  0  0
   77.3080   52.0880   43.7880 C   0  0  0  0  0
   77.3400   52.1830   42.4400 C   0  0  0  0  0
   72.6850   53.2680   37.8280 C   0  0  0  0  0
   76.3160   52.8100   44.5210 C   0  0  0  0  0
   75.6930   53.5650   42.3160 C   0  0  0  0  0
   79.8180   49.8520   39.0260 C   0  0  0  0  0
   80.8070   50.8860   39.4510 C   0  0  0  0  0
   78.7720   49.8650   40.0900 C   0  0  0  0  0
   80.0680   51.8760   40.2790 C   0  0  0  0  0
   74.0410   54.7870   39.3040 C   0  0  0  0  0
   74.2980   52.8520   39.8110 C   0  0  0  0  0
   74.0090   53.5070   38.4970 C   0  0  0  0  0
   78.7170   51.2790   40.5780 C   0  0  0  0  0
   75.1190   55.8900   41.7050 C   0  0  0  0  0
   74.7420   54.4390   41.5500 C   0  0  0  0  0
   71.5890   53.6490   38.5590 N   0  0  0  0  0
   72.7920   52.7230   36.5820 N   0  0  0  0  0
   79.0300   50.7790   42.9740 N   0  0  0  0  0
   76.5700   52.8950   41.6410 N   0  0  0  0  0
   78.3650   51.4040   41.9960 N   0  0  0  0  0
   75.5350   53.5420   43.6830 N   0  0  0  0  0
   74.9920   54.1000   40.1320 N   0  3  0  0  0
   76.1590   52.8020   45.7280 O   0  0  0  0  0
   69.4465   52.7379   36.1290 H   0  0  0  0  0
   69.4861   53.7143   38.4122 H   0  0  0  0  0
   71.5541   52.1101   35.0138 H   0  0  0  0  0
   78.6351   50.8922   45.0725 H   0  0  0  0  0
   80.2780   48.8694   38.9211 H   0  0  0  0  0
   79.3999   50.0700   38.0433 H   0  0  0  0  0
   81.2595   51.3677   38.5842 H   0  0  0  0  0
   81.6184   50.4338   40.0213 H   0  0  0  0  0
   79.0136   49.1728   40.8966 H   0  0  0  0  0
   77.8063   49.5370   39.7053 H   0  0  0  0  0
   79.9627   52.8216   39.7472 H   0  0  0  0  0
   80.6088   52.0878   41.2014 H   0  0  0  0  0
   73.1415   55.2562   39.7026 H   0  0  0  0  0
   74.2416   55.7612   38.8580 H   0  0  0  0  0
   74.7687   51.8725   39.8951 H   0  0  0  0  0
   73.5209   52.4250   40.4450 H   0  0  0  0  0
   74.6148   53.2809   37.6195 H   0  0  0  0  0
   77.9165   51.8139   40.0669 H   0  0  0  0  0
   75.0814   56.1632   42.7595 H   0  0  0  0  0
   76.1285   56.0445   41.3241 H   0  0  0  0  0
   74.4187   56.5080   41.1431 H   0  0  0  0  0
   73.7160   54.2913   41.8870 H   0  0  0  0  0
   74.7895   54.1063   44.0906 H   0  0  0  0  0
   75.9981   54.2118   40.0066 H   0  0  0  0  0
  2  1  4  0  0  0
  3  1  4  0  0  0
 20  2  4  0  0  0
 21  3  4  0  0  0
  5  4  4  0  0  0
  4 22  4  0  0  0
  6  5  4  0  0  0
  8  5  1  0  0  0
 23  6  1  0  0  0
  6 24  4  0  0  0
 16  7  1  0  0  0
  7 20  4  0  0  0
  7 21  4  0  0  0
 25  8  1  0  0  0
  8 27  2  0  0  0
 19  9  1  0  0  0
  9 23  2  0  0  0
  9 25  1  0  0  0
 11 10  1  0  0  0
 12 10  1  0  0  0
 13 11  1  0  0  0
 17 12  1  0  0  0
 17 13  1  0  0  0
 14 16  1  0  0  0
 26 14  1  0  0  0
 15 16  1  0  0  0
 26 15  1  0  0  0
 24 17  1  0  0  0
 19 18  1  0  0  0
 19 26  1  0  0  0
 22 24  4  0  0  0
  1 28  1  0  0  0
  2 29  1  0  0  0
  3 30  1  0  0  0
  4 31  1  0  0  0
 10 32  1  0  0  0
 10 33  1  0  0  0
 11 34  1  0  0  0
 11 35  1  0  0  0
 12 36  1  0  0  0
 12 37  1  0  0  0
 13 38  1  0  0  0
 13 39  1  0  0  0
 14 40  1  0  0  0
 14 41  1  0  0  0
 15 42  1  0  0  0
 15 43  1  0  0  0
 16 44  1  0  0  0
 17 45  1  0  0  0
 18 46  1  0  0  0
 18 47  1  0  0  0
 18 48  1  0  0  0
 19 49  1  0  0  0
 25 50  1  0  0  0
 26 51  1  0  0  0
M  END
$$$$
