5exw_ligand
  -I-interpret- 

 48 50  0  0  0  0  0  0  0  0999 V2000
   20.6520    0.8170    5.4020 O   0  0  0  0  0
   19.8900    1.4500    4.2290 P   0  0  0  0  0
   20.7870    2.3310    3.4190 O   0  0  0  0  0
   18.5480    2.0140    4.5390 O   0  0  0  0  0
   19.5560    0.2140    3.2440 O   0  0  0  0  0
   20.5720   -0.6220    2.4280 P   0  0  0  0  0
   20.4070   -0.5190    0.9250 O   0  0  0  0  0
   21.9930   -0.4680    2.9970 O   0  0  0  0  0
   20.1360   -2.1150    2.8620 O   0  0  0  0  0
   19.0950   -3.1360    2.2540 P   0  0  0  0  0
   19.8410   -4.2800    1.6350 O   0  0  0  0  0
   18.1020   -2.4740    1.3640 O   0  0  0  0  0
   18.3460   -3.6470    3.5360 O   0  0  0  0  0
   19.0190   -4.3750    4.5950 C   0  0  0  0  0
   18.0180   -4.8160    5.6360 C   0  0  0  0  0
   17.1570   -5.7320    4.9520 O   0  0  0  0  0
   16.9750   -6.8470    5.7940 C   0  0  0  0  0
   16.5220   -8.0460    5.0620 N   0  0  0  0  0
   17.1560   -8.6140    4.0070 C   0  0  0  0  0
   16.4500   -9.7270    3.6060 C   0  0  0  0  0
   15.3430   -9.8460    4.3970 C   0  0  0  0  0
   14.2360  -10.7560    4.5020 C   0  0  0  0  0
   14.1620  -11.8120    3.6280 N   0  0  0  0  0
   13.3470  -10.5410    5.4300 N   0  0  0  0  0
   13.4690   -9.4750    6.2620 C   0  0  0  0  0
   14.4600   -8.5690    6.2510 N   0  0  0  0  0
   15.3890   -8.7760    5.3190 C   0  0  0  0  0
   18.3690   -7.0840    6.4110 C   0  0  0  0  0
   18.3280   -7.8210    7.6150 O   0  0  0  0  0
   18.7340   -5.6100    6.7420 C   0  0  0  0  0
   18.1780   -5.2220    7.9670 O   0  0  0  0  0
   21.4987    0.4878    5.0917 H   0  0  0  0  0
   21.6238    1.8844    3.2712 H   0  0  0  0  0
   21.9646   -0.5524    3.9529 H   0  0  0  0  0
   20.4555   -4.6442    2.2763 H   0  0  0  0  0
   19.7593   -3.7255    5.0621 H   0  0  0  0  0
   19.5069   -5.2532    4.1722 H   0  0  0  0  0
   17.4993   -3.9650    6.0775 H   0  0  0  0  0
   16.1986   -6.6602    6.5359 H   0  0  0  0  0
   18.0757   -8.2491    3.5498 H   0  0  0  0  0
   16.7280  -10.3993    2.7943 H   0  0  0  0  0
   14.8851  -11.9397    2.9201 H   0  0  0  0  0
   13.3839  -12.4689    3.6865 H   0  0  0  0  0
   12.6878   -9.3419    7.0104 H   0  0  0  0  0
   19.0448   -7.6459    5.7663 H   0  0  0  0  0
   19.2206   -7.9357    7.9492 H   0  0  0  0  0
   19.8118   -5.4576    6.7980 H   0  0  0  0  0
   18.6069   -5.7030    8.6785 H   0  0  0  0  0
  1  2  1  0  0  0
  2  3  1  0  0  0
  2  4  2  0  0  0
  2  5  1  0  0  0
  5  6  1  0  0  0
  6  7  2  0  0  0
  6  8  1  0  0  0
  6  9  1  0  0  0
  9 10  1  0  0  0
 10 11  1  0  0  0
 10 12  2  0  0  0
 10 13  1  0  0  0
 13 14  1  0  0  0
 14 15  1  0  0  0
 15 16  1  0  0  0
 15 30  1  0  0  0
 16 17  1  0  0  0
 17 18  1  0  0  0
 17 28  1  0  0  0
 18 19  4  0  0  0
 18 27  4  0  0  0
 19 20  4  0  0  0
 20 21  4  0  0  0
 21 22  4  0  0  0
 21 27  4  0  0  0
 22 23  1  0  0  0
 22 24  4  0  0  0
 24 25  4  0  0  0
 25 26  4  0  0  0
 26 27  4  0  0  0
 28 29  1  0  0  0
 28 30  1  0  0  0
 30 31  1  0  0  0
  1 32  1  0  0  0
  3 33  1  0  0  0
  8 34  1  0  0  0
 11 35  1  0  0  0
 14 36  1  0  0  0
 14 37  1  0  0  0
 15 38  1  0  0  0
 17 39  1  0  0  0
 19 40  1  0  0  0
 20 41  1  0  0  0
 23 42  1  0  0  0
 23 43  1  0  0  0
 25 44  1  0  0  0
 28 45  1  0  0  0
 29 46  1  0  0  0
 30 47  1  0  0  0
 31 48  1  0  0  0
M  END
$$$$
