### 
### Created by X-TOOL on Mon Aug  2 16:14:21 2021
### 

@<TRIPOS>MOLECULE
6ipl_ligand
   42    44     1     0     0
SMALL
GAST_HUCK


@<TRIPOS>ATOM
      1 PG        377.4440  335.3000   98.5060 P.3       1 DTP         0.1879
      2 O1G       378.1110  334.8380   97.2430 O.co2     1 DTP        -0.6091
      3 O2G       375.9430  335.1420   98.4980 O.co2     1 DTP        -0.6091
      4 O3G       378.0920  334.7910   99.7740 O.co2     1 DTP        -0.6091
      5 PB        376.6360  338.0540   98.4960 P.3       1 DTP         0.3553
      6 O1B       375.4260  337.5090   97.8040 O.co2     1 DTP        -0.5652
      7 O2B       377.3130  339.3010   97.9680 O.co2     1 DTP        -0.5652
      8 O3B       377.7500  336.8830   98.5730 O.3       1 DTP        -0.1546
      9 PA        374.9590  338.0160  100.8600 P.3       1 DTP         0.3266
     10 O1A       374.0440  337.2390   99.9390 O.co2     1 DTP        -0.5692
     11 O2A       375.3360  337.4600  102.2120 O.co2     1 DTP        -0.5692
     12 O3A       376.3200  338.3700  100.0590 O.3       1 DTP        -0.1171
     13 O5'       374.2910  339.4510  101.1290 O.3       1 DTP        -0.2441
     14 C5'       373.5940  340.0880  100.0660 C.3       1 DTP         0.1130
     15 C4'       373.9740  341.5530  100.0750 C.3       1 DTP         0.1164
     16 O4'       373.4910  342.2260  101.2420 O.3       1 DTP        -0.3389
     17 C3'       375.4760  341.7800  100.0440 C.3       1 DTP         0.0890
     18 O3'       376.0020  341.6990   98.7150 O.3       1 DTP        -0.3889
     19 C2'       375.6020  343.1650  100.6470 C.3       1 DTP         0.0315
     20 C1'       374.4540  343.2070  101.6440 C.3       1 DTP         0.1751
     21 N9        375.0410  342.8390  102.9460 N.pl3     1 DTP        -0.1945
     22 C8        374.9360  341.6420  103.5540 C.2       1 DTP         0.1122
     23 N7        375.6140  341.6490  104.7300 N.2       1 DTP        -0.2958
     24 C5        376.1710  342.8690  104.8730 C.ar      1 DTP         0.1045
     25 C6        377.0130  343.5540  105.8780 C.ar      1 DTP         0.1298
     26 N6        377.4150  342.9100  107.0010 N.pl3     1 DTP        -0.3152
     27 N1        377.3750  344.8360  105.6280 N.ar      1 DTP        -0.2698
     28 C2        376.9920  345.4930  104.5150 C.ar      1 DTP         0.0533
     29 N3        376.2240  344.9290  103.5670 N.ar      1 DTP        -0.2714
     30 C4        375.7930  343.6500  103.6890 C.ar      1 DTP         0.1612
     31 H1        372.5091  339.9821  100.2135 H         1 DTP         0.0648
     32 H2        373.8796  339.6334   99.1059 H         1 DTP         0.0648
     33 H3        373.5278  342.0182   99.1837 H         1 DTP         0.0650
     34 H4        375.9938  341.0392  100.6710 H         1 DTP         0.0622
     35 H5        375.8238  340.8372   98.3570 H         1 DTP         0.2099
     36 H6        375.4872  343.9433   99.8782 H         1 DTP         0.0345
     37 H7        376.5706  343.2897  101.1533 H         1 DTP         0.0345
     38 H8        373.9943  344.2054  101.6873 H         1 DTP         0.0969
     39 H9        374.3855  340.7897  103.1585 H         1 DTP         0.1349
     40 H10       378.0011  343.3984  107.6929 H         1 DTP         0.1820
     41 H11       377.1343  341.9322  107.1624 H         1 DTP         0.1820
     42 H12       377.3167  346.5182  104.3789 H         1 DTP         0.0996
@<TRIPOS>BOND
     1    1    2 ar 
     2    1    3 ar 
     3    1    4 ar 
     4    8    1 1  
     5    5    6 ar 
     6    5    7 ar 
     7    5    8 1  
     8   12    5 1  
     9    9   10 ar 
    10    9   11 ar 
    11    9   12 1  
    12    9   13 1  
    13   13   14 1  
    14   14   15 1  
    15   15   16 1  
    16   15   17 1  
    17   16   20 1  
    18   17   18 1  
    19   17   19 1  
    20   19   20 1  
    21   20   21 1  
    22   21   22 1  
    23   21   30 1  
    24   22   23 2  
    25   23   24 1  
    26   24   25 ar 
    27   24   30 ar 
    28   25   26 1  
    29   25   27 ar 
    30   27   28 ar 
    31   28   29 ar 
    32   29   30 ar 
    33   14   31 1  
    34   14   32 1  
    35   15   33 1  
    36   17   34 1  
    37   18   35 1  
    38   19   36 1  
    39   19   37 1  
    40   20   38 1  
    41   22   39 1  
    42   26   40 1  
    43   26   41 1  
    44   28   42 1  
@<TRIPOS>SUBSTRUCTURE
     1 DTP         1

