6ipl_ligand
  -I-interpret- 

 46 48  0  0  0  0  0  0  0  0999 V2000
  377.4440  335.3000   98.5060 P   0  0  0  0  0
  378.1110  334.8380   97.2430 O   0  0  0  0  0
  375.9430  335.1420   98.4980 O   0  0  0  0  0
  378.0920  334.7910   99.7740 O   0  0  0  0  0
  376.6360  338.0540   98.4960 P   0  0  0  0  0
  375.4260  337.5090   97.8040 O   0  0  0  0  0
  377.3130  339.3010   97.9680 O   0  0  0  0  0
  377.7500  336.8830   98.5730 O   0  0  0  0  0
  374.9590  338.0160  100.8600 P   0  0  0  0  0
  374.0440  337.2390   99.9390 O   0  0  0  0  0
  375.3360  337.4600  102.2120 O   0  0  0  0  0
  376.3200  338.3700  100.0590 O   0  0  0  0  0
  374.2910  339.4510  101.1290 O   0  0  0  0  0
  373.5940  340.0880  100.0660 C   0  0  0  0  0
  373.9740  341.5530  100.0750 C   0  0  0  0  0
  373.4910  342.2260  101.2420 O   0  0  0  0  0
  375.4760  341.7800  100.0440 C   0  0  0  0  0
  376.0020  341.6990   98.7150 O   0  0  0  0  0
  375.6020  343.1650  100.6470 C   0  0  0  0  0
  374.4540  343.2070  101.6440 C   0  0  0  0  0
  375.0410  342.8390  102.9460 N   0  0  0  0  0
  374.9360  341.6420  103.5540 C   0  0  0  0  0
  375.6140  341.6490  104.7300 N   0  0  0  0  0
  376.1710  342.8690  104.8730 C   0  0  0  0  0
  377.0130  343.5540  105.8780 C   0  0  0  0  0
  377.4150  342.9100  107.0010 N   0  0  0  0  0
  377.3750  344.8360  105.6280 N   0  0  0  0  0
  376.9920  345.4930  104.5150 C   0  0  0  0  0
  376.2240  344.9290  103.5670 N   0  0  0  0  0
  375.7930  343.6500  103.6890 C   0  0  0  0  0
  375.5849  335.4555   99.3317 H   0  0  0  0  0
  377.6120  335.1270  100.5345 H   0  0  0  0  0
  378.0671  339.5136   98.5227 H   0  0  0  0  0
  373.9109  337.7357   99.1283 H   0  0  0  0  0
  372.5179  339.9756  100.1984 H   0  0  0  0  0
  373.8621  339.6336   99.1122 H   0  0  0  0  0
  373.5154  341.9523   99.1704 H   0  0  0  0  0
  376.0482  341.0274  100.5865 H   0  0  0  0  0
  376.9502  341.8475   98.7377 H   0  0  0  0  0
  375.5445  343.9581   99.9015 H   0  0  0  0  0
  376.5728  343.3377  101.1116 H   0  0  0  0  0
  373.9677  344.1810  101.6980 H   0  0  0  0  0
  374.3850  340.7889  103.1581 H   0  0  0  0  0
  377.1370  341.9417  107.1608 H   0  0  0  0  0
  377.9954  343.3937  107.6862 H   0  0  0  0  0
  377.3185  346.5239  104.3782 H   0  0  0  0  0
  1  2  2  0  0  0
  1  3  1  0  0  0
  1  4  1  0  0  0
  8  1  1  0  0  0
  5  6  2  0  0  0
  5  7  1  0  0  0
  5  8  1  0  0  0
 12  5  1  0  0  0
  9 10  1  0  0  0
  9 11  2  0  0  0
  9 12  1  0  0  0
  9 13  1  0  0  0
 13 14  1  0  0  0
 14 15  1  0  0  0
 15 16  1  0  0  0
 15 17  1  0  0  0
 16 20  1  0  0  0
 17 18  1  0  0  0
 17 19  1  0  0  0
 19 20  1  0  0  0
 20 21  1  0  0  0
 21 22  4  0  0  0
 21 30  4  0  0  0
 22 23  4  0  0  0
 23 24  4  0  0  0
 24 25  4  0  0  0
 24 30  4  0  0  0
 25 26  1  0  0  0
 25 27  4  0  0  0
 27 28  4  0  0  0
 28 29  4  0  0  0
 29 30  4  0  0  0
  3 31  1  0  0  0
  4 32  1  0  0  0
  7 33  1  0  0  0
 10 34  1  0  0  0
 14 35  1  0  0  0
 14 36  1  0  0  0
 15 37  1  0  0  0
 17 38  1  0  0  0
 18 39  1  0  0  0
 19 40  1  0  0  0
 19 41  1  0  0  0
 20 42  1  0  0  0
 22 43  1  0  0  0
 26 44  1  0  0  0
 26 45  1  0  0  0
 28 46  1  0  0  0
M  END
$$$$
