6skd_ligand

Created by X-TOOL on Mon Aug  2 16:10:24 2021
 44 46  0  0  0  0  0  0  0  0999 V2000
  -35.1370  -23.1550  -22.2180  C 0  0  0  2  0  3
  -35.7200  -21.6360  -19.3490  C 0  0  0  3  0  4
  -36.2130  -19.6240  -18.0460  C 0  0  0  3  0  4
  -36.4920  -17.3370  -17.0500  C 0  0  0  2  0  3
  -36.3640  -15.9560  -17.0830  C 0  0  0  2  0  3
  -35.7030  -15.3490  -18.1300  C 0  0  0  2  0  3
  -34.4380  -27.8210  -23.2430  N 0  0  0  3  0  3
  -34.9730  -26.6600  -23.6440  C 0  3  0  1  0  3
  -35.4730  -26.5910  -24.8330  N 0  0  0  3  0  3
  -34.9190  -25.5190  -22.6860  C 0  0  0  1  0  3
  -35.2150  -24.2200  -23.1040  C 0  0  0  2  0  3
  -34.7940  -23.3740  -20.8860  C 0  0  0  1  0  3
  -34.6280  -22.3140  -20.0180  N 0  0  0  2  0  3
  -35.1190  -20.3750  -18.7690  C 0  0  0  2  0  4
  -35.9530  -18.1310  -18.0620  C 0  0  0  1  0  3
  -35.1560  -16.1240  -19.1440  C 0  0  0  2  0  3
  -35.3100  -17.5210  -19.1670  C 0  0  0  2  0  4
  -34.7190  -18.4360  -20.2490  B 0  0  0  1  0  3
  -33.9790  -17.9730  -21.2820  O 0  0  0  3  0  3
  -34.4000  -19.6930  -19.8040  O 0  0  0  2  0  3
  -34.4760  -24.6640  -20.4690  C 0  0  0  2  0  3
  -34.5560  -25.7250  -21.3550  C 0  0  0  2  0  3
  -35.3438  -22.1487  -22.5639  H 0  0  0  1  0  1
  -36.1324  -22.2683  -18.5490  H 0  0  0  1  0  1
  -36.5155  -21.3875  -20.0669  H 0  0  0  1  0  1
  -36.2570  -19.9697  -17.0027  H 0  0  0  1  0  1
  -37.1747  -19.8264  -18.5402  H 0  0  0  1  0  1
  -37.0183  -17.8054  -16.2262  H 0  0  0  1  0  1
  -36.7838  -15.3538  -16.2854  H 0  0  0  1  0  1
  -35.6106  -14.2694  -18.1614  H 0  0  0  1  0  1
  -34.0326  -27.9027  -22.2997  H 0  0  0  1  0  1
  -34.4321  -28.6319  -23.8781  H 0  0  0  1  0  1
  -35.8904  -25.7101  -25.1658  H 0  0  0  1  0  1
  -35.4543  -27.4168  -25.4483  H 0  0  0  1  0  1
  -35.5090  -24.0416  -24.1320  H 0  0  0  1  0  1
  -33.6694  -21.9847  -19.8345  H 0  0  0  1  0  1
  -34.3770  -20.6591  -18.0082  H 0  0  0  1  0  1
  -34.5969  -15.6402  -19.9367  H 0  0  0  1  0  1
  -34.9491  -18.1112  -20.0016  H 0  0  0  1  0  1
  -34.0799  -18.5532  -22.0275  H 0  0  0  1  0  1
  -34.0799  -18.5531  -22.0275  H 0  0  0  1  0  1
  -35.0057  -19.4250  -20.4850  H 0  0  0  1  0  1
  -34.1642  -24.8384  -19.4456  H 0  0  0  1  0  1
  -34.3338  -26.7283  -21.0100  H 0  0  0  1  0  1
  1 11  4  0  0  1
 12  1  4  0  0  1
 13  2  1  0  0  2
  2 14  1  0  0  2
 14  3  1  0  0  1
  3 15  1  0  0  1
  4  5  4  0  0  1
 15  4  4  0  0  1
  5  6  4  0  0  1
  6 16  4  0  0  1
  8  7  2  0  0  2
  8  9  2  0  0  2
 10  8  1  0  0  2
 11 10  4  0  0  1
 10 22  4  0  0  1
 12 13  1  0  0  2
 12 21  4  0  0  1
 14 20  1  0  0  1
 15 17  4  0  0  1
 16 17  4  0  0  1
 17 18  1  0  0  1
 18 19  1  0  0  2
 18 20  1  0  0  1
 21 22  4  0  0  1
  1 23  1  0  0  2
  2 24  1  0  0  2
  2 25  1  0  0  2
  3 26  1  0  0  2
  3 27  1  0  0  2
  4 28  1  0  0  2
  5 29  1  0  0  2
  6 30  1  0  0  2
  7 31  1  0  0  2
  7 32  1  0  0  2
  9 33  1  0  0  2
  9 34  1  0  0  2
 11 35  1  0  0  2
 13 36  1  0  0  2
 14 37  1  0  0  2
 16 38  1  0  0  2
 17 39  1  0  0  2
 19 40  1  0  0  2
 19 41  1  0  0  2
 20 42  1  0  0  2
 21 43  1  0  0  2
 22 44  1  0  0  2
M  END
> <MOLECULAR_FORMULA>
C16H22N3O2B

> <MOLECULAR_WEIGHT>
299.0

> <NUM_HB_ATOMS>
5  

> <NUM_ROTOR>
2  

> <XLOGP2>
1.59 

$$$$
