#	Name:			6skd_ligand
#	Creating user name:	wangrx
#	Creation time:		Thu Aug  5 18:24:43 2021

#	Modifying user name:	wangrx
#	Modification time:	Thu Aug  5 18:25:15 2021

@<TRIPOS>MOLECULE
6skd_ligand
   42    44     1     0     0
SMALL
GAST_HUCK


@<TRIPOS>ATOM
      1 C10       -35.1370  -23.1550  -22.2180 C.ar      1 LH2        -0.0445 
      2 C15       -35.7200  -21.6360  -19.3490 C.3       1 LH2         0.0132 
      3 C20       -36.2130  -19.6240  -18.0460 C.3       1 LH2        -0.0484 
      4 C24       -36.4920  -17.3370  -17.0500 C.ar      1 LH2        -0.1752 
      5 C26       -36.3640  -15.9560  -17.0830 C.ar      1 LH2        -0.1827 
      6 C28       -35.7030  -15.3490  -18.1300 C.ar      1 LH2        -0.1687 
      7 N01       -34.4380  -27.8210  -23.2430 N.pl3     1 LH2        -0.2736 
      8 C04       -34.9730  -26.6600  -23.6440 C.cat     1 LH2         0.2283 
      9 N05       -35.4730  -26.5910  -24.8330 N.pl3     1 LH2        -0.2736 
     10 C07       -34.9190  -25.5190  -22.6860 C.ar      1 LH2         0.0122 
     11 C08       -35.2150  -24.2200  -23.1040 C.ar      1 LH2        -0.0685 
     12 C12       -34.7940  -23.3740  -20.8860 C.ar      1 LH2         0.0377 
     13 N13       -34.6280  -22.3140  -20.0180 N.pl3     1 LH2        -0.3237 
     14 C18       -35.1190  -20.3750  -18.7690 C.3       1 LH2        -0.0978 
     15 C23       -35.9530  -18.1310  -18.0620 C.ar      1 LH2        -0.1460 
     16 C30       -35.1560  -16.1240  -19.1440 C.ar      1 LH2        -0.1858 
     17 C32       -35.3100  -17.5210  -19.1670 C.ar      1 LH2        -0.1865 
     18 B33       -34.7190  -18.4360  -20.2490 B         1 LH2         3.0000 
     19 O34       -33.9790  -17.9730  -21.2820 O.3       1 LH2        -0.4105 
     20 O36       -34.4000  -19.6930  -19.8040 O.3       1 LH2        -0.8506 
     21 C37       -34.4760  -24.6640  -20.4690 C.ar      1 LH2        -0.0445 
     22 C39       -34.5560  -25.7250  -21.3550 C.ar      1 LH2        -0.0685 
     23 H1        -35.3438  -22.1487  -22.5639 H         1 LH2         0.0515 
     24 H2        -36.1324  -22.2683  -18.5490 H         1 LH2         0.0502 
     25 H3        -36.5155  -21.3875  -20.0669 H         1 LH2         0.0502 
     26 H4        -36.2570  -19.9697  -17.0027 H         1 LH2         0.0401 
     27 H5        -37.1747  -19.8264  -18.5402 H         1 LH2         0.0401 
     28 H6        -37.0183  -17.8054  -16.2262 H         1 LH2        -0.0189 
     29 H7        -36.7838  -15.3538  -16.2854 H         1 LH2        -0.0146 
     30 H8        -35.6106  -14.2694  -18.1614 H         1 LH2         0.0333 
     31 H9        -34.0326  -27.9027  -22.2997 H         1 LH2         0.3179 
     32 H10       -34.4321  -28.6319  -23.8781 H         1 LH2         0.3179 
     33 H11       -35.8904  -25.7101  -25.1658 H         1 LH2         0.3179 
     34 H12       -35.4543  -27.4168  -25.4483 H         1 LH2         0.3179 
     35 H13       -35.5090  -24.0416  -24.1320 H         1 LH2         0.0582 
     36 H14       -33.6694  -21.9847  -19.8345 H         1 LH2         0.1755 
     37 H15       -34.3770  -20.6591  -18.0082 H         1 LH2         0.0153 
     38 H16       -34.5969  -15.6402  -19.9367 H         1 LH2        -0.0149 
     39 H18       -34.0799  -18.5532  -22.0275 H         1 LH2         0.2052 
     40 H19       -34.0799  -18.5531  -22.0275 H         1 LH2         0.2052 
     41 H21       -34.1642  -24.8384  -19.4456 H         1 LH2         0.0515 
     42 H22       -34.3338  -26.7283  -21.0100 H         1 LH2         0.0582 
@<TRIPOS>BOND
     1    1   11 ar   
     2   12    1 ar   
     3   13    2 1    
     4    2   14 1    
     5   14    3 1    
     6    3   15 1    
     7    4    5 ar   
     8   15    4 ar   
     9    5    6 ar   
    10    6   16 ar   
    11    8    7 ar   
    12    8    9 ar   
    13   10    8 1    
    14   11   10 ar   
    15   10   22 ar   
    16   12   13 1    
    17   12   21 ar   
    18   14   20 1    
    19   15   17 ar   
    20   16   17 ar   
    21   17   18 1    
    22   18   19 1    
    23   18   20 1    
    24   21   22 ar   
    25    1   23 1    
    26    2   24 1    
    27    2   25 1    
    28    3   26 1    
    29    3   27 1    
    30    4   28 1    
    31    5   29 1    
    32    6   30 1    
    33    7   31 1    
    34    7   32 1    
    35    9   33 1    
    36    9   34 1    
    37   11   35 1    
    38   13   36 1    
    39   14   37 1    
    40   16   38 1    
    41   19   39 1    
    42   19   40 1    
    43   21   41 1    
    44   22   42 1    
@<TRIPOS>SUBSTRUCTURE
     1 LH2         1 PERM              0 ****  ****    0 ROOT 
