6of5_ligand
  -I-interpret- 

 61 62  0  0  0  0  0  0  0  0999 V2000
  -73.6800   34.3350  -45.7010 C   0  0  0  0  0
  -74.1670   34.0120  -44.4450 C   0  0  0  0  0
  -69.1430   33.7380  -44.1500 C   0  0  0  0  0
  -69.6060   33.4370  -42.8960 C   0  0  0  0  0
  -72.3110   34.3450  -45.9200 C   0  0  0  0  0
  -70.0900   34.0530  -45.0860 C   0  0  0  0  0
  -73.3140   33.7090  -43.4010 C   0  0  0  0  0
  -68.9490   32.7290  -47.5280 C   0  0  0  0  0
  -67.7250   33.5950  -47.5890 C   0  0  0  0  0
  -67.5420   34.8470  -46.7910 C   0  0  0  0  0
  -68.4580   36.0190  -47.0340 C   0  0  0  0  0
  -68.7170   37.0180  -45.9250 C   0  0  0  0  0
  -68.0480   36.8650  -44.5830 C   0  0  0  0  0
  -68.9330   36.8570  -43.3570 C   0  0  0  0  0
  -69.4080   38.1960  -42.8800 C   0  0  0  0  0
  -70.3520   38.3710  -41.7200 C   0  0  0  0  0
  -70.9300   37.2140  -40.9690 C   0  0  0  0  0
  -71.8340   36.2310  -41.6200 C   0  0  0  0  0
  -72.3320   35.0790  -40.7930 C   0  0  0  0  0
  -70.9380   33.3780  -42.5770 C   0  0  0  0  0
  -71.4580   34.0220  -44.8460 C   0  0  0  0  0
  -71.9060   33.6940  -43.6120 C   0  0  0  0  0
  -71.3000   32.9900  -41.1680 C   0  0  0  0  0
  -68.7180   32.0230  -40.8530 O   0  0  0  0  0
  -70.0740   32.2470  -38.9310 O   0  0  0  0  0
  -70.3460   30.3200  -40.2810 O   0  0  0  0  0
  -71.4610   34.0980  -40.3970 O   0  0  0  0  0
  -70.0990   31.8710  -40.3590 P   0  0  0  0  0
  -74.3676   34.5793  -46.5107 H   0  0  0  0  0
  -75.2439   33.9966  -44.2770 H   0  0  0  0  0
  -68.0795   33.7271  -44.3886 H   0  0  0  0  0
  -68.8773   33.2339  -42.1112 H   0  0  0  0  0
  -71.9043   34.5967  -46.8995 H   0  0  0  0  0
  -69.7507   34.3458  -46.0796 H   0  0  0  0  0
  -73.7194   33.4813  -42.4151 H   0  0  0  0  0
  -69.0848   32.3654  -46.5095 H   0  0  0  0  0
  -69.8203   33.3121  -47.8262 H   0  0  0  0  0
  -68.8278   31.8827  -48.2042 H   0  0  0  0  0
  -67.7449   33.9654  -48.6140 H   0  0  0  0  0
  -66.9494   32.9414  -47.1898 H   0  0  0  0  0
  -66.5505   35.2081  -47.0643 H   0  0  0  0  0
  -67.7377   34.5506  -45.7605 H   0  0  0  0  0
  -69.4314   35.5691  -47.2293 H   0  0  0  0  0
  -67.9607   36.5977  -47.8124 H   0  0  0  0  0
  -69.7796   36.9079  -45.7084 H   0  0  0  0  0
  -68.3246   37.9575  -46.3141 H   0  0  0  0  0
  -67.4055   37.7389  -44.4747 H   0  0  0  0  0
  -67.5687   35.8863  -44.6046 H   0  0  0  0  0
  -68.3322   36.4399  -42.5488 H   0  0  0  0  0
  -69.8263   36.2945  -43.6283 H   0  0  0  0  0
  -69.9855   38.5684  -43.7261 H   0  0  0  0  0
  -68.4926   38.6707  -42.5267 H   0  0  0  0  0
  -71.2260   38.8366  -42.1755 H   0  0  0  0  0
  -69.7401   38.8754  -40.9721 H   0  0  0  0  0
  -70.6812   37.0885  -39.9152 H   0  0  0  0  0
  -72.1267   36.3417  -42.6641 H   0  0  0  0  0
  -73.0464   34.5673  -41.4379 H   0  0  0  0  0
  -72.6716   35.5356  -39.8633 H   0  0  0  0  0
  -72.2346   32.4361  -41.2561 H   0  0  0  0  0
  -70.9570   32.1632  -38.5637 H   0  0  0  0  0
  -71.2365   30.1545  -39.9629 H   0  0  0  0  0
  2  1  4  0  0  0
  5  1  4  0  0  0
  7  2  4  0  0  0
  4  3  4  0  0  0
  3  6  4  0  0  0
 20  4  4  0  0  0
 21  5  4  0  0  0
 21  6  4  0  0  0
 22  7  4  0  0  0
  9  8  1  0  0  0
 10  9  1  0  0  0
 11 10  1  0  0  0
 12 11  1  0  0  0
 13 12  1  0  0  0
 14 13  1  0  0  0
 15 14  1  0  0  0
 16 15  1  0  0  0
 17 16  1  0  0  0
 18 17  2  0  0  0
 19 18  1  0  0  0
 27 19  1  0  0  0
 20 22  4  0  0  0
 23 20  1  0  0  0
 22 21  4  0  0  0
 23 27  1  0  0  0
 23 28  1  0  0  0
 28 24  2  0  0  0
 28 25  1  0  0  0
 28 26  1  0  0  0
  1 29  1  0  0  0
  2 30  1  0  0  0
  3 31  1  0  0  0
  4 32  1  0  0  0
  5 33  1  0  0  0
  6 34  1  0  0  0
  7 35  1  0  0  0
  8 36  1  0  0  0
  8 37  1  0  0  0
  8 38  1  0  0  0
  9 39  1  0  0  0
  9 40  1  0  0  0
 10 41  1  0  0  0
 10 42  1  0  0  0
 11 43  1  0  0  0
 11 44  1  0  0  0
 12 45  1  0  0  0
 12 46  1  0  0  0
 13 47  1  0  0  0
 13 48  1  0  0  0
 14 49  1  0  0  0
 14 50  1  0  0  0
 15 51  1  0  0  0
 15 52  1  0  0  0
 16 53  1  0  0  0
 16 54  1  0  0  0
 17 55  1  0  0  0
 18 56  1  0  0  0
 19 57  1  0  0  0
 19 58  1  0  0  0
 23 59  1  0  0  0
 25 60  1  0  0  0
 26 61  1  0  0  0
M  END
$$$$
