### 
### Created by X-TOOL on Mon Aug  2 16:15:42 2021
### 

@<TRIPOS>MOLECULE
6of5_ligand
   59    60     1     0     0
SMALL
GAST_HUCK


@<TRIPOS>ATOM
      1 CAE       -73.6800   34.3350  -45.7010 C.ar      1 MFJ        -0.0629
      2 CAF       -74.1670   34.0120  -44.4450 C.ar      1 MFJ        -0.0625
      3 CAG       -69.1430   33.7380  -44.1500 C.ar      1 MFJ        -0.0706
      4 CAH       -69.6060   33.4370  -42.8960 C.ar      1 MFJ        -0.0569
      5 CAI       -72.3110   34.3450  -45.9200 C.ar      1 MFJ        -0.0569
      6 CAJ       -70.0900   34.0530  -45.0860 C.ar      1 MFJ        -0.0631
      7 CAK       -73.3140   33.7090  -43.4010 C.ar      1 MFJ        -0.0547
      8 CAQ       -68.9490   32.7290  -47.5280 C.3       1 MFJ        -0.0653
      9 CAR       -67.7250   33.5950  -47.5890 C.3       1 MFJ        -0.0559
     10 CAS       -67.5420   34.8470  -46.7910 C.3       1 MFJ        -0.0533
     11 CAT       -68.4580   36.0190  -47.0340 C.3       1 MFJ        -0.0531
     12 CAU       -68.7170   37.0180  -45.9250 C.3       1 MFJ        -0.0531
     13 CAV       -68.0480   36.8650  -44.5830 C.3       1 MFJ        -0.0529
     14 CAW       -68.9330   36.8570  -43.3570 C.3       1 MFJ        -0.0515
     15 CAX       -69.4080   38.1960  -42.8800 C.3       1 MFJ        -0.0464
     16 CAY       -70.3520   38.3710  -41.7200 C.3       1 MFJ        -0.0364
     17 CAZ       -70.9300   37.2140  -40.9690 C.2       1 MFJ        -0.0965
     18 CBA       -71.8340   36.2310  -41.6200 C.2       1 MFJ        -0.0730
     19 CBB       -72.3320   35.0790  -40.7930 C.3       1 MFJ         0.0700
     20 CBD       -70.9380   33.3780  -42.5770 C.ar      1 MFJ         0.0129
     21 CBE       -71.4580   34.0220  -44.8460 C.ar      1 MFJ        -0.0242
     22 CBF       -71.9060   33.6940  -43.6120 C.ar      1 MFJ        -0.0083
     23 CBG       -71.3000   32.9900  -41.1680 C.3       1 MFJ         0.1664
     24 OAB       -68.7180   32.0230  -40.8530 O.co2     1 MFJ        -0.5590
     25 OAC       -70.0740   32.2470  -38.9310 O.co2     1 MFJ        -0.5590
     26 OAD       -70.3460   30.3200  -40.2810 O.co2     1 MFJ        -0.5590
     27 OBC       -71.4610   34.0980  -40.3970 O.3       1 MFJ        -0.3376
     28 PBH       -70.0990   31.8710  -40.3590 P.3       1 MFJ         0.1020
     29 H1        -74.3639   34.5780  -46.5062 H         1 MFJ         0.0616
     30 H2        -75.2379   33.9967  -44.2779 H         1 MFJ         0.0601
     31 H3        -68.0853   33.7272  -44.3873 H         1 MFJ         0.0595
     32 H4        -68.8813   33.2350  -42.1155 H         1 MFJ         0.0531
     33 H5        -71.9066   34.5953  -46.8941 H         1 MFJ         0.0609
     34 H6        -69.7526   34.3442  -46.0741 H         1 MFJ         0.0542
     35 H7        -73.7171   33.4825  -42.4206 H         1 MFJ         0.0628
     36 H8        -68.8279   31.8745  -48.2100 H         1 MFJ         0.0230
     37 H9        -69.8291   33.3163  -47.8288 H         1 MFJ         0.0230
     38 H10       -69.0872   32.3613  -46.5005 H         1 MFJ         0.0230
     39 H11       -67.6260   33.8964  -48.6422 H         1 MFJ         0.0263
     40 H12       -66.8841   32.9414  -47.3140 H         1 MFJ         0.0263
     41 H13       -66.5162   35.1982  -46.9762 H         1 MFJ         0.0265
     42 H14       -67.6493   34.5706  -45.7317 H         1 MFJ         0.0265
     43 H15       -69.4350   35.6044  -47.3230 H         1 MFJ         0.0265
     44 H16       -68.0350   36.5835  -47.8780 H         1 MFJ         0.0265
     45 H17       -69.8011   37.0078  -45.7391 H         1 MFJ         0.0265
     46 H18       -68.4208   38.0035  -46.3137 H         1 MFJ         0.0265
     47 H19       -67.3390   37.6986  -44.4717 H         1 MFJ         0.0265
     48 H20       -67.4962   35.9135  -44.5968 H         1 MFJ         0.0265
     49 H21       -68.3681   36.3889  -42.5374 H         1 MFJ         0.0267
     50 H22       -69.8196   36.2476  -43.5861 H         1 MFJ         0.0267
     51 H23       -69.9002   38.6671  -43.7436 H         1 MFJ         0.0285
     52 H24       -68.5019   38.7629  -42.6201 H         1 MFJ         0.0285
     53 H25       -71.2089   38.9414  -42.1077 H         1 MFJ         0.0388
     54 H26       -69.8133   38.9779  -40.9774 H         1 MFJ         0.0388
     55 H27       -70.6814   37.0886  -39.9162 H         1 MFJ         0.0451
     56 H28       -72.1265   36.3416  -42.6631 H         1 MFJ         0.0472
     57 H29       -73.1227   34.5858  -41.3773 H         1 MFJ         0.0688
     58 H30       -72.7658   35.5081  -39.8778 H         1 MFJ         0.0688
     59 H31       -72.2632   32.4607  -41.2148 H         1 MFJ         0.0971
@<TRIPOS>BOND
     1    2    1 ar 
     2    5    1 ar 
     3    7    2 ar 
     4    4    3 ar 
     5    3    6 ar 
     6   20    4 ar 
     7   21    5 ar 
     8   21    6 ar 
     9   22    7 ar 
    10    9    8 1  
    11   10    9 1  
    12   11   10 1  
    13   12   11 1  
    14   13   12 1  
    15   14   13 1  
    16   15   14 1  
    17   16   15 1  
    18   17   16 1  
    19   18   17 2  
    20   19   18 1  
    21   27   19 1  
    22   20   22 ar 
    23   23   20 1  
    24   22   21 ar 
    25   23   27 1  
    26   23   28 1  
    27   28   24 ar 
    28   28   25 ar 
    29   28   26 ar 
    30    1   29 1  
    31    2   30 1  
    32    3   31 1  
    33    4   32 1  
    34    5   33 1  
    35    6   34 1  
    36    7   35 1  
    37    8   36 1  
    38    8   37 1  
    39    8   38 1  
    40    9   39 1  
    41    9   40 1  
    42   10   41 1  
    43   10   42 1  
    44   11   43 1  
    45   11   44 1  
    46   12   45 1  
    47   12   46 1  
    48   13   47 1  
    49   13   48 1  
    50   14   49 1  
    51   14   50 1  
    52   15   51 1  
    53   15   52 1  
    54   16   53 1  
    55   16   54 1  
    56   17   55 1  
    57   18   56 1  
    58   19   57 1  
    59   19   58 1  
    60   23   59 1  
@<TRIPOS>SUBSTRUCTURE
     1 MFJ         1

