4yog_ligand
  -I-interpret- 

 64 67  0  0  0  0  0  0  0  0999 V2000
    4.4800  -29.1510  -23.6370 C   0  0  0  0  0
    5.1760  -24.4730  -25.1980 C   0  0  0  0  0
    5.4950  -23.4480  -26.1160 C   0  0  0  0  0
    4.9460  -22.2330  -29.2480 C   0  0  0  0  0
    4.9000  -22.7430  -30.7000 C   0  0  0  0  0
    5.9380  -24.4970  -32.3640 C   0  0  0  0  0
    7.6200  -21.4260  -29.4710 O   0  0  0  0  0
    7.3970  -22.2700  -28.6280 C   0  0  0  0  0
    6.0580  -22.7500  -28.4350 N   0  0  0  0  0
    5.7490  -23.7680  -27.4500 C   0  0  0  0  0
    5.6770  -25.0940  -27.8670 C   0  0  0  0  0
    5.3580  -26.1060  -26.9530 C   0  0  0  0  0
    5.1200  -25.7990  -25.6030 C   0  0  0  0  0
    4.7630  -26.8170  -24.6370 N   0  0  0  0  0
    4.9630  -28.2340  -24.7630 C   0  0  0  0  0
    5.5130  -28.7330  -25.7290 O   0  0  0  0  0
    5.7770  -23.8540  -31.0680 N   0  0  0  0  0
    4.6380  -24.6910  -33.1160 C   0  0  0  0  0
    6.5520  -25.8460  -32.1500 C   0  0  0  0  0
    6.8950  -23.6870  -33.1980 C   0  0  0  0  0
    4.1490  -22.1940  -31.4980 O   0  0  0  0  0
    3.6520  -22.2940  -28.4380 C   0  0  0  0  0
    2.6580  -23.3240  -28.5040 C   0  0  0  0  0
    1.4690  -23.0230  -27.4480 S   0  0  0  0  0
    2.0010  -21.6570  -26.7830 C   0  0  0  0  0
    3.2580  -21.2750  -27.3700 C   0  0  0  0  0
    8.5270  -22.8140  -27.7700 C   0  0  0  0  0
    9.7770  -22.1430  -28.0810 N   0  0  0  0  0
   10.7450  -22.6140  -28.9800 C   0  0  0  0  0
   10.8350  -23.7650  -29.7980 C   0  0  0  0  0
   11.9610  -23.9660  -30.6030 C   0  0  0  0  0
   13.0040  -23.0190  -30.6000 C   0  0  0  0  0
   12.9190  -21.8850  -29.7960 C   0  0  0  0  0
   11.7780  -21.6790  -28.9720 C   0  0  0  0  0
   11.4020  -20.6790  -28.0820 N   0  0  0  0  0
   10.1920  -20.9840  -27.5610 N   0  0  0  0  0
    3.7533  -29.8598  -24.0339 H   0  0  0  0  0
    5.3296  -29.6935  -23.2223 H   0  0  0  0  0
    4.0143  -28.5505  -22.8556 H   0  0  0  0  0
    4.9712  -24.2191  -24.1580 H   0  0  0  0  0
    5.5425  -22.4110  -25.7835 H   0  0  0  0  0
    5.1229  -21.1770  -29.4521 H   0  0  0  0  0
    5.8698  -25.3459  -28.9098 H   0  0  0  0  0
    5.2939  -27.1400  -27.2918 H   0  0  0  0  0
    4.3228  -26.4936  -23.7756 H   0  0  0  0  0
    6.3537  -24.2289  -30.3149 H   0  0  0  0  0
    3.9678  -25.3156  -32.5254 H   0  0  0  0  0
    4.1728  -23.7209  -33.2910 H   0  0  0  0  0
    4.8410  -25.1757  -34.0710 H   0  0  0  0  0
    7.5226  -25.7297  -31.6679 H   0  0  0  0  0
    5.8988  -26.4445  -31.5149 H   0  0  0  0  0
    6.6799  -26.3423  -33.1120 H   0  0  0  0  0
    6.4961  -22.6816  -33.3330 H   0  0  0  0  0
    7.8589  -23.6320  -32.6921 H   0  0  0  0  0
    7.0202  -24.1632  -34.1705 H   0  0  0  0  0
    2.6970  -24.1862  -29.1697 H   0  0  0  0  0
    1.4836  -21.1015  -26.0008 H   0  0  0  0  0
    3.8392  -20.3948  -27.0952 H   0  0  0  0  0
    8.6398  -23.8795  -27.9704 H   0  0  0  0  0
    8.2866  -22.6423  -26.7208 H   0  0  0  0  0
   10.0262  -24.4957  -29.8008 H   0  0  0  0  0
   12.0314  -24.8537  -31.2315 H   0  0  0  0  0
   13.8805  -23.1743  -31.2291 H   0  0  0  0  0
   13.7279  -21.1544  -29.7982 H   0  0  0  0  0
 15  1  1  0  0  0
  2  3  4  0  0  0
 13  2  4  0  0  0
  3 10  4  0  0  0
  4  5  1  0  0  0
  9  4  1  0  0  0
  4 22  1  0  0  0
  5 17  1  0  0  0
  5 21  2  0  0  0
 17  6  1  0  0  0
  6 18  1  0  0  0
  6 19  1  0  0  0
  6 20  1  0  0  0
  8  7  2  0  0  0
  9  8  1  0  0  0
  8 27  1  0  0  0
 10  9  1  0  0  0
 11 10  4  0  0  0
 12 11  4  0  0  0
 13 12  4  0  0  0
 14 13  1  0  0  0
 14 15  1  0  0  0
 15 16  2  0  0  0
 22 23  4  0  0  0
 22 26  4  0  0  0
 23 24  4  0  0  0
 24 25  4  0  0  0
 25 26  4  0  0  0
 27 28  1  0  0  0
 28 29  4  0  0  0
 28 36  4  0  0  0
 29 30  4  0  0  0
 29 34  4  0  0  0
 30 31  4  0  0  0
 31 32  4  0  0  0
 32 33  4  0  0  0
 33 34  4  0  0  0
 34 35  4  0  0  0
 35 36  4  0  0  0
  1 37  1  0  0  0
  1 38  1  0  0  0
  1 39  1  0  0  0
  2 40  1  0  0  0
  3 41  1  0  0  0
  4 42  1  0  0  0
 11 43  1  0  0  0
 12 44  1  0  0  0
 14 45  1  0  0  0
 17 46  1  0  0  0
 18 47  1  0  0  0
 18 48  1  0  0  0
 18 49  1  0  0  0
 19 50  1  0  0  0
 19 51  1  0  0  0
 19 52  1  0  0  0
 20 53  1  0  0  0
 20 54  1  0  0  0
 20 55  1  0  0  0
 23 56  1  0  0  0
 25 57  1  0  0  0
 26 58  1  0  0  0
 27 59  1  0  0  0
 27 60  1  0  0  0
 30 61  1  0  0  0
 31 62  1  0  0  0
 32 63  1  0  0  0
 33 64  1  0  0  0
M  END
$$$$
