6gzd_ligand
  -I-interpret- 

 51 54  0  0  0  0  0  0  0  0999 V2000
   -1.7800  -16.1370   -6.6640 F   0  0  0  0  0
   -2.6690  -16.1640   -7.6530 C   0  0  0  0  0
   -2.7570  -15.1090   -8.5400 C   0  0  0  0  0
   -3.6790  -15.1330   -9.5690 N   0  0  0  0  0
   -3.5140  -17.2470   -7.8070 C   0  0  0  0  0
   -4.4330  -17.2660   -8.8340 N   0  0  0  0  0
   -4.5210  -16.2160   -9.7180 C   0  0  0  0  0
   -5.4700  -16.2660  -10.7550 N   0  0  0  0  0
   -6.3100  -17.4670  -10.9270 C   0  0  0  0  0
   -7.5530  -17.0980  -11.7380 C   0  0  0  0  0
   -8.4840  -18.3110  -11.8600 C   0  0  0  0  0
   -5.5600  -18.6180  -11.6260 C   0  0  0  0  0
   -6.4820  -19.8430  -11.7130 C   0  0  0  0  0
   -7.7450  -19.4900  -12.5140 C   0  0  0  0  0
   -8.6410  -20.6540  -12.5510 N   0  3  0  0  0
   -3.4680  -18.4000   -6.8930 C   0  0  0  0  0
   -2.7290  -18.4480   -5.7350 C   0  0  0  0  0
   -2.9540  -19.6600   -5.1920 N   0  0  0  0  0
   -3.7440  -20.3160   -5.9190 N   0  0  0  0  0
   -4.1940  -21.6820   -5.6110 C   0  0  0  0  0
   -4.1080  -19.6040   -6.9950 C   0  0  0  0  0
   -5.0420  -20.0390   -8.1030 C   0  0  0  0  0
   -6.4940  -19.8180   -7.6860 C   0  0  0  0  0
   -7.3190  -21.0570   -8.0410 C   0  0  0  0  0
   -6.8560  -20.8330   -6.6020 C   0  0  0  0  0
   -2.0942  -14.2510   -8.4275 H   0  0  0  0  0
   -5.5774  -15.4730  -11.3874 H   0  0  0  0  0
   -6.5883  -17.8201   -9.9341 H   0  0  0  0  0
   -7.2477  -16.7804  -12.7350 H   0  0  0  0  0
   -8.0827  -16.2907  -11.2323 H   0  0  0  0  0
   -9.3397  -18.0410  -12.4789 H   0  0  0  0  0
   -8.8138  -18.6071  -10.8642 H   0  0  0  0  0
   -4.6670  -18.8724  -11.0551 H   0  0  0  0  0
   -5.2682  -18.3081  -12.6294 H   0  0  0  0  0
   -6.7680  -20.1503  -10.7071 H   0  0  0  0  0
   -5.9545  -20.6556  -12.2125 H   0  0  0  0  0
   -7.4503  -19.2101  -13.5254 H   0  0  0  0  0
   -8.1569  -21.4405  -12.9839 H   0  0  0  0  0
   -8.9131  -20.9025  -11.5999 H   0  0  0  0  0
   -9.4728  -20.4241  -13.0948 H   0  0  0  0  0
   -2.0884  -17.6618   -5.3356 H   0  0  0  0  0
   -3.3302  -22.3448   -5.5597 H   0  0  0  0  0
   -4.7131  -21.6847   -4.6526 H   0  0  0  0  0
   -4.8710  -22.0252   -6.3933 H   0  0  0  0  0
   -4.8863  -21.0987   -8.3054 H   0  0  0  0  0
   -4.8339  -19.4505   -8.9966 H   0  0  0  0  0
   -6.6103  -18.7427   -7.8216 H   0  0  0  0  0
   -7.3196  -21.8534   -8.7853 H   0  0  0  0  0
   -8.2363  -21.3029   -8.5760 H   0  0  0  0  0
   -7.2791  -20.8393   -5.5975 H   0  0  0  0  0
   -6.3608  -21.3907   -5.8071 H   0  0  0  0  0
  1  2  1  0  0  0
  2  3  4  0  0  0
  2  5  4  0  0  0
  3  4  4  0  0  0
  4  7  4  0  0  0
  5  6  4  0  0  0
  5 16  1  0  0  0
  6  7  4  0  0  0
  7  8  1  0  0  0
  8  9  1  0  0  0
  9 10  1  0  0  0
  9 12  1  0  0  0
 10 11  1  0  0  0
 11 14  1  0  0  0
 12 13  1  0  0  0
 13 14  1  0  0  0
 14 15  1  0  0  0
 16 17  4  0  0  0
 16 21  4  0  0  0
 17 18  4  0  0  0
 18 19  4  0  0  0
 19 20  1  0  0  0
 19 21  4  0  0  0
 21 22  1  0  0  0
 22 23  1  0  0  0
 23 24  1  0  0  0
 23 25  1  0  0  0
 24 25  1  0  0  0
  3 26  1  0  0  0
  8 27  1  0  0  0
  9 28  1  0  0  0
 10 29  1  0  0  0
 10 30  1  0  0  0
 11 31  1  0  0  0
 11 32  1  0  0  0
 12 33  1  0  0  0
 12 34  1  0  0  0
 13 35  1  0  0  0
 13 36  1  0  0  0
 14 37  1  0  0  0
 15 38  1  0  0  0
 15 39  1  0  0  0
 15 40  1  0  0  0
 17 41  1  0  0  0
 20 42  1  0  0  0
 20 43  1  0  0  0
 20 44  1  0  0  0
 22 45  1  0  0  0
 22 46  1  0  0  0
 23 47  1  0  0  0
 24 48  1  0  0  0
 24 49  1  0  0  0
 25 50  1  0  0  0
 25 51  1  0  0  0
M  END
$$$$
