3t09_ligand
  -I-interpret- 

 22 22  0  0  0  0  0  0  0  0999 V2000
   53.9660   -8.9740   28.8870 C   0  0  0  0  0
   53.7240   -8.0440   27.7260 C   0  0  0  0  0
   52.5340   -7.1500   28.0210 C   0  0  0  0  0
   51.4130   -8.0330   28.5680 C   0  0  0  0  0
   51.7740   -8.5330   29.9710 C   0  0  0  0  0
   50.7940   -9.5750   30.5180 C   0  0  0  0  0
   54.9720   -9.6420   28.9110 O   0  0  0  0  0
   54.8980   -7.2550   27.4600 O   0  0  0  0  0
   52.1110   -6.5110   26.8110 O   0  0  0  0  0
   51.1790   -9.1360   27.6780 O   0  0  0  0  0
   53.0670   -9.1430   30.0370 O   0  0  0  0  0
   49.4890   -9.0040   30.5930 O   0  0  0  0  0
   53.5053   -8.6366   26.8377 H   0  0  0  0  0
   52.7950   -6.3809   28.7480 H   0  0  0  0  0
   50.4970   -7.4464   28.6385 H   0  0  0  0  0
   51.7413   -7.6221   30.5688 H   0  0  0  0  0
   51.1124   -9.8876   31.5125 H   0  0  0  0  0
   50.7753  -10.4404   29.8555 H   0  0  0  0  0
   55.6386   -7.8374   27.2760 H   0  0  0  0  0
   52.8219   -5.9594   26.4763 H   0  0  0  0  0
   50.9549   -8.8008   26.8068 H   0  0  0  0  0
   48.8745   -9.6570   30.9359 H   0  0  0  0  0
  1  2  1  0  0  0
  1  7  2  0  0  0
  1 11  1  0  0  0
  2  3  1  0  0  0
  2  8  1  0  0  0
  3  4  1  0  0  0
  3  9  1  0  0  0
  4  5  1  0  0  0
  4 10  1  0  0  0
  5  6  1  0  0  0
  5 11  1  0  0  0
  6 12  1  0  0  0
  2 13  1  0  0  0
  3 14  1  0  0  0
  4 15  1  0  0  0
  5 16  1  0  0  0
  6 17  1  0  0  0
  6 18  1  0  0  0
  8 19  1  0  0  0
  9 20  1  0  0  0
 10 21  1  0  0  0
 12 22  1  0  0  0
M  END
$$$$
