3srg_ligand
  -I-interpret- 

 18 19  0  0  0  0  0  0  0  0999 V2000
   -5.2940  -23.4870   29.3260 O   0  0  0  0  0
   -6.8670  -21.9580   28.7200 N   0  0  0  0  0
   -7.7100  -20.9320   28.9720 C   0  0  0  0  0
   -8.4900  -20.3990   27.9500 C   0  0  0  0  0
   -9.3660  -19.3280   28.2060 C   0  0  0  0  0
   -9.4950  -18.8220   29.5090 C   0  0  0  0  0
   -8.7250  -19.3730   30.5430 C   0  0  0  0  0
   -7.8190  -20.4190   30.2880 C   0  0  0  0  0
   -7.0170  -20.9890   31.3150 C   0  0  0  0  0
   -6.1650  -22.0720   31.0040 C   0  0  0  0  0
   -6.1180  -22.5180   29.6840 C   0  0  0  0  0
   -6.7975  -22.3182   27.7682 H   0  0  0  0  0
   -8.4218  -20.8140   26.9444 H   0  0  0  0  0
   -9.9447  -18.8911   27.3922 H   0  0  0  0  0
  -10.1886  -18.0069   29.7153 H   0  0  0  0  0
   -8.8295  -18.9864   31.5568 H   0  0  0  0  0
   -7.0593  -20.5947   32.3303 H   0  0  0  0  0
   -5.5598  -22.5468   31.7763 H   0  0  0  0  0
 11  1  2  0  0  0
  2  3  1  0  0  0
  2 11  1  0  0  0
  3  4  4  0  0  0
  3  8  4  0  0  0
  4  5  4  0  0  0
  5  6  4  0  0  0
  6  7  4  0  0  0
  7  8  4  0  0  0
  8  9  1  0  0  0
  9 10  2  0  0  0
 10 11  1  0  0  0
  2 12  1  0  0  0
  4 13  1  0  0  0
  5 14  1  0  0  0
  6 15  1  0  0  0
  7 16  1  0  0  0
  9 17  1  0  0  0
 10 18  1  0  0  0
M  END
$$$$
