4j0y_ligand
  -I-interpret- 

 42 44  0  0  0  0  0  0  0  0999 V2000
  -15.2930  -40.0100   -7.4680 C   0  0  0  0  0
  -20.7720  -38.6910   -8.9910 C   0  0  0  0  0
  -21.0750  -39.3030   -7.7390 C   0  0  0  0  0
  -20.0010  -39.7220   -6.9200 C   0  0  0  0  0
  -19.4230  -38.5140   -9.3960 C   0  0  0  0  0
  -18.3610  -38.9040   -8.5170 C   0  0  0  0  0
  -18.6790  -39.5470   -7.3340 C   0  0  0  0  0
  -16.5300  -40.0030   -9.9560 C   0  0  0  0  0
  -16.5670  -37.4530   -9.5570 C   0  0  0  0  0
  -16.8680  -38.8020   -8.9330 C   0  0  0  0  0
  -16.2460  -41.2860   -9.1860 C   0  0  0  0  0
  -19.1320  -37.9260  -10.6130 F   0  0  0  0  0
  -15.1530  -41.0350   -8.2950 O   0  0  0  0  0
  -16.0220  -38.9390   -7.7430 N   0  0  0  0  0
  -17.5780  -40.2420  -10.6760 F   0  0  0  0  0
  -14.6090  -40.0630   -6.2470 N   0  0  0  0  0
  -20.2000  -40.3750   -5.6920 N   0  0  0  0  0
  -21.3230  -40.9950   -5.2690 C   0  0  0  0  0
  -21.2450  -41.6750   -3.9850 C   0  0  0  0  0
  -22.3860  -40.9230   -5.8630 O   0  0  0  0  0
  -20.1920  -41.4170   -3.2070 N   0  0  0  0  0
  -19.9940  -42.0690   -2.0730 C   0  0  0  0  0
  -20.9190  -43.0230   -1.6350 C   0  0  0  0  0
  -22.0730  -43.3060   -2.4410 C   0  0  0  0  0
  -22.1950  -42.6260   -3.6430 C   0  0  0  0  0
  -20.7440  -43.6880   -0.3840 C   0  0  0  0  0
  -20.6040  -44.2200    0.5950 N   0  0  0  0  0
  -21.5810  -38.3572   -9.6408 H   0  0  0  0  0
  -22.1081  -39.4442   -7.4214 H   0  0  0  0  0
  -17.8735  -39.9284   -6.7064 H   0  0  0  0  0
  -15.6697  -39.7110  -10.5582 H   0  0  0  0  0
  -15.5099  -37.4026   -9.8180 H   0  0  0  0  0
  -17.1709  -37.3269  -10.4556 H   0  0  0  0  0
  -16.8046  -36.6633   -8.8443 H   0  0  0  0  0
  -15.9922  -42.0908   -9.8759 H   0  0  0  0  0
  -17.1284  -41.5904   -8.6231 H   0  0  0  0  0
  -15.9932  -38.1599   -7.0853 H   0  0  0  0  0
  -14.0289  -40.8713   -6.0221 H   0  0  0  0  0
  -19.4086  -40.3816   -5.0485 H   0  0  0  0  0
  -19.1054  -41.8618   -1.4767 H   0  0  0  0  0
  -22.8242  -44.0277   -2.1202 H   0  0  0  0  0
  -23.0290  -42.8366   -4.3125 H   0  0  0  0  0
  1 13  1  0  0  0
 14  1  1  0  0  0
  1 16  2  0  0  0
  2  3  4  0  0  0
  5  2  4  0  0  0
  4  3  4  0  0  0
  7  4  4  0  0  0
  4 17  1  0  0  0
  6  5  4  0  0  0
  5 12  1  0  0  0
  6  7  4  0  0  0
 10  6  1  0  0  0
 10  8  1  0  0  0
  8 11  1  0  0  0
  8 15  1  0  0  0
 10  9  1  0  0  0
 10 14  1  0  0  0
 11 13  1  0  0  0
 17 18  1  0  0  0
 18 19  1  0  0  0
 18 20  2  0  0  0
 19 21  4  0  0  0
 19 25  4  0  0  0
 21 22  4  0  0  0
 22 23  4  0  0  0
 23 24  4  0  0  0
 23 26  1  0  0  0
 24 25  4  0  0  0
 26 27  3  0  0  0
  2 28  1  0  0  0
  3 29  1  0  0  0
  7 30  1  0  0  0
  8 31  1  0  0  0
  9 32  1  0  0  0
  9 33  1  0  0  0
  9 34  1  0  0  0
 11 35  1  0  0  0
 11 36  1  0  0  0
 14 37  1  0  0  0
 16 38  1  0  0  0
 17 39  1  0  0  0
 22 40  1  0  0  0
 24 41  1  0  0  0
 25 42  1  0  0  0
M  END
$$$$
