6nvj_ligand
  -I-interpret- 

 54 56  0  0  0  0  0  0  0  0999 V2000
   20.9380   -2.8000   -8.6210 C   0  0  0  0  0
   19.7440   -3.4920   -8.6090 C   0  0  0  0  0
   19.5420   -4.5930   -7.7740 C   0  0  0  0  0
   20.5850   -5.0040   -6.9630 C   0  0  0  0  0
   21.7960   -4.3150   -6.9810 C   0  0  0  0  0
   21.9740   -3.2250   -7.8120 C   0  0  0  0  0
   20.9780   -1.7440   -9.4780 O   0  0  0  0  0
   22.8150   -4.7060   -6.1800 O   0  0  0  0  0
   22.0020   -0.7670   -9.3490 C   0  0  0  0  0
   24.0820   -4.8550   -6.7950 C   0  0  0  0  0
   18.4810   -2.9280   -9.6560 Cl  0  0  0  0  0
   20.3590   -6.3720   -5.9100 Cl  0  0  0  0  0
   18.2460   -5.3470   -7.7840 C   0  0  0  0  0
   18.4520   -6.5350   -8.5630 O   0  0  0  0  0
   17.6280   -7.6100   -8.3540 C   0  0  0  0  0
   16.3330   -7.5050   -7.8680 C   0  0  0  0  0
   15.5630   -8.5810   -7.7300 N   0  0  0  0  0
   16.1030   -9.7640   -8.0790 C   0  0  0  0  0
   17.3440   -9.9480   -8.5560 N   0  0  0  0  0
   18.1050   -8.8560   -8.6870 C   0  0  0  0  0
   15.3450  -10.8760   -7.9260 N   0  0  0  0  0
   14.0350  -10.9600   -7.4280 C   0  0  0  0  0
   13.0380  -11.4910   -8.2480 C   0  0  0  0  0
   11.7200  -11.5790   -7.7170 C   0  0  0  0  0
   11.4430  -11.0980   -6.4470 C   0  0  0  0  0
   12.4380  -10.5640   -5.6570 C   0  0  0  0  0
   13.7160  -10.5010   -6.1590 C   0  0  0  0  0
   13.4390  -12.0310   -9.4930 N   0  0  0  0  0
   12.7690  -12.0370  -10.6550 C   0  0  0  0  0
   13.4940  -12.7450  -11.7800 C   0  0  0  0  0
   14.8020  -12.0990  -12.1700 C   0  0  0  0  0
   11.6920  -11.5060  -10.7970 O   0  0  0  0  0
   14.6970   -9.9670   -5.3990 F   0  0  0  0  0
   22.9300   -2.7017   -7.8290 H   0  0  0  0  0
   21.9411   -0.3068   -8.3628 H   0  0  0  0  0
   22.9747   -1.2439   -9.4694 H   0  0  0  0  0
   21.8728   -0.0036  -10.1162 H   0  0  0  0  0
   24.0163   -5.6062   -7.5820 H   0  0  0  0  0
   24.3899   -3.9021   -7.2253 H   0  0  0  0  0
   24.8115   -5.1710   -6.0493 H   0  0  0  0  0
   17.4512   -4.7383   -8.2151 H   0  0  0  0  0
   17.9423   -5.6017   -6.7686 H   0  0  0  0  0
   15.9402   -6.5256   -7.5949 H   0  0  0  0  0
   19.1225   -8.9556   -9.0649 H   0  0  0  0  0
   15.7770  -11.7566   -8.2057 H   0  0  0  0  0
   10.9245  -12.0270   -8.3124 H   0  0  0  0  0
   10.4223  -11.1428   -6.0671 H   0  0  0  0  0
   12.2160  -10.1989   -4.6542 H   0  0  0  0  0
   14.3578  -12.4736   -9.5089 H   0  0  0  0  0
   12.8440  -12.7128  -12.6544 H   0  0  0  0  0
   13.7218  -13.7532  -11.4340 H   0  0  0  0  0
   14.6169  -11.0764  -12.4989 H   0  0  0  0  0
   15.4718  -12.0898  -11.3102 H   0  0  0  0  0
   15.2581  -12.6661  -12.9815 H   0  0  0  0  0
  1  2  4  0  0  0
  1  6  4  0  0  0
  1  7  1  0  0  0
  2  3  4  0  0  0
  2 11  1  0  0  0
  3  4  4  0  0  0
  3 13  1  0  0  0
  4  5  4  0  0  0
  4 12  1  0  0  0
  5  6  4  0  0  0
  5  8  1  0  0  0
  7  9  1  0  0  0
  8 10  1  0  0  0
 13 14  1  0  0  0
 14 15  1  0  0  0
 15 16  4  0  0  0
 15 20  4  0  0  0
 16 17  4  0  0  0
 17 18  4  0  0  0
 18 19  4  0  0  0
 18 21  1  0  0  0
 19 20  4  0  0  0
 21 22  1  0  0  0
 22 23  4  0  0  0
 22 27  4  0  0  0
 23 24  4  0  0  0
 23 28  1  0  0  0
 24 25  4  0  0  0
 25 26  4  0  0  0
 26 27  4  0  0  0
 27 33  1  0  0  0
 28 29  1  0  0  0
 29 30  1  0  0  0
 29 32  2  0  0  0
 30 31  1  0  0  0
  6 34  1  0  0  0
  9 35  1  0  0  0
  9 36  1  0  0  0
  9 37  1  0  0  0
 10 38  1  0  0  0
 10 39  1  0  0  0
 10 40  1  0  0  0
 13 41  1  0  0  0
 13 42  1  0  0  0
 16 43  1  0  0  0
 20 44  1  0  0  0
 21 45  1  0  0  0
 24 46  1  0  0  0
 25 47  1  0  0  0
 26 48  1  0  0  0
 28 49  1  0  0  0
 30 50  1  0  0  0
 30 51  1  0  0  0
 31 52  1  0  0  0
 31 53  1  0  0  0
 31 54  1  0  0  0
M  END
$$$$
