2q64_ligand
  -I-interpret- 

 86 89  0  0  0  0  0  0  0  0999 V2000
  -12.7120   13.4140   27.5270 C   0  0  0  0  0
  -12.7400   12.8180   28.9430 C   0  0  0  0  0
  -13.0090   11.3070   28.9180 C   0  0  0  0  0
  -12.0400   10.5670   27.9870 C   0  0  0  0  0
  -12.0550   11.1500   26.5740 C   0  0  0  0  0
  -11.7760   12.6500   26.5790 C   0  0  0  0  0
  -11.0040   15.0710   28.2510 N   0  3  0  0  0
  -10.9760   14.5520   29.6470 C   0  0  0  0  0
  -11.4550   13.0990   29.7340 C   0  0  0  0  0
  -12.3170   14.8880   27.5840 C   0  0  0  0  0
   -9.5900   14.6000   30.2480 C   0  0  0  0  0
   -9.5670   14.8170   31.5700 N   0  0  0  0  0
   -8.3910   15.0440   32.3940 C   0  0  0  0  0
   -7.5570   16.2100   31.8690 C   0  0  0  0  0
   -7.5780   13.7570   32.4420 C   0  0  0  0  0
   -8.8650   15.3860   33.8010 C   0  0  0  0  0
   -8.5910   14.4380   29.5530 O   0  0  0  0  0
  -10.6600   16.4990   28.2410 C   0  0  0  0  0
  -10.0340   16.8720   26.9020 C   0  0  0  0  0
   -8.5710   16.4600   26.7810 C   0  0  0  0  0
  -10.1750   18.2810   26.6860 O   0  0  0  0  0
   -8.1670   16.6610   25.4000 N   0  0  0  0  0
   -7.6560   17.2320   27.7320 C   0  0  0  0  0
   -7.7750   15.6870   24.5700 C   0  0  0  0  0
   -7.6990   14.5080   24.8930 O   0  0  0  0  0
   -7.4340   16.0920   23.1610 C   0  0  0  0  0
   -6.3780   16.9780   22.9050 C   0  0  0  0  0
   -6.0570   17.3780   21.6070 C   0  0  0  0  0
   -6.7770   16.9130   20.5050 C   0  0  0  0  0
   -7.8510   16.0310   20.6580 C   0  0  0  0  0
   -8.2340   15.5740   22.0150 C   0  0  0  0  0
   -8.5520   15.5740   19.5860 O   0  0  0  0  0
   -9.3970   14.6230   22.2020 C   0  0  0  0  0
   -6.0890   16.4370   27.8790 S   0  0  0  0  0
   -5.0620   17.1580   26.7250 C   0  0  0  0  0
   -3.8850   16.5060   26.3400 C   0  0  0  0  0
   -3.0400   17.0920   25.3930 C   0  0  0  0  0
   -3.3630   18.3260   24.8290 C   0  0  0  0  0
   -4.5340   18.9830   25.2090 C   0  0  0  0  0
   -5.3800   18.4000   26.1540 C   0  0  0  0  0
  -13.7196   13.3193   27.1221 H   0  0  0  0  0
  -13.5627   13.3181   29.4540 H   0  0  0  0  0
  -14.0231   11.1470   28.5518 H   0  0  0  0  0
  -12.8744   10.9198   29.9280 H   0  0  0  0  0
  -12.3486    9.5231   27.9305 H   0  0  0  0  0
  -11.0322   10.6694   28.3895 H   0  0  0  0  0
  -13.0438   10.9862   26.1455 H   0  0  0  0  0
  -11.2762   10.6579   25.9913 H   0  0  0  0  0
  -10.7519   12.8023   26.9197 H   0  0  0  0  0
  -11.9365   13.0271   25.5690 H   0  0  0  0  0
  -10.3174   14.5271   27.7284 H   0  0  0  0  0
  -11.6494   15.2051   30.2021 H   0  0  0  0  0
  -10.6700   12.4734   29.3092 H   0  0  0  0  0
  -11.6682   12.8906   30.7825 H   0  0  0  0  0
  -13.0733   15.4273   28.1543 H   0  0  0  0  0
  -12.2432   15.2664   26.5644 H   0  0  0  0  0
  -10.4681   14.8236   32.0478 H   0  0  0  0  0
   -7.2300   15.9923   30.8523 H   0  0  0  0  0
   -8.1612   17.1172   31.8713 H   0  0  0  0  0
   -6.6865   16.3500   32.5099 H   0  0  0  0  0
   -8.1857   12.9607   32.8717 H   0  0  0  0  0
   -7.2770   13.4810   31.4314 H   0  0  0  0  0
   -6.6915   13.9115   33.0571 H   0  0  0  0  0
   -9.4820   16.2839   33.7669 H   0  0  0  0  0
   -9.4502   14.5563   34.1976 H   0  0  0  0  0
   -8.0007   15.5615   34.4415 H   0  0  0  0  0
   -9.9476   16.7030   29.0404 H   0  0  0  0  0
  -11.5647   17.0880   28.3916 H   0  0  0  0  0
  -10.5688   16.3154   26.1324 H   0  0  0  0  0
   -8.4758   15.4124   27.0668 H   0  0  0  0  0
   -9.7806   18.5154   25.8427 H   0  0  0  0  0
   -8.1833   17.6139   25.0365 H   0  0  0  0  0
   -8.1240   17.2699   28.7157 H   0  0  0  0  0
   -7.5044   18.2359   27.3354 H   0  0  0  0  0
   -5.7934   17.3639   23.7401 H   0  0  0  0  0
   -5.2274   18.0674   21.4505 H   0  0  0  0  0
   -6.4962   17.2442   19.5052 H   0  0  0  0  0
   -9.2463   14.9834   19.8873 H   0  0  0  0  0
   -9.0444   13.7096   22.6810 H   0  0  0  0  0
  -10.1534   15.0950   22.8290 H   0  0  0  0  0
   -9.8276   14.3821   21.2301 H   0  0  0  0  0
   -3.6273   15.5418   26.7783 H   0  0  0  0  0
   -2.1243   16.5820   25.0939 H   0  0  0  0  0
   -2.7002   18.7776   24.0908 H   0  0  0  0  0
   -4.7871   19.9478   24.7696 H   0  0  0  0  0
   -6.2946   18.9133   26.4507 H   0  0  0  0  0
  1  2  1  0  0  0
  1  6  1  0  0  0
 10  1  1  0  0  0
  2  3  1  0  0  0
  2  9  1  0  0  0
  3  4  1  0  0  0
  5  4  1  0  0  0
  6  5  1  0  0  0
  7  8  1  0  0  0
  7 10  1  0  0  0
  7 18  1  0  0  0
  8  9  1  0  0  0
  8 11  1  0  0  0
 11 12  1  0  0  0
 11 17  2  0  0  0
 12 13  1  0  0  0
 13 14  1  0  0  0
 13 15  1  0  0  0
 13 16  1  0  0  0
 18 19  1  0  0  0
 19 20  1  0  0  0
 19 21  1  0  0  0
 20 22  1  0  0  0
 20 23  1  0  0  0
 22 24  1  0  0  0
 23 34  1  0  0  0
 24 25  2  0  0  0
 24 26  1  0  0  0
 26 27  4  0  0  0
 26 31  4  0  0  0
 27 28  4  0  0  0
 28 29  4  0  0  0
 29 30  4  0  0  0
 30 31  4  0  0  0
 30 32  1  0  0  0
 31 33  1  0  0  0
 34 35  1  0  0  0
 35 36  4  0  0  0
 35 40  4  0  0  0
 36 37  4  0  0  0
 37 38  4  0  0  0
 38 39  4  0  0  0
 39 40  4  0  0  0
  1 41  1  0  0  0
  2 42  1  0  0  0
  3 43  1  0  0  0
  3 44  1  0  0  0
  4 45  1  0  0  0
  4 46  1  0  0  0
  5 47  1  0  0  0
  5 48  1  0  0  0
  6 49  1  0  0  0
  6 50  1  0  0  0
  7 51  1  0  0  0
  8 52  1  0  0  0
  9 53  1  0  0  0
  9 54  1  0  0  0
 10 55  1  0  0  0
 10 56  1  0  0  0
 12 57  1  0  0  0
 14 58  1  0  0  0
 14 59  1  0  0  0
 14 60  1  0  0  0
 15 61  1  0  0  0
 15 62  1  0  0  0
 15 63  1  0  0  0
 16 64  1  0  0  0
 16 65  1  0  0  0
 16 66  1  0  0  0
 18 67  1  0  0  0
 18 68  1  0  0  0
 19 69  1  0  0  0
 20 70  1  0  0  0
 21 71  1  0  0  0
 22 72  1  0  0  0
 23 73  1  0  0  0
 23 74  1  0  0  0
 27 75  1  0  0  0
 28 76  1  0  0  0
 29 77  1  0  0  0
 32 78  1  0  0  0
 33 79  1  0  0  0
 33 80  1  0  0  0
 33 81  1  0  0  0
 36 82  1  0  0  0
 37 83  1  0  0  0
 38 84  1  0  0  0
 39 85  1  0  0  0
 40 86  1  0  0  0
M  END
$$$$
