5nx9_ligand
  -I-interpret- 

 37 39  0  0  0  0  0  0  0  0999 V2000
  -13.0130   -7.0150   39.7420 P   0  0  0  0  0
  -13.7820   -6.8600   38.4710 O   0  0  0  0  0
  -12.7600   -5.7090   40.4440 O   0  0  0  0  0
  -11.8930   -8.0300   39.6940 O   0  0  0  0  0
  -14.0600   -7.7030   40.7360 O   0  0  0  0  0
  -14.5740   -9.0020   40.4720 C   0  0  0  0  0
  -15.7290   -9.2740   41.4080 C   0  0  0  0  0
  -16.3540  -10.4950   41.0310 O   0  0  0  0  0
  -15.2710   -9.4620   42.8490 C   0  0  0  0  0
  -16.2330   -8.9030   43.7490 O   0  0  0  0  0
  -15.1990  -10.9600   42.9470 C   0  0  0  0  0
  -15.2460  -11.4780   44.2520 O   0  0  0  0  0
  -16.4140  -11.3670   42.1730 C   0  0  0  0  0
  -16.3440  -12.7640   41.7110 N   0  0  0  0  0
  -15.5690  -13.7520   42.1760 C   0  0  0  0  0
  -15.7680  -14.8640   41.4560 N   0  0  0  0  0
  -16.6820  -14.5820   40.5180 C   0  0  0  0  0
  -17.3330  -15.3070   39.4190 C   0  0  0  0  0
  -17.0090  -16.5840   39.1970 N   0  0  0  0  0
  -18.2390  -14.6600   38.6510 N   0  0  0  0  0
  -18.5340  -13.3570   38.8640 C   0  0  0  0  0
  -17.9690  -12.6360   39.8540 N   0  0  0  0  0
  -17.0580  -13.1980   40.6900 C   0  0  0  0  0
  -12.2644   -5.8710   41.2501 H   0  0  0  0  0
  -11.4560   -8.0633   40.5481 H   0  0  0  0  0
  -13.7920   -9.7452   40.6276 H   0  0  0  0  0
  -14.9170   -9.0585   39.4389 H   0  0  0  0  0
  -16.3982   -8.4161   41.3423 H   0  0  0  0  0
  -14.3316   -8.9717   43.1046 H   0  0  0  0  0
  -15.9340   -9.0273   44.6528 H   0  0  0  0  0
  -14.2466  -11.3398   42.5772 H   0  0  0  0  0
  -15.1944  -12.4360   44.2169 H   0  0  0  0  0
  -17.3236  -11.2962   42.7694 H   0  0  0  0  0
  -14.8790  -13.6645   43.0153 H   0  0  0  0  0
  -16.3166  -17.0446   39.7876 H   0  0  0  0  0
  -17.4541  -17.0984   38.4369 H   0  0  0  0  0
  -19.2571  -12.8704   38.2094 H   0  0  0  0  0
  1  2  2  0  0  0
  1  3  1  0  0  0
  1  4  1  0  0  0
  1  5  1  0  0  0
  5  6  1  0  0  0
  6  7  1  0  0  0
  7  8  1  0  0  0
  7  9  1  0  0  0
  8 13  1  0  0  0
  9 10  1  0  0  0
  9 11  1  0  0  0
 11 12  1  0  0  0
 11 13  1  0  0  0
 13 14  1  0  0  0
 14 15  4  0  0  0
 14 23  4  0  0  0
 15 16  4  0  0  0
 16 17  4  0  0  0
 17 18  4  0  0  0
 17 23  4  0  0  0
 18 19  1  0  0  0
 18 20  4  0  0  0
 20 21  4  0  0  0
 21 22  4  0  0  0
 22 23  4  0  0  0
  3 24  1  0  0  0
  4 25  1  0  0  0
  6 26  1  0  0  0
  6 27  1  0  0  0
  7 28  1  0  0  0
  9 29  1  0  0  0
 10 30  1  0  0  0
 11 31  1  0  0  0
 12 32  1  0  0  0
 13 33  1  0  0  0
 15 34  1  0  0  0
 19 35  1  0  0  0
 19 36  1  0  0  0
 21 37  1  0  0  0
M  END
$$$$
