### 
### Created by X-TOOL on Mon Aug  2 16:10:28 2021
### 

@<TRIPOS>MOLECULE
5nx9_ligand
   35    37     1     0     0
SMALL
GAST_HUCK


@<TRIPOS>ATOM
      1 P         -13.0130   -7.0150   39.7420 P.3       1 AMP         0.2008
      2 O1P       -13.7820   -6.8600   38.4710 O.co2     1 AMP        -0.5537
      3 O2P       -12.7600   -5.7090   40.4440 O.co2     1 AMP        -0.5537
      4 O3P       -11.8930   -8.0300   39.6940 O.co2     1 AMP        -0.5537
      5 O5'       -14.0600   -7.7030   40.7360 O.3       1 AMP        -0.2734
      6 C5'       -14.5740   -9.0020   40.4720 C.3       1 AMP         0.1072
      7 C4'       -15.7290   -9.2740   41.4080 C.3       1 AMP         0.1182
      8 O4'       -16.3540  -10.4950   41.0310 O.3       1 AMP        -0.3365
      9 C3'       -15.2710   -9.4620   42.8490 C.3       1 AMP         0.1149
     10 O3'       -16.2330   -8.9030   43.7490 O.3       1 AMP        -0.3864
     11 C2'       -15.1990  -10.9600   42.9470 C.3       1 AMP         0.1385
     12 O2'       -15.2460  -11.4780   44.2520 O.3       1 AMP        -0.3836
     13 C1'       -16.4140  -11.3670   42.1730 C.3       1 AMP         0.2010
     14 N9        -16.3440  -12.7640   41.7110 N.pl3     1 AMP        -0.1919
     15 C8        -15.5690  -13.7520   42.1760 C.2       1 AMP         0.1123
     16 N7        -15.7680  -14.8640   41.4560 N.2       1 AMP        -0.2958
     17 C5        -16.6820  -14.5820   40.5180 C.ar      1 AMP         0.1045
     18 C6        -17.3330  -15.3070   39.4190 C.ar      1 AMP         0.1298
     19 N6        -17.0090  -16.5840   39.1970 N.pl3     1 AMP        -0.3152
     20 N1        -18.2390  -14.6600   38.6510 N.ar      1 AMP        -0.2698
     21 C2        -18.5340  -13.3570   38.8640 C.ar      1 AMP         0.0533
     22 N3        -17.9690  -12.6360   39.8540 N.ar      1 AMP        -0.2714
     23 C4        -17.0580  -13.1980   40.6900 C.ar      1 AMP         0.1613
     24 H1        -13.7845   -9.7508   40.6333 H         1 AMP         0.0639
     25 H2        -14.9231   -9.0558   39.4303 H         1 AMP         0.0639
     26 H3        -16.4456   -8.4415   41.3504 H         1 AMP         0.0650
     27 H4        -14.2878   -9.0023   43.0278 H         1 AMP         0.0648
     28 H5        -15.9372   -9.0260   44.6433 H         1 AMP         0.2100
     29 H6        -14.2816  -11.3262   42.4629 H         1 AMP         0.0676
     30 H7        -14.5136  -11.1385   44.7528 H         1 AMP         0.2101
     31 H8        -17.3308  -11.2124   42.7609 H         1 AMP         0.0996
     32 H9        -14.8797  -13.6646   43.0145 H         1 AMP         0.1349
     33 H10       -17.4584  -17.1034   38.4294 H         1 AMP         0.1820
     34 H11       -16.3098  -17.0491   39.7934 H         1 AMP         0.1820
     35 H12       -19.2531  -12.8731   38.2130 H         1 AMP         0.0996
@<TRIPOS>BOND
     1    1    2 ar 
     2    1    3 ar 
     3    1    4 ar 
     4    1    5 1  
     5    5    6 1  
     6    6    7 1  
     7    7    8 1  
     8    7    9 1  
     9    8   13 1  
    10    9   10 1  
    11    9   11 1  
    12   11   12 1  
    13   11   13 1  
    14   13   14 1  
    15   14   15 1  
    16   14   23 1  
    17   15   16 2  
    18   16   17 1  
    19   17   18 ar 
    20   17   23 ar 
    21   18   19 1  
    22   18   20 ar 
    23   20   21 ar 
    24   21   22 ar 
    25   22   23 ar 
    26    6   24 1  
    27    6   25 1  
    28    7   26 1  
    29    9   27 1  
    30   10   28 1  
    31   11   29 1  
    32   12   30 1  
    33   13   31 1  
    34   15   32 1  
    35   19   33 1  
    36   19   34 1  
    37   21   35 1  
@<TRIPOS>SUBSTRUCTURE
     1 AMP         1

