5oqw_ligand
  -I-interpret- 

 84 88  0  0  0  0  0  0  0  0999 V2000
   25.6450   -3.2750  -26.3450 C   0  0  0  0  0
   24.9790   -1.9700  -25.9320 C   0  0  0  0  0
   24.9370   -1.7980  -24.4160 C   0  0  0  0  0
   24.1090   -0.6610  -23.9910 N   0  3  0  0  0
   24.2320   -0.4320  -22.5440 C   0  0  0  0  0
   23.5120   -1.4380  -21.6600 C   0  0  0  0  0
   24.1870   -0.2820  -18.2110 C   0  0  0  0  0
   25.6090   -0.7290  -17.8700 C   0  0  0  0  0
   23.8000    0.9180  -17.3300 C   0  0  0  0  0
   23.1680   -1.3930  -18.0490 C   0  0  0  0  0
   21.8100   -2.8480  -16.9430 C   0  0  0  0  0
   21.3540   -3.3080  -15.5830 C   0  0  0  0  0
   22.1450   -4.3900  -15.1080 O   0  0  0  0  0
   20.3060   -4.5280  -18.2470 C   0  0  0  0  0
   20.3720   -6.8120  -17.1960 C   0  0  0  0  0
   20.8530   -8.1040  -17.1310 C   0  0  0  0  0
   21.7820   -8.5050  -18.0410 C   0  0  0  0  0
   22.2570   -7.6830  -19.0130 C   0  0  0  0  0
   21.7820   -6.3880  -19.0870 C   0  0  0  0  0
   21.8380   -2.8860  -19.3790 C   0  0  0  0  0
   22.7660   -1.8680  -19.2900 C   0  0  0  0  0
   20.0840    1.6110  -20.9280 C   0  0  0  0  0
   20.7890    1.8080  -22.2720 C   0  0  0  0  0
   21.8600    2.8890  -22.1410 C   0  0  0  0  0
   22.8370   -0.7080  -26.0740 C   0  0  0  0  0
   23.0160   -2.4540  -22.1340 O   0  0  0  0  0
   23.4460   -1.1530  -20.3060 N   0  0  0  0  0
   24.0450    0.0660  -19.7090 C   0  0  0  0  0
   22.7140   -1.8580  -16.9220 N   0  0  0  0  0
   21.3280   -3.4120  -18.1890 C   0  0  0  0  0
   20.8330   -5.9380  -18.1770 C   0  0  0  0  0
   22.2540   -9.7790  -17.9740 F   0  0  0  0  0
   22.7370   -0.6050  -24.5550 C   0  0  0  0  0
   21.8920    0.6140  -24.1480 C   0  0  0  0  0
   21.2720    0.5100  -22.8140 N   0  3  0  0  0
   20.2360   -0.5320  -22.7900 C   0  0  0  0  0
   19.5920   -0.6250  -21.4200 C   0  0  0  0  0
   19.0440    0.6350  -21.0240 O   0  0  0  0  0
   23.5750   -1.9370  -26.4650 N   0  3  0  0  0
   25.0805   -4.1141  -25.9384 H   0  0  0  0  0
   25.6659   -3.3424  -27.4327 H   0  0  0  0  0
   26.6639   -3.2996  -25.9586 H   0  0  0  0  0
   25.5713   -1.1542  -26.3464 H   0  0  0  0  0
   25.9554   -1.6138  -24.0740 H   0  0  0  0  0
   24.5028   -2.7028  -23.9907 H   0  0  0  0  0
   24.5036    0.1656  -24.4398 H   0  0  0  0  0
   23.7787    0.5387  -22.3432 H   0  0  0  0  0
   25.2926   -0.5118  -22.3057 H   0  0  0  0  0
   26.3006    0.0936  -18.0521 H   0  0  0  0  0
   25.6555   -1.0188  -16.8203 H   0  0  0  0  0
   25.8810   -1.5793  -18.4954 H   0  0  0  0  0
   23.8477    0.6271  -16.2806 H   0  0  0  0  0
   24.4928    1.7395  -17.5125 H   0  0  0  0  0
   22.7862    1.2348  -17.5748 H   0  0  0  0  0
   20.3198   -3.6435  -15.6603 H   0  0  0  0  0
   21.4519   -2.4759  -14.8858 H   0  0  0  0  0
   21.8301   -4.6591  -14.2420 H   0  0  0  0  0
   19.8205   -4.4384  -19.2188 H   0  0  0  0  0
   19.6747   -4.4010  -17.3676 H   0  0  0  0  0
   19.6272   -6.4740  -16.4755 H   0  0  0  0  0
   20.4951   -8.7911  -16.3643 H   0  0  0  0  0
   23.0020   -8.0402  -19.7240 H   0  0  0  0  0
   22.1528   -5.7169  -19.8617 H   0  0  0  0  0
   21.5132   -3.2676  -20.3470 H   0  0  0  0  0
   19.6416    2.5604  -20.6263 H   0  0  0  0  0
   20.8173    1.2655  -20.1993 H   0  0  0  0  0
   20.0846    2.1740  -23.0190 H   0  0  0  0  0
   21.3933    3.8261  -21.8374 H   0  0  0  0  0
   22.5906    2.5858  -21.3911 H   0  0  0  0  0
   22.3577    3.0239  -23.1013 H   0  0  0  0  0
   23.3725    0.1623  -26.4534 H   0  0  0  0  0
   21.8316   -0.7504  -26.4929 H   0  0  0  0  0
   25.0008    0.3226  -20.1658 H   0  0  0  0  0
   23.4290    0.9506  -19.8709 H   0  0  0  0  0
   22.1968   -1.4481  -24.1244 H   0  0  0  0  0
   21.0808    0.6959  -24.8714 H   0  0  0  0  0
   22.5626    1.4729  -24.1221 H   0  0  0  0  0
   22.0146    0.2245  -22.1756 H   0  0  0  0  0
   20.6981   -1.4907  -23.0254 H   0  0  0  0  0
   19.4683   -0.2793  -23.5213 H   0  0  0  0  0
   20.3519   -0.9186  -20.6959 H   0  0  0  0  0
   18.7869   -1.3587  -21.4614 H   0  0  0  0  0
   23.0755   -2.7372  -26.0769 H   0  0  0  0  0
   23.6277   -1.9581  -27.4834 H   0  0  0  0  0
  2  1  1  0  0  0
  3  2  1  0  0  0
 39  2  1  0  0  0
  4  3  1  0  0  0
  4  5  1  0  0  0
 33  4  1  0  0  0
  5  6  1  0  0  0
  6 26  2  0  0  0
  6 27  1  0  0  0
  7  8  1  0  0  0
  7  9  1  0  0  0
  7 10  1  0  0  0
 28  7  1  0  0  0
 21 10  4  0  0  0
 10 29  4  0  0  0
 11 12  1  0  0  0
 29 11  4  0  0  0
 30 11  4  0  0  0
 12 13  1  0  0  0
 30 14  1  0  0  0
 14 31  1  0  0  0
 15 16  4  0  0  0
 31 15  4  0  0  0
 16 17  4  0  0  0
 18 17  4  0  0  0
 17 32  1  0  0  0
 19 18  4  0  0  0
 31 19  4  0  0  0
 21 20  4  0  0  0
 20 30  4  0  0  0
 27 21  1  0  0  0
 23 22  1  0  0  0
 22 38  1  0  0  0
 23 24  1  0  0  0
 35 23  1  0  0  0
 33 25  1  0  0  0
 25 39  1  0  0  0
 27 28  1  0  0  0
 34 33  1  0  0  0
 34 35  1  0  0  0
 35 36  1  0  0  0
 36 37  1  0  0  0
 37 38  1  0  0  0
  1 40  1  0  0  0
  1 41  1  0  0  0
  1 42  1  0  0  0
  2 43  1  0  0  0
  3 44  1  0  0  0
  3 45  1  0  0  0
  4 46  1  0  0  0
  5 47  1  0  0  0
  5 48  1  0  0  0
  8 49  1  0  0  0
  8 50  1  0  0  0
  8 51  1  0  0  0
  9 52  1  0  0  0
  9 53  1  0  0  0
  9 54  1  0  0  0
 12 55  1  0  0  0
 12 56  1  0  0  0
 13 57  1  0  0  0
 14 58  1  0  0  0
 14 59  1  0  0  0
 15 60  1  0  0  0
 16 61  1  0  0  0
 18 62  1  0  0  0
 19 63  1  0  0  0
 20 64  1  0  0  0
 22 65  1  0  0  0
 22 66  1  0  0  0
 23 67  1  0  0  0
 24 68  1  0  0  0
 24 69  1  0  0  0
 24 70  1  0  0  0
 25 71  1  0  0  0
 25 72  1  0  0  0
 28 73  1  0  0  0
 28 74  1  0  0  0
 33 75  1  0  0  0
 34 76  1  0  0  0
 34 77  1  0  0  0
 35 78  1  0  0  0
 36 79  1  0  0  0
 36 80  1  0  0  0
 37 81  1  0  0  0
 37 82  1  0  0  0
 39 83  1  0  0  0
 39 84  1  0  0  0
M  END
$$$$
