3e81_ligand
  -I-interpret- 

 40 40  0  0  0  0  0  0  0  0999 V2000
  -28.5000   20.2250   -3.4890 C   0  0  0  0  0
  -29.2710   21.0650   -2.4920 C   0  0  0  0  0
  -28.9460   20.6030   -1.0640 C   0  0  0  0  0
  -29.9160   21.2590   -0.0580 C   0  0  0  0  0
  -31.3940   21.2690   -0.5250 C   0  0  0  0  0
  -31.4650   21.7450   -1.9850 C   0  0  0  0  0
  -32.8760   21.7710   -2.6160 C   0  0  0  0  0
  -32.7960   22.6730   -3.8930 C   0  0  0  0  0
  -33.9880   22.5670   -4.8770 C   0  0  0  0  0
  -33.2390   21.8870    1.0960 C   0  0  0  0  0
  -34.0140   22.9660    1.8630 C   0  0  0  0  0
  -32.1020   22.2720    0.2700 N   0  0  0  0  0
  -29.0760   19.0090   -3.8510 O   0  0  0  0  0
  -27.6320   20.7100   -4.1410 O   0  0  0  0  0
  -28.8850   22.4240   -2.6390 O   0  0  0  0  0
  -29.7670   20.6190    1.1900 O   0  0  0  0  0
  -30.6480   20.8910   -2.7920 O   0  0  0  0  0
  -33.2090   20.4270   -2.9010 O   0  0  0  0  0
  -32.6600   24.0130   -3.5060 O   0  0  0  0  0
  -34.0480   23.5830   -5.8810 O   0  0  0  0  0
  -33.4970   20.7360    1.2450 O   0  0  0  0  0
  -27.9252   20.8953   -0.8180 H   0  0  0  0  0
  -29.0513   19.5196   -1.0067 H   0  0  0  0  0
  -29.6507   22.3130    0.0243 H   0  0  0  0  0
  -31.8209   20.2717   -0.4192 H   0  0  0  0  0
  -31.1213   22.7791   -1.9590 H   0  0  0  0  0
  -33.6490   22.1864   -1.9695 H   0  0  0  0  0
  -31.9300   22.3000   -4.4398 H   0  0  0  0  0
  -34.8941   22.6666   -4.2794 H   0  0  0  0  0
  -33.8747   21.6182   -5.4014 H   0  0  0  0  0
  -35.0717   22.9030    1.6071 H   0  0  0  0  0
  -33.8882   22.8095    2.9343 H   0  0  0  0  0
  -33.6309   23.9495    1.5907 H   0  0  0  0  0
  -31.7984   23.2455    0.2461 H   0  0  0  0  0
  -29.7541   18.7749   -3.2130 H   0  0  0  0  0
  -27.9522   22.5148   -2.4310 H   0  0  0  0  0
  -28.8420   20.6318    1.4465 H   0  0  0  0  0
  -33.2427   19.9264   -2.0826 H   0  0  0  0  0
  -32.6108   24.5674   -4.2882 H   0  0  0  0  0
  -34.8148   23.4348   -6.4392 H   0  0  0  0  0
  2  1  1  0  0  0
  1 13  1  0  0  0
  1 14  2  0  0  0
  3  2  1  0  0  0
  2 15  1  0  0  0
 17  2  1  0  0  0
  4  3  1  0  0  0
  5  4  1  0  0  0
  4 16  1  0  0  0
  5  6  1  0  0  0
 12  5  1  0  0  0
  6  7  1  0  0  0
  6 17  1  0  0  0
  7  8  1  0  0  0
  7 18  1  0  0  0
  8  9  1  0  0  0
  8 19  1  0  0  0
  9 20  1  0  0  0
 10 11  1  0  0  0
 10 12  1  0  0  0
 10 21  2  0  0  0
  3 22  1  0  0  0
  3 23  1  0  0  0
  4 24  1  0  0  0
  5 25  1  0  0  0
  6 26  1  0  0  0
  7 27  1  0  0  0
  8 28  1  0  0  0
  9 29  1  0  0  0
  9 30  1  0  0  0
 11 31  1  0  0  0
 11 32  1  0  0  0
 11 33  1  0  0  0
 12 34  1  0  0  0
 13 35  1  0  0  0
 15 36  1  0  0  0
 16 37  1  0  0  0
 18 38  1  0  0  0
 19 39  1  0  0  0
 20 40  1  0  0  0
M  END
$$$$
