1aj6_ligand
  -I-interpret- 

 80 83  0  0  0  0  0  0  0  0999 V2000
   60.2080   -1.1770   37.8380 C   0  0  0  0  0
   60.3090   -2.4250   37.1380 O   0  0  0  0  0
   58.4870   -3.0220   41.3780 N   0  0  0  0  0
   58.5440   -3.8040   40.3320 C   0  0  0  0  0
   58.7060   -4.9860   40.4060 O   0  0  0  0  0
   58.4500   -3.1640   39.1960 O   0  0  0  0  0
   59.0250   -2.9850   36.8350 C   0  0  0  0  0
   58.5870   -3.9190   37.9570 C   0  0  0  0  0
   57.1810   -4.3810   37.6050 C   0  0  0  0  0
   56.2950   -3.2810   37.7570 O   0  0  0  0  0
   57.1980   -5.0740   36.2490 C   0  0  0  0  0
   57.7020   -4.2550   35.1850 O   0  0  0  0  0
   58.9310   -3.5770   35.4010 C   0  0  0  0  0
   60.1340   -4.5170   35.1500 C   0  0  0  0  0
   58.8800   -2.4100   34.3740 C   0  0  0  0  0
   58.1130   -6.1070   36.5160 O   0  0  0  0  0
   58.2370   -7.1590   35.6250 C   0  0  0  0  0
   59.0090   -8.1900   36.1540 C   0  0  0  0  0
   59.6180   -8.1800   37.4960 C   0  0  0  0  0
   59.1650   -9.3130   35.4250 C   0  0  0  0  0
   58.6370   -9.4340   34.1250 C   0  0  0  0  0
   57.7990   -8.4310   33.5990 C   0  0  0  0  0
   57.5800   -7.2840   34.3710 C   0  0  0  0  0
   59.9600  -10.2950   36.0390 O   0  0  0  0  0
   60.2710  -11.3850   35.3620 C   0  0  0  0  0
   61.0220  -12.2030   35.7970 O   0  0  0  0  0
   59.7300  -11.5880   33.9960 C   0  0  0  0  0
   58.9640  -10.6720   33.3960 C   0  0  0  0  0
   58.5030  -10.8790   32.1470 O   0  0  0  0  0
   59.9720  -12.8740   33.3740 N   0  0  0  0  0
   60.9640  -13.2710   32.5620 C   0  0  0  0  0
   60.9380  -14.4120   32.1770 O   0  0  0  0  0
   62.0440  -12.4090   32.0930 C   0  0  0  0  0
   61.7860  -11.1750   31.4630 C   0  0  0  0  0
   62.8800  -10.4360   30.9820 C   0  0  0  0  0
   64.1750  -10.9130   31.1700 C   0  0  0  0  0
   65.2390  -10.1760   30.7190 O   0  0  0  0  0
   64.4340  -12.1480   31.7980 C   0  0  0  0  0
   63.3420  -12.9030   32.2510 C   0  0  0  0  0
   62.6940   -9.0810   30.3490 C   0  0  0  0  0
   62.7960   -7.8970   31.2920 C   0  0  0  0  0
   61.8120   -7.0620   31.6820 C   0  0  0  0  0
   62.0520   -5.9260   32.6540 C   0  0  0  0  0
   60.3980   -7.1480   31.1990 C   0  0  0  0  0
   59.6633   -0.4603   37.2235 H   0  0  0  0  0
   59.6762   -1.3306   38.7770 H   0  0  0  0  0
   61.2080   -0.7952   38.0435 H   0  0  0  0  0
   58.5826   -3.4150   42.3144 H   0  0  0  0  0
   58.3469   -2.0188   41.2578 H   0  0  0  0  0
   58.2922   -2.1788   36.8017 H   0  0  0  0  0
   59.3047   -4.7312   38.0722 H   0  0  0  0  0
   56.7987   -5.1450   38.2820 H   0  0  0  0  0
   55.4023   -3.5579   37.5379 H   0  0  0  0  0
   56.2042   -5.3659   35.9096 H   0  0  0  0  0
   60.0781   -5.3663   35.8309 H   0  0  0  0  0
   60.1066   -4.8730   34.1201 H   0  0  0  0  0
   61.0618   -3.9716   35.3227 H   0  0  0  0  0
   58.7999   -2.8177   33.3663 H   0  0  0  0  0
   58.0143   -1.7814   34.5829 H   0  0  0  0  0
   59.7902   -1.8159   34.4556 H   0  0  0  0  0
   60.3016   -7.3349   37.5771 H   0  0  0  0  0
   58.8346   -8.0888   38.2484 H   0  0  0  0  0
   60.1666   -9.1089   37.6516 H   0  0  0  0  0
   57.3347   -8.5448   32.6194 H   0  0  0  0  0
   56.9146   -6.4974   34.0152 H   0  0  0  0  0
   57.9740  -10.1261   31.8735 H   0  0  0  0  0
   59.2786  -13.5911   33.5870 H   0  0  0  0  0
   60.7669  -10.8045   31.3521 H   0  0  0  0  0
   66.0558  -10.6371   30.9235 H   0  0  0  0  0
   65.4551  -12.5066   31.9281 H   0  0  0  0  0
   63.5050  -13.8712   32.7244 H   0  0  0  0  0
   61.6831   -9.0659   29.9417 H   0  0  0  0  0
   63.4971   -8.9668   29.6210 H   0  0  0  0  0
   63.7850   -7.6971   31.7043 H   0  0  0  0  0
   62.4147   -6.3291   33.5996 H   0  0  0  0  0
   62.7951   -5.2452   32.2389 H   0  0  0  0  0
   61.1183   -5.3889   32.8208 H   0  0  0  0  0
   60.3773   -7.0262   30.1160 H   0  0  0  0  0
   59.9832   -8.1204   31.4645 H   0  0  0  0  0
   59.8073   -6.3598   31.6659 H   0  0  0  0  0
  1  2  1  0  0  0
  2  7  1  0  0  0
  7 13  1  0  0  0
  7  8  1  0  0  0
  8  9  1  0  0  0
  8  6  1  0  0  0
  6  4  1  0  0  0
  4  5  2  0  0  0
  4  3  1  0  0  0
  9 11  1  0  0  0
  9 10  1  0  0  0
 11 16  1  0  0  0
 11 12  1  0  0  0
 12 13  1  0  0  0
 13 15  1  0  0  0
 13 14  1  0  0  0
 16 17  1  0  0  0
 17 23  4  0  0  0
 17 18  4  0  0  0
 18 20  4  0  0  0
 18 19  1  0  0  0
 20 24  1  0  0  0
 20 21  4  0  0  0
 21 28  1  0  0  0
 21 22  4  0  0  0
 22 23  4  0  0  0
 28 29  1  0  0  0
 28 27  2  0  0  0
 27 30  1  0  0  0
 27 25  1  0  0  0
 25 26  2  0  0  0
 25 24  1  0  0  0
 30 31  1  0  0  0
 31 33  1  0  0  0
 31 32  2  0  0  0
 33 39  4  0  0  0
 33 34  4  0  0  0
 34 35  4  0  0  0
 35 40  1  0  0  0
 35 36  4  0  0  0
 36 38  4  0  0  0
 36 37  1  0  0  0
 38 39  4  0  0  0
 40 41  1  0  0  0
 41 42  2  0  0  0
 42 44  1  0  0  0
 42 43  1  0  0  0
  1 45  1  0  0  0
  1 46  1  0  0  0
  1 47  1  0  0  0
  3 48  1  0  0  0
  3 49  1  0  0  0
  7 50  1  0  0  0
  8 51  1  0  0  0
  9 52  1  0  0  0
 10 53  1  0  0  0
 11 54  1  0  0  0
 14 55  1  0  0  0
 14 56  1  0  0  0
 14 57  1  0  0  0
 15 58  1  0  0  0
 15 59  1  0  0  0
 15 60  1  0  0  0
 19 61  1  0  0  0
 19 62  1  0  0  0
 19 63  1  0  0  0
 22 64  1  0  0  0
 23 65  1  0  0  0
 29 66  1  0  0  0
 30 67  1  0  0  0
 34 68  1  0  0  0
 37 69  1  0  0  0
 38 70  1  0  0  0
 39 71  1  0  0  0
 40 72  1  0  0  0
 40 73  1  0  0  0
 41 74  1  0  0  0
 43 75  1  0  0  0
 43 76  1  0  0  0
 43 77  1  0  0  0
 44 78  1  0  0  0
 44 79  1  0  0  0
 44 80  1  0  0  0
M  END
$$$$
