4e3g_ligand
  -I-interpret- 

 16 16  0  0  0  0  0  0  0  0999 V2000
   16.4400    2.1870   15.2350 C   0  0  0  0  0
   15.2530    1.8470   15.5410 O   0  0  0  0  0
   17.3410    1.4040   15.6300 O   0  0  0  0  0
   16.7060    3.4620   14.6760 C   0  0  0  0  0
   18.0480    3.9210   14.6600 C   0  0  0  0  0
   18.4420    5.2100   14.1920 C   0  0  0  0  0
   17.3440    5.9500   13.6530 C   0  0  0  0  0
   16.0150    5.4960   13.6580 C   0  0  0  0  0
   15.6810    4.2780   14.2290 C   0  0  0  0  0
   17.5460    7.2150   13.0840 O   0  0  0  0  0
   14.6366    2.4994   15.2004 H   0  0  0  0  0
   18.8241    3.2493   15.0269 H   0  0  0  0  0
   19.4635    5.5874   14.2400 H   0  0  0  0  0
   15.2355    6.1099   13.2067 H   0  0  0  0  0
   14.6394    3.9710   14.3235 H   0  0  0  0  0
   16.7064    7.5636   12.7754 H   0  0  0  0  0
  1  2  1  0  0  0
  1  3  2  0  0  0
  1  4  1  0  0  0
  4  5  4  0  0  0
  4  9  4  0  0  0
  5  6  4  0  0  0
  6  7  4  0  0  0
  7  8  4  0  0  0
  7 10  1  0  0  0
  8  9  4  0  0  0
  2 11  1  0  0  0
  5 12  1  0  0  0
  6 13  1  0  0  0
  8 14  1  0  0  0
  9 15  1  0  0  0
 10 16  1  0  0  0
M  END
$$$$
