1oe7_ligand
  -I-interpret- 

 38 37  0  0  0  0  0  0  0  0999 V2000
   14.8630   -4.0250   22.4510 N   0  3  0  0  0
   14.3820   -2.6530   22.7040 C   0  0  0  0  0
   14.5290   -1.8350   21.3620 C   0  0  0  0  0
   13.8360   -0.8410   21.2000 O   0  0  0  0  0
   15.4300   -2.2800   20.5380 O   0  0  0  0  0
   15.3560   -2.0310   23.7310 C   0  0  0  0  0
   14.9450   -0.6290   24.2850 C   0  0  0  0  0
   16.0630   -0.3190   25.3160 C   0  0  0  0  0
   16.7630   -1.2510   25.8620 O   0  0  0  0  0
   16.2560    0.9790   25.5300 N   0  0  0  0  0
   17.2210    1.4140   26.5010 C   0  0  0  0  0
   16.5470    2.4560   27.4640 C   0  0  0  0  0
   15.5230    3.0980   27.1510 O   0  0  0  0  0
   18.3580    2.1160   25.7350 C   0  0  0  0  0
   18.4730    1.9460   23.9020 S   0  0  0  0  0
   17.0560    2.6520   28.7280 N   0  0  0  0  0
   16.5370    3.6630   29.6770 C   0  0  0  0  0
   15.4590    3.3710   30.6740 C   0  0  0  0  0
   15.3110    3.9700   31.8100 O   0  0  0  0  0
   14.7130    2.4660   30.2070 O   0  0  0  0  0
   14.2492   -4.4800   21.7753 H   0  0  0  0  0
   15.8121   -3.9881   22.0791 H   0  0  0  0  0
   14.8590   -4.5519   23.3244 H   0  0  0  0  0
   13.3503   -2.6440   23.0554 H   0  0  0  0  0
   15.8297   -3.0739   20.9008 H   0  0  0  0  0
   16.3059   -1.8941   23.2142 H   0  0  0  0  0
   15.3795   -2.7074   24.5854 H   0  0  0  0  0
   13.9492   -0.6255   24.7282 H   0  0  0  0  0
   14.8690    0.1278   23.5042 H   0  0  0  0  0
   15.7178    1.6672   25.0036 H   0  0  0  0  0
   17.5959    0.5701   27.0802 H   0  0  0  0  0
   19.2691    1.6501   26.1105 H   0  0  0  0  0
   18.1836    3.1791   25.9006 H   0  0  0  0  0
   19.5237    2.6312   23.4598 H   0  0  0  0  0
   17.8357    2.0669   29.0281 H   0  0  0  0  0
   16.0752    4.4024   29.0227 H   0  0  0  0  0
   17.4016    3.8805   30.3041 H   0  0  0  0  0
   16.0127    4.6152   31.9241 H   0  0  0  0  0
  1  2  1  0  0  0
  2  3  1  0  0  0
  2  6  1  0  0  0
  3  4  2  0  0  0
  3  5  1  0  0  0
  6  7  1  0  0  0
  7  8  1  0  0  0
  8  9  2  0  0  0
  8 10  1  0  0  0
 10 11  1  0  0  0
 11 12  1  0  0  0
 11 14  1  0  0  0
 12 13  2  0  0  0
 12 16  1  0  0  0
 14 15  1  0  0  0
 16 17  1  0  0  0
 17 18  1  0  0  0
 18 19  1  0  0  0
 18 20  2  0  0  0
  1 21  1  0  0  0
  1 22  1  0  0  0
  1 23  1  0  0  0
  2 24  1  0  0  0
  5 25  1  0  0  0
  6 26  1  0  0  0
  6 27  1  0  0  0
  7 28  1  0  0  0
  7 29  1  0  0  0
 10 30  1  0  0  0
 11 31  1  0  0  0
 14 32  1  0  0  0
 14 33  1  0  0  0
 15 34  1  0  0  0
 16 35  1  0  0  0
 17 36  1  0  0  0
 17 37  1  0  0  0
 19 38  1  0  0  0
M  END
$$$$
