2vj7_ligand
  -I-interpret- 

 77 80  0  0  0  0  0  0  0  0999 V2000
   29.8760   -2.1360   35.5170 C   0  0  0  0  0
   29.8320   -0.9890   34.6750 C   0  0  0  0  0
   30.3820    0.2510   35.1050 C   0  0  0  0  0
   30.9830    0.3370   36.3820 C   0  0  0  0  0
   31.0370   -0.7980   37.2360 C   0  0  0  0  0
   30.4780   -2.0280   36.7810 C   0  0  0  0  0
   30.3540    1.4370   34.2410 C   0  0  0  0  0
   29.2570    1.5530   33.4700 N   0  0  0  0  0
   31.2730    2.2560   34.1810 O   0  0  0  0  0
   29.0870    2.6410   32.5160 C   0  0  0  0  0
   28.9080    2.1210   31.0630 C   0  0  0  0  0
   28.0860    3.7260   32.9980 C   0  0  0  0  0
   27.6930    4.5680   31.9430 O   0  0  0  0  0
   29.0980    0.6270   30.8720 C   0  0  0  0  0
   28.7480    4.6250   34.0360 C   0  0  0  0  0
   27.8840    5.7190   34.4990 N   0  3  0  0  0
   28.0220   -0.3000   30.8230 C   0  0  0  0  0
   28.2880   -1.6780   30.6280 C   0  0  0  0  0
   29.6190   -2.1400   30.4790 C   0  0  0  0  0
   30.6920   -1.2270   30.5270 C   0  0  0  0  0
   30.4300    0.1430   30.7200 C   0  0  0  0  0
   29.3610   -3.3620   35.1550 N   0  0  0  0  0
   28.8020   -3.6900   33.8400 C   0  0  0  0  0
   27.2780   -3.5580   33.8770 C   0  0  0  0  0
   31.6340   -0.6980   38.4780 N   0  0  0  0  0
   31.0740   -1.0890   39.6640 C   0  0  0  0  0
   32.0530   -0.8140   40.8040 C   0  0  0  0  0
   33.3720   -0.5650   40.0750 C   0  0  0  0  0
   32.9760   -0.1430   38.6670 C   0  0  0  0  0
   29.9670   -1.5870   39.8270 O   0  0  0  0  0
   28.6360    6.8770   35.0540 C   0  0  0  0  0
   29.7010    7.4600   34.1320 C   0  0  0  0  0
   31.0620    7.4600   34.5370 C   0  0  0  0  0
   32.0670    7.9920   33.6960 C   0  0  0  0  0
   31.7270    8.5330   32.4350 C   0  0  0  0  0
   30.3600    8.5560   31.9820 C   0  0  0  0  0
   29.3610    8.0040   32.8690 C   0  0  0  0  0
   29.9620    9.1520   30.5850 C   0  0  0  0  0
   28.9280    9.9810   30.7320 F   0  0  0  0  0
   29.6230    8.1470   29.7990 F   0  0  0  0  0
   30.9690    9.8210   30.0190 F   0  0  0  0  0
   29.3717   -1.0614   33.6896 H   0  0  0  0  0
   31.4093    1.2833   36.7149 H   0  0  0  0  0
   30.5188   -2.9039   37.4285 H   0  0  0  0  0
   28.5186    0.8546   33.5566 H   0  0  0  0  0
   30.0229    3.1980   32.4725 H   0  0  0  0  0
   29.6757    2.6095   30.4630 H   0  0  0  0  0
   27.8783    2.3403   30.7807 H   0  0  0  0  0
   27.2247    3.1981   33.4074 H   0  0  0  0  0
   27.0762    5.2256   32.2727 H   0  0  0  0  0
   29.6245    5.0745   33.5692 H   0  0  0  0  0
   28.9860    4.0065   34.9014 H   0  0  0  0  0
   27.2961    5.3494   35.2461 H   0  0  0  0  0
   27.3565    6.0545   33.6930 H   0  0  0  0  0
   26.9951    0.0480   30.9351 H   0  0  0  0  0
   27.4620   -2.3883   30.5923 H   0  0  0  0  0
   29.8134   -3.2017   30.3272 H   0  0  0  0  0
   31.7175   -1.5791   30.4155 H   0  0  0  0  0
   31.2617    0.8468   30.7538 H   0  0  0  0  0
   29.3694   -4.1005   35.8585 H   0  0  0  0  0
   29.0688   -4.7145   33.5804 H   0  0  0  0  0
   29.2052   -3.0034   33.0956 H   0  0  0  0  0
   26.8733   -4.2427   34.6223 H   0  0  0  0  0
   27.0095   -2.5344   34.1383 H   0  0  0  0  0
   26.8694   -3.8032   32.8967 H   0  0  0  0  0
   32.1136   -1.6375   41.5155 H   0  0  0  0  0
   31.7497    0.0281   41.4261 H   0  0  0  0  0
   34.0010   -1.4552   40.0662 H   0  0  0  0  0
   33.9678    0.2007   40.5718 H   0  0  0  0  0
   32.9892    0.9404   38.5476 H   0  0  0  0  0
   33.6781   -0.5111   37.9189 H   0  0  0  0  0
   29.1540    6.5172   35.9430 H   0  0  0  0  0
   27.9073    7.6682   35.2307 H   0  0  0  0  0
   31.3353    7.0452   35.5072 H   0  0  0  0  0
   33.1073    7.9848   34.0213 H   0  0  0  0  0
   32.5112    8.9388   31.7959 H   0  0  0  0  0
   28.3165    8.0064   32.5572 H   0  0  0  0  0
  1  2  4  0  0  0
  1  6  4  0  0  0
  1 22  1  0  0  0
  2  3  4  0  0  0
  3  4  4  0  0  0
  3  7  1  0  0  0
  4  5  4  0  0  0
  5  6  4  0  0  0
  5 25  1  0  0  0
  7  8  1  0  0  0
  7  9  2  0  0  0
  8 10  1  0  0  0
 10 11  1  0  0  0
 10 12  1  0  0  0
 11 14  1  0  0  0
 12 13  1  0  0  0
 12 15  1  0  0  0
 14 17  4  0  0  0
 14 21  4  0  0  0
 15 16  1  0  0  0
 16 31  1  0  0  0
 17 18  4  0  0  0
 18 19  4  0  0  0
 19 20  4  0  0  0
 20 21  4  0  0  0
 22 23  1  0  0  0
 23 24  1  0  0  0
 25 26  1  0  0  0
 25 29  1  0  0  0
 26 27  1  0  0  0
 26 30  2  0  0  0
 27 28  1  0  0  0
 28 29  1  0  0  0
 31 32  1  0  0  0
 32 33  4  0  0  0
 32 37  4  0  0  0
 33 34  4  0  0  0
 34 35  4  0  0  0
 35 36  4  0  0  0
 36 37  4  0  0  0
 36 38  1  0  0  0
 38 39  1  0  0  0
 38 40  1  0  0  0
 38 41  1  0  0  0
  2 42  1  0  0  0
  4 43  1  0  0  0
  6 44  1  0  0  0
  8 45  1  0  0  0
 10 46  1  0  0  0
 11 47  1  0  0  0
 11 48  1  0  0  0
 12 49  1  0  0  0
 13 50  1  0  0  0
 15 51  1  0  0  0
 15 52  1  0  0  0
 16 53  1  0  0  0
 16 54  1  0  0  0
 17 55  1  0  0  0
 18 56  1  0  0  0
 19 57  1  0  0  0
 20 58  1  0  0  0
 21 59  1  0  0  0
 22 60  1  0  0  0
 23 61  1  0  0  0
 23 62  1  0  0  0
 24 63  1  0  0  0
 24 64  1  0  0  0
 24 65  1  0  0  0
 27 66  1  0  0  0
 27 67  1  0  0  0
 28 68  1  0  0  0
 28 69  1  0  0  0
 29 70  1  0  0  0
 29 71  1  0  0  0
 31 72  1  0  0  0
 31 73  1  0  0  0
 33 74  1  0  0  0
 34 75  1  0  0  0
 35 76  1  0  0  0
 37 77  1  0  0  0
M  END
$$$$
