5x26_ligand
  -I-interpret- 

 64 68  0  0  0  0  0  0  0  0999 V2000
  -52.5150    0.0770  -21.7770 C   0  0  0  0  0
  -53.4240    0.7370  -22.5670 C   0  0  0  0  0
  -54.3730    1.5280  -21.9730 C   0  0  0  0  0
  -52.1430   -0.3690  -23.8380 C   0  0  0  0  0
  -54.3860    1.6360  -20.6770 N   0  0  0  0  0
  -53.6020    1.1660  -18.6400 N   0  0  0  0  0
  -52.5650    0.2100  -20.4540 N   0  0  0  0  0
  -50.3330   -0.1340  -13.5180 C   0  0  0  0  0
  -50.3100   -1.3310  -12.5920 C   0  0  0  0  0
  -49.0150   -1.9710  -12.7570 N   0  3  0  0  0
  -48.8530   -2.9780  -11.7130 C   0  0  0  0  0
  -48.9630   -2.6070  -14.0720 C   0  0  0  0  0
  -48.9810   -1.5340  -15.1530 C   0  0  0  0  0
  -50.0820   -0.5980  -14.8840 N   0  0  0  0  0
  -50.9440   -0.1720  -15.8820 C   0  0  0  0  0
  -51.9410    0.7060  -15.5240 C   0  0  0  0  0
  -52.8300    1.1480  -16.4770 C   0  0  0  0  0
  -50.8380   -0.6130  -17.1890 C   0  0  0  0  0
  -51.7330   -0.1680  -18.1490 C   0  0  0  0  0
  -52.7240    0.7150  -17.7800 C   0  0  0  0  0
  -53.5040    0.9920  -19.9290 C   0  0  0  0  0
  -53.1740    0.4420  -23.8330 N   0  0  0  0  0
  -51.7510   -0.5910  -22.6090 N   0  0  0  0  0
  -50.6360   -1.4310  -22.2350 C   0  0  0  0  0
  -49.9540   -0.7890  -21.0420 C   0  0  0  0  0
  -51.1540   -2.8220  -21.9130 C   0  0  0  0  0
  -51.5960   -0.8860  -24.9170 N   0  0  0  0  0
  -51.9170   -0.4240  -26.1110 C   0  0  0  0  0
  -52.2630    0.9010  -26.2810 C   0  0  0  0  0
  -52.5920    1.3740  -27.5410 C   0  0  0  0  0
  -52.5800    0.5230  -28.6280 C   0  0  0  0  0
  -52.2410   -0.8020  -28.4510 C   0  0  0  0  0
  -51.9070   -1.2740  -27.1960 C   0  0  0  0  0
  -55.1070    2.0594  -22.5788 H   0  0  0  0  0
  -54.4064    1.6814  -18.2827 H   0  0  0  0  0
  -49.5655    0.5808  -13.2210 H   0  0  0  0  0
  -51.3039    0.3586  -13.4650 H   0  0  0  0  0
  -51.1161   -2.0229  -12.8359 H   0  0  0  0  0
  -50.4582   -1.0213  -11.5575 H   0  0  0  0  0
  -48.2663   -1.2819  -12.6857 H   0  0  0  0  0
  -48.9073   -2.4983  -10.7357 H   0  0  0  0  0
  -49.6467   -3.7201  -11.7995 H   0  0  0  0  0
  -47.8845   -3.4650  -11.8268 H   0  0  0  0  0
  -49.8257   -3.2619  -14.1943 H   0  0  0  0  0
  -48.0486   -3.1942  -14.1568 H   0  0  0  0  0
  -49.1251   -1.9988  -16.1284 H   0  0  0  0  0
  -48.0333   -0.9955  -15.1507 H   0  0  0  0  0
  -52.0261    1.0490  -14.4929 H   0  0  0  0  0
  -53.6216    1.8439  -16.1993 H   0  0  0  0  0
  -50.0485   -1.3123  -17.4644 H   0  0  0  0  0
  -51.6540   -0.5115  -19.1805 H   0  0  0  0  0
  -49.9115   -1.5279  -23.0436 H   0  0  0  0  0
  -49.6040    0.2059  -21.3172 H   0  0  0  0  0
  -50.6634   -0.7110  -20.2181 H   0  0  0  0  0
  -49.1062   -1.4022  -20.7364 H   0  0  0  0  0
  -51.8638   -2.7620  -21.0880 H   0  0  0  0  0
  -51.6497   -3.2360  -22.7911 H   0  0  0  0  0
  -50.3189   -3.4627  -21.6297 H   0  0  0  0  0
  -50.9216   -1.6464  -24.8306 H   0  0  0  0  0
  -52.2775    1.5751  -25.4245 H   0  0  0  0  0
  -52.8613    2.4217  -27.6745 H   0  0  0  0  0
  -52.8368    0.8959  -29.6195 H   0  0  0  0  0
  -52.2365   -1.4798  -29.3047 H   0  0  0  0  0
  -51.6349   -2.3212  -27.0637 H   0  0  0  0  0
  1  2  4  0  0  0
  7  1  4  0  0  0
  1 23  4  0  0  0
  3  2  4  0  0  0
  2 22  4  0  0  0
  5  3  4  0  0  0
  4 22  4  0  0  0
 23  4  4  0  0  0
  4 27  1  0  0  0
 21  5  4  0  0  0
 20  6  1  0  0  0
  6 21  1  0  0  0
 21  7  4  0  0  0
  8  9  1  0  0  0
 14  8  1  0  0  0
  9 10  1  0  0  0
 10 11  1  0  0  0
 12 10  1  0  0  0
 13 12  1  0  0  0
 14 13  1  0  0  0
 15 14  1  0  0  0
 16 15  4  0  0  0
 15 18  4  0  0  0
 17 16  4  0  0  0
 17 20  4  0  0  0
 18 19  4  0  0  0
 19 20  4  0  0  0
 23 24  1  0  0  0
 24 25  1  0  0  0
 24 26  1  0  0  0
 27 28  1  0  0  0
 28 29  4  0  0  0
 28 33  4  0  0  0
 29 30  4  0  0  0
 30 31  4  0  0  0
 31 32  4  0  0  0
 32 33  4  0  0  0
  3 34  1  0  0  0
  6 35  1  0  0  0
  8 36  1  0  0  0
  8 37  1  0  0  0
  9 38  1  0  0  0
  9 39  1  0  0  0
 10 40  1  0  0  0
 11 41  1  0  0  0
 11 42  1  0  0  0
 11 43  1  0  0  0
 12 44  1  0  0  0
 12 45  1  0  0  0
 13 46  1  0  0  0
 13 47  1  0  0  0
 16 48  1  0  0  0
 17 49  1  0  0  0
 18 50  1  0  0  0
 19 51  1  0  0  0
 24 52  1  0  0  0
 25 53  1  0  0  0
 25 54  1  0  0  0
 25 55  1  0  0  0
 26 56  1  0  0  0
 26 57  1  0  0  0
 26 58  1  0  0  0
 27 59  1  0  0  0
 29 60  1  0  0  0
 30 61  1  0  0  0
 31 62  1  0  0  0
 32 63  1  0  0  0
 33 64  1  0  0  0
M  END
$$$$
