1p19_ligand
  -I-interpret- 

 36 38  0  0  0  0  0  0  0  0999 V2000
   70.3090   39.1240   36.1390 P   0  0  0  0  0
   70.6410   40.4980   36.6280 O   0  0  0  0  0
   71.0580   38.1060   36.9580 O   0  0  0  0  0
   68.7850   38.8370   36.2130 O   0  0  0  0  0
   70.7180   38.9220   34.5620 O   0  0  0  0  0
   69.9780   39.6720   33.5770 C   0  0  0  0  0
   70.3860   39.5600   32.1180 C   0  0  0  0  0
   70.8550   40.9170   31.8510 O   0  0  0  0  0
   71.5260   38.6750   31.6120 C   0  0  0  0  0
   71.1570   37.3580   31.2900 O   0  0  0  0  0
   72.0440   39.4210   30.3970 C   0  0  0  0  0
   71.2750   39.2470   29.2110 O   0  0  0  0  0
   71.9710   40.8610   30.9630 C   0  0  0  0  0
   73.1650   41.0940   31.8020 N   0  0  0  0  0
   73.3820   40.9260   33.1510 C   0  0  0  0  0
   74.5870   41.2510   33.4910 N   0  0  0  0  0
   75.1990   41.6500   32.3320 C   0  0  0  0  0
   76.5220   42.1170   32.0740 C   0  0  0  0  0
   77.4370   42.2690   32.8700 O   0  0  0  0  0
   76.7590   42.4310   30.7160 N   0  0  0  0  0
   75.7790   42.2890   29.7420 C   0  0  0  0  0
   74.5350   41.8470   29.9950 N   0  0  0  0  0
   74.3260   41.5570   31.2750 C   0  0  0  0  0
   70.8445   37.2244   36.6437 H   0  0  0  0  0
   68.6118   37.9490   35.8920 H   0  0  0  0  0
   70.1395   40.7181   33.8371 H   0  0  0  0  0
   68.9645   39.2730   33.6194 H   0  0  0  0  0
   69.5232   39.1013   31.6350 H   0  0  0  0  0
   72.2710   38.5261   32.3936 H   0  0  0  0  0
   71.9288   36.8766   30.9831 H   0  0  0  0  0
   73.0210   39.0888   30.0460 H   0  0  0  0  0
   71.6719   39.7509   28.4968 H   0  0  0  0  0
   71.8988   41.5835   30.1500 H   0  0  0  0  0
   72.6282   40.5624   33.8494 H   0  0  0  0  0
   77.6802   42.7731   30.4425 H   0  0  0  0  0
   76.0329   42.5507   28.7148 H   0  0  0  0  0
  1  2  2  0  0  0
  1  3  1  0  0  0
  1  4  1  0  0  0
  1  5  1  0  0  0
  5  6  1  0  0  0
  6  7  1  0  0  0
  7  8  1  0  0  0
  7  9  1  0  0  0
  8 13  1  0  0  0
  9 10  1  0  0  0
  9 11  1  0  0  0
 11 12  1  0  0  0
 11 13  1  0  0  0
 13 14  1  0  0  0
 14 15  4  0  0  0
 14 23  4  0  0  0
 15 16  4  0  0  0
 16 17  4  0  0  0
 17 18  1  0  0  0
 17 23  4  0  0  0
 18 19  2  0  0  0
 18 20  1  0  0  0
 20 21  1  0  0  0
 21 22  2  0  0  0
 22 23  1  0  0  0
  3 24  1  0  0  0
  4 25  1  0  0  0
  6 26  1  0  0  0
  6 27  1  0  0  0
  7 28  1  0  0  0
  9 29  1  0  0  0
 10 30  1  0  0  0
 11 31  1  0  0  0
 12 32  1  0  0  0
 13 33  1  0  0  0
 15 34  1  0  0  0
 20 35  1  0  0  0
 21 36  1  0  0  0
M  END
$$$$
