2qg0_ligand
  -I-interpret- 

 46 48  0  0  0  0  0  0  0  0999 V2000
   18.8160   26.6520   15.4480 C   0  0  0  0  0
   17.5640   26.9740   15.8660 N   0  0  0  0  0
   17.2520   26.6100   17.1260 C   0  0  0  0  0
   18.0640   25.9690   17.9700 N   0  0  0  0  0
   19.3150   25.6510   17.5380 C   0  0  0  0  0
   19.7440   25.9880   16.2410 C   0  0  0  0  0
   19.1590   27.0040   14.1830 C   0  0  0  0  0
   16.0300   26.9110   17.5770 N   0  0  0  0  0
   20.2210   24.9170   18.5060 C   0  0  0  0  0
   21.1560   23.9730   17.8570 N   0  0  0  0  0
   20.6880   22.3130   17.5740 S   0  0  0  0  0
   19.9920   21.8740   18.7510 O   0  0  0  0  0
   21.9350   21.7020   17.2350 O   0  0  0  0  0
   20.5300   25.7330    8.7650 C   0  0  0  0  0
   20.7050   24.8060    9.9410 C   0  0  0  0  0
   19.3820   24.4720   10.4760 C   0  0  0  0  0
   18.4280   25.0010    9.4880 C   0  0  0  0  0
   19.0930   25.7050    8.5470 O   0  0  0  0  0
   17.2440   24.8260    9.5160 O   0  0  0  0  0
   18.9670   23.8430   11.5660 C   0  0  0  0  0
   19.8210   23.2670   12.6190 N   0  0  0  0  0
   19.3000   22.8470   13.8220 C   0  0  0  0  0
   17.8930   22.4780   13.9610 C   0  0  0  0  0
   17.3740   22.0490   15.2340 C   0  0  0  0  0
   18.2550   21.9910   16.3720 C   0  0  0  0  0
   19.6390   22.3560   16.2270 C   0  0  0  0  0
   20.1510   22.7780   14.9650 C   0  0  0  0  0
   20.7431   25.7432   15.8804 H   0  0  0  0  0
   18.4833   26.5212   13.4770 H   0  0  0  0  0
   19.0858   28.0862   14.0759 H   0  0  0  0  0
   20.1824   26.6863   13.9837 H   0  0  0  0  0
   15.3696   27.4002   16.9729 H   0  0  0  0  0
   15.7581   26.6515   18.5252 H   0  0  0  0  0
   19.5814   24.3342   19.1688 H   0  0  0  0  0
   20.8230   25.6678   19.0179 H   0  0  0  0  0
   22.0816   24.2932   17.5722 H   0  0  0  0  0
   21.0990   25.4209    7.8893 H   0  0  0  0  0
   20.9119   26.7363    8.9539 H   0  0  0  0  0
   21.3039   25.2929   10.7107 H   0  0  0  0  0
   21.2166   23.8973    9.6237 H   0  0  0  0  0
   17.8895   23.7421   11.6960 H   0  0  0  0  0
   20.8233   23.1771   12.4526 H   0  0  0  0  0
   17.2321   22.5278   13.0957 H   0  0  0  0  0
   16.3249   21.7710   15.3353 H   0  0  0  0  0
   17.8737   21.6710   17.3417 H   0  0  0  0  0
   21.2024   23.0504   14.8726 H   0  0  0  0  0
  1  2  4  0  0  0
  6  1  4  0  0  0
  1  7  1  0  0  0
  3  2  4  0  0  0
  4  3  4  0  0  0
  3  8  1  0  0  0
  5  4  4  0  0  0
  5  6  4  0  0  0
  9  5  1  0  0  0
 10  9  1  0  0  0
 11 10  1  0  0  0
 11 12  2  0  0  0
 11 13  2  0  0  0
 26 11  1  0  0  0
 15 14  1  0  0  0
 18 14  1  0  0  0
 16 15  1  0  0  0
 16 17  1  0  0  0
 20 16  2  0  0  0
 17 18  1  0  0  0
 17 19  2  0  0  0
 21 20  1  0  0  0
 22 21  1  0  0  0
 23 22  4  0  0  0
 22 27  4  0  0  0
 24 23  4  0  0  0
 25 24  4  0  0  0
 25 26  4  0  0  0
 26 27  4  0  0  0
  6 28  1  0  0  0
  7 29  1  0  0  0
  7 30  1  0  0  0
  7 31  1  0  0  0
  8 32  1  0  0  0
  8 33  1  0  0  0
  9 34  1  0  0  0
  9 35  1  0  0  0
 10 36  1  0  0  0
 14 37  1  0  0  0
 14 38  1  0  0  0
 15 39  1  0  0  0
 15 40  1  0  0  0
 20 41  1  0  0  0
 21 42  1  0  0  0
 23 43  1  0  0  0
 24 44  1  0  0  0
 25 45  1  0  0  0
 27 46  1  0  0  0
M  END
$$$$
