3sxu_ligand
  -I-interpret- 

 70 71  0  0  0  0  0  0  0  0999 V2000
  -69.9860  -10.5510   27.8900 N   0  3  0  0  0
  -71.1330   -9.9480   27.1460 C   0  0  0  0  0
  -70.7570   -9.6830   25.6920 C   0  0  0  0  0
  -69.7560   -9.0160   25.4100 O   0  0  0  0  0
  -71.5970   -8.6500   27.8210 C   0  0  0  0  0
  -71.9740   -8.8480   29.2810 C   0  0  0  0  0
  -71.4370   -9.7770   29.9250 O   0  0  0  0  0
  -72.8080   -8.0680   29.7890 O   0  0  0  0  0
  -71.5670  -10.2150   24.7780 N   0  0  0  0  0
  -71.3210  -10.1010   23.3390 C   0  0  0  0  0
  -71.8220   -8.7490   22.8190 C   0  0  0  0  0
  -73.0160   -8.4510   22.9230 O   0  0  0  0  0
  -71.9790  -11.2710   22.5600 C   0  0  0  0  0
  -71.4390  -12.6170   23.0630 C   0  0  0  0  0
  -71.7430  -11.1210   21.0600 C   0  0  0  0  0
  -72.3350  -13.8070   22.7650 C   0  0  0  0  0
  -70.9070   -7.9270   22.2580 N   0  0  0  0  0
  -71.2280   -6.5640   21.8190 C   0  0  0  0  0
  -71.8160   -6.4640   20.4020 C   0  0  0  0  0
  -71.7090   -5.4130   19.7620 O   0  0  0  0  0
  -69.8710   -5.8380   21.8970 C   0  0  0  0  0
  -68.8410   -6.8930   22.2680 C   0  0  0  0  0
  -69.4790   -8.2250   22.0650 C   0  0  0  0  0
  -72.4350   -7.5430   19.9260 N   0  0  0  0  0
  -73.1260   -7.5410   18.6320 C   0  0  0  0  0
  -74.3070   -8.5110   18.6090 C   0  0  0  0  0
  -74.4510   -9.3670   19.4830 O   0  0  0  0  0
  -72.1570   -7.8200   17.4660 C   0  0  0  0  0
  -71.2870   -9.0340   17.6630 C   0  0  0  0  0
  -71.7450  -10.3040   17.3150 C   0  0  0  0  0
  -70.0000   -8.9050   18.1810 C   0  0  0  0  0
  -70.9390  -11.4300   17.4930 C   0  0  0  0  0
  -69.1850  -10.0230   18.3620 C   0  0  0  0  0
  -69.6570  -11.2890   18.0170 C   0  0  0  0  0
  -75.1510   -8.4600   17.7130 O   0  0  0  0  0
  -69.6948  -11.4107   27.4247 H   0  0  0  0  0
  -69.2082   -9.8913   27.9060 H   0  0  0  0  0
  -70.2748  -10.7612   28.8454 H   0  0  0  0  0
  -71.9572  -10.6611   27.1642 H   0  0  0  0  0
  -72.4823   -8.2965   27.2924 H   0  0  0  0  0
  -70.7711   -7.9398   27.7826 H   0  0  0  0  0
  -70.8316  -10.2536   29.3523 H   0  0  0  0  0
  -72.3932  -10.7230   25.0937 H   0  0  0  0  0
  -70.2453  -10.1600   23.1733 H   0  0  0  0  0
  -73.0541  -11.2425   22.7373 H   0  0  0  0  0
  -71.3579  -12.5427   24.1474 H   0  0  0  0  0
  -70.4938  -12.7932   22.5496 H   0  0  0  0  0
  -72.1764  -10.1813   20.7175 H   0  0  0  0  0
  -70.6715  -11.1226   20.8601 H   0  0  0  0  0
  -72.2132  -11.9523   20.5346 H   0  0  0  0  0
  -73.3052  -13.6573   23.2387 H   0  0  0  0  0
  -72.4661  -13.9005   21.6870 H   0  0  0  0  0
  -71.8743  -14.7141   23.1563 H   0  0  0  0  0
  -72.0113   -6.1350   22.4439 H   0  0  0  0  0
  -69.8968   -5.0388   22.6377 H   0  0  0  0  0
  -69.6238   -5.3673   20.9455 H   0  0  0  0  0
  -68.5258   -6.7730   23.3045 H   0  0  0  0  0
  -67.9513   -6.7954   21.6459 H   0  0  0  0  0
  -69.2614   -8.6584   21.0888 H   0  0  0  0  0
  -69.1053   -8.9863   22.7498 H   0  0  0  0  0
  -72.4283   -8.3995   20.4798 H   0  0  0  0  0
  -73.5278   -6.5369   18.4960 H   0  0  0  0  0
  -71.4938   -6.9587   17.3859 H   0  0  0  0  0
  -72.7645   -8.0002   16.5791 H   0  0  0  0  0
  -72.7456  -10.4193   16.8984 H   0  0  0  0  0
  -69.6247   -7.9172   18.4485 H   0  0  0  0  0
  -71.3128  -12.4175   17.2222 H   0  0  0  0  0
  -68.1818   -9.9071   18.7721 H   0  0  0  0  0
  -69.0242  -12.1654   18.1572 H   0  0  0  0  0
  -74.9243   -7.7558   17.1011 H   0  0  0  0  0
  1  2  1  0  0  0
  2  3  1  0  0  0
  2  5  1  0  0  0
  3  4  2  0  0  0
  3  9  1  0  0  0
  5  6  1  0  0  0
  6  7  1  0  0  0
  6  8  2  0  0  0
  9 10  1  0  0  0
 10 11  1  0  0  0
 10 13  1  0  0  0
 11 12  2  0  0  0
 11 17  1  0  0  0
 13 14  1  0  0  0
 13 15  1  0  0  0
 14 16  1  0  0  0
 17 18  1  0  0  0
 17 23  1  0  0  0
 18 19  1  0  0  0
 18 21  1  0  0  0
 19 20  2  0  0  0
 19 24  1  0  0  0
 21 22  1  0  0  0
 22 23  1  0  0  0
 24 25  1  0  0  0
 25 26  1  0  0  0
 25 28  1  0  0  0
 26 27  2  0  0  0
 26 35  1  0  0  0
 28 29  1  0  0  0
 29 30  4  0  0  0
 29 31  4  0  0  0
 30 32  4  0  0  0
 31 33  4  0  0  0
 32 34  4  0  0  0
 33 34  4  0  0  0
  1 36  1  0  0  0
  1 37  1  0  0  0
  1 38  1  0  0  0
  2 39  1  0  0  0
  5 40  1  0  0  0
  5 41  1  0  0  0
  7 42  1  0  0  0
  9 43  1  0  0  0
 10 44  1  0  0  0
 13 45  1  0  0  0
 14 46  1  0  0  0
 14 47  1  0  0  0
 15 48  1  0  0  0
 15 49  1  0  0  0
 15 50  1  0  0  0
 16 51  1  0  0  0
 16 52  1  0  0  0
 16 53  1  0  0  0
 18 54  1  0  0  0
 21 55  1  0  0  0
 21 56  1  0  0  0
 22 57  1  0  0  0
 22 58  1  0  0  0
 23 59  1  0  0  0
 23 60  1  0  0  0
 24 61  1  0  0  0
 25 62  1  0  0  0
 28 63  1  0  0  0
 28 64  1  0  0  0
 30 65  1  0  0  0
 31 66  1  0  0  0
 32 67  1  0  0  0
 33 68  1  0  0  0
 34 69  1  0  0  0
 35 70  1  0  0  0
M  END
$$$$
