2wl4_ligand
  -I-interpret- 

 84 86  0  0  0  0  0  0  0  0999 V2000
   36.2930  -28.4820   21.1370 N   0  0  0  0  0
   36.3580  -28.5450   22.4850 C   0  0  0  0  0
   35.7490  -27.6660   23.3050 N   0  0  0  0  0
   35.0310  -26.6600   22.7890 C   0  0  0  0  0
   34.9220  -26.5460   21.3490 C   0  0  0  0  0
   35.6060  -27.5310   20.4940 C   0  0  0  0  0
   35.5390  -27.4670   19.1420 N   0  0  0  0  0
   34.1610  -25.4880   21.0440 N   0  0  0  0  0
   33.7960  -24.9380   22.2210 C   0  0  0  0  0
   34.3110  -25.6420   23.2580 N   0  0  0  0  0
   34.1460  -25.3720   24.7050 C   0  0  0  0  0
   34.7490  -24.0440   25.1010 C   0  0  0  0  0
   36.1550  -24.1470   25.3060 O   0  0  0  0  0
   34.0540  -23.7830   26.4130 C   0  0  0  0  0
   34.8430  -24.3920   27.4260 O   0  0  0  0  0
   34.7870  -23.8010   28.9190 P   0  0  0  0  0
   35.8890  -24.6500   29.8960 O   0  0  0  0  0
   33.2060  -23.9740   29.5100 O   0  0  0  0  0
   35.1930  -22.3460   28.8810 O   0  0  0  0  0
   32.7210  -24.4930   26.2720 C   0  0  0  0  0
   32.7770  -25.2590   25.0710 O   0  0  0  0  0
   31.6220  -23.4680   26.1090 C   0  0  0  0  0
   31.9200  -22.6810   24.9600 O   0  0  0  0  0
   31.4330  -21.1500   24.9770 P   0  0  0  0  0
   31.8540  -20.5150   26.2820 O   0  0  0  0  0
   32.0110  -20.3160   23.6260 O   0  0  0  0  0
   29.8420  -21.3790   24.8860 O   0  0  0  0  0
   28.7830  -20.1890   25.0920 P   0  0  0  0  0
   27.5290  -20.6920   25.7660 O   0  0  0  0  0
   29.5070  -18.9230   25.9590 O   0  0  0  0  0
   28.4540  -19.7660   23.5720 O   0  0  0  0  0
   27.0780  -20.2210   21.6350 C   0  0  0  0  0
   28.1060  -20.7590   22.6180 C   0  0  0  0  0
   26.7980  -21.3090   20.6050 C   0  0  0  0  0
   25.7950  -19.8430   22.3720 C   0  0  0  0  0
   27.6210  -18.9800   20.9270 C   0  0  0  0  0
   28.9410  -19.2030   20.3920 O   0  0  0  0  0
   26.6430  -18.6400   19.8370 C   0  0  0  0  0
   25.5290  -18.2210   20.1510 O   0  0  0  0  0
   27.0120  -18.7970   18.5550 N   0  0  0  0  0
   26.0230  -18.4800   17.5340 C   0  0  0  0  0
   26.5270  -17.8110   16.2590 C   0  0  0  0  0
   25.3180  -17.3890   15.4400 C   0  0  0  0  0
   24.1900  -17.6990   15.7790 O   0  0  0  0  0
   25.5540  -16.6800   14.3410 N   0  0  0  0  0
   24.4950  -16.2040   13.4650 C   0  0  0  0  0
   23.4590  -17.2640   13.1080 C   0  0  0  0  0
   22.5350  -16.7960   11.6230 S   0  0  0  0  0
   36.9357  -29.3525   22.9347 H   0  0  0  0  0
   36.0242  -28.1614   18.5739 H   0  0  0  0  0
   35.0034  -26.7244   18.6925 H   0  0  0  0  0
   33.1727  -24.0497   22.3234 H   0  0  0  0  0
   34.6354  -26.2110   25.1996 H   0  0  0  0  0
   34.6220  -23.2658   24.3485 H   0  0  0  0  0
   36.5046  -23.2884   25.5555 H   0  0  0  0  0
   33.9187  -22.7299   26.6596 H   0  0  0  0  0
   35.6397  -25.5766   29.9268 H   0  0  0  0  0
   32.9712  -24.9047   29.5248 H   0  0  0  0  0
   32.5262  -25.1139   27.1464 H   0  0  0  0  0
   31.5639  -22.8346   26.9942 H   0  0  0  0  0
   30.6596  -23.9646   25.9857 H   0  0  0  0  0
   31.7161  -20.7595   22.8273 H   0  0  0  0  0
   30.2980  -18.6329   25.4989 H   0  0  0  0  0
   27.6804  -21.6161   23.1399 H   0  0  0  0  0
   29.0014  -21.0496   22.0685 H   0  0  0  0  0
   27.7219  -21.5612   20.0845 H   0  0  0  0  0
   26.4105  -22.1941   21.1095 H   0  0  0  0  0
   26.0621  -20.9471   19.8870 H   0  0  0  0  0
   25.3893  -20.7247   22.8682 H   0  0  0  0  0
   26.0164  -19.0763   23.1145 H   0  0  0  0  0
   25.0667  -19.4592   21.6576 H   0  0  0  0  0
   27.7215  -18.1550   21.6322 H   0  0  0  0  0
   29.2476  -18.4044   19.9564 H   0  0  0  0  0
   27.9456  -19.1245   18.3070 H   0  0  0  0  0
   25.3416  -17.7645   17.9941 H   0  0  0  0  0
   25.6041  -19.4363   17.2207 H   0  0  0  0  0
   27.1445  -18.5049   15.6886 H   0  0  0  0  0
   27.1366  -16.9417   16.5057 H   0  0  0  0  0
   26.5207  -16.4599   14.1012 H   0  0  0  0  0
   24.9649  -15.8860   12.5343 H   0  0  0  0  0
   23.9722  -15.4075   13.9944 H   0  0  0  0  0
   22.7595  -17.3622   13.9381 H   0  0  0  0  0
   23.9741  -18.2054   12.9167 H   0  0  0  0  0
   21.6425  -17.7411   11.3418 H   0  0  0  0  0
  1  2  4  0  0  0
  1  6  4  0  0  0
  2  3  4  0  0  0
  3  4  4  0  0  0
  4  5  4  0  0  0
  4 10  4  0  0  0
  5  6  4  0  0  0
  5  8  4  0  0  0
  6  7  1  0  0  0
  8  9  4  0  0  0
  9 10  4  0  0  0
 10 11  1  0  0  0
 11 12  1  0  0  0
 11 21  1  0  0  0
 12 13  1  0  0  0
 12 14  1  0  0  0
 14 15  1  0  0  0
 14 20  1  0  0  0
 15 16  1  0  0  0
 16 17  1  0  0  0
 16 18  1  0  0  0
 16 19  2  0  0  0
 20 21  1  0  0  0
 20 22  1  0  0  0
 22 23  1  0  0  0
 23 24  1  0  0  0
 24 25  2  0  0  0
 24 26  1  0  0  0
 24 27  1  0  0  0
 27 28  1  0  0  0
 28 29  2  0  0  0
 28 30  1  0  0  0
 28 31  1  0  0  0
 31 33  1  0  0  0
 33 32  1  0  0  0
 32 34  1  0  0  0
 32 35  1  0  0  0
 32 36  1  0  0  0
 36 37  1  0  0  0
 36 38  1  0  0  0
 38 39  2  0  0  0
 38 40  1  0  0  0
 40 41  1  0  0  0
 41 42  1  0  0  0
 42 43  1  0  0  0
 43 44  2  0  0  0
 43 45  1  0  0  0
 45 46  1  0  0  0
 46 47  1  0  0  0
 47 48  1  0  0  0
  2 49  1  0  0  0
  7 50  1  0  0  0
  7 51  1  0  0  0
  9 52  1  0  0  0
 11 53  1  0  0  0
 12 54  1  0  0  0
 13 55  1  0  0  0
 14 56  1  0  0  0
 17 57  1  0  0  0
 18 58  1  0  0  0
 20 59  1  0  0  0
 22 60  1  0  0  0
 22 61  1  0  0  0
 26 62  1  0  0  0
 30 63  1  0  0  0
 33 64  1  0  0  0
 33 65  1  0  0  0
 34 66  1  0  0  0
 34 67  1  0  0  0
 34 68  1  0  0  0
 35 69  1  0  0  0
 35 70  1  0  0  0
 35 71  1  0  0  0
 36 72  1  0  0  0
 37 73  1  0  0  0
 40 74  1  0  0  0
 41 75  1  0  0  0
 41 76  1  0  0  0
 42 77  1  0  0  0
 42 78  1  0  0  0
 45 79  1  0  0  0
 46 80  1  0  0  0
 46 81  1  0  0  0
 47 82  1  0  0  0
 47 83  1  0  0  0
 48 84  1  0  0  0
M  END
$$$$
