### 
### Created by X-TOOL on Sun Sep  9 21:51:08 2018
### 

@<TRIPOS>MOLECULE
2wl4_ligand
   80    82     1     0     0
SMALL
GAST_HUCK


@<TRIPOS>ATOM
      1 N1A        36.2930  -28.4820   21.1370 N.ar      1 NON        -0.2698
      2 C2A        36.3580  -28.5450   22.4850 C.ar      1 NON         0.0533
      3 N3A        35.7490  -27.6660   23.3050 N.ar      1 NON        -0.2714
      4 C4A        35.0310  -26.6600   22.7890 C.ar      1 NON         0.1613
      5 C5A        34.9220  -26.5460   21.3490 C.ar      1 NON         0.1045
      6 C6A        35.6060  -27.5310   20.4940 C.ar      1 NON         0.1298
      7 N6A        35.5390  -27.4670   19.1420 N.pl3     1 NON        -0.3152
      8 N7A        34.1610  -25.4880   21.0440 N.2       1 NON        -0.2958
      9 C8A        33.7960  -24.9380   22.2210 C.2       1 NON         0.1123
     10 N9A        34.3110  -25.6420   23.2580 N.pl3     1 NON        -0.1919
     11 C1B        34.1460  -25.3720   24.7050 C.3       1 NON         0.2013
     12 C2B        34.7490  -24.0440   25.1010 C.3       1 NON         0.1432
     13 O2B        36.1550  -24.1470   25.3060 O.3       1 NON        -0.3832
     14 C3B        34.0540  -23.7830   26.4130 C.3       1 NON         0.1487
     15 O3B        34.8430  -24.3920   27.4260 O.3       1 NON        -0.2674
     16 P3B        34.7870  -23.8010   28.9190 P.3       1 NON         0.2013
     17 O7A        35.8890  -24.6500   29.8960 O.co2     1 NON        -0.5537
     18 O8A        33.2060  -23.9740   29.5100 O.co2     1 NON        -0.5537
     19 O9A        35.1930  -22.3460   28.8810 O.co2     1 NON        -0.5537
     20 C4B        32.7210  -24.4930   26.2720 C.3       1 NON         0.1235
     21 O4B        32.7770  -25.2590   25.0710 O.3       1 NON        -0.3360
     22 C5B        31.6220  -23.4680   26.1090 C.3       1 NON         0.1131
     23 O5B        31.9200  -22.6810   24.9600 O.3       1 NON        -0.2476
     24 P1A        31.4330  -21.1500   24.9770 P.3       1 NON         0.2972
     25 O1A        31.8540  -20.5150   26.2820 O.co2     1 NON        -0.6127
     26 O2A        32.0110  -20.3160   23.6260 O.co2     1 NON        -0.6127
     27 O3A        29.8420  -21.3790   24.8860 O.3       1 NON        -0.1319
     28 P2A        28.7830  -20.1890   25.0920 P.3       1 NON         0.2971
     29 O4A        27.5290  -20.6920   25.7660 O.co2     1 NON        -0.6127
     30 O5A        29.5070  -18.9230   25.9590 O.co2     1 NON        -0.6127
     31 O6A        28.4540  -19.7660   23.5720 O.3       1 NON        -0.2496
     32 CBP        27.0780  -20.2210   21.6350 C.3       1 NON         0.0367
     33 CCP        28.1060  -20.7590   22.6180 C.3       1 NON         0.0936
     34 CDP        26.7980  -21.3090   20.6050 C.3       1 NON        -0.0528
     35 CEP        25.7950  -19.8430   22.3720 C.3       1 NON        -0.0528
     36 CAP        27.6210  -18.9800   20.9270 C.3       1 NON         0.1510
     37 OAP        28.9410  -19.2030   20.3920 O.3       1 NON        -0.3708
     38 C9P        26.6430  -18.6400   19.8370 C.2       1 NON         0.2057
     39 O9P        25.5290  -18.2210   20.1510 O.2       1 NON        -0.3942
     40 N8P        27.0120  -18.7970   18.5550 N.am      1 NON        -0.2826
     41 C7P        26.0230  -18.4800   17.5340 C.3       1 NON         0.0477
     42 C6P        26.5270  -17.8110   16.2590 C.3       1 NON         0.0574
     43 C5P        25.3180  -17.3890   15.4400 C.2       1 NON         0.1779
     44 O5P        24.1900  -17.6990   15.7790 O.2       1 NON        -0.3970
     45 N4P        25.5540  -16.6800   14.3410 N.am      1 NON        -0.2861
     46 C3P        24.4950  -16.2040   13.4650 C.3       1 NON         0.0396
     47 C2P        23.4590  -17.2640   13.1080 C.3       1 NON         0.0109
     48 S1P        22.5350  -16.7960   11.6230 S.3       1 NON        -0.1763
     49 H          36.9357  -29.3525   22.9347 H         1 NON         0.0996
     50 H          35.0050  -26.7233   18.6925 H         1 NON         0.1820
     51 H          36.0226  -28.1626   18.5739 H         1 NON         0.1820
     52 H          33.1727  -24.0497   22.3234 H         1 NON         0.1349
     53 H          34.6354  -26.2110   25.1996 H         1 NON         0.0996
     54 H          34.6220  -23.2658   24.3485 H         1 NON         0.0680
     55 H          36.5046  -23.2884   25.5555 H         1 NON         0.2101
     56 H          33.9187  -22.7299   26.6596 H         1 NON         0.0704
     57 H          32.5262  -25.1139   27.1464 H         1 NON         0.0654
     58 H          31.5639  -22.8346   26.9942 H         1 NON         0.0648
     59 H          30.6596  -23.9646   25.9857 H         1 NON         0.0648
     60 H          27.6804  -21.6161   23.1399 H         1 NON         0.0628
     61 H          29.0014  -21.0496   22.0685 H         1 NON         0.0628
     62 H          27.7219  -21.5612   20.0845 H         1 NON         0.0238
     63 H          26.4105  -22.1941   21.1095 H         1 NON         0.0238
     64 H          26.0621  -20.9471   19.8870 H         1 NON         0.0238
     65 H          25.3893  -20.7247   22.8682 H         1 NON         0.0238
     66 H          26.0164  -19.0763   23.1145 H         1 NON         0.0238
     67 H          25.0667  -19.4592   21.6576 H         1 NON         0.0238
     68 H          27.7215  -18.1550   21.6322 H         1 NON         0.0844
     69 H          29.5406  -19.4294   21.1066 H         1 NON         0.2133
     70 H          27.9456  -19.1245   18.3070 H         1 NON         0.1853
     71 H          25.3416  -17.7645   17.9941 H         1 NON         0.0545
     72 H          25.6041  -19.4363   17.2207 H         1 NON         0.0545
     73 H          27.1445  -18.5049   15.6886 H         1 NON         0.0522
     74 H          27.1366  -16.9417   16.5057 H         1 NON         0.0522
     75 H          26.5207  -16.4599   14.1012 H         1 NON         0.1851
     76 H          24.9649  -15.8860   12.5343 H         1 NON         0.0528
     77 H          23.9722  -15.4075   13.9944 H         1 NON         0.0528
     78 H          22.7595  -17.3622   13.9381 H         1 NON         0.0393
     79 H          23.9741  -18.2054   12.9167 H         1 NON         0.0393
     80 H          21.9088  -15.6425   11.8376 H         1 NON         0.1017
@<TRIPOS>BOND
     1    1    2 ar 
     2    1    6 ar 
     3    2    3 ar 
     4    3    4 ar 
     5    4    5 ar 
     6    4   10 1  
     7    5    6 ar 
     8    5    8 1  
     9    6    7 1  
    10    8    9 2  
    11    9   10 1  
    12   10   11 1  
    13   11   12 1  
    14   11   21 1  
    15   12   13 1  
    16   12   14 1  
    17   14   15 1  
    18   14   20 1  
    19   15   16 1  
    20   16   17 ar 
    21   16   18 ar 
    22   16   19 ar 
    23   20   21 1  
    24   20   22 1  
    25   22   23 1  
    26   23   24 1  
    27   24   25 ar 
    28   24   26 ar 
    29   24   27 1  
    30   27   28 1  
    31   28   29 ar 
    32   28   30 ar 
    33   28   31 1  
    34   31   33 1  
    35   33   32 1  
    36   32   34 1  
    37   32   35 1  
    38   32   36 1  
    39   36   37 1  
    40   36   38 1  
    41   38   39 2  
    42   38   40 am 
    43   40   41 1  
    44   41   42 1  
    45   42   43 1  
    46   43   44 2  
    47   43   45 am 
    48   45   46 1  
    49   46   47 1  
    50   47   48 1  
    51    2   49 1  
    52    7   50 1  
    53    7   51 1  
    54    9   52 1  
    55   11   53 1  
    56   12   54 1  
    57   13   55 1  
    58   14   56 1  
    59   20   57 1  
    60   22   58 1  
    61   22   59 1  
    62   33   60 1  
    63   33   61 1  
    64   34   62 1  
    65   34   63 1  
    66   34   64 1  
    67   35   65 1  
    68   35   66 1  
    69   35   67 1  
    70   36   68 1  
    71   37   69 1  
    72   40   70 1  
    73   41   71 1  
    74   41   72 1  
    75   42   73 1  
    76   42   74 1  
    77   45   75 1  
    78   46   76 1  
    79   46   77 1  
    80   47   78 1  
    81   47   79 1  
    82   48   80 1  
@<TRIPOS>SUBSTRUCTURE
     1 NON         1

