3ccz_ligand
  -I-interpret- 

 72 74  0  0  0  0  0  0  0  0999 V2000
   78.6220    8.0870   -4.9370 N   0  0  0  0  0
   77.3970    9.6590   -5.8520 N   0  0  0  0  0
   77.3870    8.4060   -5.3650 C   0  0  0  0  0
   80.8880    9.1900   -4.8070 C   0  0  0  0  0
   79.0030    6.8040   -4.3330 C   0  0  0  0  0
   79.1560    6.9990   -2.8250 C   0  0  0  0  0
   78.8740    5.8790   -0.5990 C   0  0  0  0  0
   81.7030    9.5860   -6.0380 C   0  0  0  0  0
   74.7500    5.9010   -6.3730 C   0  0  0  0  0
   80.6900   14.8700   -8.1560 C   0  0  0  0  0
   81.9490   15.1660   -8.6720 C   0  0  0  0  0
   75.2530    7.6810   -4.2900 C   0  0  0  0  0
   74.1010    6.9010   -4.2750 C   0  0  0  0  0
   80.8120   12.6540   -9.0940 C   0  0  0  0  0
   79.8660   12.1250   -5.4580 O   0  0  0  0  0
   79.0750   11.5070   -6.1490 C   0  0  0  0  0
   78.5200   12.0150   -7.2560 N   0  0  0  0  0
   78.7630   13.3580   -7.7950 C   0  0  0  0  0
   77.7150   13.5630   -8.8920 C   0  0  0  0  0
   77.8360   12.5820   -9.9110 O   0  0  0  0  0
   80.1170   13.6140   -8.3580 C   0  0  0  0  0
   82.0730   12.9530   -9.6100 C   0  0  0  0  0
   82.6440   14.2050   -9.4000 C   0  0  0  0  0
   78.6450   10.1350   -5.7380 C   0  0  0  0  0
   79.4360    9.1460   -5.1430 C   0  0  0  0  0
   81.1530   10.0960   -3.6030 C   0  0  0  0  0
   76.1580    7.5660   -5.3420 C   0  0  0  0  0
   73.8490    6.0130   -5.3170 C   0  0  0  0  0
   72.7350    5.2630   -5.3020 F   0  0  0  0  0
   75.9040    6.6810   -6.3870 C   0  0  0  0  0
   79.2570    5.6790   -2.0640 C   0  0  0  0  0
   80.5920    5.2040   -2.1110 O   0  0  0  0  0
   77.3640    5.8840   -0.3830 C   0  0  0  0  0
   76.8160    4.6380   -0.7770 O   0  0  0  0  0
   77.0620    6.1300    1.0910 C   0  0  0  0  0
   75.6210    6.5430    1.2720 C   0  0  0  0  0
   74.8280    5.7230    1.7800 O   0  0  0  0  0
   75.2760    7.6900    0.9080 O   0  0  0  0  0
   81.2126    8.1924   -4.5111 H   0  0  0  0  0
   79.9450    6.4591   -4.7593 H   0  0  0  0  0
   78.2347    6.0574   -4.5339 H   0  0  0  0  0
   78.2714    7.5245   -2.4652 H   0  0  0  0  0
   80.0776    7.5548   -2.6524 H   0  0  0  0  0
   79.2617    6.8465   -0.2800 H   0  0  0  0  0
   79.2920    5.0507   -0.0269 H   0  0  0  0  0
   81.5414    8.8546   -6.8298 H   0  0  0  0  0
   81.3856   10.5707   -6.3810 H   0  0  0  0  0
   82.7612    9.6141   -5.7780 H   0  0  0  0  0
   74.5525    5.2040   -7.1874 H   0  0  0  0  0
   80.1472   15.6264   -7.5891 H   0  0  0  0  0
   82.3895   16.1491   -8.5059 H   0  0  0  0  0
   75.4471    8.3821   -3.4783 H   0  0  0  0  0
   73.3962    6.9852   -3.4478 H   0  0  0  0  0
   80.3705   11.6723   -9.2655 H   0  0  0  0  0
   77.8723   11.4170   -7.7692 H   0  0  0  0  0
   78.6948   14.0566   -6.9610 H   0  0  0  0  0
   77.8667   14.5463   -9.3373 H   0  0  0  0  0
   76.7243   13.4789   -8.4454 H   0  0  0  0  0
   77.1677   12.7359  -10.5828 H   0  0  0  0  0
   82.6155   12.2004  -10.1821 H   0  0  0  0  0
   83.6308   14.4316   -9.8038 H   0  0  0  0  0
   82.2083   10.0429   -3.3353 H   0  0  0  0  0
   80.8929   11.1232   -3.8586 H   0  0  0  0  0
   80.5460    9.7651   -2.7603 H   0  0  0  0  0
   76.6078    6.5988   -7.2153 H   0  0  0  0  0
   78.5792    4.9625   -2.5280 H   0  0  0  0  0
   80.8514    5.0719   -3.0258 H   0  0  0  0  0
   76.9188    6.6766   -0.9843 H   0  0  0  0  0
   75.8662    4.6492   -0.6381 H   0  0  0  0  0
   77.7083    6.9276    1.4572 H   0  0  0  0  0
   77.2400    5.2101    1.6479 H   0  0  0  0  0
   76.0361    8.1521    0.5471 H   0  0  0  0  0
  3  1  4  0  0  0
  1  5  1  0  0  0
  1 25  4  0  0  0
  2  3  4  0  0  0
 24  2  4  0  0  0
  3 27  1  0  0  0
  4  8  1  0  0  0
 25  4  1  0  0  0
  4 26  1  0  0  0
  5  6  1  0  0  0
  6 31  1  0  0  0
 31  7  1  0  0  0
  7 33  1  0  0  0
 28  9  4  0  0  0
  9 30  4  0  0  0
 10 11  4  0  0  0
 21 10  4  0  0  0
 11 23  4  0  0  0
 12 13  4  0  0  0
 27 12  4  0  0  0
 13 28  4  0  0  0
 21 14  4  0  0  0
 14 22  4  0  0  0
 16 15  2  0  0  0
 17 16  1  0  0  0
 16 24  1  0  0  0
 18 17  1  0  0  0
 18 19  1  0  0  0
 18 21  1  0  0  0
 19 20  1  0  0  0
 22 23  4  0  0  0
 24 25  4  0  0  0
 27 30  4  0  0  0
 28 29  1  0  0  0
 31 32  1  0  0  0
 33 34  1  0  0  0
 33 35  1  0  0  0
 35 36  1  0  0  0
 36 37  2  0  0  0
 36 38  1  0  0  0
  4 39  1  0  0  0
  5 40  1  0  0  0
  5 41  1  0  0  0
  6 42  1  0  0  0
  6 43  1  0  0  0
  7 44  1  0  0  0
  7 45  1  0  0  0
  8 46  1  0  0  0
  8 47  1  0  0  0
  8 48  1  0  0  0
  9 49  1  0  0  0
 10 50  1  0  0  0
 11 51  1  0  0  0
 12 52  1  0  0  0
 13 53  1  0  0  0
 14 54  1  0  0  0
 17 55  1  0  0  0
 18 56  1  0  0  0
 19 57  1  0  0  0
 19 58  1  0  0  0
 20 59  1  0  0  0
 22 60  1  0  0  0
 23 61  1  0  0  0
 26 62  1  0  0  0
 26 63  1  0  0  0
 26 64  1  0  0  0
 30 65  1  0  0  0
 31 66  1  0  0  0
 32 67  1  0  0  0
 33 68  1  0  0  0
 34 69  1  0  0  0
 35 70  1  0  0  0
 35 71  1  0  0  0
 38 72  1  0  0  0
M  END
$$$$
