3ck8_ligand
  -I-interpret- 

147154  0  0  0  0  0  0  0  0999 V2000
   18.4400  -29.2010   -2.0370 C   0  0  0  0  0
   17.9100  -29.9880   -3.2480 C   0  0  0  0  0
   18.7570  -31.1280   -3.4360 O   0  0  0  0  0
   17.9210  -29.1130   -4.5220 C   0  0  0  0  0
   17.2250  -29.7720   -5.5720 O   0  0  0  0  0
   17.2870  -27.6970   -4.2940 C   0  0  0  0  0
   17.7460  -26.9650   -5.4410 O   0  0  0  0  0
   17.7840  -27.0330   -2.9510 C   0  0  0  0  0
   17.7150  -27.9740   -1.8660 O   0  0  0  0  0
   17.0020  -25.7790   -2.5320 C   0  0  0  0  0
   17.8170  -24.9940   -1.6800 O   0  0  0  0  0
   16.9390  -25.8810   -5.9040 C   0  0  0  0  0
   16.7900  -25.9450   -7.4450 C   0  0  0  0  0
   16.3190  -27.2210   -7.8400 O   0  0  0  0  0
   18.1300  -25.6550   -8.1400 C   0  0  0  0  0
   17.9020  -25.5750   -9.5470 O   0  0  0  0  0
   18.7330  -24.3200   -7.6360 C   0  0  0  0  0
   20.0010  -24.1850   -8.2610 O   0  0  0  0  0
   18.8270  -24.3560   -6.0930 C   0  0  0  0  0
   17.5110  -24.6010   -5.5490 O   0  0  0  0  0
   19.2820  -23.0570   -5.4450 C   0  0  0  0  0
   19.8730  -23.3630   -4.2020 O   0  0  0  0  0
   20.0920  -23.0700   -9.1540 C   0  0  0  0  0
   21.0910  -23.3540  -10.2950 C   0  0  0  0  0
   20.7920  -24.6200  -10.8560 O   0  0  0  0  0
   22.5490  -23.3320   -9.8010 C   0  0  0  0  0
   23.4230  -23.3760  -10.9300 O   0  0  0  0  0
   22.8520  -22.0450   -8.9870 C   0  0  0  0  0
   24.1700  -22.1790   -8.4730 O   0  0  0  0  0
   21.8040  -21.9240   -7.8570 C   0  0  0  0  0
   20.4820  -21.8700   -8.4410 O   0  0  0  0  0
   21.9350  -20.6810   -6.9580 C   0  0  0  0  0
   21.9010  -19.5080   -7.7510 O   0  0  0  0  0
   25.0810  -21.1530   -8.8770 C   0  0  0  0  0
   26.4010  -21.7450   -9.4080 C   0  0  0  0  0
   26.1510  -22.6450  -10.4800 O   0  0  0  0  0
   27.1640  -22.4970   -8.2920 C   0  0  0  0  0
   28.4680  -22.8590   -8.7710 O   0  0  0  0  0
   27.3260  -21.6560   -6.9980 C   0  0  0  0  0
   27.5270  -22.5780   -5.9190 O   0  0  0  0  0
   26.0670  -20.8080   -6.6300 C   0  0  0  0  0
   25.3240  -20.2870   -7.7480 O   0  0  0  0  0
   26.4110  -19.6180   -5.7300 C   0  0  0  0  0
   25.5260  -19.6330   -4.6300 O   0  0  0  0  0
   28.6420  -22.2550   -5.0580 C   0  0  0  0  0
   29.6300  -23.4360   -5.0710 C   0  0  0  0  0
   30.0800  -23.6740   -6.4010 O   0  0  0  0  0
   28.9510  -24.7080   -4.5270 C   0  0  0  0  0
   29.9230  -25.7460   -4.4080 O   0  0  0  0  0
   28.2920  -24.4600   -3.1410 C   0  0  0  0  0
   27.4750  -25.5500   -2.7510 O   0  0  0  0  0
   27.4510  -23.1380   -3.1340 C   0  0  0  0  0
   28.2110  -22.0370   -3.6920 O   0  0  0  0  0
   26.9940  -22.7150   -1.7240 C   0  0  0  0  0
   28.1120  -22.6790   -0.8460 O   0  0  0  0  0
   27.9170  -26.3460   -1.6530 C   0  0  0  0  0
   27.8200  -27.8450   -2.0690 C   0  0  0  0  0
   28.4450  -28.0340   -3.3430 O   0  0  0  0  0
   26.3600  -28.3300   -2.2160 C   0  0  0  0  0
   26.3380  -29.7420   -2.3940 O   0  0  0  0  0
   25.5140  -27.9640   -0.9840 C   0  0  0  0  0
   24.1530  -28.2600   -1.2810 O   0  0  0  0  0
   25.6920  -26.4500   -0.6810 C   0  0  0  0  0
   27.0810  -26.1100   -0.4940 O   0  0  0  0  0
   24.9210  -25.9710    0.5650 C   0  0  0  0  0
   25.2440  -26.7980    1.6660 O   0  0  0  0  0
   23.4900  -29.0440   -0.2870 C   0  0  0  0  0
   22.9440  -30.3740   -0.8390 C   0  0  0  0  0
   24.0180  -31.0950   -1.4360 O   0  0  0  0  0
   21.8720  -30.1220   -1.8850 C   0  0  0  0  0
   21.4440  -31.3850   -2.3990 O   0  0  0  0  0
   20.6910  -29.3880   -1.2270 C   0  0  0  0  0
   19.8320  -28.9230   -2.2670 O   0  0  0  0  0
   21.1470  -28.1460   -0.4120 C   0  0  0  0  0
   22.4450  -28.1980    0.2470 O   0  0  0  0  0
   20.1300  -27.7210    0.6380 C   0  0  0  0  0
   20.0970  -26.3110    0.6210 O   0  0  0  0  0
   18.3101  -29.7896   -1.1288 H   0  0  0  0  0
   16.8806  -30.2958   -3.0642 H   0  0  0  0  0
   18.7463  -31.6676   -2.6421 H   0  0  0  0  0
   18.9672  -28.9659   -4.7904 H   0  0  0  0  0
   17.6104  -30.6396   -5.7147 H   0  0  0  0  0
   16.2017  -27.7256   -4.1965 H   0  0  0  0  0
   18.8098  -26.7286   -3.1587 H   0  0  0  0  0
   16.0925  -26.0702   -2.0066 H   0  0  0  0  0
   16.7295  -25.2021   -3.4157 H   0  0  0  0  0
   17.3351  -24.2077   -1.4134 H   0  0  0  0  0
   15.9646  -25.9767   -5.4249 H   0  0  0  0  0
   16.0692  -25.1839   -7.7439 H   0  0  0  0  0
   16.2314  -27.2468   -8.7956 H   0  0  0  0  0
   18.8345  -26.4548   -7.9117 H   0  0  0  0  0
   18.7317  -25.3940   -9.9947 H   0  0  0  0  0
   18.1167  -23.4575   -7.8898 H   0  0  0  0  0
   19.5633  -25.1307   -5.8790 H   0  0  0  0  0
   18.4291  -22.3940   -5.2994 H   0  0  0  0  0
   20.0040  -22.5527   -6.0872 H   0  0  0  0  0
   20.1658  -22.5520   -3.7799 H   0  0  0  0  0
   19.1050  -22.9138   -9.5894 H   0  0  0  0  0
   20.9911  -22.5692  -11.0449 H   0  0  0  0  0
   21.4084  -24.8070  -11.5678 H   0  0  0  0  0
   22.7033  -24.1957   -9.1542 H   0  0  0  0  0
   24.3343  -23.3625  -10.6285 H   0  0  0  0  0
   22.7938  -21.1419   -9.5946 H   0  0  0  0  0
   21.9763  -22.7980   -7.2288 H   0  0  0  0  0
   22.8819  -20.7243   -6.4198 H   0  0  0  0  0
   21.1070  -20.6605   -6.2494 H   0  0  0  0  0
   21.9831  -18.7375   -7.1843 H   0  0  0  0  0
   24.6402  -20.5832   -9.6950 H   0  0  0  0  0
   27.0110  -20.9135   -9.7610 H   0  0  0  0  0
   26.9836  -23.0027  -10.7968 H   0  0  0  0  0
   26.5739  -23.3783   -8.0408 H   0  0  0  0  0
   28.9433  -23.3259   -8.0799 H   0  0  0  0  0
   28.1534  -20.9661   -7.1639 H   0  0  0  0  0
   25.4398  -21.5343   -6.1131 H   0  0  0  0  0
   26.3079  -18.6848   -6.2837 H   0  0  0  0  0
   27.4422  -19.6925   -5.3848 H   0  0  0  0  0
   25.7243  -18.8933   -4.0511 H   0  0  0  0  0
   29.1071  -21.3407   -5.4266 H   0  0  0  0  0
   30.4799  -23.1858   -4.4360 H   0  0  0  0  0
   30.6952  -24.4109   -6.4024 H   0  0  0  0  0
   28.1665  -24.9975   -5.2262 H   0  0  0  0  0
   29.5022  -26.5396   -4.0692 H   0  0  0  0  0
   29.1038  -24.3598   -2.4206 H   0  0  0  0  0
   26.5709  -23.3570   -3.7387 H   0  0  0  0  0
   26.2653  -23.4344   -1.3504 H   0  0  0  0  0
   26.5426  -21.7241   -1.7736 H   0  0  0  0  0
   27.8211  -22.4151    0.0300 H   0  0  0  0  0
   28.9440  -26.0856   -1.3972 H   0  0  0  0  0
   28.3108  -28.4128   -1.2785 H   0  0  0  0  0
   28.3827  -28.9583   -3.5948 H   0  0  0  0  0
   25.9316  -27.8328   -3.0863 H   0  0  0  0  0
   25.4292  -30.0378   -2.4847 H   0  0  0  0  0
   25.8273  -28.5323   -0.1082 H   0  0  0  0  0
   25.2816  -25.9463   -1.5562 H   0  0  0  0  0
   23.8495  -26.0247    0.3722 H   0  0  0  0  0
   25.1984  -24.9412    0.7903 H   0  0  0  0  0
   24.7634  -26.4989    2.4413 H   0  0  0  0  0
   24.1875  -29.3510    0.4923 H   0  0  0  0  0
   22.5046  -30.9453   -0.0212 H   0  0  0  0  0
   23.6890  -31.9270   -1.7840 H   0  0  0  0  0
   22.2599  -29.5074   -2.6974 H   0  0  0  0  0
   20.7649  -31.2455   -3.0630 H   0  0  0  0  0
   20.1980  -30.0839   -0.5482 H   0  0  0  0  0
   21.2390  -27.4195   -1.2194 H   0  0  0  0  0
   20.4108  -28.0916    1.6239 H   0  0  0  0  0
   19.1465  -28.1357    0.4171 H   0  0  0  0  0
   19.4645  -25.9990    1.2723 H   0  0  0  0  0
  1  2  1  0  0  0
  1  9  1  0  0  0
  1 73  1  0  0  0
  2  3  1  0  0  0
  2  4  1  0  0  0
  4  5  1  0  0  0
  4  6  1  0  0  0
  6  7  1  0  0  0
  6  8  1  0  0  0
  7 12  1  0  0  0
  8  9  1  0  0  0
  8 10  1  0  0  0
 10 11  1  0  0  0
 12 13  1  0  0  0
 12 20  1  0  0  0
 13 14  1  0  0  0
 13 15  1  0  0  0
 15 16  1  0  0  0
 15 17  1  0  0  0
 17 18  1  0  0  0
 17 19  1  0  0  0
 18 23  1  0  0  0
 19 20  1  0  0  0
 19 21  1  0  0  0
 21 22  1  0  0  0
 23 24  1  0  0  0
 23 31  1  0  0  0
 24 25  1  0  0  0
 24 26  1  0  0  0
 26 27  1  0  0  0
 26 28  1  0  0  0
 28 29  1  0  0  0
 28 30  1  0  0  0
 29 34  1  0  0  0
 30 31  1  0  0  0
 30 32  1  0  0  0
 32 33  1  0  0  0
 34 35  1  0  0  0
 34 42  1  0  0  0
 35 36  1  0  0  0
 35 37  1  0  0  0
 37 38  1  0  0  0
 37 39  1  0  0  0
 39 40  1  0  0  0
 39 41  1  0  0  0
 40 45  1  0  0  0
 41 42  1  0  0  0
 41 43  1  0  0  0
 43 44  1  0  0  0
 45 46  1  0  0  0
 45 53  1  0  0  0
 46 47  1  0  0  0
 46 48  1  0  0  0
 48 49  1  0  0  0
 48 50  1  0  0  0
 50 51  1  0  0  0
 50 52  1  0  0  0
 51 56  1  0  0  0
 52 53  1  0  0  0
 52 54  1  0  0  0
 54 55  1  0  0  0
 56 57  1  0  0  0
 56 64  1  0  0  0
 57 58  1  0  0  0
 57 59  1  0  0  0
 59 60  1  0  0  0
 59 61  1  0  0  0
 61 62  1  0  0  0
 61 63  1  0  0  0
 62 67  1  0  0  0
 63 64  1  0  0  0
 63 65  1  0  0  0
 65 66  1  0  0  0
 67 68  1  0  0  0
 67 75  1  0  0  0
 68 69  1  0  0  0
 68 70  1  0  0  0
 70 71  1  0  0  0
 70 72  1  0  0  0
 72 73  1  0  0  0
 72 74  1  0  0  0
 74 75  1  0  0  0
 74 76  1  0  0  0
 76 77  1  0  0  0
  1 78  1  0  0  0
  2 79  1  0  0  0
  3 80  1  0  0  0
  4 81  1  0  0  0
  5 82  1  0  0  0
  6 83  1  0  0  0
  8 84  1  0  0  0
 10 85  1  0  0  0
 10 86  1  0  0  0
 11 87  1  0  0  0
 12 88  1  0  0  0
 13 89  1  0  0  0
 14 90  1  0  0  0
 15 91  1  0  0  0
 16 92  1  0  0  0
 17 93  1  0  0  0
 19 94  1  0  0  0
 21 95  1  0  0  0
 21 96  1  0  0  0
 22 97  1  0  0  0
 23 98  1  0  0  0
 24 99  1  0  0  0
 25100  1  0  0  0
 26101  1  0  0  0
 27102  1  0  0  0
 28103  1  0  0  0
 30104  1  0  0  0
 32105  1  0  0  0
 32106  1  0  0  0
 33107  1  0  0  0
 34108  1  0  0  0
 35109  1  0  0  0
 36110  1  0  0  0
 37111  1  0  0  0
 38112  1  0  0  0
 39113  1  0  0  0
 41114  1  0  0  0
 43115  1  0  0  0
 43116  1  0  0  0
 44117  1  0  0  0
 45118  1  0  0  0
 46119  1  0  0  0
 47120  1  0  0  0
 48121  1  0  0  0
 49122  1  0  0  0
 50123  1  0  0  0
 52124  1  0  0  0
 54125  1  0  0  0
 54126  1  0  0  0
 55127  1  0  0  0
 56128  1  0  0  0
 57129  1  0  0  0
 58130  1  0  0  0
 59131  1  0  0  0
 60132  1  0  0  0
 61133  1  0  0  0
 63134  1  0  0  0
 65135  1  0  0  0
 65136  1  0  0  0
 66137  1  0  0  0
 67138  1  0  0  0
 68139  1  0  0  0
 69140  1  0  0  0
 70141  1  0  0  0
 71142  1  0  0  0
 72143  1  0  0  0
 74144  1  0  0  0
 76145  1  0  0  0
 76146  1  0  0  0
 77147  1  0  0  0
M  END
$$$$
