### 
### Created by X-TOOL on Mon Sep 10 21:12:57 2018
### 

@<TRIPOS>MOLECULE
3ck8_ligand
  147   154     1     0     0
SMALL
GAST_HUCK


@<TRIPOS>ATOM
      1 C11        18.4400  -29.2010   -2.0370 C.3       1 BCD         0.1884
      2 C21        17.9100  -29.9880   -3.2480 C.3       1 BCD         0.1341
      3 O21        18.7570  -31.1280   -3.4360 O.3       1 BCD        -0.3841
      4 C31        17.9210  -29.1130   -4.5220 C.3       1 BCD         0.1144
      5 O31        17.2250  -29.7720   -5.5720 O.3       1 BCD        -0.3864
      6 C41        17.2870  -27.6970   -4.2940 C.3       1 BCD         0.1184
      7 O41        17.7460  -26.9650   -5.4410 O.3       1 BCD        -0.3401
      8 C51        17.7840  -27.0330   -2.9510 C.3       1 BCD         0.1134
      9 O51        17.7150  -27.9740   -1.8660 O.3       1 BCD        -0.3405
     10 C61        17.0020  -25.7790   -2.5320 C.3       1 BCD         0.0730
     11 O61        17.8170  -24.9940   -1.6800 O.3       1 BCD        -0.3924
     12 C12        16.9390  -25.8810   -5.9040 C.3       1 BCD         0.1884
     13 C22        16.7900  -25.9450   -7.4450 C.3       1 BCD         0.1341
     14 O22        16.3190  -27.2210   -7.8400 O.3       1 BCD        -0.3841
     15 C32        18.1300  -25.6550   -8.1400 C.3       1 BCD         0.1144
     16 O32        17.9020  -25.5750   -9.5470 O.3       1 BCD        -0.3864
     17 C42        18.7330  -24.3200   -7.6360 C.3       1 BCD         0.1184
     18 O42        20.0010  -24.1850   -8.2610 O.3       1 BCD        -0.3401
     19 C52        18.8270  -24.3560   -6.0930 C.3       1 BCD         0.1134
     20 O52        17.5110  -24.6010   -5.5490 O.3       1 BCD        -0.3405
     21 C62        19.2820  -23.0570   -5.4450 C.3       1 BCD         0.0730
     22 O62        19.8730  -23.3630   -4.2020 O.3       1 BCD        -0.3924
     23 C13        20.0920  -23.0700   -9.1540 C.3       1 BCD         0.1884
     24 C23        21.0910  -23.3540  -10.2950 C.3       1 BCD         0.1341
     25 O23        20.7920  -24.6200  -10.8560 O.3       1 BCD        -0.3841
     26 C33        22.5490  -23.3320   -9.8010 C.3       1 BCD         0.1144
     27 O33        23.4230  -23.3760  -10.9300 O.3       1 BCD        -0.3864
     28 C43        22.8520  -22.0450   -8.9870 C.3       1 BCD         0.1184
     29 O43        24.1700  -22.1790   -8.4730 O.3       1 BCD        -0.3401
     30 C53        21.8040  -21.9240   -7.8570 C.3       1 BCD         0.1134
     31 O53        20.4820  -21.8700   -8.4410 O.3       1 BCD        -0.3405
     32 C63        21.9350  -20.6810   -6.9580 C.3       1 BCD         0.0730
     33 O63        21.9010  -19.5080   -7.7510 O.3       1 BCD        -0.3924
     34 C14        25.0810  -21.1530   -8.8770 C.3       1 BCD         0.1884
     35 C24        26.4010  -21.7450   -9.4080 C.3       1 BCD         0.1341
     36 O24        26.1510  -22.6450  -10.4800 O.3       1 BCD        -0.3841
     37 C34        27.1640  -22.4970   -8.2920 C.3       1 BCD         0.1144
     38 O34        28.4680  -22.8590   -8.7710 O.3       1 BCD        -0.3864
     39 C44        27.3260  -21.6560   -6.9980 C.3       1 BCD         0.1184
     40 O44        27.5270  -22.5780   -5.9190 O.3       1 BCD        -0.3401
     41 C54        26.0670  -20.8080   -6.6300 C.3       1 BCD         0.1134
     42 O54        25.3240  -20.2870   -7.7480 O.3       1 BCD        -0.3405
     43 C64        26.4110  -19.6180   -5.7300 C.3       1 BCD         0.0730
     44 O64        25.5260  -19.6330   -4.6300 O.3       1 BCD        -0.3924
     45 C15        28.6420  -22.2550   -5.0580 C.3       1 BCD         0.1884
     46 C25        29.6300  -23.4360   -5.0710 C.3       1 BCD         0.1341
     47 O25        30.0800  -23.6740   -6.4010 O.3       1 BCD        -0.3841
     48 C35        28.9510  -24.7080   -4.5270 C.3       1 BCD         0.1144
     49 O35        29.9230  -25.7460   -4.4080 O.3       1 BCD        -0.3864
     50 C45        28.2920  -24.4600   -3.1410 C.3       1 BCD         0.1184
     51 O45        27.4750  -25.5500   -2.7510 O.3       1 BCD        -0.3401
     52 C55        27.4510  -23.1380   -3.1340 C.3       1 BCD         0.1134
     53 O55        28.2110  -22.0370   -3.6920 O.3       1 BCD        -0.3405
     54 C65        26.9940  -22.7150   -1.7240 C.3       1 BCD         0.0730
     55 O65        28.1120  -22.6790   -0.8460 O.3       1 BCD        -0.3924
     56 C16        27.9170  -26.3460   -1.6530 C.3       1 BCD         0.1884
     57 C26        27.8200  -27.8450   -2.0690 C.3       1 BCD         0.1341
     58 O26        28.4450  -28.0340   -3.3430 O.3       1 BCD        -0.3841
     59 C36        26.3600  -28.3300   -2.2160 C.3       1 BCD         0.1144
     60 O36        26.3380  -29.7420   -2.3940 O.3       1 BCD        -0.3864
     61 C46        25.5140  -27.9640   -0.9840 C.3       1 BCD         0.1184
     62 O46        24.1530  -28.2600   -1.2810 O.3       1 BCD        -0.3401
     63 C56        25.6920  -26.4500   -0.6810 C.3       1 BCD         0.1134
     64 O56        27.0810  -26.1100   -0.4940 O.3       1 BCD        -0.3405
     65 C66        24.9210  -25.9710    0.5650 C.3       1 BCD         0.0730
     66 O66        25.2440  -26.7980    1.6660 O.3       1 BCD        -0.3924
     67 C17        23.4900  -29.0440   -0.2870 C.3       1 BCD         0.1884
     68 C27        22.9440  -30.3740   -0.8390 C.3       1 BCD         0.1341
     69 O27        24.0180  -31.0950   -1.4360 O.3       1 BCD        -0.3841
     70 C37        21.8720  -30.1220   -1.8850 C.3       1 BCD         0.1144
     71 O37        21.4440  -31.3850   -2.3990 O.3       1 BCD        -0.3864
     72 C47        20.6910  -29.3880   -1.2270 C.3       1 BCD         0.1184
     73 O47        19.8320  -28.9230   -2.2670 O.3       1 BCD        -0.3401
     74 C57        21.1470  -28.1460   -0.4120 C.3       1 BCD         0.1134
     75 O57        22.4450  -28.1980    0.2470 O.3       1 BCD        -0.3405
     76 C67        20.1300  -27.7210    0.6380 C.3       1 BCD         0.0730
     77 O67        20.0970  -26.3110    0.6210 O.3       1 BCD        -0.3924
     78 H1         18.3308  -29.8109   -1.1281 H         1 BCD         0.0938
     79 H2         16.8805  -30.3196   -3.0480 H         1 BCD         0.0671
     80 H3         19.6470  -30.8369   -3.5959 H         1 BCD         0.2101
     81 H4         18.9684  -28.9731   -4.8275 H         1 BCD         0.0648
     82 H5         17.2374  -29.2266   -6.3498 H         1 BCD         0.2100
     83 H6         16.1888  -27.7581   -4.2795 H         1 BCD         0.0651
     84 H7         18.8345  -26.7421   -3.0987 H         1 BCD         0.0647
     85 H8         16.0873  -26.0755   -1.9978 H         1 BCD         0.0584
     86 H9         16.7325  -25.1962   -3.4251 H         1 BCD         0.0584
     87 H10        17.3401  -24.2158   -1.4162 H         1 BCD         0.2095
     88 H11        15.9440  -25.9649   -5.4425 H         1 BCD         0.0938
     89 H12        16.0592  -25.1845   -7.7575 H         1 BCD         0.0671
     90 H13        16.9366  -27.8861   -7.5595 H         1 BCD         0.2101
     91 H14        18.8351  -26.4719   -7.9267 H         1 BCD         0.0648
     92 H15        18.7230  -25.3959   -9.9900 H         1 BCD         0.2100
     93 H16        18.0892  -23.4790   -7.9331 H         1 BCD         0.0651
     94 H17        19.5171  -25.1632   -5.8064 H         1 BCD         0.0647
     95 H18        18.4168  -22.3951   -5.2921 H         1 BCD         0.0584
     96 H19        20.0169  -22.5563   -6.0925 H         1 BCD         0.0584
     97 H20        20.6177  -23.9366   -4.3394 H         1 BCD         0.2095
     98 H21        19.0991  -22.9031   -9.5969 H         1 BCD         0.0938
     99 H22        20.9731  -22.5803  -11.0680 H         1 BCD         0.0671
    100 H23        20.8688  -25.2884  -10.1854 H         1 BCD         0.2101
    101 H24        22.7254  -24.2110   -9.1636 H         1 BCD         0.0648
    102 H25        24.3248  -23.3627  -10.6316 H         1 BCD         0.2100
    103 H26        22.7950  -21.1584   -9.6356 H         1 BCD         0.0651
    104 H27        21.8904  -22.8184   -7.2226 H         1 BCD         0.0647
    105 H28        22.8888  -20.7246   -6.4117 H         1 BCD         0.0584
    106 H29        21.1018  -20.6604   -6.2401 H         1 BCD         0.0584
    107 H30        21.0770  -19.4695   -8.2223 H         1 BCD         0.2095
    108 H31        24.6172  -20.5656   -9.6831 H         1 BCD         0.0938
    109 H32        27.0302  -20.9204   -9.7741 H         1 BCD         0.0671
    110 H33        26.9749  -22.9990  -10.7935 H         1 BCD         0.2101
    111 H34        26.6034  -23.4106   -8.0451 H         1 BCD         0.0648
    112 H35        28.9384  -23.3210   -8.0871 H         1 BCD         0.2100
    113 H36        28.1941  -20.9892   -7.1065 H         1 BCD         0.0651
    114 H37        25.3954  -21.4758   -6.0706 H         1 BCD         0.0647
    115 H38        26.2932  -18.6792   -6.2911 H         1 BCD         0.0584
    116 H39        27.4486  -19.7057   -5.3755 H         1 BCD         0.0584
    117 H40        25.7223  -18.9011   -4.0571 H         1 BCD         0.2095
    118 H41        29.1384  -21.3475   -5.4321 H         1 BCD         0.0938
    119 H42        30.4930  -23.1885   -4.4355 H         1 BCD         0.0671
    120 H43        29.3355  -23.8805   -6.9539 H         1 BCD         0.2101
    121 H44        28.1715  -25.0225   -5.2365 H         1 BCD         0.0648
    122 H45        30.2991  -25.9255   -5.2617 H         1 BCD         0.2100
    123 H46        29.0984  -24.3557   -2.4002 H         1 BCD         0.0651
    124 H47        26.5578  -23.3052   -3.7539 H         1 BCD         0.0647
    125 H48        26.2565  -23.4387   -1.3467 H         1 BCD         0.0584
    126 H49        26.5358  -21.7162   -1.7729 H         1 BCD         0.0584
    127 H50        28.7487  -22.0535   -1.1713 H         1 BCD         0.2095
    128 H51        28.9594  -26.0936   -1.4088 H         1 BCD         0.0938
    129 H52        28.3298  -28.4548   -1.3086 H         1 BCD         0.0671
    130 H53        28.0060  -27.4975   -3.9925 H         1 BCD         0.2101
    131 H54        25.9189  -27.8494   -3.1017 H         1 BCD         0.0648
    132 H55        25.4387  -30.0348   -2.4838 H         1 BCD         0.2100
    133 H56        25.8402  -28.5533   -0.1143 H         1 BCD         0.0651
    134 H57        25.3110  -25.8953   -1.5511 H         1 BCD         0.0647
    135 H58        23.8397  -26.0253    0.3705 H         1 BCD         0.0584
    136 H59        25.2010  -24.9318    0.7924 H         1 BCD         0.0584
    137 H60        26.1780  -26.7504    1.8331 H         1 BCD         0.2095
    138 H61        24.2039  -29.2831    0.5150 H         1 BCD         0.0938
    139 H62        22.5155  -30.9627   -0.0145 H         1 BCD         0.0671
    140 H63        23.6924  -31.9183   -1.7804 H         1 BCD         0.2101
    141 H64        22.2798  -29.5073   -2.7010 H         1 BCD         0.0648
    142 H65        20.7720  -31.2469   -3.0561 H         1 BCD         0.2100
    143 H66        20.1518  -30.0826   -0.5661 H         1 BCD         0.0651
    144 H67        21.2118  -27.3313   -1.1482 H         1 BCD         0.0647
    145 H68        20.4368  -28.0813    1.6310 H         1 BCD         0.0584
    146 H69        19.1378  -28.1266    0.3912 H         1 BCD         0.0584
    147 H70        19.4711  -26.0022    1.2655 H         1 BCD         0.2095
@<TRIPOS>BOND
     1    1    2 1  
     2    1    9 1  
     3    1   73 1  
     4    2    3 1  
     5    2    4 1  
     6    4    5 1  
     7    4    6 1  
     8    6    7 1  
     9    6    8 1  
    10    7   12 1  
    11    8    9 1  
    12    8   10 1  
    13   10   11 1  
    14   12   13 1  
    15   12   20 1  
    16   13   14 1  
    17   13   15 1  
    18   15   16 1  
    19   15   17 1  
    20   17   18 1  
    21   17   19 1  
    22   18   23 1  
    23   19   20 1  
    24   19   21 1  
    25   21   22 1  
    26   23   24 1  
    27   23   31 1  
    28   24   25 1  
    29   24   26 1  
    30   26   27 1  
    31   26   28 1  
    32   28   29 1  
    33   28   30 1  
    34   29   34 1  
    35   30   31 1  
    36   30   32 1  
    37   32   33 1  
    38   34   35 1  
    39   34   42 1  
    40   35   36 1  
    41   35   37 1  
    42   37   38 1  
    43   37   39 1  
    44   39   40 1  
    45   39   41 1  
    46   40   45 1  
    47   41   42 1  
    48   41   43 1  
    49   43   44 1  
    50   45   46 1  
    51   45   53 1  
    52   46   47 1  
    53   46   48 1  
    54   48   49 1  
    55   48   50 1  
    56   50   51 1  
    57   50   52 1  
    58   51   56 1  
    59   52   53 1  
    60   52   54 1  
    61   54   55 1  
    62   56   57 1  
    63   56   64 1  
    64   57   58 1  
    65   57   59 1  
    66   59   60 1  
    67   59   61 1  
    68   61   62 1  
    69   61   63 1  
    70   62   67 1  
    71   63   64 1  
    72   63   65 1  
    73   65   66 1  
    74   67   68 1  
    75   67   75 1  
    76   68   69 1  
    77   68   70 1  
    78   70   71 1  
    79   70   72 1  
    80   72   73 1  
    81   72   74 1  
    82   74   75 1  
    83   74   76 1  
    84   76   77 1  
    85    1   78 1  
    86    2   79 1  
    87    3   80 1  
    88    4   81 1  
    89    5   82 1  
    90    6   83 1  
    91    8   84 1  
    92   10   85 1  
    93   10   86 1  
    94   11   87 1  
    95   12   88 1  
    96   13   89 1  
    97   14   90 1  
    98   15   91 1  
    99   16   92 1  
   100   17   93 1  
   101   19   94 1  
   102   21   95 1  
   103   21   96 1  
   104   22   97 1  
   105   23   98 1  
   106   24   99 1  
   107   25  100 1  
   108   26  101 1  
   109   27  102 1  
   110   28  103 1  
   111   30  104 1  
   112   32  105 1  
   113   32  106 1  
   114   33  107 1  
   115   34  108 1  
   116   35  109 1  
   117   36  110 1  
   118   37  111 1  
   119   38  112 1  
   120   39  113 1  
   121   41  114 1  
   122   43  115 1  
   123   43  116 1  
   124   44  117 1  
   125   45  118 1  
   126   46  119 1  
   127   47  120 1  
   128   48  121 1  
   129   49  122 1  
   130   50  123 1  
   131   52  124 1  
   132   54  125 1  
   133   54  126 1  
   134   55  127 1  
   135   56  128 1  
   136   57  129 1  
   137   58  130 1  
   138   59  131 1  
   139   60  132 1  
   140   61  133 1  
   141   63  134 1  
   142   65  135 1  
   143   65  136 1  
   144   66  137 1  
   145   67  138 1  
   146   68  139 1  
   147   69  140 1  
   148   70  141 1  
   149   71  142 1  
   150   72  143 1  
   151   74  144 1  
   152   76  145 1  
   153   76  146 1  
   154   77  147 1  
@<TRIPOS>SUBSTRUCTURE
     1 BCD         1

