3wq6_ligand
  -I-interpret- 

 78 81  0  0  0  0  0  0  0  0999 V2000
   -1.3230   31.5630   18.0160 C   0  0  0  0  0
   -0.3400   30.8640   18.7110 C   0  0  0  0  0
   -0.4520   30.6750   20.0840 C   0  0  0  0  0
   -1.5540   31.1840   20.7640 C   0  0  0  0  0
   -2.5290   31.8900   20.0660 C   0  0  0  0  0
   -2.4160   32.0930   18.6920 C   0  0  0  0  0
   -3.5210   32.8380   17.9200 C   0  0  0  0  0
   -3.4350   34.3080   17.7560 N   0  0  0  0  0
   -2.6030   34.8260   16.7350 C   0  0  0  0  0
   -2.2050   34.1960   15.7570 O   0  0  0  0  0
   -3.3220   35.1430   18.8860 C   0  0  0  0  0
   -3.4260   34.8100   20.0670 O   0  0  0  0  0
   -3.0220   36.5600   18.3810 C   0  0  0  0  0
   -2.3500   36.3260   17.0110 C   0  0  0  0  0
   -0.5560   36.7420   17.0630 S   0  0  0  0  0
    0.1190   35.2900   17.9510 C   0  0  0  0  0
    0.0540   35.3420   19.4890 C   0  0  0  0  0
    0.5630   33.9950   20.0140 C   0  0  0  0  0
    0.3320   33.7200   21.5080 C   0  0  0  0  0
   -0.7150   34.2240   22.1230 N   0  0  0  0  0
    1.1970   32.9280   22.1140 N   0  0  0  0  0
    1.1500   32.5480   23.5140 C   0  0  0  0  0
   -0.2160   32.2660   23.8500 O   0  0  0  0  0
    1.9070   33.6250   24.3380 C   0  0  0  0  0
    3.2920   33.2700   24.4530 O   0  0  0  0  0
    1.3280   33.8220   25.7400 C   0  0  0  0  0
    1.8230   35.0470   26.2880 O   0  0  0  0  0
   -0.1920   33.8490   25.6330 C   0  0  0  0  0
   -0.7880   34.2190   26.8770 O   0  0  0  0  0
   -0.6370   32.4540   25.2150 C   0  0  0  0  0
   -2.1440   32.3740   25.2110 C   0  0  0  0  0
   -2.4870   33.3300   24.2070 O   0  0  0  0  0
   -3.8910   33.4840   24.0620 C   0  0  0  0  0
   -4.3570   32.5700   23.0470 O   0  0  0  0  0
   -5.7520   32.7760   22.7010 C   0  0  0  0  0
   -5.9980   34.2170   22.2320 C   0  0  0  0  0
   -7.3870   34.3900   21.9120 O   0  0  0  0  0
   -5.5510   35.1910   23.3220 C   0  0  0  0  0
   -5.7090   36.5510   22.9110 O   0  0  0  0  0
   -4.0780   34.9290   23.6050 C   0  0  0  0  0
   -3.5830   35.8350   24.5970 O   0  0  0  0  0
   -1.2353   31.6953   16.9376 H   0  0  0  0  0
    0.5212   30.4631   18.1765 H   0  0  0  0  0
    0.3209   30.1299   20.6258 H   0  0  0  0  0
   -1.6531   31.0304   21.8386 H   0  0  0  0  0
   -3.3913   32.2889   20.6003 H   0  0  0  0  0
   -4.4244   32.6784   18.5087 H   0  0  0  0  0
   -3.4629   32.4434   16.9056 H   0  0  0  0  0
   -2.3851   37.1194   19.0663 H   0  0  0  0  0
   -3.9202   37.1728   18.3042 H   0  0  0  0  0
   -2.7515   36.9611   16.2214 H   0  0  0  0  0
    1.1768   35.2403   17.6928 H   0  0  0  0  0
   -0.4910   34.4385   17.6494 H   0  0  0  0  0
   -0.9681   35.5209   19.8227 H   0  0  0  0  0
    0.6681   36.1578   19.8703 H   0  0  0  0  0
    1.6432   33.9993   19.8681 H   0  0  0  0  0
    0.0087   33.2278   19.4734 H   0  0  0  0  0
   -1.3798   34.8014   21.6082 H   0  0  0  0  0
    1.9610   32.5523   21.5523 H   0  0  0  0  0
    1.6760   31.6248   23.7571 H   0  0  0  0  0
    1.7917   34.5650   23.7984 H   0  0  0  0  0
    3.7518   33.9406   24.9634 H   0  0  0  0  0
    1.6262   33.0073   26.3999 H   0  0  0  0  0
    1.4605   35.1721   27.1681 H   0  0  0  0  0
   -0.5085   34.5909   24.8999 H   0  0  0  0  0
   -1.7433   34.2284   26.7826 H   0  0  0  0  0
   -0.2187   31.7140   25.8973 H   0  0  0  0  0
   -2.5911   32.5870   26.1820 H   0  0  0  0  0
   -2.5236   31.3735   25.0034 H   0  0  0  0  0
   -4.4439   33.2760   24.9780 H   0  0  0  0  0
   -6.3620   32.5877   23.5845 H   0  0  0  0  0
   -6.0146   32.0958   21.8908 H   0  0  0  0  0
   -5.4165   34.4214   21.3330 H   0  0  0  0  0
   -7.5369   35.2919   21.6193 H   0  0  0  0  0
   -6.1654   35.0363   24.2089 H   0  0  0  0  0
   -5.4196   37.1332   23.6173 H   0  0  0  0  0
   -3.5105   35.0898   22.6884 H   0  0  0  0  0
   -3.7077   36.7377   24.2950 H   0  0  0  0  0
  1  2  4  0  0  0
  1  6  4  0  0  0
  2  3  4  0  0  0
  3  4  4  0  0  0
  4  5  4  0  0  0
  5  6  4  0  0  0
  6  7  1  0  0  0
  7  8  1  0  0  0
  8  9  1  0  0  0
  8 11  1  0  0  0
  9 10  2  0  0  0
  9 14  1  0  0  0
 11 12  2  0  0  0
 11 13  1  0  0  0
 13 14  1  0  0  0
 14 15  1  0  0  0
 15 16  1  0  0  0
 16 17  1  0  0  0
 17 18  1  0  0  0
 18 19  1  0  0  0
 19 20  2  0  0  0
 19 21  1  0  0  0
 21 22  1  0  0  0
 22 23  1  0  0  0
 22 24  1  0  0  0
 23 30  1  0  0  0
 24 25  1  0  0  0
 24 26  1  0  0  0
 26 27  1  0  0  0
 26 28  1  0  0  0
 28 29  1  0  0  0
 28 30  1  0  0  0
 30 31  1  0  0  0
 31 32  1  0  0  0
 32 33  1  0  0  0
 33 34  1  0  0  0
 33 40  1  0  0  0
 34 35  1  0  0  0
 35 36  1  0  0  0
 36 37  1  0  0  0
 36 38  1  0  0  0
 38 39  1  0  0  0
 38 40  1  0  0  0
 40 41  1  0  0  0
  1 42  1  0  0  0
  2 43  1  0  0  0
  3 44  1  0  0  0
  4 45  1  0  0  0
  5 46  1  0  0  0
  7 47  1  0  0  0
  7 48  1  0  0  0
 13 49  1  0  0  0
 13 50  1  0  0  0
 14 51  1  0  0  0
 16 52  1  0  0  0
 16 53  1  0  0  0
 17 54  1  0  0  0
 17 55  1  0  0  0
 18 56  1  0  0  0
 18 57  1  0  0  0
 20 58  1  0  0  0
 21 59  1  0  0  0
 22 60  1  0  0  0
 24 61  1  0  0  0
 25 62  1  0  0  0
 26 63  1  0  0  0
 27 64  1  0  0  0
 28 65  1  0  0  0
 29 66  1  0  0  0
 30 67  1  0  0  0
 31 68  1  0  0  0
 31 69  1  0  0  0
 33 70  1  0  0  0
 35 71  1  0  0  0
 35 72  1  0  0  0
 36 73  1  0  0  0
 37 74  1  0  0  0
 38 75  1  0  0  0
 39 76  1  0  0  0
 40 77  1  0  0  0
 41 78  1  0  0  0
M  END
$$$$
