4prg_ligand
  -I-interpret- 

 90 93  0  0  0  0  0  0  0  0999 V2000
   17.0450   61.3720    9.5360 S   0  0  0  0  0
   15.7050   63.5340    9.0970 C   0  0  0  0  0
   15.4470   62.0290    9.3860 C   0  0  0  0  0
   14.7380   64.2190    8.6530 O   0  0  0  0  0
   14.6450   61.4410   10.6070 C   0  0  0  0  0
   15.1760   61.4050   12.1560 C   0  0  0  0  0
   15.9240   62.3960   12.4020 O   0  0  0  0  0
   18.0200   62.8370    9.5680 C   0  0  0  0  0
   19.3140   62.5280    8.6420 C   0  0  0  0  0
   20.7210   63.2050    8.9350 C   0  0  0  0  0
   21.8150   62.5170    9.9040 C   0  0  0  0  0
   23.0330   63.1800   10.7060 C   0  0  0  0  0
   23.8430   64.4340   10.1730 C   0  0  0  0  0
   25.2850   64.9060   10.6660 C   0  0  0  0  0
   25.7720   66.3580   10.3200 C   0  0  0  0  0
   17.0270   63.9800    9.2720 N   0  0  0  0  0
   17.3740   65.5280    9.4060 C   0  0  0  0  0
   17.9660   66.3890    8.1850 C   0  0  0  0  0
   16.9980   67.3490    7.3670 C   0  0  0  0  0
   17.3930   68.2540    6.0950 C   0  0  0  0  0
   18.2610   69.6140    6.1620 C   0  0  0  0  0
   17.7350   70.8900    6.7010 C   0  0  0  0  0
   19.5480   69.6760    5.4740 C   0  0  0  0  0
   18.4360   72.1490    6.5090 C   0  0  0  0  0
   20.2350   70.9100    5.2810 C   0  0  0  0  0
   19.6840   72.1790    5.7570 C   0  0  0  0  0
   20.3760   73.4420    5.4510 C   0  0  0  0  0
   21.0540   73.5760    4.3740 O   0  0  0  0  0
   20.3420   74.3690    6.2940 O   0  0  0  0  0
   14.9190   60.4080   13.2010 N   0  0  0  0  0
   15.9560   60.2590   14.4260 C   0  0  0  0  0
   17.5710   60.3240   14.4840 C   0  0  0  0  0
   18.3010   60.3860   15.7750 C   0  0  0  0  0
   18.3720   60.1500   13.2690 C   0  0  0  0  0
   19.7280   60.1480   15.8290 C   0  0  0  0  0
   19.7970   60.0440   13.3440 C   0  0  0  0  0
   20.4600   59.9520   14.6060 C   0  0  0  0  0
   13.7400   59.3530   13.1910 C   0  0  0  0  0
   12.1820   59.7020   13.2590 C   0  0  0  0  0
   11.4090   59.8170   11.9760 C   0  0  0  0  0
   11.4280   59.3810   14.4740 C   0  0  0  0  0
   10.0020   59.4530   11.8890 C   0  0  0  0  0
   10.0210   59.0370   14.3800 C   0  0  0  0  0
    9.3160   59.0480   13.0840 C   0  0  0  0  0
   14.7585   61.7715    8.5811 H   0  0  0  0  0
   14.5887   60.3814   10.3575 H   0  0  0  0  0
   13.7927   62.1175   10.6708 H   0  0  0  0  0
   18.4922   63.1706   10.4920 H   0  0  0  0  0
   19.0346   62.9188    7.6636 H   0  0  0  0  0
   19.4982   61.4649    8.7967 H   0  0  0  0  0
   20.4593   64.1258    9.4563 H   0  0  0  0  0
   21.2099   63.2130    7.9608 H   0  0  0  0  0
   22.3618   61.9092    9.1831 H   0  0  0  0  0
   21.1777   62.2094   10.7331 H   0  0  0  0  0
   23.7822   62.3883   10.7152 H   0  0  0  0  0
   22.5556   63.5605   11.6090 H   0  0  0  0  0
   23.2139   65.2612   10.5017 H   0  0  0  0  0
   24.0439   64.1466    9.1409 H   0  0  0  0  0
   25.9858   64.2461   10.1547 H   0  0  0  0  0
   25.2313   64.8804   11.7544 H   0  0  0  0  0
   25.7989   66.4825    9.2375 H   0  0  0  0  0
   25.0838   67.0836   10.7535 H   0  0  0  0  0
   26.7702   66.5123   10.7297 H   0  0  0  0  0
   18.1802   65.5432   10.1395 H   0  0  0  0  0
   16.4039   65.9887    9.5924 H   0  0  0  0  0
   18.3009   65.6480    7.4591 H   0  0  0  0  0
   18.6962   67.0558    8.6435 H   0  0  0  0  0
   16.7603   68.1084    8.1119 H   0  0  0  0  0
   16.3046   66.6352    6.9223 H   0  0  0  0  0
   16.4221   68.6138    5.7545 H   0  0  0  0  0
   18.0454   67.5888    5.5293 H   0  0  0  0  0
   16.7972   70.8846    7.2565 H   0  0  0  0  0
   19.9945   68.7552    5.0986 H   0  0  0  0  0
   18.0286   73.0695    6.9270 H   0  0  0  0  0
   21.1954   70.9081    4.7656 H   0  0  0  0  0
   20.9722   72.7794    3.8445 H   0  0  0  0  0
   15.8076   59.2055   14.6631 H   0  0  0  0  0
   15.7173   61.1679   14.9782 H   0  0  0  0  0
   17.7570   60.6131   16.6918 H   0  0  0  0  0
   17.8774   60.1009   12.2989 H   0  0  0  0  0
   20.2438   60.1175   16.7887 H   0  0  0  0  0
   20.3845   60.0333   12.4259 H   0  0  0  0  0
   21.5269   59.7320   14.6426 H   0  0  0  0  0
   13.8973   58.8255   14.1318 H   0  0  0  0  0
   13.8331   58.9156   12.1969 H   0  0  0  0  0
   11.9165   60.1838   11.0838 H   0  0  0  0  0
   11.9223   59.4005   15.4453 H   0  0  0  0  0
    9.4784   59.4873   10.9336 H   0  0  0  0  0
    9.4752   58.7655   15.2836 H   0  0  0  0  0
    8.2695   58.7473   13.0332 H   0  0  0  0  0
  1  3  1  0  0  0
  1  8  1  0  0  0
  3  2  1  0  0  0
  2  4  2  0  0  0
  2 16  1  0  0  0
  3  5  1  0  0  0
  5  6  1  0  0  0
  6  7  2  0  0  0
  6 30  1  0  0  0
  8  9  1  0  0  0
  8 16  1  0  0  0
  9 10  1  0  0  0
 10 11  1  0  0  0
 11 12  1  0  0  0
 12 13  1  0  0  0
 13 14  1  0  0  0
 14 15  1  0  0  0
 16 17  1  0  0  0
 17 18  1  0  0  0
 18 19  1  0  0  0
 19 20  1  0  0  0
 20 21  1  0  0  0
 21 22  4  0  0  0
 21 23  4  0  0  0
 22 24  4  0  0  0
 23 25  4  0  0  0
 24 26  4  0  0  0
 25 26  4  0  0  0
 26 27  1  0  0  0
 27 28  1  0  0  0
 27 29  2  0  0  0
 30 31  1  0  0  0
 30 38  1  0  0  0
 31 32  1  0  0  0
 32 33  4  0  0  0
 32 34  4  0  0  0
 33 35  4  0  0  0
 34 36  4  0  0  0
 35 37  4  0  0  0
 36 37  4  0  0  0
 38 39  1  0  0  0
 39 40  4  0  0  0
 39 41  4  0  0  0
 40 42  4  0  0  0
 41 43  4  0  0  0
 42 44  4  0  0  0
 43 44  4  0  0  0
  3 45  1  0  0  0
  5 46  1  0  0  0
  5 47  1  0  0  0
  8 48  1  0  0  0
  9 49  1  0  0  0
  9 50  1  0  0  0
 10 51  1  0  0  0
 10 52  1  0  0  0
 11 53  1  0  0  0
 11 54  1  0  0  0
 12 55  1  0  0  0
 12 56  1  0  0  0
 13 57  1  0  0  0
 13 58  1  0  0  0
 14 59  1  0  0  0
 14 60  1  0  0  0
 15 61  1  0  0  0
 15 62  1  0  0  0
 15 63  1  0  0  0
 17 64  1  0  0  0
 17 65  1  0  0  0
 18 66  1  0  0  0
 18 67  1  0  0  0
 19 68  1  0  0  0
 19 69  1  0  0  0
 20 70  1  0  0  0
 20 71  1  0  0  0
 22 72  1  0  0  0
 23 73  1  0  0  0
 24 74  1  0  0  0
 25 75  1  0  0  0
 28 76  1  0  0  0
 31 77  1  0  0  0
 31 78  1  0  0  0
 33 79  1  0  0  0
 34 80  1  0  0  0
 35 81  1  0  0  0
 36 82  1  0  0  0
 37 83  1  0  0  0
 38 84  1  0  0  0
 38 85  1  0  0  0
 40 86  1  0  0  0
 41 87  1  0  0  0
 42 88  1  0  0  0
 43 89  1  0  0  0
 44 90  1  0  0  0
M  END
$$$$
