5xms_ligand
  -I-interpret- 

 52 55  0  0  0  0  0  0  0  0999 V2000
   30.2100   41.0490   20.4700 C   0  0  0  0  0
   30.5000   42.2780   19.9870 C   0  0  0  0  0
   30.3310   43.5620   20.7920 C   0  0  0  0  0
   29.9040   43.2550   22.1980 C   0  0  0  0  0
   29.6270   41.9050   22.6780 C   0  0  0  0  0
   29.2740   41.8360   23.9590 N   0  0  0  0  0
   29.7590   45.5360   23.6670 C   0  0  0  0  0
   29.2010   44.3370   20.1000 C   0  0  0  0  0
   28.9950   45.7640   20.6360 C   0  0  0  0  0
   31.6480   44.3170   20.8020 C   0  0  0  0  0
   32.0120   45.1350   19.7150 C   0  0  0  0  0
   33.2140   45.8300   19.6780 C   0  0  0  0  0
   34.0800   45.7290   20.7460 C   0  0  0  0  0
   33.7560   44.9480   21.8390 C   0  0  0  0  0
   32.5550   44.2370   21.8690 C   0  0  0  0  0
   33.0160   45.2450   24.5330 F   0  0  0  0  0
   34.3260   45.0500   24.2650 C   0  0  0  0  0
   35.2430   44.9910   25.3020 C   0  0  0  0  0
   36.5850   44.7870   25.0290 C   0  0  0  0  0
   37.0020   44.6400   23.7130 C   0  0  0  0  0
   36.0830   44.6740   22.6700 C   0  0  0  0  0
   34.7410   44.8840   22.9540 C   0  0  0  0  0
   33.5950   46.7110   18.5060 C   0  0  0  0  0
   34.5600   46.1550   17.8420 F   0  0  0  0  0
   34.0840   47.8650   18.9530 F   0  0  0  0  0
   32.6080   46.8650   17.6400 F   0  0  0  0  0
   27.8510   43.5880   20.1010 C   0  0  0  0  0
   30.8860   42.4540   18.8080 C   0  0  0  0  0
   31.2490   42.6260   17.7040 N   0  0  0  0  0
   30.3460   39.9470   19.7470 N   0  0  0  0  0
   29.6360   44.0540   23.4250 C   0  0  0  0  0
   29.2760   43.1750   24.3750 N   0  0  0  0  0
   29.7470   40.8520   21.8240 O   0  0  0  0  0
   30.7901   45.8462   23.4976 H   0  0  0  0  0
   29.1004   46.0705   22.9825 H   0  0  0  0  0
   29.4752   45.7597   24.6953 H   0  0  0  0  0
   29.5512   44.4172   19.0709 H   0  0  0  0  0
   28.2854   46.2913   19.9984 H   0  0  0  0  0
   28.6057   45.7161   21.6530 H   0  0  0  0  0
   29.9484   46.2923   20.6350 H   0  0  0  0  0
   31.3261   45.2260   18.8728 H   0  0  0  0  0
   35.0267   46.2689   20.7281 H   0  0  0  0  0
   32.3195   43.6128   22.7310 H   0  0  0  0  0
   34.9079   45.1052   26.3329 H   0  0  0  0  0
   37.3095   44.7421   25.8422 H   0  0  0  0  0
   38.0603   44.4965   23.4952 H   0  0  0  0  0
   36.4132   44.5372   21.6403 H   0  0  0  0  0
   27.4630   43.5425   21.1186 H   0  0  0  0  0
   27.1426   44.1177   19.4640 H   0  0  0  0  0
   27.9976   42.5769   19.7211 H   0  0  0  0  0
   30.6813   40.0060   18.7855 H   0  0  0  0  0
   30.1153   39.0397   20.1519 H   0  0  0  0  0
  2  1  2  0  0  0
  1 30  1  0  0  0
  1 33  1  0  0  0
  3  2  1  0  0  0
  2 28  1  0  0  0
  3  4  1  0  0  0
  3  8  1  0  0  0
 10  3  1  0  0  0
  4  5  4  0  0  0
  4 31  4  0  0  0
  5  6  4  0  0  0
  5 33  1  0  0  0
  6 32  4  0  0  0
 31  7  1  0  0  0
  8  9  1  0  0  0
  8 27  1  0  0  0
 10 11  4  0  0  0
 15 10  4  0  0  0
 12 11  4  0  0  0
 13 12  4  0  0  0
 12 23  1  0  0  0
 14 13  4  0  0  0
 14 15  4  0  0  0
 22 14  1  0  0  0
 17 16  1  0  0  0
 17 18  4  0  0  0
 17 22  4  0  0  0
 18 19  4  0  0  0
 19 20  4  0  0  0
 20 21  4  0  0  0
 21 22  4  0  0  0
 23 24  1  0  0  0
 23 25  1  0  0  0
 23 26  1  0  0  0
 28 29  3  0  0  0
 31 32  4  0  0  0
  7 34  1  0  0  0
  7 35  1  0  0  0
  7 36  1  0  0  0
  8 37  1  0  0  0
  9 38  1  0  0  0
  9 39  1  0  0  0
  9 40  1  0  0  0
 11 41  1  0  0  0
 13 42  1  0  0  0
 15 43  1  0  0  0
 18 44  1  0  0  0
 19 45  1  0  0  0
 20 46  1  0  0  0
 21 47  1  0  0  0
 27 48  1  0  0  0
 27 49  1  0  0  0
 27 50  1  0  0  0
 30 51  1  0  0  0
 30 52  1  0  0  0
M  END
$$$$
