6pi5_ligand
  -I-interpret- 

 14 15  0  0  0  0  0  0  0  0999 V2000
  -10.7120    2.2990   -2.8950 N   0  0  0  0  0
  -10.0530    3.1140   -2.0410 C   0  0  0  0  0
  -10.4960    4.3620   -2.0650 N   0  0  0  0  0
  -11.5550    4.3350   -2.9360 C   0  0  0  0  0
  -12.4560    5.3240   -3.3020 C   0  0  0  0  0
  -12.4460    6.4920   -2.9240 O   0  0  0  0  0
  -13.4860    4.8530   -4.1480 N   0  0  0  0  0
  -13.5550    3.5120   -4.5580 C   0  0  0  0  0
  -14.5160    3.1040   -5.3970 N   0  0  0  0  0
  -12.6750    2.6140   -4.2480 N   0  0  0  0  0
  -11.7190    3.0150   -3.4020 C   0  0  0  0  0
   -9.2396    2.7781   -1.3979 H   0  0  0  0  0
  -15.2064    3.7698   -5.7441 H   0  0  0  0  0
  -12.7083    1.6660   -4.6230 H   0  0  0  0  0
  1  2  4  0  0  0
  1 11  4  0  0  0
  2  3  4  0  0  0
  3  4  4  0  0  0
  4  5  1  0  0  0
  4 11  4  0  0  0
  5  6  2  0  0  0
  5  7  1  0  0  0
  7  8  4  0  0  0
  8  9  2  0  0  0
  8 10  1  0  0  0
 10 11  1  0  0  0
  2 12  1  0  0  0
  9 13  1  0  0  0
 10 14  1  0  0  0
M  END
$$$$
