2zhd_ligand
  -I-interpret- 

 63 65  0  0  0  0  0  0  0  0999 V2000
   17.4230   -9.7030   11.7420 C   0  0  0  0  0
   17.8010   -8.8700   10.9340 O   0  0  0  0  0
   17.7890  -11.1410   11.5990 C   0  0  0  0  0
   17.2390  -11.8500   10.4290 N   0  3  0  0  0
   16.9590  -13.2740   10.5860 C   0  0  0  0  0
   15.9750  -13.7450   10.3360 C   0  0  0  0  0
   15.9890  -13.9030    8.8040 C   0  0  0  0  0
   16.3890  -15.2750    8.1630 C   0  0  0  0  0
   17.8860  -15.7070    8.2040 C   0  0  0  0  0
   18.6580  -14.5710    9.0040 C   0  0  0  0  0
   18.1340  -14.3400   10.5230 C   0  0  0  0  0
   16.6870   -9.2090   12.7120 N   0  0  0  0  0
   15.8240   -8.3090   12.5460 C   0  0  0  0  0
   16.3210   -6.9350   12.4730 C   0  0  0  0  0
   17.3250   -6.6080   13.0840 O   0  0  0  0  0
   14.8310   -8.3620   13.7160 C   0  0  0  0  0
   15.2750   -9.4780   14.6200 C   0  0  0  0  0
   16.6480   -9.8150   14.0550 C   0  0  0  0  0
   15.7680   -5.9600   11.8220 N   0  0  0  0  0
   16.2460   -4.6070   11.8240 C   0  0  0  0  0
   17.0600   -4.3850   10.5740 C   0  0  0  0  0
   18.2340   -4.9360   10.1920 C   0  0  0  0  0
   18.8100   -4.5670    8.9630 C   0  0  0  0  0
   18.3060   -3.6580    8.0300 C   0  0  0  0  0
   19.0880   -3.3960    6.7500 C   0  0  0  0  0
   18.4950   -2.7710    5.7490 N   0  0  0  0  0
   20.3510   -3.8110    6.6800 N   0  0  0  0  0
   17.1150   -3.0970    8.4150 C   0  0  0  0  0
   16.5270   -3.4600    9.6500 C   0  0  0  0  0
   17.3796  -11.6440   12.4751 H   0  0  0  0  0
   18.8726  -11.1654   11.4833 H   0  0  0  0  0
   17.9536  -11.7857    9.7040 H   0  0  0  0  0
   16.3396  -11.4098   10.2349 H   0  0  0  0  0
   16.8126  -12.9496   11.6163 H   0  0  0  0  0
   15.1370  -13.1345   10.6723 H   0  0  0  0  0
   15.8448  -14.7024   10.8405 H   0  0  0  0  0
   16.7580  -13.2089    8.4651 H   0  0  0  0  0
   14.9515  -13.7541    8.5048 H   0  0  0  0  0
   16.1502  -15.1751    7.1042 H   0  0  0  0  0
   15.8592  -16.0275    8.7471 H   0  0  0  0  0
   18.2887  -15.8196    7.1974 H   0  0  0  0  0
   18.0008  -16.6755    8.6907 H   0  0  0  0  0
   18.4964  -13.6369    8.4660 H   0  0  0  0  0
   19.7008  -14.8812    9.0707 H   0  0  0  0  0
   17.7561  -15.2891   10.9030 H   0  0  0  0  0
   18.9667  -13.9676   11.1197 H   0  0  0  0  0
   15.3865   -8.5274   11.5718 H   0  0  0  0  0
   13.8181   -8.5389   13.3542 H   0  0  0  0  0
   14.8170   -7.4135   14.2529 H   0  0  0  0  0
   14.5907  -10.3264   14.6269 H   0  0  0  0  0
   15.2983   -9.1975   15.6730 H   0  0  0  0  0
   17.4449   -9.4268   14.6893 H   0  0  0  0  0
   16.8053  -10.8926   14.0093 H   0  0  0  0  0
   14.9358   -6.1689   11.2704 H   0  0  0  0  0
   16.8627   -4.4316   12.7055 H   0  0  0  0  0
   15.4041   -3.9151   11.8475 H   0  0  0  0  0
   18.7320   -5.6630   10.8336 H   0  0  0  0  0
   19.7567   -5.0444    8.7101 H   0  0  0  0  0
   17.5245   -2.4701    5.8389 H   0  0  0  0  0
   20.8947   -3.6494    5.8322 H   0  0  0  0  0
   20.7750   -4.2905    7.4741 H   0  0  0  0  0
   16.6210   -2.3710    7.7692 H   0  0  0  0  0
   15.5813   -2.9846    9.9103 H   0  0  0  0  0
  1  2  2  0  0  0
  1  3  1  0  0  0
  1 12  1  0  0  0
  3  4  1  0  0  0
  4  5  1  0  0  0
  5  6  1  0  0  0
  5 11  1  0  0  0
  6  7  1  0  0  0
  7  8  1  0  0  0
  8  9  1  0  0  0
  9 10  1  0  0  0
 10 11  1  0  0  0
 12 13  1  0  0  0
 12 18  1  0  0  0
 13 14  1  0  0  0
 13 16  1  0  0  0
 14 15  2  0  0  0
 14 19  1  0  0  0
 16 17  1  0  0  0
 17 18  1  0  0  0
 19 20  1  0  0  0
 20 21  1  0  0  0
 21 22  4  0  0  0
 21 29  4  0  0  0
 22 23  4  0  0  0
 23 24  4  0  0  0
 24 25  1  0  0  0
 24 28  4  0  0  0
 25 26  2  0  0  0
 25 27  1  0  0  0
 28 29  4  0  0  0
  3 30  1  0  0  0
  3 31  1  0  0  0
  4 32  1  0  0  0
  4 33  1  0  0  0
  5 34  1  0  0  0
  6 35  1  0  0  0
  6 36  1  0  0  0
  7 37  1  0  0  0
  7 38  1  0  0  0
  8 39  1  0  0  0
  8 40  1  0  0  0
  9 41  1  0  0  0
  9 42  1  0  0  0
 10 43  1  0  0  0
 10 44  1  0  0  0
 11 45  1  0  0  0
 11 46  1  0  0  0
 13 47  1  0  0  0
 16 48  1  0  0  0
 16 49  1  0  0  0
 17 50  1  0  0  0
 17 51  1  0  0  0
 18 52  1  0  0  0
 18 53  1  0  0  0
 19 54  1  0  0  0
 20 55  1  0  0  0
 20 56  1  0  0  0
 22 57  1  0  0  0
 23 58  1  0  0  0
 26 59  1  0  0  0
 27 60  1  0  0  0
 27 61  1  0  0  0
 28 62  1  0  0  0
 29 63  1  0  0  0
M  END
$$$$
