4bah_ligand
  -I-interpret- 

 63 65  0  0  0  0  0  0  0  0999 V2000
   18.8170  -14.4230   24.3390 C   0  0  0  0  0
   19.0530  -15.7530   25.0720 C   0  0  0  0  0
   19.5190  -15.4480   26.5040 C   0  0  0  0  0
   20.8090  -14.6100   26.5010 C   0  0  0  0  0
   20.6120  -13.2860   25.7470 C   0  0  0  0  0
   20.1140  -13.5790   24.3180 C   0  0  0  0  0
   17.0340  -15.4950   22.9870 N   0  3  0  0  0
   18.2790  -14.6860   22.9180 C   0  0  0  0  0
   17.9420  -13.3730   22.2630 C   0  0  0  0  0
   16.8930  -12.8090   22.5600 O   0  0  0  0  0
   18.7350  -12.7990   21.3370 N   0  0  0  0  0
   18.5020  -11.6230   20.4940 C   0  0  0  0  0
   17.1070  -11.7900   19.9020 C   0  0  0  0  0
   16.7900  -12.8720   19.4230 O   0  0  0  0  0
   16.1760  -10.8150   20.0040 N   0  0  0  0  0
   14.8250  -11.0780   19.4730 C   0  0  0  0  0
   13.8440  -11.0140   20.6130 C   0  0  0  0  0
   13.4640  -12.1670   21.2840 C   0  0  0  0  0
   12.5810  -12.0810   22.3580 C   0  0  0  0  0
   12.0990  -10.8210   22.7640 C   0  0  0  0  0
   12.4940   -9.6610   22.0740 C   0  0  0  0  0
   13.3900   -9.7690   21.0310 C   0  0  0  0  0
   11.1190  -10.7320   23.8780 C   0  0  0  0  0
   10.8890   -9.5960   24.4700 N   0  0  0  0  0
   10.3990  -11.8540   24.2650 N   0  0  0  0  0
   19.6700  -12.0180   19.5700 C   0  0  0  0  0
   19.9900  -13.0980   20.6110 C   0  0  0  0  0
   16.3970  -15.8260   21.6860 C   0  0  0  0  0
   14.9890  -16.3550   21.8810 C   0  0  0  0  0
   14.5300  -16.5920   22.9810 O   0  0  0  0  0
   14.2300  -16.5970   20.8100 O   0  0  0  0  0
   18.0631  -13.8476   24.8763 H   0  0  0  0  0
   19.8133  -16.3343   24.5503 H   0  0  0  0  0
   18.1295  -16.3314   25.0977 H   0  0  0  0  0
   19.7170  -16.3906   27.0142 H   0  0  0  0  0
   18.7375  -14.8828   27.0118 H   0  0  0  0  0
   21.5925  -15.1804   26.0021 H   0  0  0  0  0
   21.0794  -14.3851   27.5327 H   0  0  0  0  0
   21.5600  -12.7502   25.6991 H   0  0  0  0  0
   19.8764  -12.6753   26.2705 H   0  0  0  0  0
   19.9044  -12.6315   23.8216 H   0  0  0  0  0
   20.8850  -14.1393   23.7890 H   0  0  0  0  0
   16.3563  -14.9332   23.5022 H   0  0  0  0  0
   17.2946  -16.3848   23.4122 H   0  0  0  0  0
   19.0406  -15.2187   22.3485 H   0  0  0  0  0
   18.5002  -10.5953   20.8571 H   0  0  0  0  0
   16.4021   -9.9197   20.4374 H   0  0  0  0  0
   14.7927  -12.0636   19.0087 H   0  0  0  0  0
   14.5695  -10.3330   18.7195 H   0  0  0  0  0
   13.8545  -13.1358   20.9724 H   0  0  0  0  0
   12.2648  -12.9834   22.8812 H   0  0  0  0  0
   12.0964   -8.6873   22.3603 H   0  0  0  0  0
   13.7455   -8.8688   20.5296 H   0  0  0  0  0
   11.3833   -8.7556   24.1705 H   0  0  0  0  0
    9.7003  -11.7815   25.0045 H   0  0  0  0  0
   10.5687  -12.7509   23.8098 H   0  0  0  0  0
   20.4141  -11.2970   19.2314 H   0  0  0  0  0
   19.5248  -12.2509   18.5151 H   0  0  0  0  0
   20.1913  -14.1178   20.2830 H   0  0  0  0  0
   20.9401  -13.0659   21.1442 H   0  0  0  0  0
   16.9919  -16.5955   21.1941 H   0  0  0  0  0
   16.3467  -14.9191   21.0834 H   0  0  0  0  0
   14.7164  -16.3651   20.0155 H   0  0  0  0  0
  1  2  1  0  0  0
  1  6  1  0  0  0
  1  8  1  0  0  0
  2  3  1  0  0  0
  3  4  1  0  0  0
  4  5  1  0  0  0
  5  6  1  0  0  0
  8  7  1  0  0  0
  7 28  1  0  0  0
  8  9  1  0  0  0
  9 10  2  0  0  0
  9 11  1  0  0  0
 11 12  1  0  0  0
 11 27  1  0  0  0
 12 13  1  0  0  0
 12 26  1  0  0  0
 13 14  2  0  0  0
 13 15  1  0  0  0
 15 16  1  0  0  0
 16 17  1  0  0  0
 17 18  4  0  0  0
 17 22  4  0  0  0
 18 19  4  0  0  0
 19 20  4  0  0  0
 20 21  4  0  0  0
 20 23  1  0  0  0
 21 22  4  0  0  0
 23 24  2  0  0  0
 23 25  1  0  0  0
 26 27  1  0  0  0
 28 29  1  0  0  0
 29 30  2  0  0  0
 29 31  1  0  0  0
  1 32  1  0  0  0
  2 33  1  0  0  0
  2 34  1  0  0  0
  3 35  1  0  0  0
  3 36  1  0  0  0
  4 37  1  0  0  0
  4 38  1  0  0  0
  5 39  1  0  0  0
  5 40  1  0  0  0
  6 41  1  0  0  0
  6 42  1  0  0  0
  7 43  1  0  0  0
  7 44  1  0  0  0
  8 45  1  0  0  0
 12 46  1  0  0  0
 15 47  1  0  0  0
 16 48  1  0  0  0
 16 49  1  0  0  0
 18 50  1  0  0  0
 19 51  1  0  0  0
 21 52  1  0  0  0
 22 53  1  0  0  0
 24 54  1  0  0  0
 25 55  1  0  0  0
 25 56  1  0  0  0
 26 57  1  0  0  0
 26 58  1  0  0  0
 27 59  1  0  0  0
 27 60  1  0  0  0
 28 61  1  0  0  0
 28 62  1  0  0  0
 31 63  1  0  0  0
M  END
$$$$
