4xm8_ligand
  -I-interpret- 

 53 53  0  0  0  0  0  0  0  0999 V2000
   11.0890   19.1830   27.4260 C   0  0  0  0  0
   11.9960   19.2410   28.6280 C   0  0  0  0  0
   13.8480   20.2620   29.7040 O   0  0  0  0  0
    9.6840   19.5490   27.6710 N   0  0  0  0  0
    9.0700   18.9590   28.8660 C   0  0  0  0  0
    8.3190   20.0310   29.6580 C   0  0  0  0  0
    9.2740   21.0090   30.3280 C   0  0  0  0  0
    7.3720   19.4220   30.6870 C   0  0  0  0  0
    8.7690   21.9670   27.0900 C   0  0  0  0  0
    7.4920   22.5120   27.1490 C   0  0  0  0  0
    7.3120   23.8460   27.4880 C   0  0  0  0  0
    9.8770   22.7600   27.3640 C   0  0  0  0  0
    5.9110   24.4130   27.5430 C   0  0  0  0  0
    4.4800   26.0720   26.6770 C   0  0  0  0  0
   12.5540   17.3520   26.5240 C   0  0  0  0  0
   11.9210   18.2160   29.6780 O   0  0  0  0  0
   12.9200   20.2400   28.7170 N   0  0  0  0  0
    8.9170   20.4320   26.6850 S   0  0  0  0  0
    7.5970   19.8970   26.5110 O   0  0  0  0  0
    9.5890   20.4010   25.4180 O   0  0  0  0  0
    8.4190   24.6410   27.7600 C   0  0  0  0  0
    9.7000   24.0990   27.7010 C   0  0  0  0  0
    5.8360   25.6820   26.8990 O   0  0  0  0  0
   11.1360   17.7260   26.9480 C   0  0  0  0  0
   10.1450   17.3530   25.8470 C   0  0  0  0  0
   11.4453   19.9170   26.7033 H   0  0  0  0  0
   14.4054   21.0367   29.6004 H   0  0  0  0  0
    9.8513   18.5324   29.4950 H   0  0  0  0  0
    8.3676   18.1835   28.5604 H   0  0  0  0  0
    7.7178   20.5840   28.9363 H   0  0  0  0  0
    8.7019   21.8074   30.8007 H   0  0  0  0  0
    9.8594   20.4839   31.0827 H   0  0  0  0  0
    9.9420   21.4336   29.5786 H   0  0  0  0  0
    7.9512   18.8917   31.4429 H   0  0  0  0  0
    6.7937   20.2152   31.1609 H   0  0  0  0  0
    6.6967   18.7255   30.1900 H   0  0  0  0  0
    6.6262   21.8880   26.9277 H   0  0  0  0  0
   10.8798   22.3355   27.3152 H   0  0  0  0  0
    5.6302   24.5391   28.5886 H   0  0  0  0  0
    5.2394   23.7249   27.0296 H   0  0  0  0  0
    3.9893   25.3320   26.0447 H   0  0  0  0  0
    3.9606   26.1365   27.6331 H   0  0  0  0  0
    4.4589   27.0441   26.1843 H   0  0  0  0  0
   12.6064   16.2785   26.3426 H   0  0  0  0  0
   12.8125   17.8890   25.6114 H   0  0  0  0  0
   13.2520   17.6224   27.3163 H   0  0  0  0  0
   12.9123   20.9885   28.0241 H   0  0  0  0  0
    8.2840   25.6909   28.0200 H   0  0  0  0  0
   10.5658   24.7242   27.9191 H   0  0  0  0  0
   10.8212   17.1449   27.8148 H   0  0  0  0  0
   10.3998   17.8900   24.9334 H   0  0  0  0  0
   10.1937   16.2795   25.6645 H   0  0  0  0  0
    9.1368   17.6243   26.1602 H   0  0  0  0  0
  1  2  1  0  0  0
  4  1  1  0  0  0
  1 24  1  0  0  0
  2 16  2  0  0  0
  2 17  1  0  0  0
 17  3  1  0  0  0
  4  5  1  0  0  0
 18  4  1  0  0  0
  5  6  1  0  0  0
  6  7  1  0  0  0
  6  8  1  0  0  0
  9 10  4  0  0  0
  9 12  4  0  0  0
  9 18  1  0  0  0
 10 11  4  0  0  0
 11 13  1  0  0  0
 11 21  4  0  0  0
 12 22  4  0  0  0
 13 23  1  0  0  0
 23 14  1  0  0  0
 24 15  1  0  0  0
 18 19  2  0  0  0
 18 20  2  0  0  0
 21 22  4  0  0  0
 24 25  1  0  0  0
  1 26  1  0  0  0
  3 27  1  0  0  0
  5 28  1  0  0  0
  5 29  1  0  0  0
  6 30  1  0  0  0
  7 31  1  0  0  0
  7 32  1  0  0  0
  7 33  1  0  0  0
  8 34  1  0  0  0
  8 35  1  0  0  0
  8 36  1  0  0  0
 10 37  1  0  0  0
 12 38  1  0  0  0
 13 39  1  0  0  0
 13 40  1  0  0  0
 14 41  1  0  0  0
 14 42  1  0  0  0
 14 43  1  0  0  0
 15 44  1  0  0  0
 15 45  1  0  0  0
 15 46  1  0  0  0
 17 47  1  0  0  0
 21 48  1  0  0  0
 22 49  1  0  0  0
 24 50  1  0  0  0
 25 51  1  0  0  0
 25 52  1  0  0  0
 25 53  1  0  0  0
M  END
$$$$
