4h36_ligand
  -I-interpret- 

138139  0  0  0  0  0  0  0  0999 V2000
  -11.6070   32.9140  -23.3250 N   0  3  0  0  0
  -12.6400   32.8280  -24.3520 C   0  0  0  0  0
  -14.0460   32.7780  -23.7560 C   0  0  0  0  0
  -14.9180   33.5480  -24.1650 O   0  0  0  0  0
  -12.3980   31.6150  -25.2560 C   0  0  0  0  0
  -11.4940   30.5590  -24.6420 C   0  0  0  0  0
  -11.2700   29.3850  -25.5830 C   0  0  0  0  0
  -12.5430   28.5780  -25.7780 C   0  0  0  0  0
  -12.2530   27.2120  -26.2980 N   0  3  0  0  0
  -14.2380   31.8620  -22.8020 N   0  0  0  0  0
  -15.4980   31.6340  -22.0690 C   0  0  0  0  0
  -16.4890   30.6720  -22.7320 C   0  0  0  0  0
  -17.4910   30.2990  -22.1220 O   0  0  0  0  0
  -16.2070   32.9390  -21.6730 C   0  0  0  0  0
  -15.7050   33.5410  -20.3990 C   0  0  0  0  0
  -14.4280   34.0420  -20.2640 N   0  0  0  0  0
  -16.3100   33.7260  -19.2030 C   0  0  0  0  0
  -14.2690   34.5080  -19.0380 C   0  0  0  0  0
  -15.3960   34.3290  -18.3740 N   0  0  0  0  0
  -16.2150   30.2670  -23.9670 N   0  0  0  0  0
  -17.1050   29.3370  -24.6580 C   0  0  0  0  0
  -16.5660   27.9100  -24.6640 C   0  0  0  0  0
  -16.3600   27.3120  -25.7210 O   0  0  0  0  0
  -17.4040   29.8190  -26.0800 C   0  0  0  0  0
  -18.2910   31.0530  -26.1230 C   0  0  0  0  0
  -18.6030   31.5040  -27.5350 C   0  0  0  0  0
  -17.9930   30.9670  -28.4830 O   0  0  0  0  0
  -19.4620   32.3970  -27.6960 O   0  0  0  0  0
  -16.3460   27.3720  -23.4690 N   0  0  0  0  0
  -15.8810   26.0000  -23.3130 C   0  0  0  0  0
  -17.0440   25.0580  -23.0220 C   0  0  0  0  0
  -18.1540   25.5000  -22.7230 O   0  0  0  0  0
  -14.8260   25.9140  -22.2080 C   0  0  0  0  0
  -14.6740   27.1930  -21.4000 C   0  0  0  0  0
  -13.0570   27.3160  -20.6130 S   0  0  0  0  0
  -11.9850   27.2160  -22.0450 C   0  0  0  0  0
  -16.7810   23.7590  -23.1130 N   0  0  0  0  0
  -17.8160   22.7480  -22.9430 C   0  0  0  0  0
  -17.3330   21.6850  -21.9630 C   0  0  0  0  0
  -16.1750   21.6990  -21.5520 O   0  0  0  0  0
  -18.1460   22.0730  -24.2950 C   0  0  0  0  0
  -17.9790   23.0180  -25.3590 O   0  0  0  0  0
  -19.5750   21.5420  -24.3150 C   0  0  0  0  0
  -18.2310   20.7840  -21.5740 N   0  0  0  0  0
  -17.8660   19.5680  -20.8520 C   0  0  0  0  0
  -18.9990   18.5470  -20.9290 C   0  0  0  0  0
  -20.1610   18.8740  -20.6870 O   0  0  0  0  0
  -17.4540   19.8590  -19.4010 C   0  0  0  0  0
  -18.2560   20.8320  -18.5340 C   0  0  0  0  0
  -19.4200   20.1390  -17.8610 C   0  0  0  0  0
  -17.3480   21.4690  -17.4960 C   0  0  0  0  0
  -18.6550   17.3140  -21.2860 N   0  0  0  0  0
  -19.6570   16.2850  -21.5420 C   0  0  0  0  0
  -19.7380   15.2510  -20.4250 C   0  0  0  0  0
  -18.7430   14.9540  -19.7630 O   0  0  0  0  0
  -19.3740   15.5880  -22.8760 C   0  0  0  0  0
  -20.9330   14.7040  -20.2240 N   0  0  0  0  0
  -21.1470   13.6680  -19.2220 C   0  0  0  0  0
  -21.5220   12.3510  -19.8940 C   0  0  0  0  0
  -21.1830   11.2480  -19.3881 O   0  0  0  0  0
  -22.2460   14.0850  -18.2450 C   0  0  0  0  0
  -22.1630   15.5220  -17.8170 C   0  0  0  0  0
  -21.2600   15.9190  -16.8460 C   0  0  0  0  0
  -22.9920   16.4740  -18.3860 C   0  0  0  0  0
  -21.1820   17.2410  -16.4540 C   0  0  0  0  0
  -22.9200   17.7960  -17.9970 C   0  0  0  0  0
  -22.0180   18.1780  -17.0280 C   0  0  0  0  0
  -22.1793   12.3664  -20.9689 O   0  0  0  0  0
  -11.7840   33.7260  -22.7336 H   0  0  0  0  0
  -11.6235   32.0675  -22.7562 H   0  0  0  0  0
  -10.6940   33.0084  -23.7699 H   0  0  0  0  0
  -12.5755   33.7369  -24.9502 H   0  0  0  0  0
  -11.9063   31.9770  -26.1590 H   0  0  0  0  0
  -13.3659   31.1475  -25.4366 H   0  0  0  0  0
  -11.9725   30.1845  -23.7371 H   0  0  0  0  0
  -10.5276   31.0173  -24.4322 H   0  0  0  0  0
  -10.5112   28.7340  -25.1489 H   0  0  0  0  0
  -10.9553   29.7736  -26.5516 H   0  0  0  0  0
  -13.1712   29.0959  -26.5027 H   0  0  0  0  0
  -13.0399   28.4805  -24.8128 H   0  0  0  0  0
  -13.1282   26.7015  -26.4159 H   0  0  0  0  0
  -11.7772   27.2857  -27.1972 H   0  0  0  0  0
  -11.6559   26.7170  -25.6356 H   0  0  0  0  0
  -13.4444   31.2689  -22.5595 H   0  0  0  0  0
  -15.1563   31.1289  -21.1655 H   0  0  0  0  0
  -17.2609   32.7029  -21.5260 H   0  0  0  0  0
  -16.0217   33.6619  -22.4675 H   0  0  0  0  0
  -17.3321   33.4483  -18.9455 H   0  0  0  0  0
  -13.3612   34.9631  -18.6419 H   0  0  0  0  0
  -15.3763   30.6081  -24.4368 H   0  0  0  0  0
  -18.0398   29.3176  -24.0978 H   0  0  0  0  0
  -17.9312   29.0164  -26.5958 H   0  0  0  0  0
  -16.4538   30.0801  -26.5459 H   0  0  0  0  0
  -17.7595   31.8633  -25.6240 H   0  0  0  0  0
  -19.2340   30.8029  -25.6368 H   0  0  0  0  0
  -19.8039   32.6684  -26.8410 H   0  0  0  0  0
  -16.5076   27.9369  -22.6353 H   0  0  0  0  0
  -15.4237   25.6882  -24.2520 H   0  0  0  0  0
  -13.8677   25.7190  -22.6894 H   0  0  0  0  0
  -15.1418   25.1309  -21.5187 H   0  0  0  0  0
  -15.4322   27.1907  -20.6169 H   0  0  0  0  0
  -14.7846   28.0379  -22.0798 H   0  0  0  0  0
  -12.1526   26.2686  -22.5573 H   0  0  0  0  0
  -12.2073   28.0409  -22.7220 H   0  0  0  0  0
  -10.9452   27.2779  -21.7239 H   0  0  0  0  0
  -15.8253   23.4604  -23.3078 H   0  0  0  0  0
  -18.7136   23.2330  -22.5594 H   0  0  0  0  0
  -17.4638   21.2333  -24.4280 H   0  0  0  0  0
  -18.1847   22.5954  -26.1961 H   0  0  0  0  0
  -19.6991   20.8065  -23.5202 H   0  0  0  0  0
  -20.2701   22.3672  -24.1600 H   0  0  0  0  0
  -19.7739   21.0740  -25.2791 H   0  0  0  0  0
  -19.2144   20.9491  -21.7887 H   0  0  0  0  0
  -16.9887   19.1395  -21.3367 H   0  0  0  0  0
  -16.4763   20.3318  -19.4936 H   0  0  0  0  0
  -17.5681   18.8996  -18.8964 H   0  0  0  0  0
  -18.6620   21.6094  -19.1812 H   0  0  0  0  0
  -20.0826   19.7240  -18.6205 H   0  0  0  0  0
  -19.0454   19.3362  -17.2259 H   0  0  0  0  0
  -19.9679   20.8592  -17.2533 H   0  0  0  0  0
  -16.9202   20.6914  -16.8632 H   0  0  0  0  0
  -16.5473   22.0111  -17.9992 H   0  0  0  0  0
  -17.9272   22.1600  -16.8835 H   0  0  0  0  0
  -17.6666   17.0815  -21.3834 H   0  0  0  0  0
  -20.6221   16.7898  -21.5859 H   0  0  0  0  0
  -19.4029   16.3220  -23.6813 H   0  0  0  0  0
  -18.3881   15.1245  -22.8403 H   0  0  0  0  0
  -20.1303   14.8231  -23.0525 H   0  0  0  0  0
  -21.7228   15.0187  -20.7875 H   0  0  0  0  0
  -20.2188   13.5314  -18.6671 H   0  0  0  0  0
  -22.1352   13.4724  -17.3503 H   0  0  0  0  0
  -23.2008   13.9519  -18.7537 H   0  0  0  0  0
  -20.6035   15.1805  -16.3859 H   0  0  0  0  0
  -23.7098   16.1757  -19.1501 H   0  0  0  0  0
  -20.4623   17.5439  -15.6934 H   0  0  0  0  0
  -23.5754   18.5366  -18.4554 H   0  0  0  0  0
  -21.9644   19.2205  -16.7144 H   0  0  0  0  0
  -22.3577   13.2755  -21.2206 H   0  0  0  0  0
  1  2  1  0  0  0
  2  3  1  0  0  0
  2  5  1  0  0  0
  3  4  2  0  0  0
  3 10  1  0  0  0
  5  6  1  0  0  0
  6  7  1  0  0  0
  7  8  1  0  0  0
  8  9  1  0  0  0
 10 11  1  0  0  0
 11 12  1  0  0  0
 11 14  1  0  0  0
 12 13  2  0  0  0
 12 20  1  0  0  0
 14 15  1  0  0  0
 15 16  4  0  0  0
 15 17  4  0  0  0
 16 18  4  0  0  0
 17 19  4  0  0  0
 18 19  4  0  0  0
 20 21  1  0  0  0
 21 22  1  0  0  0
 21 24  1  0  0  0
 22 23  2  0  0  0
 22 29  1  0  0  0
 24 25  1  0  0  0
 25 26  1  0  0  0
 26 27  2  0  0  0
 26 28  1  0  0  0
 29 30  1  0  0  0
 30 31  1  0  0  0
 30 33  1  0  0  0
 31 32  2  0  0  0
 31 37  1  0  0  0
 33 34  1  0  0  0
 34 35  1  0  0  0
 35 36  1  0  0  0
 37 38  1  0  0  0
 38 39  1  0  0  0
 38 41  1  0  0  0
 39 40  2  0  0  0
 39 44  1  0  0  0
 41 42  1  0  0  0
 41 43  1  0  0  0
 44 45  1  0  0  0
 45 46  1  0  0  0
 45 48  1  0  0  0
 46 47  2  0  0  0
 46 52  1  0  0  0
 48 49  1  0  0  0
 49 50  1  0  0  0
 49 51  1  0  0  0
 52 53  1  0  0  0
 53 54  1  0  0  0
 53 56  1  0  0  0
 54 55  2  0  0  0
 54 57  1  0  0  0
 57 58  1  0  0  0
 58 59  1  0  0  0
 58 61  1  0  0  0
 59 60  2  0  0  0
 61 62  1  0  0  0
 62 63  4  0  0  0
 62 64  4  0  0  0
 63 65  4  0  0  0
 64 66  4  0  0  0
 65 67  4  0  0  0
 66 67  4  0  0  0
 59 68  1  0  0  0
  1 69  1  0  0  0
  1 70  1  0  0  0
  1 71  1  0  0  0
  2 72  1  0  0  0
  5 73  1  0  0  0
  5 74  1  0  0  0
  6 75  1  0  0  0
  6 76  1  0  0  0
  7 77  1  0  0  0
  7 78  1  0  0  0
  8 79  1  0  0  0
  8 80  1  0  0  0
  9 81  1  0  0  0
  9 82  1  0  0  0
  9 83  1  0  0  0
 10 84  1  0  0  0
 11 85  1  0  0  0
 14 86  1  0  0  0
 14 87  1  0  0  0
 17 88  1  0  0  0
 18 89  1  0  0  0
 20 90  1  0  0  0
 21 91  1  0  0  0
 24 92  1  0  0  0
 24 93  1  0  0  0
 25 94  1  0  0  0
 25 95  1  0  0  0
 28 96  1  0  0  0
 29 97  1  0  0  0
 30 98  1  0  0  0
 33 99  1  0  0  0
 33100  1  0  0  0
 34101  1  0  0  0
 34102  1  0  0  0
 36103  1  0  0  0
 36104  1  0  0  0
 36105  1  0  0  0
 37106  1  0  0  0
 38107  1  0  0  0
 41108  1  0  0  0
 42109  1  0  0  0
 43110  1  0  0  0
 43111  1  0  0  0
 43112  1  0  0  0
 44113  1  0  0  0
 45114  1  0  0  0
 48115  1  0  0  0
 48116  1  0  0  0
 49117  1  0  0  0
 50118  1  0  0  0
 50119  1  0  0  0
 50120  1  0  0  0
 51121  1  0  0  0
 51122  1  0  0  0
 51123  1  0  0  0
 52124  1  0  0  0
 53125  1  0  0  0
 56126  1  0  0  0
 56127  1  0  0  0
 56128  1  0  0  0
 57129  1  0  0  0
 58130  1  0  0  0
 61131  1  0  0  0
 61132  1  0  0  0
 63133  1  0  0  0
 64134  1  0  0  0
 65135  1  0  0  0
 66136  1  0  0  0
 67137  1  0  0  0
 68138  1  0  0  0
M  END
$$$$
