### 
### Created by X-TOOL on Mon Sep 10 21:13:11 2018
### 

@<TRIPOS>MOLECULE
4h36_ligand
  137   138     1     0     0
SMALL
GAST_HUCK


@<TRIPOS>ATOM
      1 N         -11.6070   32.9140  -23.3250 N.4       1 LYS         0.2379
      2 CA        -12.6400   32.8280  -24.3520 C.3       1 LYS         0.0650
      3 C         -14.0460   32.7780  -23.7560 C.2       1 LYS         0.2268
      4 O         -14.9180   33.5480  -24.1650 O.2       1 LYS        -0.3907
      5 CB        -12.3980   31.6150  -25.2560 C.3       1 LYS         0.0080
      6 CG        -11.4940   30.5590  -24.6420 C.3       1 LYS        -0.0410
      7 CD        -11.2700   29.3850  -25.5830 C.3       1 LYS        -0.0123
      8 CE        -12.5430   28.5780  -25.7780 C.3       1 LYS        -0.0354
      9 NZ        -12.2530   27.2120  -26.2980 N.4       1 LYS         0.2185
     10 N         -14.2380   31.8620  -22.8020 N.am      1 HIS        -0.2598
     11 CA        -15.4980   31.6340  -22.0690 C.3       1 HIS         0.1370
     12 C         -16.4890   30.6720  -22.7320 C.2       1 HIS         0.2054
     13 O         -17.4910   30.2990  -22.1220 O.2       1 HIS        -0.3942
     14 CB        -16.2070   32.9390  -21.6730 C.3       1 HIS         0.0145
     15 CG        -15.7050   33.5410  -20.3990 C.2       1 HIS        -0.0027
     16 ND1       -14.4280   34.0420  -20.2640 N.2       1 HIS        -0.3252
     17 CD2       -16.3100   33.7260  -19.2030 C.2       1 HIS         0.0291
     18 CE1       -14.2690   34.5080  -19.0380 C.2       1 HIS         0.0907
     19 NE2       -15.3960   34.3290  -18.3740 N.pl3     1 HIS        -0.2752
     20 N         -16.2150   30.2670  -23.9670 N.am      1 GLU        -0.2635
     21 CA        -17.1050   29.3370  -24.6580 C.3       1 GLU         0.1325
     22 C         -16.5660   27.9100  -24.6640 C.2       1 GLU         0.2040
     23 O         -16.3600   27.3120  -25.7210 O.2       1 GLU        -0.3944
     24 CB        -17.4040   29.8190  -26.0800 C.3       1 GLU        -0.0008
     25 CG        -18.2910   31.0530  -26.1230 C.3       1 GLU         0.0044
     26 CD        -18.6030   31.5040  -27.5350 C.2       1 GLU         0.0350
     27 OE1       -17.9930   30.9670  -28.4830 O.co2     1 GLU        -0.5690
     28 OE2       -19.4620   32.3970  -27.6960 O.co2     1 GLU        -0.5690
     29 N         -16.3460   27.3720  -23.4690 N.am      1 MET        -0.2637
     30 CA        -15.8810   26.0000  -23.3130 C.3       1 MET         0.1317
     31 C         -17.0440   25.0580  -23.0220 C.2       1 MET         0.2040
     32 O         -18.1540   25.5000  -22.7230 O.2       1 MET        -0.3944
     33 CB        -14.8260   25.9140  -22.2080 C.3       1 MET        -0.0034
     34 CG        -14.6740   27.1930  -21.4000 C.3       1 MET        -0.0024
     35 SD        -13.0570   27.3160  -20.6130 S.3       1 MET        -0.1639
     36 CE        -11.9850   27.2160  -22.0450 C.3       1 MET        -0.0181
     37 N         -16.7810   23.7590  -23.1130 N.am      1 THR        -0.2613
     38 CA        -17.8160   22.7480  -22.9430 C.3       1 THR         0.1565
     39 C         -17.3330   21.6850  -21.9630 C.2       1 THR         0.2065
     40 O         -16.1750   21.6990  -21.5520 O.2       1 THR        -0.3943
     41 CB        -18.1460   22.0730  -24.2950 C.3       1 THR         0.0924
     42 OG1       -17.9790   23.0180  -25.3590 O.3       1 THR        -0.3874
     43 CG2       -19.5750   21.5420  -24.3150 C.3       1 THR        -0.0346
     44 N         -18.2310   20.7840  -21.5740 N.am      1 LEU        -0.2636
     45 CA        -17.8660   19.5680  -20.8520 C.3       1 LEU         0.1312
     46 C         -18.9990   18.5470  -20.9290 C.2       1 LEU         0.2039
     47 O         -20.1610   18.8740  -20.6870 O.2       1 LEU        -0.3944
     48 CB        -17.4540   19.8590  -19.4010 C.3       1 LEU        -0.0101
     49 CG        -18.2560   20.8320  -18.5340 C.3       1 LEU        -0.0425
     50 CD1       -19.4200   20.1390  -17.8610 C.3       1 LEU        -0.0625
     51 CD2       -17.3480   21.4690  -17.4960 C.3       1 LEU        -0.0625
     52 N         -18.6550   17.3140  -21.2860 N.am      1 LYS        -0.2640
     53 CA        -19.6570   16.2850  -21.5420 C.3       1 LYS         0.1282
     54 C         -19.7380   15.2510  -20.4250 C.2       1 LYS         0.2032
     55 O         -18.7430   14.9540  -19.7630 O.2       1 LYS        -0.3944
     56 CB        -19.3740   15.5880  -22.8760 C.3       1 LYS        -0.0244
     57 N         -20.9330   14.7040  -20.2240 N.am      1 PHE        -0.2677
     58 CA        -21.1470   13.6680  -19.2220 C.3       1 PHE         0.1039
     59 C         -21.5220   12.3510  -19.8940 C.2       1 PHE         0.0621
     60 O         -21.1830   11.2480  -19.3881 O.co2     1 PHE        -0.5664
     61 CB        -22.2460   14.0850  -18.2450 C.3       1 PHE         0.0159
     62 CG        -22.1630   15.5220  -17.8170 C.ar      1 PHE        -0.0392
     63 CD1       -21.2600   15.9190  -16.8460 C.ar      1 PHE        -0.0602
     64 CD2       -22.9920   16.4740  -18.3860 C.ar      1 PHE        -0.0602
     65 CE1       -21.1820   17.2410  -16.4540 C.ar      1 PHE        -0.0686
     66 CE2       -22.9200   17.7960  -17.9970 C.ar      1 PHE        -0.0686
     67 CZ        -22.0180   18.1780  -17.0280 C.ar      1 PHE        -0.0687
     68 H         -11.7840   33.7260  -22.7336 H         1 LYS         0.2015
     69 H         -11.6235   32.0675  -22.7562 H         1 LYS         0.2015
     70 H         -10.6940   33.0084  -23.7699 H         1 LYS         0.2015
     71 H         -12.5755   33.7369  -24.9502 H         1 LYS         0.1098
     72 H         -11.9063   31.9770  -26.1590 H         1 LYS         0.0346
     73 H         -13.3659   31.1475  -25.4366 H         1 LYS         0.0346
     74 H         -11.9725   30.1845  -23.7371 H         1 LYS         0.0270
     75 H         -10.5276   31.0173  -24.4322 H         1 LYS         0.0270
     76 H         -10.5112   28.7340  -25.1489 H         1 LYS         0.0317
     77 H         -10.9553   29.7736  -26.5516 H         1 LYS         0.0317
     78 H         -13.1712   29.0959  -26.5027 H         1 LYS         0.0813
     79 H         -13.0399   28.4805  -24.8128 H         1 LYS         0.0813
     80 H         -13.1282   26.7015  -26.4159 H         1 LYS         0.1994
     81 H         -11.7772   27.2857  -27.1972 H         1 LYS         0.1994
     82 H         -11.6559   26.7170  -25.6356 H         1 LYS         0.1994
     83 H         -13.4444   31.2689  -22.5595 H         1 HIS         0.1886
     84 H         -15.1563   31.1289  -21.1655 H         1 HIS         0.0817
     85 H         -17.2609   32.7029  -21.5260 H         1 HIS         0.0420
     86 H         -16.0217   33.6619  -22.4675 H         1 HIS         0.0420
     87 H         -17.3321   33.4483  -18.9455 H         1 HIS         0.0729
     88 H         -13.3612   34.9631  -18.6419 H         1 HIS         0.1199
     89 H         -15.5610   34.5952  -17.4033 H         1 HIS         0.2361
     90 H         -15.3763   30.6081  -24.4368 H         1 GLU         0.1883
     91 H         -18.0398   29.3176  -24.0978 H         1 GLU         0.0801
     92 H         -17.9312   29.0164  -26.5958 H         1 GLU         0.0330
     93 H         -16.4538   30.0801  -26.5459 H         1 GLU         0.0330
     94 H         -17.7595   31.8633  -25.6240 H         1 GLU         0.0433
     95 H         -19.2340   30.8029  -25.6368 H         1 GLU         0.0433
     96 H         -16.5076   27.9369  -22.6353 H         1 MET         0.1883
     97 H         -15.4237   25.6882  -24.2520 H         1 MET         0.0800
     98 H         -13.8677   25.7190  -22.6894 H         1 MET         0.0320
     99 H         -15.1418   25.1309  -21.5187 H         1 MET         0.0320
    100 H         -15.4322   27.1907  -20.6169 H         1 MET         0.0378
    101 H         -14.7846   28.0379  -22.0798 H         1 MET         0.0378
    102 H         -12.1526   26.2686  -22.5573 H         1 MET         0.0340
    103 H         -12.2073   28.0409  -22.7220 H         1 MET         0.0340
    104 H         -10.9452   27.2779  -21.7239 H         1 MET         0.0340
    105 H         -15.8253   23.4604  -23.3078 H         1 THR         0.1884
    106 H         -18.7136   23.2330  -22.5594 H         1 THR         0.0826
    107 H         -17.4638   21.2333  -24.4280 H         1 THR         0.0639
    108 H         -18.1847   22.5954  -26.1961 H         1 THR         0.2101
    109 H         -19.6991   20.8065  -23.5202 H         1 THR         0.0257
    110 H         -20.2701   22.3672  -24.1600 H         1 THR         0.0257
    111 H         -19.7739   21.0740  -25.2791 H         1 THR         0.0257
    112 H         -19.2144   20.9491  -21.7887 H         1 LEU         0.1883
    113 H         -16.9887   19.1395  -21.3367 H         1 LEU         0.0800
    114 H         -16.4763   20.3318  -19.4936 H         1 LEU         0.0315
    115 H         -17.5681   18.8996  -18.8964 H         1 LEU         0.0315
    116 H         -18.6620   21.6094  -19.1812 H         1 LEU         0.0298
    117 H         -20.0826   19.7240  -18.6205 H         1 LEU         0.0232
    118 H         -19.0454   19.3362  -17.2259 H         1 LEU         0.0232
    119 H         -19.9679   20.8592  -17.2533 H         1 LEU         0.0232
    120 H         -16.9202   20.6914  -16.8632 H         1 LEU         0.0232
    121 H         -16.5473   22.0111  -17.9992 H         1 LEU         0.0232
    122 H         -17.9272   22.1600  -16.8835 H         1 LEU         0.0232
    123 H         -17.6666   17.0815  -21.3834 H         1 LYS         0.1883
    124 H         -20.6221   16.7898  -21.5859 H         1 LYS         0.0797
    125 H         -19.4029   16.3220  -23.6813 H         1 LYS         0.0277
    126 H         -18.3881   15.1245  -22.8403 H         1 LYS         0.0277
    127 H         -20.1303   14.8231  -23.0525 H         1 LYS         0.0277
    128 H         -21.7228   15.0187  -20.7875 H         1 PHE         0.1877
    129 H         -20.2188   13.5314  -18.6671 H         1 PHE         0.0749
    130 O         -22.1793   12.3664  -20.9689 O.co2     1 PHE        -0.5664
    131 H         -22.1352   13.4724  -17.3503 H         1 PHE         0.0467
    132 H         -23.2008   13.9519  -18.7537 H         1 PHE         0.0467
    133 H         -20.6035   15.1805  -16.3859 H         1 PHE         0.0557
    134 H         -23.7098   16.1757  -19.1501 H         1 PHE         0.0557
    135 H         -20.4623   17.5439  -15.6934 H         1 PHE         0.0599
    136 H         -23.5754   18.5366  -18.4554 H         1 PHE         0.0599
    137 H         -21.9644   19.2205  -16.7144 H         1 PHE         0.0559
@<TRIPOS>BOND
     1    1    2 1  
     2    2    3 1  
     3    2    5 1  
     4    3    4 2  
     5    3   10 am 
     6    5    6 1  
     7    6    7 1  
     8    7    8 1  
     9    8    9 1  
    10   10   11 1  
    11   11   12 1  
    12   11   14 1  
    13   12   13 2  
    14   12   20 am 
    15   14   15 1  
    16   15   16 1  
    17   15   17 2  
    18   16   18 2  
    19   17   19 1  
    20   18   19 1  
    21   20   21 1  
    22   21   22 1  
    23   21   24 1  
    24   22   23 2  
    25   22   29 am 
    26   24   25 1  
    27   25   26 1  
    28   26   27 ar 
    29   26   28 ar 
    30   29   30 1  
    31   30   31 1  
    32   30   33 1  
    33   31   32 2  
    34   31   37 am 
    35   33   34 1  
    36   34   35 1  
    37   35   36 1  
    38   37   38 1  
    39   38   39 1  
    40   38   41 1  
    41   39   40 2  
    42   39   44 am 
    43   41   42 1  
    44   41   43 1  
    45   44   45 1  
    46   45   46 1  
    47   45   48 1  
    48   46   47 2  
    49   46   52 am 
    50   48   49 1  
    51   49   50 1  
    52   49   51 1  
    53   52   53 1  
    54   53   54 1  
    55   53   56 1  
    56   54   55 2  
    57   54   57 am 
    58   57   58 1  
    59   58   59 1  
    60   58   61 1  
    61   59   60 ar 
    62   61   62 1  
    63   62   63 ar 
    64   62   64 ar 
    65   63   65 ar 
    66   64   66 ar 
    67   65   67 ar 
    68   66   67 ar 
    69    1   68 1  
    70    1   69 1  
    71    1   70 1  
    72    2   71 1  
    73    5   72 1  
    74    5   73 1  
    75    6   74 1  
    76    6   75 1  
    77    7   76 1  
    78    7   77 1  
    79    8   78 1  
    80    8   79 1  
    81    9   80 1  
    82    9   81 1  
    83    9   82 1  
    84   10   83 1  
    85   11   84 1  
    86   14   85 1  
    87   14   86 1  
    88   17   87 1  
    89   18   88 1  
    90   19   89 1  
    91   20   90 1  
    92   21   91 1  
    93   24   92 1  
    94   24   93 1  
    95   25   94 1  
    96   25   95 1  
    97   29   96 1  
    98   30   97 1  
    99   33   98 1  
   100   33   99 1  
   101   34  100 1  
   102   34  101 1  
   103   36  102 1  
   104   36  103 1  
   105   36  104 1  
   106   37  105 1  
   107   38  106 1  
   108   41  107 1  
   109   42  108 1  
   110   43  109 1  
   111   43  110 1  
   112   43  111 1  
   113   44  112 1  
   114   45  113 1  
   115   48  114 1  
   116   48  115 1  
   117   49  116 1  
   118   50  117 1  
   119   50  118 1  
   120   50  119 1  
   121   51  120 1  
   122   51  121 1  
   123   51  122 1  
   124   52  123 1  
   125   53  124 1  
   126   56  125 1  
   127   56  126 1  
   128   56  127 1  
   129   57  128 1  
   130   58  129 1  
   131   59  130 ar 
   132   61  131 1  
   133   61  132 1  
   134   63  133 1  
   135   64  134 1  
   136   65  135 1  
   137   66  136 1  
   138   67  137 1  
@<TRIPOS>SUBSTRUCTURE
     1 LYS         1

