### 
### Created by X-TOOL on Mon Sep 10 21:13:10 2018
### 

@<TRIPOS>MOLECULE
3vb5_ligand
   81    81     1     0     0
SMALL
GAST_HUCK


@<TRIPOS>ATOM
      1 C1         -2.0550  -20.8830   36.3450 C.2       1 PHQ         0.3239
      2 O1         -2.3750  -22.0590   36.3190 O.2       1 PHQ        -0.3773
      3 O2         -0.6880  -20.4930   36.0520 O.3       1 PHQ        -0.2506
      4 C2          0.2770  -21.5110   35.7020 C.3       1 PHQ         0.1113
      5 C3          1.4310  -20.9270   35.0000 C.ar      1 PHQ        -0.0130
      6 C4          2.4880  -21.7190   34.5730 C.ar      1 PHQ        -0.0578
      7 C5          3.5500  -21.1140   33.9120 C.ar      1 PHQ        -0.0685
      8 C6          3.5560  -19.7400   33.6820 C.ar      1 PHQ        -0.0687
      9 C7          2.4980  -18.9460   34.1140 C.ar      1 PHQ        -0.0685
     10 C8          1.4310  -19.5480   34.7740 C.ar      1 PHQ        -0.0578
     11 N          -2.9080  -19.8950   36.6340 N.am      1 ALA        -0.2413
     12 CA         -2.4310  -18.5010   36.6400 C.3       1 ALA         0.1300
     13 C          -1.4600  -18.1790   37.7630 C.2       1 ALA         0.2036
     14 O          -1.4720  -18.7910   38.8230 O.2       1 ALA        -0.3944
     15 CB         -3.6200  -17.5340   36.6950 C.3       1 ALA        -0.0244
     16 N          -0.5880  -17.1900   37.5420 N.am      1 VAL        -0.2635
     17 CA          0.3870  -16.7480   38.5370 C.3       1 VAL         0.1332
     18 C           0.2820  -15.2570   38.6850 C.2       1 VAL         0.2041
     19 O           0.6560  -14.5300   37.7740 O.2       1 VAL        -0.3944
     20 CB          1.8060  -17.0750   38.0730 C.3       1 VAL        -0.0063
     21 CG1         2.8300  -16.1540   38.7260 C.3       1 VAL        -0.0584
     22 CG2         2.2000  -18.5000   38.4230 C.3       1 VAL        -0.0584
     23 N          -0.2410  -14.7930   39.8250 N.am      1 LEU        -0.2637
     24 CA         -0.3730  -13.3650   40.0790 C.3       1 LEU         0.1313
     25 C           0.9960  -12.7500   40.0160 C.2       1 LEU         0.2048
     26 O           1.8820  -13.0840   40.7880 O.2       1 LEU        -0.3943
     27 CB         -1.0000  -13.2550   41.4650 C.3       1 LEU        -0.0101
     28 CG         -2.4270  -13.7980   41.4200 C.3       1 LEU        -0.0425
     29 CD1        -3.1210  -13.6790   42.7730 C.3       1 LEU        -0.0625
     30 CD2        -3.2520  -13.1100   40.3310 C.3       1 LEU        -0.0625
     31 C           2.5460   -9.7360   39.1670 C.2       1 0JU         0.0208
     32 NF          3.5850   -9.2330   39.6700 N.2       1 0JU        -0.3619
     33 CA          2.5090  -11.2160   38.8760 C.3       1 0JU         0.1028
     34 N           1.2000  -11.8520   39.0510 N.am      1 0JU        -0.2623
     35 CB          2.7920  -11.4620   37.3980 C.3       1 0JU         0.0052
     36 CG          4.2810  -11.5020   37.1130 C.3       1 0JU         0.0421
     37 CD          4.4800  -12.1790   35.7780 C.2       1 0JU         0.1738
     38 OE          3.9320  -11.7520   34.7750 O.2       1 0JU        -0.3973
     39 NE          5.2530  -13.2630   35.7540 N.am      1 0JU        -0.3009
     40 H          -0.2026  -22.2349   35.0431 H         1 PHQ         0.0776
     41 H           0.6294  -21.9872   36.6169 H         1 PHQ         0.0776
     42 H           2.4850  -22.7941   34.7526 H         1 PHQ         0.0557
     43 H           4.3879  -21.7213   33.5696 H         1 PHQ         0.0599
     44 H           4.3964  -19.2831   33.1593 H         1 PHQ         0.0559
     45 H           2.5049  -17.8703   33.9383 H         1 PHQ         0.0599
     46 H           0.5922  -18.9417   35.1159 H         1 PHQ         0.0557
     47 H          -3.8827  -20.1049   36.8490 H         1 ALA         0.1899
     48 H          -1.8763  -18.3760   35.7100 H         1 ALA         0.0796
     49 H          -4.2547  -17.6906   35.8228 H         1 ALA         0.0277
     50 H          -4.1952  -17.7186   37.6023 H         1 ALA         0.0277
     51 H          -3.2523  -16.5079   36.6989 H         1 ALA         0.0277
     52 H          -0.6039  -16.7217   36.6360 H         1 VAL         0.1883
     53 H           0.1832  -17.2551   39.4801 H         1 VAL         0.0802
     54 H           1.8030  -16.9405   36.9913 H         1 VAL         0.0343
     55 H           2.6081  -15.1202   38.4610 H         1 VAL         0.0234
     56 H           2.7836  -16.2709   39.8087 H         1 VAL         0.0234
     57 H           3.8280  -16.4145   38.3736 H         1 VAL         0.0234
     58 H           2.1535  -18.6334   39.5038 H         1 VAL         0.0234
     59 H           1.5128  -19.1947   37.9400 H         1 VAL         0.0234
     60 H           3.2154  -18.6907   38.0754 H         1 VAL         0.0234
     61 H          -0.5552  -15.4555   40.5341 H         1 LEU         0.1883
     62 H          -0.9935  -12.8411   39.3520 H         1 LEU         0.0800
     63 H          -1.0175  -12.2102   41.7750 H         1 LEU         0.0315
     64 H          -0.4123  -13.8337   42.1776 H         1 LEU         0.0315
     65 H          -2.3549  -14.8576   41.1746 H         1 LEU         0.0298
     66 H          -2.5619  -14.2454   43.5178 H         1 LEU         0.0232
     67 H          -3.1622  -12.6304   43.0678 H         1 LEU         0.0232
     68 H          -4.1331  -14.0764   42.6970 H         1 LEU         0.0232
     69 H          -3.2948  -12.0394   40.5312 H         1 LEU         0.0232
     70 H          -2.7854  -13.2811   39.3609 H         1 LEU         0.0232
     71 H          -4.2616  -13.5210   40.3276 H         1 LEU         0.0232
     72 H           1.6827   -9.1090   38.9442 H         1 0JU         0.1225
     73 H           4.3897   -9.8248   39.8763 H         1 0JU         0.1054
     74 H           3.2365  -11.6269   39.5760 H         1 0JU         0.0841
     75 H           0.4335  -11.6041   38.4254 H         1 0JU         0.1897
     76 H           2.3534  -10.6463   36.8233 H         1 0JU         0.0348
     77 H           2.3627  -12.4248   37.1211 H         1 0JU         0.0348
     78 H           4.8007  -12.0530   37.8969 H         1 0JU         0.0505
     79 H           4.6878  -10.4911   37.0880 H         1 0JU         0.0505
     80 H           5.4021  -13.7638   34.8780 H         1 0JU         0.1814
     81 H           5.6960  -13.5926   36.6116 H         1 0JU         0.1814
@<TRIPOS>BOND
     1    1    2 2  
     2    1    3 1  
     3   11    1 am 
     4    3    4 1  
     5    4    5 1  
     6    5    6 ar 
     7    5   10 ar 
     8    6    7 ar 
     9    7    8 ar 
    10    9    8 ar 
    11   10    9 ar 
    12   12   11 1  
    13   13   12 1  
    14   12   15 1  
    15   13   14 2  
    16   16   13 am 
    17   17   16 1  
    18   18   17 1  
    19   17   20 1  
    20   18   19 2  
    21   23   18 am 
    22   20   21 1  
    23   20   22 1  
    24   24   23 1  
    25   25   24 1  
    26   24   27 1  
    27   25   26 2  
    28   34   25 am 
    29   27   28 1  
    30   28   29 1  
    31   28   30 1  
    32   31   32 2  
    33   33   31 1  
    34   33   34 1  
    35   33   35 1  
    36   35   36 1  
    37   36   37 1  
    38   37   38 2  
    39   37   39 am 
    40    4   40 1  
    41    4   41 1  
    42    6   42 1  
    43    7   43 1  
    44    8   44 1  
    45    9   45 1  
    46   10   46 1  
    47   11   47 1  
    48   12   48 1  
    49   15   49 1  
    50   15   50 1  
    51   15   51 1  
    52   16   52 1  
    53   17   53 1  
    54   20   54 1  
    55   21   55 1  
    56   21   56 1  
    57   21   57 1  
    58   22   58 1  
    59   22   59 1  
    60   22   60 1  
    61   23   61 1  
    62   24   62 1  
    63   27   63 1  
    64   27   64 1  
    65   28   65 1  
    66   29   66 1  
    67   29   67 1  
    68   29   68 1  
    69   30   69 1  
    70   30   70 1  
    71   30   71 1  
    72   31   72 1  
    73   32   73 1  
    74   33   74 1  
    75   34   75 1  
    76   35   76 1  
    77   35   77 1  
    78   36   78 1  
    79   36   79 1  
    80   39   80 1  
    81   39   81 1  
@<TRIPOS>SUBSTRUCTURE
     1 PHQ         1

