3vb5_ligand
  -I-interpret- 

 81 81  0  0  0  0  0  0  0  0999 V2000
   -2.0550  -20.8830   36.3450 C   0  0  0  0  0
   -2.3750  -22.0590   36.3190 O   0  0  0  0  0
   -0.6880  -20.4930   36.0520 O   0  0  0  0  0
    0.2770  -21.5110   35.7020 C   0  0  0  0  0
    1.4310  -20.9270   35.0000 C   0  0  0  0  0
    2.4880  -21.7190   34.5730 C   0  0  0  0  0
    3.5500  -21.1140   33.9120 C   0  0  0  0  0
    3.5560  -19.7400   33.6820 C   0  0  0  0  0
    2.4980  -18.9460   34.1140 C   0  0  0  0  0
    1.4310  -19.5480   34.7740 C   0  0  0  0  0
   -2.9080  -19.8950   36.6340 N   0  0  0  0  0
   -2.4310  -18.5010   36.6400 C   0  0  0  0  0
   -1.4600  -18.1790   37.7630 C   0  0  0  0  0
   -1.4720  -18.7910   38.8230 O   0  0  0  0  0
   -3.6200  -17.5340   36.6950 C   0  0  0  0  0
   -0.5880  -17.1900   37.5420 N   0  0  0  0  0
    0.3870  -16.7480   38.5370 C   0  0  0  0  0
    0.2820  -15.2570   38.6850 C   0  0  0  0  0
    0.6560  -14.5300   37.7740 O   0  0  0  0  0
    1.8060  -17.0750   38.0730 C   0  0  0  0  0
    2.8300  -16.1540   38.7260 C   0  0  0  0  0
    2.2000  -18.5000   38.4230 C   0  0  0  0  0
   -0.2410  -14.7930   39.8250 N   0  0  0  0  0
   -0.3730  -13.3650   40.0790 C   0  0  0  0  0
    0.9960  -12.7500   40.0160 C   0  0  0  0  0
    1.8820  -13.0840   40.7880 O   0  0  0  0  0
   -1.0000  -13.2550   41.4650 C   0  0  0  0  0
   -2.4270  -13.7980   41.4200 C   0  0  0  0  0
   -3.1210  -13.6790   42.7730 C   0  0  0  0  0
   -3.2520  -13.1100   40.3310 C   0  0  0  0  0
    2.5460   -9.7360   39.1670 C   0  0  0  0  0
    3.5850   -9.2330   39.6700 N   0  0  0  0  0
    2.5090  -11.2160   38.8760 C   0  0  0  0  0
    1.2000  -11.8520   39.0510 N   0  0  0  0  0
    2.7920  -11.4620   37.3980 C   0  0  0  0  0
    4.2810  -11.5020   37.1130 C   0  0  0  0  0
    4.4800  -12.1790   35.7780 C   0  0  0  0  0
    3.9320  -11.7520   34.7750 O   0  0  0  0  0
    5.2530  -13.2630   35.7540 N   0  0  0  0  0
   -0.2026  -22.2349   35.0431 H   0  0  0  0  0
    0.6294  -21.9872   36.6169 H   0  0  0  0  0
    2.4850  -22.7941   34.7526 H   0  0  0  0  0
    4.3879  -21.7213   33.5696 H   0  0  0  0  0
    4.3964  -19.2831   33.1593 H   0  0  0  0  0
    2.5049  -17.8703   33.9383 H   0  0  0  0  0
    0.5922  -18.9417   35.1159 H   0  0  0  0  0
   -3.8827  -20.1049   36.8490 H   0  0  0  0  0
   -1.8763  -18.3760   35.7100 H   0  0  0  0  0
   -4.2547  -17.6906   35.8228 H   0  0  0  0  0
   -4.1952  -17.7186   37.6023 H   0  0  0  0  0
   -3.2523  -16.5079   36.6989 H   0  0  0  0  0
   -0.6039  -16.7217   36.6360 H   0  0  0  0  0
    0.1832  -17.2551   39.4801 H   0  0  0  0  0
    1.8030  -16.9405   36.9913 H   0  0  0  0  0
    2.6081  -15.1202   38.4610 H   0  0  0  0  0
    2.7836  -16.2709   39.8087 H   0  0  0  0  0
    3.8280  -16.4145   38.3736 H   0  0  0  0  0
    2.1535  -18.6334   39.5038 H   0  0  0  0  0
    1.5128  -19.1947   37.9400 H   0  0  0  0  0
    3.2154  -18.6907   38.0754 H   0  0  0  0  0
   -0.5552  -15.4555   40.5341 H   0  0  0  0  0
   -0.9935  -12.8411   39.3520 H   0  0  0  0  0
   -1.0175  -12.2102   41.7750 H   0  0  0  0  0
   -0.4123  -13.8337   42.1776 H   0  0  0  0  0
   -2.3549  -14.8576   41.1746 H   0  0  0  0  0
   -2.5619  -14.2454   43.5178 H   0  0  0  0  0
   -3.1622  -12.6304   43.0678 H   0  0  0  0  0
   -4.1331  -14.0764   42.6970 H   0  0  0  0  0
   -3.2948  -12.0394   40.5312 H   0  0  0  0  0
   -2.7854  -13.2811   39.3609 H   0  0  0  0  0
   -4.2616  -13.5210   40.3276 H   0  0  0  0  0
    1.6827   -9.1090   38.9442 H   0  0  0  0  0
    4.3897   -9.8248   39.8763 H   0  0  0  0  0
    3.2365  -11.6269   39.5760 H   0  0  0  0  0
    0.4335  -11.6041   38.4254 H   0  0  0  0  0
    2.3534  -10.6463   36.8233 H   0  0  0  0  0
    2.3627  -12.4248   37.1211 H   0  0  0  0  0
    4.8007  -12.0530   37.8969 H   0  0  0  0  0
    4.6878  -10.4911   37.0880 H   0  0  0  0  0
    5.4021  -13.7638   34.8780 H   0  0  0  0  0
    5.6960  -13.5926   36.6116 H   0  0  0  0  0
  1  2  2  0  0  0
  1  3  1  0  0  0
 11  1  1  0  0  0
  3  4  1  0  0  0
  4  5  1  0  0  0
  5  6  4  0  0  0
  5 10  4  0  0  0
  6  7  4  0  0  0
  7  8  4  0  0  0
  9  8  4  0  0  0
 10  9  4  0  0  0
 12 11  1  0  0  0
 13 12  1  0  0  0
 12 15  1  0  0  0
 13 14  2  0  0  0
 16 13  1  0  0  0
 17 16  1  0  0  0
 18 17  1  0  0  0
 17 20  1  0  0  0
 18 19  2  0  0  0
 23 18  1  0  0  0
 20 21  1  0  0  0
 20 22  1  0  0  0
 24 23  1  0  0  0
 25 24  1  0  0  0
 24 27  1  0  0  0
 25 26  2  0  0  0
 34 25  1  0  0  0
 27 28  1  0  0  0
 28 29  1  0  0  0
 28 30  1  0  0  0
 31 32  2  0  0  0
 33 31  1  0  0  0
 33 34  1  0  0  0
 33 35  1  0  0  0
 35 36  1  0  0  0
 36 37  1  0  0  0
 37 38  2  0  0  0
 37 39  1  0  0  0
  4 40  1  0  0  0
  4 41  1  0  0  0
  6 42  1  0  0  0
  7 43  1  0  0  0
  8 44  1  0  0  0
  9 45  1  0  0  0
 10 46  1  0  0  0
 11 47  1  0  0  0
 12 48  1  0  0  0
 15 49  1  0  0  0
 15 50  1  0  0  0
 15 51  1  0  0  0
 16 52  1  0  0  0
 17 53  1  0  0  0
 20 54  1  0  0  0
 21 55  1  0  0  0
 21 56  1  0  0  0
 21 57  1  0  0  0
 22 58  1  0  0  0
 22 59  1  0  0  0
 22 60  1  0  0  0
 23 61  1  0  0  0
 24 62  1  0  0  0
 27 63  1  0  0  0
 27 64  1  0  0  0
 28 65  1  0  0  0
 29 66  1  0  0  0
 29 67  1  0  0  0
 29 68  1  0  0  0
 30 69  1  0  0  0
 30 70  1  0  0  0
 30 71  1  0  0  0
 31 72  1  0  0  0
 32 73  1  0  0  0
 33 74  1  0  0  0
 34 75  1  0  0  0
 35 76  1  0  0  0
 35 77  1  0  0  0
 36 78  1  0  0  0
 36 79  1  0  0  0
 39 80  1  0  0  0
 39 81  1  0  0  0
M  END
$$$$
