4twd_ligand
  -I-interpret- 

 35 37  0  0  0  0  0  0  0  0999 V2000
 -125.2200  -42.2530  -68.8140 C   0  0  0  0  0
 -124.4700  -44.5040  -69.4830 C   0  0  0  0  0
 -125.2570  -46.4300  -68.2960 N   0  3  0  0  0
 -127.1790  -43.8700  -70.1100 C   0  0  0  0  0
 -126.3400  -42.8870  -68.0430 C   0  0  0  0  0
 -125.6360  -45.1140  -68.7490 C   0  0  0  0  0
 -124.8590  -43.1450  -69.9700 C   0  0  0  0  0
 -127.5300  -43.0300  -68.9270 C   0  0  0  0  0
 -126.8240  -45.2480  -69.6680 C   0  0  0  0  0
 -125.9690  -44.2540  -67.5540 C   0  0  0  0  0
 -126.0340  -43.2910  -70.8780 C   0  0  0  0  0
 -128.3720  -43.8640  -70.9750 C   0  0  0  0  0
 -126.6990  -41.9880  -66.9140 C   0  0  0  0  0
 -124.3540  -42.1216  -68.1653 H   0  0  0  0  0
 -125.5339  -41.2774  -69.1851 H   0  0  0  0  0
 -124.1982  -45.1342  -70.3298 H   0  0  0  0  0
 -123.6147  -44.4233  -68.8121 H   0  0  0  0  0
 -124.4533  -46.3552  -67.6724 H   0  0  0  0  0
 -126.0384  -46.8543  -67.7962 H   0  0  0  0  0
 -125.0123  -47.0077  -69.1002 H   0  0  0  0  0
 -124.0209  -42.6931  -70.5006 H   0  0  0  0  0
 -128.3377  -43.5069  -68.3718 H   0  0  0  0  0
 -127.8496  -42.0444  -69.2654 H   0  0  0  0  0
 -126.5853  -45.8812  -70.5225 H   0  0  0  0  0
 -127.6618  -45.7197  -69.1545 H   0  0  0  0  0
 -126.8006  -44.6904  -67.0008 H   0  0  0  0  0
 -125.1080  -44.1909  -66.8886 H   0  0  0  0  0
 -126.3147  -42.3148  -71.2733 H   0  0  0  0  0
 -125.7770  -43.9519  -71.7058 H   0  0  0  0  0
 -129.2173  -44.2827  -70.4289 H   0  0  0  0  0
 -128.6000  -42.8398  -71.2703 H   0  0  0  0  0
 -128.1781  -44.4650  -71.8634 H   0  0  0  0  0
 -126.9923  -41.0141  -67.3059 H   0  0  0  0  0
 -127.5289  -42.4214  -66.3559 H   0  0  0  0  0
 -125.8380  -41.8719  -66.2557 H   0  0  0  0  0
  5  1  1  0  0  0
  1  7  1  0  0  0
  2  6  1  0  0  0
  7  2  1  0  0  0
  6  3  1  0  0  0
  8  4  1  0  0  0
  4  9  1  0  0  0
  4 11  1  0  0  0
  4 12  1  0  0  0
  5  8  1  0  0  0
  5 10  1  0  0  0
  5 13  1  0  0  0
  6  9  1  0  0  0
  6 10  1  0  0  0
  7 11  1  0  0  0
  1 14  1  0  0  0
  1 15  1  0  0  0
  2 16  1  0  0  0
  2 17  1  0  0  0
  3 18  1  0  0  0
  3 19  1  0  0  0
  3 20  1  0  0  0
  7 21  1  0  0  0
  8 22  1  0  0  0
  8 23  1  0  0  0
  9 24  1  0  0  0
  9 25  1  0  0  0
 10 26  1  0  0  0
 10 27  1  0  0  0
 11 28  1  0  0  0
 11 29  1  0  0  0
 12 30  1  0  0  0
 12 31  1  0  0  0
 12 32  1  0  0  0
 13 33  1  0  0  0
 13 34  1  0  0  0
 13 35  1  0  0  0
M  END
$$$$
