5hln_ligand
  -I-interpret- 

 49 52  0  0  0  0  0  0  0  0999 V2000
   67.6760   -7.1380    4.1320 C   0  0  0  0  0
   69.0370   -5.6490    3.3490 C   0  0  0  0  0
   70.1730   -4.8460    2.8710 C   0  0  0  0  0
   71.3490   -4.8420    3.5850 C   0  0  0  0  0
   72.3020   -3.4520    1.9540 C   0  0  0  0  0
   71.1630   -3.4770    1.2440 N   0  0  0  0  0
   75.3380   -1.9730    5.2810 C   0  0  0  0  0
   76.7040   -2.6240    7.0950 C   0  0  0  0  0
   75.7280   -3.4260    7.6370 C   0  0  0  0  0
   74.5080   -3.4950    6.9630 C   0  0  0  0  0
   74.3080   -2.7790    5.7720 C   0  0  0  0  0
   75.9870   -4.0380    8.7470 C   0  0  0  0  0
   72.5670   -6.4900    5.0200 C   0  0  0  0  0
   72.3870   -7.3830    8.9670 Cl  0  0  0  0  0
   72.1020   -6.6880    7.3540 C   0  0  0  0  0
   71.1170   -5.7310    7.2240 C   0  0  0  0  0
   70.8660   -5.1290    6.0110 C   0  0  0  0  0
   69.5850   -3.8820    5.9110 Cl  0  0  0  0  0
   72.8370   -7.0840    6.2540 C   0  0  0  0  0
   71.5780   -5.5140    4.8950 C   0  0  0  0  0
   72.3790   -4.1080    3.1130 N   0  0  0  0  0
   70.1040   -4.1530    1.6790 C   0  0  0  0  0
   68.9920   -6.9300    3.8930 N   0  0  0  0  0
   67.8640   -5.0250    3.2140 N   0  0  0  0  0
   67.0300   -5.9570    3.7010 C   0  0  0  0  0
   65.5360   -5.9230    3.8580 C   0  0  0  0  0
   73.3510   -2.7470    1.4770 N   0  0  0  0  0
   74.5800   -2.5960    2.1940 C   0  0  0  0  0
   74.3260   -1.3720    3.0690 C   0  0  0  0  0
   75.3110   -1.2570    4.1180 N   0  0  0  0  0
   76.4950   -1.9380    5.9640 N   0  0  0  0  0
   76.2390   -4.5710    9.7550 N   0  0  0  0  0
   67.2138   -8.0256    4.5640 H   0  0  0  0  0
   77.6686   -2.5447    7.5964 H   0  0  0  0  0
   73.7031   -4.1104    7.3649 H   0  0  0  0  0
   73.3610   -2.8511    5.2372 H   0  0  0  0  0
   73.1369   -6.7930    4.1417 H   0  0  0  0  0
   70.5276   -5.4466    8.0957 H   0  0  0  0  0
   73.6120   -7.8447    6.3474 H   0  0  0  0  0
   69.1832   -4.1600    1.0957 H   0  0  0  0  0
   65.0929   -6.7360    3.2829 H   0  0  0  0  0
   65.2799   -6.0395    4.9110 H   0  0  0  0  0
   65.1553   -4.9689    3.4936 H   0  0  0  0  0
   73.2629   -2.3018    0.5635 H   0  0  0  0  0
   75.4386   -2.4701    1.5344 H   0  0  0  0  0
   74.8391   -3.4812    2.7748 H   0  0  0  0  0
   73.3430   -1.4745    3.5286 H   0  0  0  0  0
   74.3838   -0.4820    2.4424 H   0  0  0  0  0
   76.0577   -0.5765    3.9775 H   0  0  0  0  0
 23  1  4  0  0  0
 25  1  4  0  0  0
  3  2  1  0  0  0
  2 23  4  0  0  0
  2 24  4  0  0  0
  4  3  4  0  0  0
 22  3  4  0  0  0
  4 20  1  0  0  0
 21  4  4  0  0  0
  5  6  4  0  0  0
  5 21  4  0  0  0
 27  5  1  0  0  0
  6 22  4  0  0  0
  7 11  4  0  0  0
 30  7  1  0  0  0
  7 31  4  0  0  0
  8  9  4  0  0  0
 31  8  4  0  0  0
 10  9  4  0  0  0
  9 12  1  0  0  0
 11 10  4  0  0  0
 12 32  3  0  0  0
 13 19  4  0  0  0
 20 13  4  0  0  0
 15 14  1  0  0  0
 16 15  4  0  0  0
 19 15  4  0  0  0
 17 16  4  0  0  0
 17 18  1  0  0  0
 20 17  4  0  0  0
 24 25  4  0  0  0
 25 26  1  0  0  0
 28 27  1  0  0  0
 29 28  1  0  0  0
 29 30  1  0  0  0
  1 33  1  0  0  0
  8 34  1  0  0  0
 10 35  1  0  0  0
 11 36  1  0  0  0
 13 37  1  0  0  0
 16 38  1  0  0  0
 19 39  1  0  0  0
 22 40  1  0  0  0
 26 41  1  0  0  0
 26 42  1  0  0  0
 26 43  1  0  0  0
 27 44  1  0  0  0
 28 45  1  0  0  0
 28 46  1  0  0  0
 29 47  1  0  0  0
 29 48  1  0  0  0
 30 49  1  0  0  0
M  END
$$$$
