2i3v_ligand
  -I-interpret- 

 20 19  0  0  0  0  0  0  0  0999 V2000
    0.5280   71.8270   81.2660 N   0  3  0  0  0
    1.2150   71.8080   79.9430 C   0  0  0  0  0
    2.5230   72.5640   79.9900 C   0  0  0  0  0
    3.1810   72.6180   78.9380 O   0  0  0  0  0
    0.3150   72.4040   78.8640 C   0  0  0  0  0
   -0.8770   71.5110   78.5050 C   0  0  0  0  0
   -0.5210   70.3310   77.5940 C   0  0  0  0  0
   -1.3840   69.4590   77.4060 O   0  0  0  0  0
    0.6020   70.2610   77.0560 O   0  0  0  0  0
    2.8830   73.0630   81.0850 O   0  0  0  0  0
    1.1437   71.4256   81.9733 H   0  0  0  0  0
    0.3023   72.7896   81.5168 H   0  0  0  0  0
   -0.3303   71.2788   81.2100 H   0  0  0  0  0
    1.4283   70.7672   79.6993 H   0  0  0  0  0
    0.9174   72.5257   77.9638 H   0  0  0  0  0
   -0.0821   73.3432   79.2490 H   0  0  0  0  0
   -1.5939   72.1304   77.9660 H   0  0  0  0  0
   -1.2614   71.0954   79.4365 H   0  0  0  0  0
    1.1288   71.0196   77.3178 H   0  0  0  0  0
    2.2112   72.8927   81.7493 H   0  0  0  0  0
  1  2  1  0  0  0
  2  3  1  0  0  0
  2  5  1  0  0  0
  3  4  2  0  0  0
  3 10  1  0  0  0
  5  6  1  0  0  0
  6  7  1  0  0  0
  7  8  2  0  0  0
  7  9  1  0  0  0
  1 11  1  0  0  0
  1 12  1  0  0  0
  1 13  1  0  0  0
  2 14  1  0  0  0
  5 15  1  0  0  0
  5 16  1  0  0  0
  6 17  1  0  0  0
  6 18  1  0  0  0
  9 19  1  0  0  0
 10 20  1  0  0  0
M  END
$$$$
