1bxr_ligand
  -I-interpret- 

 48 50  0  0  0  0  0  0  0  0999 V2000
   20.7420   29.4160   71.6650 P   0  0  0  0  0
   21.5970   29.0350   70.4450 O   0  0  0  0  0
   21.4680   30.4410   72.4470 O   0  0  0  0  0
   20.5270   28.1650   72.6600 O   0  0  0  0  0
   17.9740   29.1110   70.7120 P   0  0  0  0  0
   18.3140   28.3020   69.4830 O   0  0  0  0  0
   17.4090   28.2610   71.8170 O   0  0  0  0  0
   19.2880   29.9350   71.2370 N   0  0  0  0  0
   16.2510   31.3200   71.0760 P   0  0  0  0  0
   15.2010   30.8060   72.0270 O   0  0  0  0  0
   17.3890   31.9090   71.8580 O   0  0  0  0  0
   16.8310   30.1010   70.2470 O   0  0  0  0  0
   15.6130   32.4080   70.0710 O   0  0  0  0  0
   16.4020   32.8080   68.9130 C   0  0  0  0  0
   16.2000   34.2750   68.5030 C   0  0  0  0  0
   14.8860   34.4730   67.9180 O   0  0  0  0  0
   16.3140   35.3230   69.6070 C   0  0  0  0  0
   17.6850   35.6840   69.8610 O   0  0  0  0  0
   15.3520   36.4310   69.1340 C   0  0  0  0  0
   16.0400   37.5370   68.5280 O   0  0  0  0  0
   14.4090   35.7560   68.1460 C   0  0  0  0  0
   13.0470   35.6550   68.6980 N   0  0  0  0  0
   12.5860   34.7950   69.6380 C   0  0  0  0  0
   11.2790   34.9230   69.8850 N   0  0  0  0  0
   10.8660   35.9480   69.0720 C   0  0  0  0  0
    9.5790   36.5350   68.9260 C   0  0  0  0  0
    8.5250   36.2230   69.5420 N   0  0  0  0  0
    9.6240   37.5490   68.0120 N   0  0  0  0  0
   10.7340   37.9740   67.3150 C   0  0  0  0  0
   11.9220   37.4480   67.4500 N   0  0  0  0  0
   11.9430   36.4300   68.3430 C   0  0  0  0  0
   21.1367   28.3696   69.9283 H   0  0  0  0  0
   20.0569   27.4671   72.1979 H   0  0  0  0  0
   18.6698   28.8833   68.8069 H   0  0  0  0  0
   19.1597   30.9448   71.3023 H   0  0  0  0  0
   14.4738   30.4296   71.5259 H   0  0  0  0  0
   16.0850   32.1890   68.0737 H   0  0  0  0  0
   17.4524   32.6856   69.1770 H   0  0  0  0  0
   17.0260   34.4308   67.8091 H   0  0  0  0  0
   16.0186   34.9931   70.6030 H   0  0  0  0  0
   17.7173   36.3427   70.5586 H   0  0  0  0  0
   14.8166   36.8645   69.9787 H   0  0  0  0  0
   15.4005   38.1974   68.2514 H   0  0  0  0  0
   14.3683   36.3434   67.2287 H   0  0  0  0  0
   13.2208   34.0680   70.1445 H   0  0  0  0  0
    8.5412   35.4729   70.2330 H   0  0  0  0  0
    7.6556   36.7205   69.3496 H   0  0  0  0  0
   10.6138   38.7967   66.6102 H   0  0  0  0  0
  1  2  1  0  0  0
  1  3  2  0  0  0
  1  4  1  0  0  0
  8  1  1  0  0  0
  5  6  1  0  0  0
  5  7  2  0  0  0
  5  8  1  0  0  0
 12  5  1  0  0  0
  9 10  1  0  0  0
  9 11  2  0  0  0
  9 12  1  0  0  0
  9 13  1  0  0  0
 13 14  1  0  0  0
 14 15  1  0  0  0
 15 16  1  0  0  0
 15 17  1  0  0  0
 16 21  1  0  0  0
 17 18  1  0  0  0
 17 19  1  0  0  0
 19 20  1  0  0  0
 19 21  1  0  0  0
 21 22  1  0  0  0
 22 23  4  0  0  0
 22 31  4  0  0  0
 23 24  4  0  0  0
 24 25  4  0  0  0
 25 26  4  0  0  0
 25 31  4  0  0  0
 26 27  1  0  0  0
 26 28  4  0  0  0
 28 29  4  0  0  0
 29 30  4  0  0  0
 30 31  4  0  0  0
  2 32  1  0  0  0
  4 33  1  0  0  0
  6 34  1  0  0  0
  8 35  1  0  0  0
 10 36  1  0  0  0
 14 37  1  0  0  0
 14 38  1  0  0  0
 15 39  1  0  0  0
 17 40  1  0  0  0
 18 41  1  0  0  0
 19 42  1  0  0  0
 20 43  1  0  0  0
 21 44  1  0  0  0
 23 45  1  0  0  0
 27 46  1  0  0  0
 27 47  1  0  0  0
 29 48  1  0  0  0
M  END
$$$$
