3qx9_ligand
  -I-interpret- 

 47 49  0  0  0  0  0  0  0  0999 V2000
   20.7120   10.3420  -24.2540 P   0  0  0  0  0
   19.2990   10.1600  -24.7530 O   0  0  0  0  0
   21.1250   11.7820  -24.0720 O   0  0  0  0  0
   21.7350    9.4750  -24.9490 O   0  0  0  0  0
   20.7040    8.1880  -22.4320 P   0  0  0  0  0
   19.4550    7.5560  -22.9930 O   0  0  0  0  0
   22.0530    7.6380  -22.8230 O   0  0  0  0  0
   20.6850    9.7710  -22.7490 O   0  0  0  0  0
   19.3740    7.5250  -20.0490 P   0  0  0  0  0
   19.5840    6.0430  -19.8670 O   0  0  0  0  0
   18.1150    8.0400  -20.7070 O   0  0  0  0  0
   20.6270    8.1740  -20.8270 O   0  0  0  0  0
   19.5150    8.2470  -18.6170 O   0  0  0  0  0
   18.5500    9.2090  -18.1930 C   0  0  0  0  0
   18.7420    9.5290  -16.7150 C   0  0  0  0  0
   20.1150    9.4280  -16.3340 O   0  0  0  0  0
   18.2890   10.9440  -16.3780 C   0  0  0  0  0
   17.1090   10.8940  -15.5670 O   0  0  0  0  0
   19.4570   11.5750  -15.6330 C   0  0  0  0  0
   19.0540   12.2020  -14.4120 O   0  0  0  0  0
   20.4150   10.4210  -15.3550 C   0  0  0  0  0
   21.8290   10.8530  -15.4430 N   0  0  0  0  0
   22.4270   11.3970  -16.5210 C   0  0  0  0  0
   23.7300   11.6810  -16.2680 N   0  0  0  0  0
   23.9880   11.3180  -14.9970 C   0  0  0  0  0
   25.1630   11.3430  -14.0940 C   0  0  0  0  0
   26.3620   11.8290  -14.5050 N   0  0  0  0  0
   25.0030   10.8650  -12.8450 N   0  0  0  0  0
   23.8200   10.3820  -12.4200 C   0  0  0  0  0
   22.7130   10.3310  -13.1800 N   0  0  0  0  0
   22.7320   10.7770  -14.4580 C   0  0  0  0  0
   19.1109    9.2229  -24.8432 H   0  0  0  0  0
   21.3961    8.5800  -25.0243 H   0  0  0  0  0
   22.7423    8.1438  -22.3864 H   0  0  0  0  0
   18.1431    8.9989  -20.7425 H   0  0  0  0  0
   17.5500    8.8022  -18.3435 H   0  0  0  0  0
   18.6756   10.1217  -18.7754 H   0  0  0  0  0
   18.1377    8.8008  -16.1739 H   0  0  0  0  0
   18.0333   11.5266  -17.2630 H   0  0  0  0  0
   16.8279   11.7877  -15.3576 H   0  0  0  0  0
   19.9129   12.3687  -16.2248 H   0  0  0  0  0
   19.8222   12.5834  -13.9807 H   0  0  0  0  0
   20.2881   10.0370  -14.3428 H   0  0  0  0  0
   21.9292   11.5846  -17.4724 H   0  0  0  0  0
   26.4688   12.1876  -15.4539 H   0  0  0  0  0
   27.1561   11.8356  -13.8649 H   0  0  0  0  0
   23.7566   10.0098  -11.3975 H   0  0  0  0  0
  1  2  1  0  0  0
  1  3  2  0  0  0
  1  4  1  0  0  0
  8  1  1  0  0  0
  5  6  2  0  0  0
  5  7  1  0  0  0
  5  8  1  0  0  0
 12  5  1  0  0  0
  9 10  2  0  0  0
  9 11  1  0  0  0
  9 12  1  0  0  0
  9 13  1  0  0  0
 13 14  1  0  0  0
 14 15  1  0  0  0
 15 16  1  0  0  0
 15 17  1  0  0  0
 16 21  1  0  0  0
 17 18  1  0  0  0
 17 19  1  0  0  0
 19 20  1  0  0  0
 19 21  1  0  0  0
 21 22  1  0  0  0
 22 23  4  0  0  0
 22 31  4  0  0  0
 23 24  4  0  0  0
 24 25  4  0  0  0
 25 26  4  0  0  0
 25 31  4  0  0  0
 26 27  1  0  0  0
 26 28  4  0  0  0
 28 29  4  0  0  0
 29 30  4  0  0  0
 30 31  4  0  0  0
  2 32  1  0  0  0
  4 33  1  0  0  0
  7 34  1  0  0  0
 11 35  1  0  0  0
 14 36  1  0  0  0
 14 37  1  0  0  0
 15 38  1  0  0  0
 17 39  1  0  0  0
 18 40  1  0  0  0
 19 41  1  0  0  0
 20 42  1  0  0  0
 21 43  1  0  0  0
 23 44  1  0  0  0
 27 45  1  0  0  0
 27 46  1  0  0  0
 29 47  1  0  0  0
M  END
$$$$
