### 
### Created by X-TOOL on Mon Sep 10 21:13:14 2018
### 

@<TRIPOS>MOLECULE
4m1d_ligand
  219   223     1     0     0
SMALL
GAST_HUCK


@<TRIPOS>ATOM
      1 N           0.8660   24.9840   71.7810 N.4       1 CYS         0.2385
      2 CA          0.8260   25.0620   70.3280 C.3       1 CYS         0.0749
      3 C           0.1140   23.8440   69.7290 C.2       1 CYS         0.2275
      4 O          -0.2230   22.8970   70.4460 O.2       1 CYS        -0.3907
      5 CB          2.2440   25.1920   69.7730 C.3       1 CYS         0.0643
      6 SG          3.0860   26.7410   70.2640 S.3       1 CYS        -0.0848
      7 N          -0.1210   23.8720   68.4220 N.am      1 ARG        -0.2610
      8 CA         -0.7860   22.7580   67.7420 C.3       1 ARG         0.1312
      9 C           0.1110   22.1890   66.6620 C.2       1 ARG         0.2039
     10 O           0.8420   22.9250   65.9970 O.2       1 ARG        -0.3944
     11 CB         -2.0930   23.2410   67.1120 C.3       1 ARG        -0.0092
     12 CG         -3.0770   23.8100   68.1130 C.3       1 ARG        -0.0156
     13 CD         -4.3510   24.2100   67.3990 C.3       1 ARG         0.0627
     14 NE         -5.3600   24.7460   68.3100 N.pl3     1 ARG        -0.2723
     15 CZ         -6.5780   25.1040   67.9220 C.cat     1 ARG         0.2882
     16 NH1        -6.9330   24.9690   66.6470 N.pl3     1 ARG        -0.2849
     17 NH2        -7.4440   25.5910   68.8020 N.pl3     1 ARG        -0.2849
     18 N           0.0800   20.8670   66.5070 N.am      1 ILE        -0.2635
     19 CA          0.8210   20.2210   65.4550 C.3       1 ILE         0.1335
     20 C          -0.2070   19.5950   64.5210 C.2       1 ILE         0.2043
     21 O          -1.1110   18.9100   64.9730 O.2       1 ILE        -0.3944
     22 CB          1.7690   19.1570   66.0380 C.3       1 ILE        -0.0037
     23 CG1         2.8240   19.8300   66.9380 C.3       1 ILE        -0.0491
     24 CG2         2.4270   18.3420   64.9280 C.3       1 ILE        -0.0582
     25 CD1         3.8170   18.8460   67.5530 C.3       1 ILE        -0.0648
     26 N          -0.0610   19.8590   63.2300 N.am      1 HIS        -0.2625
     27 CA         -1.0270   19.4600   62.2230 C.3       1 HIS         0.1369
     28 C          -0.3990   18.4410   61.3010 C.2       1 HIS         0.2054
     29 O           0.6330   18.7040   60.6640 O.2       1 HIS        -0.3942
     30 CB         -1.4960   20.6760   61.4130 C.3       1 HIS         0.0145
     31 CG         -2.1240   21.7370   62.2570 C.2       1 HIS        -0.0027
     32 ND1        -3.4540   21.7090   62.6160 N.2       1 HIS        -0.3252
     33 CD2        -1.5960   22.8430   62.8310 C.2       1 HIS         0.0291
     34 CE1        -3.7260   22.7710   63.3590 C.2       1 HIS         0.0907
     35 NE2        -2.6120   23.4680   63.5170 N.pl3     1 HIS        -0.2752
     36 N          -1.0230   17.2670   61.2380 N.am      1 ILE        -0.2634
     37 CA         -0.4780   16.1540   60.4700 C.3       1 ILE         0.1335
     38 C          -1.4250   15.8770   59.3020 C.2       1 ILE         0.2040
     39 O          -2.4120   15.1640   59.4390 O.2       1 ILE        -0.3944
     40 CB         -0.3260   14.8780   61.3460 C.3       1 ILE        -0.0037
     41 CG1         0.4870   15.1540   62.6200 C.3       1 ILE        -0.0491
     42 CG2         0.2480   13.6840   60.5350 C.3       1 ILE        -0.0582
     43 CD1         1.8970   15.5850   62.3630 C.3       1 ILE        -0.0648
     44 N          -1.1260   16.4700   58.1510 N.am      1 GLY        -0.2664
     45 CA         -1.9670   16.3190   56.9790 C.3       1 GLY         0.1203
     46 C          -1.5300   17.2870   55.8950 C.2       1 GLY         0.2032
     47 O          -0.7480   18.2070   56.1450 O.2       1 GLY        -0.3945
     48 N          -2.0380   17.0840   54.6770 N.am      1 PRO        -0.2501
     49 CA         -1.5180   17.7980   53.5110 C.3       1 PRO         0.1338
     50 C          -1.9670   19.2460   53.4980 C.2       1 PRO         0.2039
     51 O          -3.1290   19.5240   53.7890 O.2       1 PRO        -0.3944
     52 CB         -2.1210   17.0310   52.3270 C.3       1 PRO        -0.0104
     53 CG         -3.3720   16.3840   52.8860 C.3       1 PRO        -0.0281
     54 CD         -3.0710   16.0820   54.3340 C.3       1 PRO         0.0369
     55 N          -1.0510   20.1480   53.1660 N.am      1 GLY        -0.2664
     56 CA         -1.4090   21.5470   53.0070 C.3       1 GLY         0.1201
     57 C          -1.4590   22.3220   54.3020 C.2       1 GLY         0.2007
     58 O          -1.5730   23.5500   54.2660 O.2       1 GLY        -0.3947
     59 N          -1.3830   21.6300   55.4400 N.am      1 ARG        -0.2640
     60 CA         -1.4700   22.2930   56.7460 C.3       1 ARG         0.1311
     61 C          -0.1180   22.8590   57.1840 C.2       1 ARG         0.2039
     62 O           0.9200   22.2280   56.9680 O.2       1 ARG        -0.3944
     63 CB         -1.9370   21.2850   57.8080 C.3       1 ARG        -0.0092
     64 CG         -3.1610   20.4760   57.3700 C.3       1 ARG        -0.0156
     65 CD         -4.4240   21.2450   57.5790 C.3       1 ARG         0.0627
     66 NE         -5.5710   20.5360   57.0140 N.pl3     1 ARG        -0.2723
     67 CZ         -6.8410   20.8750   57.2330 C.cat     1 ARG         0.2882
     68 NH1        -7.1390   21.9190   58.0430 N.pl3     1 ARG        -0.2849
     69 NH2        -7.8110   20.1570   56.6700 N.pl3     1 ARG        -0.2849
     70 N          -0.1130   24.0330   57.8150 N.am      1 ALA        -0.2640
     71 CA          1.1090   24.4750   58.4830 C.3       1 ALA         0.1282
     72 C           1.4160   23.4480   59.5720 C.2       1 ALA         0.2037
     73 O           0.5440   23.0850   60.3500 O.2       1 ALA        -0.3944
     74 CB          0.9350   25.8730   59.0970 C.3       1 ALA        -0.0244
     75 N           2.6570   22.9870   59.6220 N.am      1 PHE        -0.2619
     76 CA          3.0310   21.8870   60.4940 C.3       1 PHE         0.1404
     77 C           2.8350   22.2550   61.9800 C.2       1 PHE         0.2061
     78 O           2.3160   21.4570   62.7630 O.2       1 PHE        -0.3942
     79 CB          4.4820   21.4960   60.1700 C.3       1 PHE         0.0214
     80 CG          4.9560   20.2200   60.7970 C.ar      1 PHE        -0.0386
     81 CD1         4.0720   19.2950   61.3320 C.ar      1 PHE        -0.0601
     82 CD2         6.3150   19.9390   60.8290 C.ar      1 PHE        -0.0601
     83 CE1         4.5390   18.1260   61.9050 C.ar      1 PHE        -0.0686
     84 CE2         6.7890   18.7640   61.3990 C.ar      1 PHE        -0.0686
     85 CZ          5.8890   17.8580   61.9370 C.ar      1 PHE        -0.0687
     86 N           3.2530   23.4620   62.3660 N.am      1 TYR        -0.2620
     87 CA          3.1190   23.9380   63.7460 C.3       1 TYR         0.1390
     88 C           2.4410   25.2920   63.7350 C.2       1 TYR         0.2058
     89 O           2.8240   26.1680   62.9460 O.2       1 TYR        -0.3942
     90 CB          4.4760   24.1980   64.3570 C.3       1 TYR         0.0163
     91 CG          5.1560   22.9990   64.9240 C.ar      1 TYR        -0.0493
     92 CD1         5.5450   21.9520   64.1000 C.ar      1 TYR        -0.0685
     93 CD2         5.4400   22.9190   66.2760 C.ar      1 TYR        -0.0685
     94 CE1         6.2100   20.8590   64.6140 C.ar      1 TYR        -0.0398
     95 CE2         6.1110   21.8190   66.8060 C.ar      1 TYR        -0.0398
     96 CZ          6.4820   20.7900   65.9610 C.ar      1 TYR         0.0805
     97 OH          7.1400   19.6850   66.4610 O.3       1 TYR        -0.3376
     98 N           1.4730   25.4780   64.6290 N.am      1 THR        -0.2612
     99 CA          0.8540   26.7950   64.7920 C.3       1 THR         0.1564
    100 C           0.8120   27.1410   66.2710 C.2       1 THR         0.2059
    101 O           0.7680   26.2570   67.1270 O.2       1 THR        -0.3943
    102 CB         -0.5780   26.8640   64.2220 C.3       1 THR         0.0924
    103 OG1        -1.4350   25.9400   64.9130 O.3       1 THR        -0.3874
    104 CG2        -0.6020   26.5940   62.7120 C.3       1 THR        -0.0346
    105 N           0.8510   28.4300   66.5770 N.am      1 CYS        -0.2686
    106 CA          0.7520   28.8710   67.9590 C.3       1 CYS         0.1041
    107 C          -0.2200   30.0390   68.0340 C.2       1 CYS         0.0609
    108 O          -1.2550   30.0790   67.3490 O.co2     1 CYS        -0.5666
    109 CB          2.1190   29.2970   68.5030 C.3       1 CYS         0.0388
    110 SG          3.3380   27.9820   68.6530 S.3       1 CYS        -0.0887
    111 OXT         0.0270   30.9700   68.7900 O.co2     1 CYS        -0.5666
    112 H1          1.3384   25.7952   72.1481 H         1 CYS         0.2015
    113 H2          1.3620   24.1518   72.0593 H         1 CYS         0.2015
    114 H3         -0.0746   24.9510   72.1418 H         1 CYS         0.2015
    115 H4          0.2600   25.9620   70.0459 H         1 CYS         0.1107
    116 H5          2.1917   25.1581   68.6748 H         1 CYS         0.0466
    117 H6          2.8393   24.3422   70.1382 H         1 CYS         0.0466
    118 H7          0.1621   24.6706   67.8909 H         1 ARG         0.1884
    119 H8         -1.0080   21.9706   68.4773 H         1 ARG         0.0800
    120 H9         -2.5686   22.3898   66.6028 H         1 ARG         0.0313
    121 H10        -1.8555   24.0228   66.3755 H         1 ARG         0.0313
    122 H11        -2.6364   24.6932   68.5986 H         1 ARG         0.0301
    123 H12        -3.3067   23.0496   68.8739 H         1 ARG         0.0301
    124 H13        -4.7658   23.3244   66.8953 H         1 ARG         0.0689
    125 H14        -4.1089   24.9782   66.6498 H         1 ARG         0.0689
    126 H15        -5.1134   24.8515   69.3045 H         1 ARG         0.2642
    127 H16        -7.8774   25.2460   66.3433 H         1 ARG         0.2615
    128 H17        -6.2634   24.5875   65.9636 H         1 ARG         0.2615
    129 H18        -7.1707   25.6961   69.7895 H         1 ARG         0.2615
    130 H19        -8.3894   25.8638   68.4974 H         1 ARG         0.2615
    131 H20        -0.4682   20.3123   67.1330 H         1 ILE         0.1883
    132 H21         1.4158   20.9655   64.9056 H         1 ILE         0.0803
    133 H22         1.1757   18.4693   66.6585 H         1 ILE         0.0345
    134 H23         2.3032   20.3541   67.7529 H         1 ILE         0.0267
    135 H24         3.3845   20.5579   66.3330 H         1 ILE         0.0267
    136 H25         1.6493   17.8759   64.3051 H         1 ILE         0.0235
    137 H26         3.0585   17.5590   65.3731 H         1 ILE         0.0235
    138 H27         3.0474   19.0037   64.3057 H         1 ILE         0.0235
    139 H28         4.5362   19.3942   68.1793 H         1 ILE         0.0230
    140 H29         4.3557   18.3195   66.7514 H         1 ILE         0.0230
    141 H30         3.2744   18.1157   68.1713 H         1 ILE         0.0230
    142 H31         0.7545   20.3574   62.9357 H         1 HIS         0.1885
    143 H32        -1.8969   19.0073   62.7214 H         1 HIS         0.0817
    144 H33        -2.2333   20.3382   60.6698 H         1 HIS         0.0420
    145 H34        -0.6266   21.1088   60.8965 H         1 HIS         0.0420
    146 H35        -0.5614   23.1758   62.7628 H         1 HIS         0.0729
    147 H36        -4.7012   23.0274   63.7703 H         1 HIS         0.1199
    148 H37        -2.5206   24.3360   64.0639 H         1 HIS         0.2361
    149 H38        -1.8857   17.1455   61.7289 H         1 ILE         0.1883
    150 H39         0.5115   16.4350   60.0802 H         1 ILE         0.0803
    151 H40        -1.3370   14.5884   61.6684 H         1 ILE         0.0345
    152 H41         0.5113   14.2329   63.2208 H         1 ILE         0.0267
    153 H42        -0.0192   15.9487   63.1876 H         1 ILE         0.0267
    154 H43        -0.3639   13.5241   59.6350 H         1 ILE         0.0235
    155 H44         0.2304   12.7765   61.1563 H         1 ILE         0.0235
    156 H45         1.2840   13.9059   60.2393 H         1 ILE         0.0235
    157 H46         2.4070   15.7612   63.3216 H         1 ILE         0.0230
    158 H47         1.8949   16.5132   61.7727 H         1 ILE         0.0230
    159 H48         2.4254   14.7974   61.8059 H         1 ILE         0.0230
    160 H49        -0.3020   17.0335   58.0915 H         1 GLY         0.1881
    161 H50        -3.0122   16.5264   57.2521 H         1 GLY         0.0763
    162 H51        -1.8840   15.2890   56.6019 H         1 GLY         0.0763
    163 H52        -0.4190   17.7575   53.4869 H         1 PRO         0.0802
    164 H53        -1.4191   16.2669   51.9616 H         1 PRO         0.0313
    165 H54        -2.3734   17.7192   51.5069 H         1 PRO         0.0313
    166 H55        -3.5988   15.4559   52.3409 H         1 PRO         0.0287
    167 H56        -4.2261   17.0728   52.8086 H         1 PRO         0.0287
    168 H57        -3.9675   16.2091   54.9586 H         1 PRO         0.0524
    169 H58        -2.6838   15.0592   54.4520 H         1 PRO         0.0524
    170 H59        -0.1037   19.8611   53.0237 H         1 GLY         0.1881
    171 H60        -2.4015   21.5981   52.5354 H         1 GLY         0.0763
    172 H61        -0.6656   22.0211   52.3493 H         1 GLY         0.0763
    173 H62        -1.2641   20.6378   55.4021 H         1 ARG         0.1883
    174 H63        -2.1975   23.1152   56.6772 H         1 ARG         0.0800
    175 H64        -2.1913   21.8356   58.7257 H         1 ARG         0.0313
    176 H65        -1.1122   20.5875   58.0155 H         1 ARG         0.0313
    177 H66        -3.2057   19.5474   57.9579 H         1 ARG         0.0301
    178 H67        -3.0642   20.2297   56.3023 H         1 ARG         0.0301
    179 H68        -4.3322   22.2264   57.0908 H         1 ARG         0.0689
    180 H69        -4.5846   21.3858   58.6580 H         1 ARG         0.0689
    181 H70        -5.3858   19.7235   56.4087 H         1 ARG         0.2642
    182 H71        -8.1221   22.1775   58.2094 H         1 ARG         0.2615
    183 H72        -6.3825   22.4544   58.4925 H         1 ARG         0.2615
    184 H73        -7.5750   19.3648   56.0554 H         1 ARG         0.2615
    185 H74        -8.7973   20.3938   56.8491 H         1 ARG         0.2615
    186 H75        -0.9342   24.6034   57.8310 H         1 ALA         0.1883
    187 H76         1.9352   24.5055   57.7574 H         1 ALA         0.0797
    188 H77         1.8702   26.1755   59.5909 H         1 ALA         0.0277
    189 H78         0.1208   25.8501   59.8363 H         1 ALA         0.0277
    190 H79         0.6896   26.5941   58.3034 H         1 ALA         0.0277
    191 H80         3.3556   23.4079   59.0434 H         1 PHE         0.1885
    192 H81         2.3819   21.0268   60.2732 H         1 PHE         0.0823
    193 H82         5.1382   22.3086   60.5151 H         1 PHE         0.0474
    194 H83         4.5704   21.3917   59.0785 H         1 PHE         0.0474
    195 H84         3.0061   19.4898   61.3008 H         1 PHE         0.0557
    196 H85         7.0168   20.6468   60.4029 H         1 PHE         0.0557
    197 H86         3.8383   17.4171   62.3311 H         1 PHE         0.0599
    198 H87         7.8530   18.5579   61.4227 H         1 PHE         0.0599
    199 H88         6.2481   16.9377   62.3833 H         1 PHE         0.0559
    200 H89         3.6737   24.0648   61.6880 H         1 TYR         0.1885
    201 H90         2.5508   23.2102   64.3438 H         1 TYR         0.0821
    202 H91         4.3500   24.9324   65.1662 H         1 TYR         0.0453
    203 H92         5.1256   24.6204   63.5763 H         1 TYR         0.0453
    204 H93         5.3233   21.9941   63.0397 H         1 TYR         0.0530
    205 H94         5.1354   23.7253   66.9334 H         1 TYR         0.0530
    206 H95         6.5185   20.0540   63.9569 H         1 TYR         0.0525
    207 H96         6.3386   21.7709   67.8647 H         1 TYR         0.0525
    208 H97         7.9572   19.9585   66.8608 H         1 TYR         0.2458
    209 H98         1.1658   24.7122   65.1940 H         1 THR         0.1884
    210 H99         1.4728   27.5361   64.2649 H         1 THR         0.0826
    211 H100       -0.9619   27.8810   64.3904 H         1 THR         0.0639
    212 H101       -1.4573   26.1607   65.8367 H         1 THR         0.2101
    213 H102       -1.6375   26.6522   62.3456 H         1 THR         0.0257
    214 H103       -0.1983   25.5904   62.5125 H         1 THR         0.0257
    215 H104        0.0125   27.3458   62.1952 H         1 THR         0.0257
    216 H105        0.9497   29.1077   65.8483 H         1 CYS         0.1876
    217 H106        0.3699   28.0417   68.5723 H         1 CYS         0.0734
    218 H107        1.9656   29.7322   69.5015 H         1 CYS         0.0425
    219 H108        2.5285   30.0630   67.8281 H         1 CYS         0.0425
@<TRIPOS>BOND
     1    1    2 1  
     2    2    3 1  
     3    2    5 1  
     4    3    4 2  
     5    3    7 am 
     6    5    6 1  
     7    6  110 1  
     8    7    8 1  
     9    8    9 1  
    10    8   11 1  
    11    9   10 2  
    12    9   18 am 
    13   11   12 1  
    14   12   13 1  
    15   13   14 1  
    16   14   15 ar 
    17   15   16 ar 
    18   15   17 ar 
    19   18   19 1  
    20   19   20 1  
    21   19   22 1  
    22   20   21 2  
    23   20   26 am 
    24   22   23 1  
    25   22   24 1  
    26   23   25 1  
    27   26   27 1  
    28   27   28 1  
    29   27   30 1  
    30   28   29 2  
    31   28   36 am 
    32   30   31 1  
    33   31   32 1  
    34   31   33 2  
    35   32   34 2  
    36   33   35 1  
    37   34   35 1  
    38   36   37 1  
    39   37   38 1  
    40   37   40 1  
    41   38   39 2  
    42   38   44 am 
    43   40   41 1  
    44   40   42 1  
    45   41   43 1  
    46   44   45 1  
    47   45   46 1  
    48   46   47 2  
    49   46   48 am 
    50   48   49 1  
    51   48   54 1  
    52   49   50 1  
    53   49   52 1  
    54   50   51 2  
    55   50   55 am 
    56   52   53 1  
    57   53   54 1  
    58   55   56 1  
    59   56   57 1  
    60   57   58 2  
    61   57   59 am 
    62   59   60 1  
    63   60   61 1  
    64   60   63 1  
    65   61   62 2  
    66   61   70 am 
    67   63   64 1  
    68   64   65 1  
    69   65   66 1  
    70   66   67 ar 
    71   67   68 ar 
    72   67   69 ar 
    73   70   71 1  
    74   71   72 1  
    75   71   74 1  
    76   72   73 2  
    77   72   75 am 
    78   75   76 1  
    79   76   77 1  
    80   76   79 1  
    81   77   78 2  
    82   77   86 am 
    83   79   80 1  
    84   80   81 ar 
    85   80   82 ar 
    86   81   83 ar 
    87   82   84 ar 
    88   83   85 ar 
    89   84   85 ar 
    90   86   87 1  
    91   87   88 1  
    92   87   90 1  
    93   88   89 2  
    94   88   98 am 
    95   90   91 1  
    96   91   92 ar 
    97   91   93 ar 
    98   92   94 ar 
    99   93   95 ar 
   100   94   96 ar 
   101   95   96 ar 
   102   96   97 1  
   103   98   99 1  
   104   99  100 1  
   105   99  102 1  
   106  100  101 2  
   107  100  105 am 
   108  102  103 1  
   109  102  104 1  
   110  105  106 1  
   111  106  107 1  
   112  106  109 1  
   113  107  108 ar 
   114  107  111 ar 
   115  109  110 1  
   116    1  112 1  
   117    1  113 1  
   118    1  114 1  
   119    2  115 1  
   120    5  116 1  
   121    5  117 1  
   122    7  118 1  
   123    8  119 1  
   124   11  120 1  
   125   11  121 1  
   126   12  122 1  
   127   12  123 1  
   128   13  124 1  
   129   13  125 1  
   130   14  126 1  
   131   16  127 1  
   132   16  128 1  
   133   17  129 1  
   134   17  130 1  
   135   18  131 1  
   136   19  132 1  
   137   22  133 1  
   138   23  134 1  
   139   23  135 1  
   140   24  136 1  
   141   24  137 1  
   142   24  138 1  
   143   25  139 1  
   144   25  140 1  
   145   25  141 1  
   146   26  142 1  
   147   27  143 1  
   148   30  144 1  
   149   30  145 1  
   150   33  146 1  
   151   34  147 1  
   152   35  148 1  
   153   36  149 1  
   154   37  150 1  
   155   40  151 1  
   156   41  152 1  
   157   41  153 1  
   158   42  154 1  
   159   42  155 1  
   160   42  156 1  
   161   43  157 1  
   162   43  158 1  
   163   43  159 1  
   164   44  160 1  
   165   45  161 1  
   166   45  162 1  
   167   49  163 1  
   168   52  164 1  
   169   52  165 1  
   170   53  166 1  
   171   53  167 1  
   172   54  168 1  
   173   54  169 1  
   174   55  170 1  
   175   56  171 1  
   176   56  172 1  
   177   59  173 1  
   178   60  174 1  
   179   63  175 1  
   180   63  176 1  
   181   64  177 1  
   182   64  178 1  
   183   65  179 1  
   184   65  180 1  
   185   66  181 1  
   186   68  182 1  
   187   68  183 1  
   188   69  184 1  
   189   69  185 1  
   190   70  186 1  
   191   71  187 1  
   192   74  188 1  
   193   74  189 1  
   194   74  190 1  
   195   75  191 1  
   196   76  192 1  
   197   79  193 1  
   198   79  194 1  
   199   81  195 1  
   200   82  196 1  
   201   83  197 1  
   202   84  198 1  
   203   85  199 1  
   204   86  200 1  
   205   87  201 1  
   206   90  202 1  
   207   90  203 1  
   208   92  204 1  
   209   93  205 1  
   210   94  206 1  
   211   95  207 1  
   212   97  208 1  
   213   98  209 1  
   214   99  210 1  
   215  102  211 1  
   216  103  212 1  
   217  104  213 1  
   218  104  214 1  
   219  104  215 1  
   220  105  216 1  
   221  106  217 1  
   222  109  218 1  
   223  109  219 1  
@<TRIPOS>SUBSTRUCTURE
     1 CYS         1

