4m1d_ligand
  -I-interpret- 

217221  0  0  0  0  0  0  0  0999 V2000
    0.8660   24.9840   71.7810 N   0  3  0  0  0
    0.8260   25.0620   70.3280 C   0  0  0  0  0
    0.1140   23.8440   69.7290 C   0  0  0  0  0
   -0.2230   22.8970   70.4460 O   0  0  0  0  0
    2.2440   25.1920   69.7730 C   0  0  0  0  0
    3.0860   26.7410   70.2640 S   0  0  0  0  0
   -0.1210   23.8720   68.4220 N   0  0  0  0  0
   -0.7860   22.7580   67.7420 C   0  0  0  0  0
    0.1110   22.1890   66.6620 C   0  0  0  0  0
    0.8420   22.9250   65.9970 O   0  0  0  0  0
   -2.0930   23.2410   67.1120 C   0  0  0  0  0
   -3.0770   23.8100   68.1130 C   0  0  0  0  0
   -4.3510   24.2100   67.3990 C   0  0  0  0  0
   -5.3600   24.7460   68.3100 N   0  0  0  0  0
   -6.5780   25.1040   67.9220 C   0  0  0  0  0
   -6.9330   24.9690   66.6470 N   0  0  0  0  0
   -7.4440   25.5910   68.8020 N   0  0  0  0  0
    0.0800   20.8670   66.5070 N   0  0  0  0  0
    0.8210   20.2210   65.4550 C   0  0  0  0  0
   -0.2070   19.5950   64.5210 C   0  0  0  0  0
   -1.1110   18.9100   64.9730 O   0  0  0  0  0
    1.7690   19.1570   66.0380 C   0  0  0  0  0
    2.8240   19.8300   66.9380 C   0  0  0  0  0
    2.4270   18.3420   64.9280 C   0  0  0  0  0
    3.8170   18.8460   67.5530 C   0  0  0  0  0
   -0.0610   19.8590   63.2300 N   0  0  0  0  0
   -1.0270   19.4600   62.2230 C   0  0  0  0  0
   -0.3990   18.4410   61.3010 C   0  0  0  0  0
    0.6330   18.7040   60.6640 O   0  0  0  0  0
   -1.4960   20.6760   61.4130 C   0  0  0  0  0
   -2.1240   21.7370   62.2570 C   0  0  0  0  0
   -3.4540   21.7090   62.6160 N   0  0  0  0  0
   -1.5960   22.8430   62.8310 C   0  0  0  0  0
   -3.7260   22.7710   63.3590 C   0  0  0  0  0
   -2.6120   23.4680   63.5170 N   0  0  0  0  0
   -1.0230   17.2670   61.2380 N   0  0  0  0  0
   -0.4780   16.1540   60.4700 C   0  0  0  0  0
   -1.4250   15.8770   59.3020 C   0  0  0  0  0
   -2.4120   15.1640   59.4390 O   0  0  0  0  0
   -0.3260   14.8780   61.3460 C   0  0  0  0  0
    0.4870   15.1540   62.6200 C   0  0  0  0  0
    0.2480   13.6840   60.5350 C   0  0  0  0  0
    1.8970   15.5850   62.3630 C   0  0  0  0  0
   -1.1260   16.4700   58.1510 N   0  0  0  0  0
   -1.9670   16.3190   56.9790 C   0  0  0  0  0
   -1.5300   17.2870   55.8950 C   0  0  0  0  0
   -0.7480   18.2070   56.1450 O   0  0  0  0  0
   -2.0380   17.0840   54.6770 N   0  0  0  0  0
   -1.5180   17.7980   53.5110 C   0  0  0  0  0
   -1.9670   19.2460   53.4980 C   0  0  0  0  0
   -3.1290   19.5240   53.7890 O   0  0  0  0  0
   -2.1210   17.0310   52.3270 C   0  0  0  0  0
   -3.3720   16.3840   52.8860 C   0  0  0  0  0
   -3.0710   16.0820   54.3340 C   0  0  0  0  0
   -1.0510   20.1480   53.1660 N   0  0  0  0  0
   -1.4090   21.5470   53.0070 C   0  0  0  0  0
   -1.4590   22.3220   54.3020 C   0  0  0  0  0
   -1.5730   23.5500   54.2660 O   0  0  0  0  0
   -1.3830   21.6300   55.4400 N   0  0  0  0  0
   -1.4700   22.2930   56.7460 C   0  0  0  0  0
   -0.1180   22.8590   57.1840 C   0  0  0  0  0
    0.9200   22.2280   56.9680 O   0  0  0  0  0
   -1.9370   21.2850   57.8080 C   0  0  0  0  0
   -3.1610   20.4760   57.3700 C   0  0  0  0  0
   -4.4240   21.2450   57.5790 C   0  0  0  0  0
   -5.5710   20.5360   57.0140 N   0  0  0  0  0
   -6.8410   20.8750   57.2330 C   0  0  0  0  0
   -7.1390   21.9190   58.0430 N   0  0  0  0  0
   -7.8110   20.1570   56.6700 N   0  0  0  0  0
   -0.1130   24.0330   57.8150 N   0  0  0  0  0
    1.1090   24.4750   58.4830 C   0  0  0  0  0
    1.4160   23.4480   59.5720 C   0  0  0  0  0
    0.5440   23.0850   60.3500 O   0  0  0  0  0
    0.9350   25.8730   59.0970 C   0  0  0  0  0
    2.6570   22.9870   59.6220 N   0  0  0  0  0
    3.0310   21.8870   60.4940 C   0  0  0  0  0
    2.8350   22.2550   61.9800 C   0  0  0  0  0
    2.3160   21.4570   62.7630 O   0  0  0  0  0
    4.4820   21.4960   60.1700 C   0  0  0  0  0
    4.9560   20.2200   60.7970 C   0  0  0  0  0
    4.0720   19.2950   61.3320 C   0  0  0  0  0
    6.3150   19.9390   60.8290 C   0  0  0  0  0
    4.5390   18.1260   61.9050 C   0  0  0  0  0
    6.7890   18.7640   61.3990 C   0  0  0  0  0
    5.8890   17.8580   61.9370 C   0  0  0  0  0
    3.2530   23.4620   62.3660 N   0  0  0  0  0
    3.1190   23.9380   63.7460 C   0  0  0  0  0
    2.4410   25.2920   63.7350 C   0  0  0  0  0
    2.8240   26.1680   62.9460 O   0  0  0  0  0
    4.4760   24.1980   64.3570 C   0  0  0  0  0
    5.1560   22.9990   64.9240 C   0  0  0  0  0
    5.5450   21.9520   64.1000 C   0  0  0  0  0
    5.4400   22.9190   66.2760 C   0  0  0  0  0
    6.2100   20.8590   64.6140 C   0  0  0  0  0
    6.1110   21.8190   66.8060 C   0  0  0  0  0
    6.4820   20.7900   65.9610 C   0  0  0  0  0
    7.1400   19.6850   66.4610 O   0  0  0  0  0
    1.4730   25.4780   64.6290 N   0  0  0  0  0
    0.8540   26.7950   64.7920 C   0  0  0  0  0
    0.8120   27.1410   66.2710 C   0  0  0  0  0
    0.7680   26.2570   67.1270 O   0  0  0  0  0
   -0.5780   26.8640   64.2220 C   0  0  0  0  0
   -1.4350   25.9400   64.9130 O   0  0  0  0  0
   -0.6020   26.5940   62.7120 C   0  0  0  0  0
    0.8510   28.4300   66.5770 N   0  0  0  0  0
    0.7520   28.8710   67.9590 C   0  0  0  0  0
   -0.2200   30.0390   68.0340 C   0  0  0  0  0
   -1.2550   30.0790   67.3490 O   0  0  0  0  0
    2.1190   29.2970   68.5030 C   0  0  0  0  0
    3.3380   27.9820   68.6530 S   0  0  0  0  0
    0.0270   30.9700   68.7900 O   0  0  0  0  0
   -0.0841   24.8975   72.1419 H   0  0  0  0  0
    1.4130   24.1701   72.0617 H   0  0  0  0  0
    1.2970   25.8299   72.1540 H   0  0  0  0  0
    0.2567   25.9473   70.0447 H   0  0  0  0  0
    2.1700   25.1915   68.6855 H   0  0  0  0  0
    2.8279   24.3627   70.1722 H   0  0  0  0  0
    0.1678   24.6866   67.8803 H   0  0  0  0  0
   -0.9985   21.9801   68.4754 H   0  0  0  0  0
   -2.5669   22.3789   66.6428 H   0  0  0  0  0
   -1.8425   24.0379   66.4118 H   0  0  0  0  0
   -2.6403   24.6854   68.5937 H   0  0  0  0  0
   -3.3048   23.0562   68.8666 H   0  0  0  0  0
   -4.7648   23.3193   66.9262 H   0  0  0  0  0
   -4.1017   24.9888   66.6783 H   0  0  0  0  0
   -5.1158   24.8505   69.2948 H   0  0  0  0  0
   -7.8696   25.2396   66.3470 H   0  0  0  0  0
   -6.2686   24.5949   65.9695 H   0  0  0  0  0
   -7.1747   25.6914   69.7807 H   0  0  0  0  0
   -0.4792   20.3012   67.1455 H   0  0  0  0  0
    1.4457   20.9323   64.9147 H   0  0  0  0  0
    1.1865   18.4652   66.6464 H   0  0  0  0  0
    2.2939   20.3157   67.7573 H   0  0  0  0  0
    3.3914   20.5225   66.3162 H   0  0  0  0  0
    1.6569   17.8407   64.3417 H   0  0  0  0  0
    3.0016   19.0066   64.2828 H   0  0  0  0  0
    3.0908   17.5987   65.3695 H   0  0  0  0  0
    3.2781   18.1229   68.1653 H   0  0  0  0  0
    4.3500   18.3249   66.7577 H   0  0  0  0  0
    4.5290   19.3903   68.1733 H   0  0  0  0  0
    0.7708   20.3673   62.9298 H   0  0  0  0  0
   -1.8929   19.0213   62.7190 H   0  0  0  0  0
   -2.2471   20.3306   60.7027 H   0  0  0  0  0
   -0.6199   21.1111   60.9323 H   0  0  0  0  0
   -0.5604   23.1762   62.7627 H   0  0  0  0  0
   -4.7021   23.0276   63.7707 H   0  0  0  0  0
   -1.9030   17.1431   61.7387 H   0  0  0  0  0
    0.5156   16.4184   60.1081 H   0  0  0  0  0
   -1.3270   14.5888   61.6661 H   0  0  0  0  0
    0.5321   14.2214   63.1824 H   0  0  0  0  0
   -0.0081   15.9685   63.1487 H   0  0  0  0  0
   -0.4225   13.4528   59.7073 H   0  0  0  0  0
    1.2304   13.9502   60.1450 H   0  0  0  0  0
    0.3375   12.8141   61.1856 H   0  0  0  0  0
    2.4195   14.8038   61.8109 H   0  0  0  0  0
    1.8935   16.5047   61.7781 H   0  0  0  0  0
    2.4013   15.7593   63.3135 H   0  0  0  0  0
   -0.2855   17.0447   58.0903 H   0  0  0  0  0
   -3.0011   16.5301   57.2513 H   0  0  0  0  0
   -1.8788   15.2992   56.6045 H   0  0  0  0  0
   -0.4287   17.8324   53.4935 H   0  0  0  0  0
   -1.4269   16.2936   51.9238 H   0  0  0  0  0
   -2.3437   17.6888   51.4869 H   0  0  0  0  0
   -3.6267   15.4770   52.3377 H   0  0  0  0  0
   -4.2345   17.0436   52.7908 H   0  0  0  0  0
   -3.9527   16.1502   54.9712 H   0  0  0  0  0
   -2.7330   15.0575   54.4897 H   0  0  0  0  0
   -0.0847   19.8553   53.0209 H   0  0  0  0  0
   -2.4092   21.5767   52.5748 H   0  0  0  0  0
   -0.6413   22.0075   52.3852 H   0  0  0  0  0
   -1.2618   20.6180   55.4013 H   0  0  0  0  0
   -2.1810   23.1135   56.6490 H   0  0  0  0  0
   -2.2132   21.8473   58.7000 H   0  0  0  0  0
   -1.1207   20.5837   57.9810 H   0  0  0  0  0
   -3.2066   19.5655   57.9675 H   0  0  0  0  0
   -3.0648   20.2493   56.3082 H   0  0  0  0  0
   -4.3310   22.2105   57.0817 H   0  0  0  0  0
   -4.5837   21.3694   58.6500 H   0  0  0  0  0
   -5.3876   19.7314   56.4146 H   0  0  0  0  0
   -8.1129   22.1607   58.2260 H   0  0  0  0  0
   -6.3895   22.4634   58.4699 H   0  0  0  0  0
   -7.5776   19.3587   56.0796 H   0  0  0  0  0
   -0.9506   24.6148   57.8313 H   0  0  0  0  0
    1.9276   24.5460   57.7668 H   0  0  0  0  0
    0.6918   26.5865   58.3097 H   0  0  0  0  0
    0.1279   25.8489   59.8293 H   0  0  0  0  0
    1.8622   26.1716   59.5860 H   0  0  0  0  0
    3.3696   23.4163   59.0319 H   0  0  0  0  0
    2.3830   21.0283   60.3182 H   0  0  0  0  0
    5.1151   22.2913   60.5634 H   0  0  0  0  0
    4.5330   21.3515   59.0908 H   0  0  0  0  0
    3.0002   19.4909   61.3007 H   0  0  0  0  0
    7.0207   20.6507   60.4006 H   0  0  0  0  0
    3.8345   17.4132   62.3335 H   0  0  0  0  0
    7.8588   18.5567   61.4228 H   0  0  0  0  0
    6.2501   16.9326   62.3858 H   0  0  0  0  0
    3.6821   24.0769   61.6745 H   0  0  0  0  0
    2.5657   23.1809   64.3017 H   0  0  0  0  0
    4.3196   24.8900   65.1845 H   0  0  0  0  0
    5.1142   24.5704   63.5557 H   0  0  0  0  0
    5.3221   21.9944   63.0339 H   0  0  0  0  0
    5.1338   23.7298   66.9371 H   0  0  0  0  0
    6.5203   20.0496   63.9532 H   0  0  0  0  0
    6.3399   21.7706   67.8706 H   0  0  0  0  0
    7.2551   19.7843   67.4089 H   0  0  0  0  0
    1.1597   24.6969   65.2053 H   0  0  0  0  0
    1.4598   27.5075   64.2322 H   0  0  0  0  0
   -0.9489   27.8768   64.3792 H   0  0  0  0  0
   -2.3215   25.9936   64.5485 H   0  0  0  0  0
    0.0073   27.3396   62.2012 H   0  0  0  0  0
   -0.2017   25.5993   62.5156 H   0  0  0  0  0
   -1.6285   26.6519   62.3501 H   0  0  0  0  0
    0.9517   29.1213   65.8337 H   0  0  0  0  0
    0.3928   28.0419   68.5687 H   0  0  0  0  0
   -1.3119   29.2863   66.8106 H   0  0  0  0  0
    1.9473   29.6770   69.5101 H   0  0  0  0  0
    2.5251   30.0167   67.7922 H   0  0  0  0  0
  1  2  1  0  0  0
  2  3  1  0  0  0
  2  5  1  0  0  0
  3  4  2  0  0  0
  3  7  1  0  0  0
  5  6  1  0  0  0
  6110  1  0  0  0
  7  8  1  0  0  0
  8  9  1  0  0  0
  8 11  1  0  0  0
  9 10  2  0  0  0
  9 18  1  0  0  0
 11 12  1  0  0  0
 12 13  1  0  0  0
 13 14  1  0  0  0
 14 15  1  0  0  0
 15 16  1  0  0  0
 15 17  2  0  0  0
 18 19  1  0  0  0
 19 20  1  0  0  0
 19 22  1  0  0  0
 20 21  2  0  0  0
 20 26  1  0  0  0
 22 23  1  0  0  0
 22 24  1  0  0  0
 23 25  1  0  0  0
 26 27  1  0  0  0
 27 28  1  0  0  0
 27 30  1  0  0  0
 28 29  2  0  0  0
 28 36  1  0  0  0
 30 31  1  0  0  0
 31 32  4  0  0  0
 31 33  4  0  0  0
 32 34  4  0  0  0
 33 35  4  0  0  0
 34 35  4  0  0  0
 36 37  1  0  0  0
 37 38  1  0  0  0
 37 40  1  0  0  0
 38 39  2  0  0  0
 38 44  1  0  0  0
 40 41  1  0  0  0
 40 42  1  0  0  0
 41 43  1  0  0  0
 44 45  1  0  0  0
 45 46  1  0  0  0
 46 47  2  0  0  0
 46 48  1  0  0  0
 48 49  1  0  0  0
 48 54  1  0  0  0
 49 50  1  0  0  0
 49 52  1  0  0  0
 50 51  2  0  0  0
 50 55  1  0  0  0
 52 53  1  0  0  0
 53 54  1  0  0  0
 55 56  1  0  0  0
 56 57  1  0  0  0
 57 58  2  0  0  0
 57 59  1  0  0  0
 59 60  1  0  0  0
 60 61  1  0  0  0
 60 63  1  0  0  0
 61 62  2  0  0  0
 61 70  1  0  0  0
 63 64  1  0  0  0
 64 65  1  0  0  0
 65 66  1  0  0  0
 66 67  1  0  0  0
 67 68  1  0  0  0
 67 69  2  0  0  0
 70 71  1  0  0  0
 71 72  1  0  0  0
 71 74  1  0  0  0
 72 73  2  0  0  0
 72 75  1  0  0  0
 75 76  1  0  0  0
 76 77  1  0  0  0
 76 79  1  0  0  0
 77 78  2  0  0  0
 77 86  1  0  0  0
 79 80  1  0  0  0
 80 81  4  0  0  0
 80 82  4  0  0  0
 81 83  4  0  0  0
 82 84  4  0  0  0
 83 85  4  0  0  0
 84 85  4  0  0  0
 86 87  1  0  0  0
 87 88  1  0  0  0
 87 90  1  0  0  0
 88 89  2  0  0  0
 88 98  1  0  0  0
 90 91  1  0  0  0
 91 92  4  0  0  0
 91 93  4  0  0  0
 92 94  4  0  0  0
 93 95  4  0  0  0
 94 96  4  0  0  0
 95 96  4  0  0  0
 96 97  1  0  0  0
 98 99  1  0  0  0
 99100  1  0  0  0
 99102  1  0  0  0
100101  2  0  0  0
100105  1  0  0  0
102103  1  0  0  0
102104  1  0  0  0
105106  1  0  0  0
106107  1  0  0  0
106109  1  0  0  0
107108  1  0  0  0
107111  2  0  0  0
109110  1  0  0  0
  1112  1  0  0  0
  1113  1  0  0  0
  1114  1  0  0  0
  2115  1  0  0  0
  5116  1  0  0  0
  5117  1  0  0  0
  7118  1  0  0  0
  8119  1  0  0  0
 11120  1  0  0  0
 11121  1  0  0  0
 12122  1  0  0  0
 12123  1  0  0  0
 13124  1  0  0  0
 13125  1  0  0  0
 14126  1  0  0  0
 16127  1  0  0  0
 16128  1  0  0  0
 17129  1  0  0  0
 18130  1  0  0  0
 19131  1  0  0  0
 22132  1  0  0  0
 23133  1  0  0  0
 23134  1  0  0  0
 24135  1  0  0  0
 24136  1  0  0  0
 24137  1  0  0  0
 25138  1  0  0  0
 25139  1  0  0  0
 25140  1  0  0  0
 26141  1  0  0  0
 27142  1  0  0  0
 30143  1  0  0  0
 30144  1  0  0  0
 33145  1  0  0  0
 34146  1  0  0  0
 36147  1  0  0  0
 37148  1  0  0  0
 40149  1  0  0  0
 41150  1  0  0  0
 41151  1  0  0  0
 42152  1  0  0  0
 42153  1  0  0  0
 42154  1  0  0  0
 43155  1  0  0  0
 43156  1  0  0  0
 43157  1  0  0  0
 44158  1  0  0  0
 45159  1  0  0  0
 45160  1  0  0  0
 49161  1  0  0  0
 52162  1  0  0  0
 52163  1  0  0  0
 53164  1  0  0  0
 53165  1  0  0  0
 54166  1  0  0  0
 54167  1  0  0  0
 55168  1  0  0  0
 56169  1  0  0  0
 56170  1  0  0  0
 59171  1  0  0  0
 60172  1  0  0  0
 63173  1  0  0  0
 63174  1  0  0  0
 64175  1  0  0  0
 64176  1  0  0  0
 65177  1  0  0  0
 65178  1  0  0  0
 66179  1  0  0  0
 68180  1  0  0  0
 68181  1  0  0  0
 69182  1  0  0  0
 70183  1  0  0  0
 71184  1  0  0  0
 74185  1  0  0  0
 74186  1  0  0  0
 74187  1  0  0  0
 75188  1  0  0  0
 76189  1  0  0  0
 79190  1  0  0  0
 79191  1  0  0  0
 81192  1  0  0  0
 82193  1  0  0  0
 83194  1  0  0  0
 84195  1  0  0  0
 85196  1  0  0  0
 86197  1  0  0  0
 87198  1  0  0  0
 90199  1  0  0  0
 90200  1  0  0  0
 92201  1  0  0  0
 93202  1  0  0  0
 94203  1  0  0  0
 95204  1  0  0  0
 97205  1  0  0  0
 98206  1  0  0  0
 99207  1  0  0  0
102208  1  0  0  0
103209  1  0  0  0
104210  1  0  0  0
104211  1  0  0  0
104212  1  0  0  0
105213  1  0  0  0
106214  1  0  0  0
108215  1  0  0  0
109216  1  0  0  0
109217  1  0  0  0
M  END
$$$$
