4mz6_ligand
  -I-interpret- 

117117  0  0  0  0  0  0  0  0999 V2000
   44.2860   50.7900   39.1840 N   0  3  0  0  0
   43.4490   51.6370   38.3230 C   0  0  0  0  0
   42.5640   52.6280   39.0870 C   0  0  0  0  0
   41.6250   53.2060   38.5080 O   0  0  0  0  0
   42.5970   50.7830   37.3890 C   0  0  0  0  0
   42.1080   49.6490   38.0740 O   0  0  0  0  0
   42.8710   52.8390   40.3690 N   0  0  0  0  0
   42.2530   53.9360   41.1260 C   0  0  0  0  0
   42.7480   55.2530   40.5170 C   0  0  0  0  0
   43.9010   55.3240   40.0840 O   0  0  0  0  0
   42.6570   53.8850   42.6100 C   0  0  0  0  0
   42.4170   52.5470   43.3310 C   0  0  0  0  0
   40.9590   52.3510   43.7180 C   0  0  0  0  0
   40.8010   51.2520   44.7710 C   0  0  0  0  0
   39.4550   51.3710   45.4760 N   0  3  0  0  0
   41.9000   56.2830   40.4780 N   0  0  0  0  0
   42.2740   57.5800   39.8950 C   0  0  0  0  0
   42.1540   58.7110   40.9170 C   0  0  0  0  0
   41.1950   58.7390   41.7020 O   0  0  0  0  0
   41.3720   57.9090   38.6840 C   0  0  0  0  0
   41.4540   56.9190   37.5020 C   0  0  0  0  0
   40.2420   57.0170   36.5740 C   0  0  0  0  0
   39.8980   58.4010   36.2570 N   0  0  0  0  0
   38.8350   59.0500   36.7180 C   0  0  0  0  0
   37.9600   58.4520   37.5180 N   0  0  0  0  0
   38.6370   60.3080   36.3640 N   0  0  0  0  0
   43.0980   59.6570   40.8970 N   0  0  0  0  0
   42.9580   60.8800   41.6780 C   0  0  0  0  0
   41.7010   61.6360   41.2280 C   0  0  0  0  0
   41.2210   61.4740   40.0990 O   0  0  0  0  0
   44.1820   61.7720   41.5200 C   0  0  0  0  0
   41.1670   62.4530   42.1260 N   0  0  0  0  0
   40.0710   63.3530   41.8200 C   0  0  0  0  0
   40.5140   64.2780   40.6820 C   0  0  0  0  0
   41.6700   64.7040   40.6370 O   0  0  0  0  0
   39.7360   64.1420   43.0980 C   0  0  0  0  0
   38.6550   65.1800   42.9920 C   0  0  0  0  0
   38.4800   65.9140   44.3530 C   0  0  0  0  0
   37.7420   65.1170   45.3530 N   0  0  0  0  0
   38.2970   64.4800   46.3920 C   0  0  0  0  0
   39.6250   64.5250   46.6160 N   0  0  0  0  0
   37.5110   63.8070   47.2250 N   0  0  0  0  0
   39.6080   64.5470   39.7310 N   0  0  0  0  0
   39.8010   65.4920   38.6130 C   0  0  0  0  0
   39.9130   66.9540   39.0570 C   0  0  0  0  0
   39.2540   67.3430   40.0300 O   0  0  0  0  0
   38.5290   65.3030   37.7810 C   0  0  0  0  0
   38.1380   63.8750   38.0700 C   0  0  0  0  0
   38.4170   63.7050   39.5360 C   0  0  0  0  0
   40.7140   67.7360   38.3250 N   0  0  0  0  0
   41.0990   69.1100   38.6980 C   0  0  0  0  0
   39.9880   70.0380   39.2000 C   0  0  0  0  0
   40.2741   71.0677   39.8675 O   0  0  0  0  0
   41.8550   69.7700   37.5480 C   0  0  0  0  0
   38.7836   69.7705   38.9443 O   0  0  0  0  0
   44.8460   51.3806   39.7988 H   0  0  0  0  0
   43.6889   50.1826   39.7452 H   0  0  0  0  0
   44.9021   50.2209   38.6035 H   0  0  0  0  0
   44.1464   52.2399   37.7415 H   0  0  0  0  0
   43.2086   50.4554   36.5483 H   0  0  0  0  0
   41.7541   51.3757   37.0336 H   0  0  0  0  0
   41.5742   49.1208   37.4759 H   0  0  0  0  0
   43.5456   52.2287   40.8304 H   0  0  0  0  0
   41.1678   53.8506   41.0701 H   0  0  0  0  0
   42.0376   54.6224   43.1206 H   0  0  0  0  0
   43.7326   54.0593   42.6398 H   0  0  0  0  0
   43.0119   52.5443   44.2443 H   0  0  0  0  0
   42.6968   51.7423   42.6511 H   0  0  0  0  0
   40.4018   52.0589   42.8279 H   0  0  0  0  0
   40.5840   53.2855   44.1354 H   0  0  0  0  0
   41.5960   51.3548   45.5096 H   0  0  0  0  0
   40.8561   50.2813   44.2783 H   0  0  0  0  0
   39.3706   50.6304   46.1723 H   0  0  0  0  0
   39.3921   52.2797   45.9350 H   0  0  0  0  0
   38.7046   51.2822   44.7908 H   0  0  0  0  0
   40.9633   56.1668   40.8647 H   0  0  0  0  0
   43.3132   57.5001   39.5760 H   0  0  0  0  0
   41.7057   58.8741   38.3029 H   0  0  0  0  0
   40.3442   57.8748   39.0454 H   0  0  0  0  0
   41.4855   55.9087   37.9099 H   0  0  0  0  0
   42.3440   57.1606   36.9209 H   0  0  0  0  0
   39.3900   56.5640   37.0810 H   0  0  0  0  0
   40.4870   56.5072   35.6423 H   0  0  0  0  0
   40.5239   58.9091   35.6321 H   0  0  0  0  0
   37.1437   58.9632   37.8538 H   0  0  0  0  0
   38.1042   57.4815   37.7967 H   0  0  0  0  0
   39.2980   60.7727   35.7415 H   0  0  0  0  0
   43.9314   59.5208   40.3250 H   0  0  0  0  0
   42.8671   60.6098   42.7301 H   0  0  0  0  0
   45.0670   61.2366   41.8638 H   0  0  0  0  0
   44.3023   62.0390   40.4701 H   0  0  0  0  0
   44.0498   62.6767   42.1135 H   0  0  0  0  0
   41.5436   62.4484   43.0739 H   0  0  0  0  0
   39.1782   62.8173   41.4976 H   0  0  0  0  0
   40.6447   64.6832   43.3615 H   0  0  0  0  0
   39.3743   63.4066   43.8166 H   0  0  0  0  0
   37.7170   64.6926   42.7261 H   0  0  0  0  0
   38.9313   65.9063   42.2277 H   0  0  0  0  0
   37.9074   66.8227   44.1670 H   0  0  0  0  0
   39.4748   66.1079   44.7540 H   0  0  0  0  0
   36.7303   65.0460   45.2439 H   0  0  0  0  0
   40.0228   64.0435   47.4225 H   0  0  0  0  0
   40.2325   65.0405   45.9791 H   0  0  0  0  0
   36.5036   63.7819   47.0674 H   0  0  0  0  0
   40.7329   65.2917   38.0844 H   0  0  0  0  0
   38.6895   65.4886   36.7190 H   0  0  0  0  0
   37.7458   66.0147   38.0421 H   0  0  0  0  0
   38.6964   63.1646   37.4603 H   0  0  0  0  0
   37.0946   63.6769   37.8246 H   0  0  0  0  0
   37.5783   63.9972   40.1679 H   0  0  0  0  0
   38.5760   62.6657   39.8236 H   0  0  0  0  0
   41.0824   67.3576   37.4524 H   0  0  0  0  0
   41.7327   68.9725   39.5742 H   0  0  0  0  0
   41.2266   71.1250   39.9728 H   0  0  0  0  0
   42.7527   69.1928   37.3263 H   0  0  0  0  0
   41.2155   69.8028   36.6659 H   0  0  0  0  0
   42.1348   70.7841   37.8334 H   0  0  0  0  0
  1  2  1  0  0  0
  2  3  1  0  0  0
  2  5  1  0  0  0
  3  4  2  0  0  0
  3  7  1  0  0  0
  5  6  1  0  0  0
  7  8  1  0  0  0
  8  9  1  0  0  0
  8 11  1  0  0  0
  9 10  2  0  0  0
  9 16  1  0  0  0
 11 12  1  0  0  0
 12 13  1  0  0  0
 13 14  1  0  0  0
 14 15  1  0  0  0
 16 17  1  0  0  0
 17 18  1  0  0  0
 17 20  1  0  0  0
 18 19  2  0  0  0
 18 27  1  0  0  0
 20 21  1  0  0  0
 21 22  1  0  0  0
 22 23  1  0  0  0
 23 24  1  0  0  0
 24 25  1  0  0  0
 24 26  2  0  0  0
 27 28  1  0  0  0
 28 29  1  0  0  0
 28 31  1  0  0  0
 29 30  2  0  0  0
 29 32  1  0  0  0
 32 33  1  0  0  0
 33 34  1  0  0  0
 33 36  1  0  0  0
 34 35  2  0  0  0
 34 43  1  0  0  0
 36 37  1  0  0  0
 37 38  1  0  0  0
 38 39  1  0  0  0
 39 40  1  0  0  0
 40 41  1  0  0  0
 40 42  2  0  0  0
 43 44  1  0  0  0
 43 49  1  0  0  0
 44 45  1  0  0  0
 44 47  1  0  0  0
 45 46  2  0  0  0
 45 50  1  0  0  0
 47 48  1  0  0  0
 48 49  1  0  0  0
 50 51  1  0  0  0
 51 52  1  0  0  0
 51 54  1  0  0  0
 52 53  1  0  0  0
 52 55  2  0  0  0
  1 56  1  0  0  0
  1 57  1  0  0  0
  1 58  1  0  0  0
  2 59  1  0  0  0
  5 60  1  0  0  0
  5 61  1  0  0  0
  6 62  1  0  0  0
  7 63  1  0  0  0
  8 64  1  0  0  0
 11 65  1  0  0  0
 11 66  1  0  0  0
 12 67  1  0  0  0
 12 68  1  0  0  0
 13 69  1  0  0  0
 13 70  1  0  0  0
 14 71  1  0  0  0
 14 72  1  0  0  0
 15 73  1  0  0  0
 15 74  1  0  0  0
 15 75  1  0  0  0
 16 76  1  0  0  0
 17 77  1  0  0  0
 20 78  1  0  0  0
 20 79  1  0  0  0
 21 80  1  0  0  0
 21 81  1  0  0  0
 22 82  1  0  0  0
 22 83  1  0  0  0
 23 84  1  0  0  0
 25 85  1  0  0  0
 25 86  1  0  0  0
 26 87  1  0  0  0
 27 88  1  0  0  0
 28 89  1  0  0  0
 31 90  1  0  0  0
 31 91  1  0  0  0
 31 92  1  0  0  0
 32 93  1  0  0  0
 33 94  1  0  0  0
 36 95  1  0  0  0
 36 96  1  0  0  0
 37 97  1  0  0  0
 37 98  1  0  0  0
 38 99  1  0  0  0
 38100  1  0  0  0
 39101  1  0  0  0
 41102  1  0  0  0
 41103  1  0  0  0
 42104  1  0  0  0
 44105  1  0  0  0
 47106  1  0  0  0
 47107  1  0  0  0
 48108  1  0  0  0
 48109  1  0  0  0
 49110  1  0  0  0
 49111  1  0  0  0
 50112  1  0  0  0
 51113  1  0  0  0
 53114  1  0  0  0
 54115  1  0  0  0
 54116  1  0  0  0
 54117  1  0  0  0
M  END
$$$$
