### 
### Created by X-TOOL on Mon Sep 10 21:13:13 2018
### 

@<TRIPOS>MOLECULE
4mz6_ligand
  118   118     1     0     0
SMALL
GAST_HUCK


@<TRIPOS>ATOM
      1 N          44.2860   50.7900   39.1840 N.4       1 SER         0.2396
      2 CA         43.4490   51.6370   38.3230 C.3       1 SER         0.0885
      3 C          42.5640   52.6280   39.0870 C.2       1 SER         0.2290
      4 O          41.6250   53.2060   38.5080 O.2       1 SER        -0.3906
      5 CB         42.5970   50.7830   37.3890 C.3       1 SER         0.1041
      6 OG         42.1080   49.6490   38.0740 O.3       1 SER        -0.3870
      7 N          42.8710   52.8390   40.3690 N.am      1 LYS        -0.2610
      8 CA         42.2530   53.9360   41.1260 C.3       1 LYS         0.1311
      9 C          42.7480   55.2530   40.5170 C.2       1 LYS         0.2039
     10 O          43.9010   55.3240   40.0840 O.2       1 LYS        -0.3944
     11 CB         42.6570   53.8850   42.6100 C.3       1 LYS        -0.0122
     12 CG         42.4170   52.5470   43.3310 C.3       1 LYS        -0.0440
     13 CD         40.9590   52.3510   43.7180 C.3       1 LYS        -0.0124
     14 CE         40.8010   51.2520   44.7710 C.3       1 LYS        -0.0354
     15 NZ         39.4550   51.3710   45.4760 N.4       1 LYS         0.2185
     16 N          41.9000   56.2830   40.4780 N.am      1 ARG        -0.2637
     17 CA         42.2740   57.5800   39.8950 C.3       1 ARG         0.1311
     18 C          42.1540   58.7110   40.9170 C.2       1 ARG         0.2039
     19 O          41.1950   58.7390   41.7020 O.2       1 ARG        -0.3944
     20 CB         41.3720   57.9090   38.6840 C.3       1 ARG        -0.0092
     21 CG         41.4540   56.9190   37.5020 C.3       1 ARG        -0.0156
     22 CD         40.2420   57.0170   36.5740 C.3       1 ARG         0.0627
     23 NE         39.8980   58.4010   36.2570 N.pl3     1 ARG        -0.2723
     24 CZ         38.8350   59.0500   36.7180 C.cat     1 ARG         0.2882
     25 NH1        37.9600   58.4520   37.5180 N.pl3     1 ARG        -0.2849
     26 NH2        38.6370   60.3080   36.3640 N.pl3     1 ARG        -0.2849
     27 N          43.0980   59.6570   40.8970 N.am      1 ALA        -0.2640
     28 CA         42.9580   60.8800   41.6780 C.3       1 ALA         0.1282
     29 C          41.7010   61.6360   41.2280 C.2       1 ALA         0.2036
     30 O          41.2210   61.4740   40.0990 O.2       1 ALA        -0.3944
     31 CB         44.1820   61.7720   41.5200 C.3       1 ALA        -0.0244
     32 N          41.1670   62.4530   42.1260 N.am      1 ARG        -0.2637
     33 CA         40.0710   63.3530   41.8200 C.3       1 ARG         0.1313
     34 C          40.5140   64.2780   40.6820 C.2       1 ARG         0.2064
     35 O          41.6700   64.7040   40.6370 O.2       1 ARG        -0.3942
     36 CB         39.7360   64.1420   43.0980 C.3       1 ARG        -0.0092
     37 CG         38.6550   65.1800   42.9920 C.3       1 ARG        -0.0156
     38 CD         38.4800   65.9140   44.3530 C.3       1 ARG         0.0627
     39 NE         37.7420   65.1170   45.3530 N.pl3     1 ARG        -0.2723
     40 CZ         38.2970   64.4800   46.3920 C.cat     1 ARG         0.2882
     41 NH1        39.6250   64.5250   46.6160 N.pl3     1 ARG        -0.2849
     42 NH2        37.5110   63.8070   47.2250 N.pl3     1 ARG        -0.2849
     43 N          39.6080   64.5470   39.7310 N.am      1 PRO        -0.2498
     44 CA         39.8010   65.4920   38.6130 C.3       1 PRO         0.1337
     45 C          39.9130   66.9540   39.0570 C.2       1 PRO         0.2035
     46 O          39.2540   67.3430   40.0300 O.2       1 PRO        -0.3944
     47 CB         38.5290   65.3030   37.7810 C.3       1 PRO        -0.0104
     48 CG         38.1380   63.8750   38.0700 C.3       1 PRO        -0.0281
     49 CD         38.4170   63.7050   39.5360 C.3       1 PRO         0.0369
     50 N          40.7140   67.7360   38.3250 N.am      1 ALA        -0.2697
     51 CA         41.0990   69.1100   38.6980 C.3       1 ALA         0.0916
     52 C          39.9880   70.0380   39.2000 C.2       1 ALA         0.0598
     53 O          40.2741   71.0677   39.8675 O.co2     1 ALA        -0.5666
     54 CB         41.8550   69.7700   37.5480 C.3       1 ALA        -0.0300
     55 O          38.7836   69.7705   38.9443 O.co2     1 ALA        -0.5666
     56 H1         44.8359   50.1687   38.6116 H         1 SER         0.2016
     57 H2         43.6972   50.2487   39.7975 H         1 SER         0.2016
     58 H3         44.8992   51.3715   39.7335 H         1 SER         0.2016
     59 H4         44.1327   52.2320   37.6997 H         1 SER         0.1122
     60 H5         43.2097   50.4558   36.5360 H         1 SER         0.0640
     61 H6         41.7487   51.3802   37.0235 H         1 SER         0.0640
     62 H7         41.5798   49.1263   37.4821 H         1 SER         0.2099
     63 H8         43.5323   52.2407   40.8214 H         1 LYS         0.1884
     64 H9         41.1580   53.8705   41.0444 H         1 LYS         0.0800
     65 H10        42.0850   54.6602   43.1409 H         1 LYS         0.0312
     66 H11        43.7311   54.1133   42.6740 H         1 LYS         0.0312
     67 H12        43.0311   52.5220   44.2432 H         1 LYS         0.0269
     68 H13        42.7187   51.7266   42.6632 H         1 LYS         0.0269
     69 H14        40.3856   52.0722   42.8216 H         1 LYS         0.0317
     70 H15        40.5672   53.2948   44.1250 H         1 LYS         0.0317
     71 H16        41.6071   51.3449   45.5137 H         1 LYS         0.0813
     72 H17        40.8660   50.2697   44.2803 H         1 LYS         0.0813
     73 H18        39.3705   50.6396   46.1644 H         1 LYS         0.1994
     74 H19        38.7126   51.2834   44.7998 H         1 LYS         0.1994
     75 H20        39.3917   52.2687   45.9301 H         1 LYS         0.1994
     76 H21        40.9817   56.1690   40.8571 H         1 ARG         0.1883
     77 H22        43.3187   57.5196   39.5561 H         1 ARG         0.0800
     78 H23        41.6552   58.9046   38.3117 H         1 ARG         0.0313
     79 H24        40.3297   57.9315   39.0347 H         1 ARG         0.0313
     80 H25        41.5111   55.8957   37.9016 H         1 ARG         0.0301
     81 H26        42.3622   57.1370   36.9210 H         1 ARG         0.0301
     82 H27        39.3803   56.5420   37.0658 H         1 ARG         0.0689
     83 H28        40.4690   56.4855   35.6381 H         1 ARG         0.0689
     84 H29        40.5300   58.9141   35.6259 H         1 ARG         0.2642
     85 H30        37.1414   58.9715   37.8657 H         1 ARG         0.2615
     86 H31        38.0999   57.4687   37.7908 H         1 ARG         0.2615
     87 H32        39.3101   60.7805   35.7438 H         1 ARG         0.2615
     88 H33        37.8097   60.8158   36.7083 H         1 ARG         0.2615
     89 H34        43.9151   59.5234   40.3362 H         1 ALA         0.1883
     90 H35        42.8527   60.6112   42.7394 H         1 ALA         0.0797
     91 H36        44.0497   62.6854   42.1185 H         1 ALA         0.0277
     92 H37        44.3045   62.0423   40.4608 H         1 ALA         0.0277
     93 H38        45.0759   61.2328   41.8666 H         1 ALA         0.0277
     94 H39        41.5362   62.4485   43.0553 H         1 ARG         0.1883
     95 H40        39.1877   62.7799   41.5016 H         1 ARG         0.0800
     96 H41        40.6547   64.6511   43.4247 H         1 ARG         0.0313
     97 H42        39.4262   63.4167   43.8648 H         1 ARG         0.0313
     98 H43        37.7081   64.6919   42.7180 H         1 ARG         0.0301
     99 H44        38.9282   65.9114   42.2172 H         1 ARG         0.0301
    100 H45        37.9299   66.8502   44.1771 H         1 ARG         0.0689
    101 H46        39.4770   66.1447   44.7565 H         1 ARG         0.0689
    102 H47        36.7204   65.0453   45.2429 H         1 ARG         0.2642
    103 H48        40.0285   64.0267   47.4221 H         1 ARG         0.2615
    104 H49        40.2366   65.0577   45.9811 H         1 ARG         0.2615
    105 H50        36.4953   63.7698   47.0579 H         1 ARG         0.2615
    106 H51        37.9172   63.3224   48.0380 H         1 ARG         0.2615
    107 H52        40.6974   65.2227   38.0352 H         1 PRO         0.0802
    108 H53        38.7331   65.4471   36.7098 H         1 PRO         0.0313
    109 H54        37.7408   66.0004   38.1011 H         1 PRO         0.0313
    110 H55        38.7440   63.1766   37.4742 H         1 PRO         0.0287
    111 H56        37.0718   63.7114   37.8545 H         1 PRO         0.0287
    112 H57        37.5735   64.0615   40.1455 H         1 PRO         0.0524
    113 H58        38.6283   62.6538   39.7815 H         1 PRO         0.0524
    114 H59        41.0752   67.3651   37.4695 H         1 ALA         0.1875
    115 H60        41.8046   69.0071   39.5356 H         1 ALA         0.0723
    116 H61        42.1380   70.7936   37.8348 H         1 ALA         0.0270
    117 H62        41.2107   69.8038   36.6571 H         1 ALA         0.0270
    118 H63        42.7612   69.1884   37.3233 H         1 ALA         0.0270
@<TRIPOS>BOND
     1    1    2 1  
     2    2    3 1  
     3    2    5 1  
     4    3    4 2  
     5    3    7 am 
     6    5    6 1  
     7    7    8 1  
     8    8    9 1  
     9    8   11 1  
    10    9   10 2  
    11    9   16 am 
    12   11   12 1  
    13   12   13 1  
    14   13   14 1  
    15   14   15 1  
    16   16   17 1  
    17   17   18 1  
    18   17   20 1  
    19   18   19 2  
    20   18   27 am 
    21   20   21 1  
    22   21   22 1  
    23   22   23 1  
    24   23   24 ar 
    25   24   25 ar 
    26   24   26 ar 
    27   27   28 1  
    28   28   29 1  
    29   28   31 1  
    30   29   30 2  
    31   29   32 am 
    32   32   33 1  
    33   33   34 1  
    34   33   36 1  
    35   34   35 2  
    36   34   43 am 
    37   36   37 1  
    38   37   38 1  
    39   38   39 1  
    40   39   40 ar 
    41   40   41 ar 
    42   40   42 ar 
    43   43   44 1  
    44   43   49 1  
    45   44   45 1  
    46   44   47 1  
    47   45   46 2  
    48   45   50 am 
    49   47   48 1  
    50   48   49 1  
    51   50   51 1  
    52   51   52 1  
    53   51   54 1  
    54   52   53 ar 
    55   52   55 ar 
    56    1   56 1  
    57    1   57 1  
    58    1   58 1  
    59    2   59 1  
    60    5   60 1  
    61    5   61 1  
    62    6   62 1  
    63    7   63 1  
    64    8   64 1  
    65   11   65 1  
    66   11   66 1  
    67   12   67 1  
    68   12   68 1  
    69   13   69 1  
    70   13   70 1  
    71   14   71 1  
    72   14   72 1  
    73   15   73 1  
    74   15   74 1  
    75   15   75 1  
    76   16   76 1  
    77   17   77 1  
    78   20   78 1  
    79   20   79 1  
    80   21   80 1  
    81   21   81 1  
    82   22   82 1  
    83   22   83 1  
    84   23   84 1  
    85   25   85 1  
    86   25   86 1  
    87   26   87 1  
    88   26   88 1  
    89   27   89 1  
    90   28   90 1  
    91   31   91 1  
    92   31   92 1  
    93   31   93 1  
    94   32   94 1  
    95   33   95 1  
    96   36   96 1  
    97   36   97 1  
    98   37   98 1  
    99   37   99 1  
   100   38  100 1  
   101   38  101 1  
   102   39  102 1  
   103   41  103 1  
   104   41  104 1  
   105   42  105 1  
   106   42  106 1  
   107   44  107 1  
   108   47  108 1  
   109   47  109 1  
   110   48  110 1  
   111   48  111 1  
   112   49  112 1  
   113   49  113 1  
   114   50  114 1  
   115   51  115 1  
   116   54  116 1  
   117   54  117 1  
   118   54  118 1  
@<TRIPOS>SUBSTRUCTURE
     1 SER         1

