1iew_ligand
  -I-interpret- 

 22 22  0  0  0  0  0  0  0  0999 V2000
   26.2920   25.1690   35.8020 C   0  0  0  0  0
   25.2280   24.9670   36.8270 C   0  0  0  0  0
   24.2680   23.8750   36.3110 C   0  0  0  0  0
   23.6480   24.3810   35.0010 C   0  0  0  0  0
   24.7840   24.6150   33.9570 C   0  0  0  0  0
   24.2900   25.1740   32.5870 C   0  0  0  0  0
   23.2460   23.6530   37.2850 O   0  0  0  0  0
   22.7320   23.4270   34.4640 O   0  0  0  0  0
   25.7270   25.5710   34.5130 O   0  0  0  0  0
   23.8910   26.5350   32.7080 O   0  0  0  0  0
   25.8230   24.5700   38.0300 F   0  0  0  0  0
   26.8239   24.2273   35.6668 H   0  0  0  0  0
   26.9586   25.9590   36.1479 H   0  0  0  0  0
   24.6722   25.8882   37.0017 H   0  0  0  0  0
   24.7961   22.9373   36.1381 H   0  0  0  0  0
   23.1127   25.3071   35.2105 H   0  0  0  0  0
   25.2297   23.6396   33.7618 H   0  0  0  0  0
   23.4339   24.5858   32.2565 H   0  0  0  0  0
   25.1064   25.1106   31.8676 H   0  0  0  0  0
   23.6447   23.3371   38.0992 H   0  0  0  0  0
   22.0260   23.2721   35.0958 H   0  0  0  0  0
   23.5916   26.8566   31.8545 H   0  0  0  0  0
  1  2  1  0  0  0
  1  9  1  0  0  0
  2  3  1  0  0  0
  2 11  1  0  0  0
  3  4  1  0  0  0
  3  7  1  0  0  0
  4  5  1  0  0  0
  4  8  1  0  0  0
  5  6  1  0  0  0
  5  9  1  0  0  0
  6 10  1  0  0  0
  1 12  1  0  0  0
  1 13  1  0  0  0
  2 14  1  0  0  0
  3 15  1  0  0  0
  4 16  1  0  0  0
  5 17  1  0  0  0
  6 18  1  0  0  0
  6 19  1  0  0  0
  7 20  1  0  0  0
  8 21  1  0  0  0
 10 22  1  0  0  0
M  END
$$$$
