4gk7_ligand
  -I-interpret- 

 86 86  0  0  0  0  0  0  0  0999 V2000
   58.9770 -135.4120   35.0170 C   0  0  0  0  0
   58.8970 -136.4710   35.6370 O   0  0  0  0  0
   57.6730 -134.9890   34.4270 C   0  0  0  0  0
   57.0810 -133.7970   34.4180 C   0  0  0  0  0
   55.7360 -133.7610   33.7760 C   0  0  0  0  0
   54.6090 -133.6400   34.4870 C   0  0  0  0  0
   53.2200 -133.6540   33.8520 C   0  0  0  0  0
   52.3460 -132.3750   33.9460 C   0  0  0  0  0
   50.9610 -132.7160   33.2490 C   0  0  0  0  0
   49.8740 -131.6040   33.2550 C   0  0  0  0  0
   48.5570 -132.1690   32.5870 C   0  0  0  0  0
   47.3930 -131.1070   32.6000 C   0  0  0  0  0
   46.0720 -131.6660   31.9720 C   0  0  0  0  0
   60.2010 -134.7390   34.8940 N   0  0  0  0  0
   61.3710 -135.4170   35.5740 C   0  0  0  0  0
   61.1400 -135.4570   37.1050 C   0  0  0  0  0
   60.1390 -134.8960   37.5610 O   0  0  0  0  0
   62.7750 -134.6760   35.3430 C   0  0  0  0  0
   63.1230 -133.7820   36.3970 O   0  0  0  0  0
   62.8310 -133.8850   34.0300 C   0  0  0  0  0
   62.0330 -136.1040   37.9310 N   0  0  0  0  0
   61.7810 -136.0920   39.3770 C   0  0  0  0  0
   63.0180 -136.2700   40.2290 C   0  0  0  0  0
   64.1100 -136.4860   39.6880 O   0  0  0  0  0
   60.7190 -137.1500   39.7720 C   0  0  0  0  0
   60.9670 -138.4490   40.0070 C   0  0  0  0  0
   59.9170 -139.4470   40.4490 C   0  0  0  0  0
   60.4500 -140.2610   41.7080 C   0  0  0  0  0
   60.2240 -139.4080   42.9060 N   0  0  0  0  0
   62.8020 -136.1800   41.5690 N   0  0  0  0  0
   63.8750 -136.3080   42.5570 C   0  0  0  0  0
   64.2640 -134.8880   43.0940 C   0  0  0  0  0
   63.0530 -133.9140   43.3060 C   0  0  0  0  0
   65.2570 -134.2100   42.1000 C   0  0  0  0  0
   63.4180 -137.3090   43.6600 C   0  0  0  0  0
   62.5740 -138.4030   42.9710 C   0  0  0  0  0
   61.1450 -138.5610   43.4710 C   0  0  0  0  0
   60.8310 -137.9140   44.4490 O   0  0  0  0  0
   57.1180 -135.7811   33.9243 H   0  0  0  0  0
   57.5463 -132.9106   34.8492 H   0  0  0  0  0
   55.6684 -133.8358   32.6907 H   0  0  0  0  0
   54.6857 -133.5263   35.5683 H   0  0  0  0  0
   52.6659 -134.4171   34.3985 H   0  0  0  0  0
   53.3967 -133.7992   32.7863 H   0  0  0  0  0
   52.8331 -131.5347   33.4512 H   0  0  0  0  0
   52.1960 -132.0828   34.9853 H   0  0  0  0  0
   50.5397 -133.5466   33.8154 H   0  0  0  0  0
   51.1933 -132.8990   32.1999 H   0  0  0  0  0
   50.2291 -130.7394   32.6942 H   0  0  0  0  0
   49.6648 -131.2996   34.2805 H   0  0  0  0  0
   48.2318 -133.0410   33.1543 H   0  0  0  0  0
   48.7795 -132.4211   31.5502 H   0  0  0  0  0
   47.7117 -130.2485   32.0089 H   0  0  0  0  0
   47.1886 -130.8418   33.6373 H   0  0  0  0  0
   46.2565 -131.9531   30.9368 H   0  0  0  0  0
   45.7419 -132.5367   32.5386 H   0  0  0  0  0
   45.3013 -130.8959   32.0050 H   0  0  0  0  0
   60.2956 -133.8600   34.3853 H   0  0  0  0  0
   61.4238 -136.4109   35.1296 H   0  0  0  0  0
   63.4915 -135.4968   35.3098 H   0  0  0  0  0
   63.9686 -133.3719   36.2012 H   0  0  0  0  0
   62.6739 -134.5635   33.1916 H   0  0  0  0  0
   62.0519 -133.1227   34.0330 H   0  0  0  0  0
   63.8068 -133.4086   33.9356 H   0  0  0  0  0
   62.8494 -136.5798   37.5470 H   0  0  0  0  0
   61.4038 -135.0905   39.5839 H   0  0  0  0  0
   59.6870 -136.8122   39.8667 H   0  0  0  0  0
   61.9875 -138.8072   39.8711 H   0  0  0  0  0
   59.7085 -140.1385   39.6327 H   0  0  0  0  0
   59.0047 -138.9161   40.7210 H   0  0  0  0  0
   61.5087 -140.4949   41.5956 H   0  0  0  0  0
   59.9220 -141.2096   41.8052 H   0  0  0  0  0
   59.3049 -139.4568   43.3457 H   0  0  0  0  0
   61.8512 -136.0162   41.8999 H   0  0  0  0  0
   64.7843 -136.7183   42.1177 H   0  0  0  0  0
   64.7092 -135.0614   44.0737 H   0  0  0  0  0
   62.5393 -133.7630   42.3566 H   0  0  0  0  0
   62.3623 -134.3472   44.0295 H   0  0  0  0  0
   63.4188 -132.9573   43.6788 H   0  0  0  0  0
   66.1537 -134.8230   42.0094 H   0  0  0  0  0
   64.7820 -134.1123   41.1238 H   0  0  0  0  0
   65.5267 -133.2226   42.4747 H   0  0  0  0  0
   62.8300 -136.7960   44.4211 H   0  0  0  0  0
   64.2821 -137.7500   44.1570 H   0  0  0  0  0
   63.0752 -139.3491   43.1755 H   0  0  0  0  0
   62.5003 -138.1161   41.9220 H   0  0  0  0  0
  1  2  2  0  0  0
  1  3  1  0  0  0
  1 14  1  0  0  0
  3  4  2  0  0  0
  4  5  1  0  0  0
  5  6  2  0  0  0
  6  7  1  0  0  0
  7  8  1  0  0  0
  8  9  1  0  0  0
  9 10  1  0  0  0
 10 11  1  0  0  0
 11 12  1  0  0  0
 12 13  1  0  0  0
 14 15  1  0  0  0
 15 16  1  0  0  0
 15 18  1  0  0  0
 16 17  2  0  0  0
 16 21  1  0  0  0
 18 19  1  0  0  0
 18 20  1  0  0  0
 21 22  1  0  0  0
 22 23  1  0  0  0
 22 25  1  0  0  0
 23 24  2  0  0  0
 23 30  1  0  0  0
 25 26  2  0  0  0
 26 27  1  0  0  0
 27 28  1  0  0  0
 28 29  1  0  0  0
 29 37  1  0  0  0
 30 31  1  0  0  0
 31 32  1  0  0  0
 31 35  1  0  0  0
 32 33  1  0  0  0
 32 34  1  0  0  0
 35 36  1  0  0  0
 36 37  1  0  0  0
 37 38  2  0  0  0
  3 39  1  0  0  0
  4 40  1  0  0  0
  5 41  1  0  0  0
  6 42  1  0  0  0
  7 43  1  0  0  0
  7 44  1  0  0  0
  8 45  1  0  0  0
  8 46  1  0  0  0
  9 47  1  0  0  0
  9 48  1  0  0  0
 10 49  1  0  0  0
 10 50  1  0  0  0
 11 51  1  0  0  0
 11 52  1  0  0  0
 12 53  1  0  0  0
 12 54  1  0  0  0
 13 55  1  0  0  0
 13 56  1  0  0  0
 13 57  1  0  0  0
 14 58  1  0  0  0
 15 59  1  0  0  0
 18 60  1  0  0  0
 19 61  1  0  0  0
 20 62  1  0  0  0
 20 63  1  0  0  0
 20 64  1  0  0  0
 21 65  1  0  0  0
 22 66  1  0  0  0
 25 67  1  0  0  0
 26 68  1  0  0  0
 27 69  1  0  0  0
 27 70  1  0  0  0
 28 71  1  0  0  0
 28 72  1  0  0  0
 29 73  1  0  0  0
 30 74  1  0  0  0
 31 75  1  0  0  0
 32 76  1  0  0  0
 33 77  1  0  0  0
 33 78  1  0  0  0
 33 79  1  0  0  0
 34 80  1  0  0  0
 34 81  1  0  0  0
 34 82  1  0  0  0
 35 83  1  0  0  0
 35 84  1  0  0  0
 36 85  1  0  0  0
 36 86  1  0  0  0
M  END
$$$$
