4ah9_ligand
  -I-interpret- 

 35 37  0  0  0  0  0  0  0  0999 V2000
   15.5730  -24.7060   10.7680 N   0  0  0  0  0
   17.2750  -25.0490   12.3140 N   0  0  0  0  0
   19.0360  -29.8150   12.1710 N   0  3  0  0  0
   17.6570  -27.4380   12.4100 N   0  0  0  0  0
   16.8350  -19.9770   12.0320 C   0  0  0  0  0
   15.9070  -20.5640   11.1530 C   0  0  0  0  0
   17.6550  -20.8240   12.7990 C   0  0  0  0  0
   15.7350  -21.9380   10.9910 C   0  0  0  0  0
   17.4770  -22.1990   12.6260 C   0  0  0  0  0
   20.0770  -28.9170   12.7720 C   0  0  0  0  0
   17.7030  -29.8970   12.8380 C   0  0  0  0  0
   16.9050  -28.7090   12.3330 C   0  0  0  0  0
   15.7620  -26.4010   10.7660 S   0  0  0  0  0
   16.5390  -22.7450   11.7780 C   0  0  0  0  0
   16.4440  -24.1740   11.6180 C   0  0  0  0  0
   19.5380  -28.1180   13.9470 C   0  0  0  0  0
   17.0270  -26.3140   11.9320 C   0  0  0  0  0
   18.4400  -27.1270   13.6100 C   0  0  0  0  0
   19.4252  -30.7558   12.2321 H   0  0  0  0  0
   18.8499  -29.4286   11.2455 H   0  0  0  0  0
   16.9166  -18.8934   12.1166 H   0  0  0  0  0
   15.2799  -19.8998   10.5583 H   0  0  0  0  0
   18.3939  -20.4268   13.4950 H   0  0  0  0  0
   15.0120  -22.3515   10.2879 H   0  0  0  0  0
   18.1153  -22.8766   13.1931 H   0  0  0  0  0
   20.4019  -28.2141   12.0049 H   0  0  0  0  0
   20.8949  -29.5406   13.1330 H   0  0  0  0  0
   17.8036  -29.8710   13.9230 H   0  0  0  0  0
   17.2023  -30.8361   12.6027 H   0  0  0  0  0
   16.6632  -28.8905   11.2858 H   0  0  0  0  0
   16.0193  -28.6110   12.9608 H   0  0  0  0  0
   20.3732  -27.5367   14.3377 H   0  0  0  0  0
   19.1052  -28.8383   14.6412 H   0  0  0  0  0
   17.7428  -27.1389   14.4477 H   0  0  0  0  0
   18.9304  -26.1718   13.4222 H   0  0  0  0  0
  1 13  4  0  0  0
 15  1  4  0  0  0
 15  2  4  0  0  0
  2 17  4  0  0  0
  3 10  1  0  0  0
 11  3  1  0  0  0
  4 12  1  0  0  0
 17  4  1  0  0  0
  4 18  1  0  0  0
  6  5  4  0  0  0
  7  5  4  0  0  0
  8  6  4  0  0  0
  9  7  4  0  0  0
 14  8  4  0  0  0
 14  9  4  0  0  0
 10 16  1  0  0  0
 12 11  1  0  0  0
 17 13  4  0  0  0
 14 15  1  0  0  0
 16 18  1  0  0  0
  3 19  1  0  0  0
  3 20  1  0  0  0
  5 21  1  0  0  0
  6 22  1  0  0  0
  7 23  1  0  0  0
  8 24  1  0  0  0
  9 25  1  0  0  0
 10 26  1  0  0  0
 10 27  1  0  0  0
 11 28  1  0  0  0
 11 29  1  0  0  0
 12 30  1  0  0  0
 12 31  1  0  0  0
 16 32  1  0  0  0
 16 33  1  0  0  0
 18 34  1  0  0  0
 18 35  1  0  0  0
M  END
$$$$
