3mxf_ligand
  -I-interpret- 

 56 59  0  0  0  0  0  0  0  0999 V2000
   29.8990   18.9620    1.7240 C   0  0  0  0  0
   25.2040   15.1160    1.3930 C   0  0  0  0  0
   25.6820   14.9300   -1.6940 C   0  0  0  0  0
   29.2330   13.1180   -5.4650 C   0  0  0  0  0
   30.6490   11.1240   -4.6870 C   0  0  0  0  0
   28.5430   11.7420   -3.5100 C   0  0  0  0  0
   32.1090   13.8640   -4.7140 O   0  0  0  0  0
   24.8240   18.4760   -6.7700 Cl  0  0  0  0  0
   25.5320   17.9640   -4.2190 C   0  0  0  0  0
   27.0320   17.1100   -5.8680 C   0  0  0  0  0
   26.3510   17.4470   -3.2100 C   0  0  0  0  0
   27.8570   16.6090   -4.8670 C   0  0  0  0  0
   31.8980   14.9640   -2.5760 C   0  0  0  0  0
   29.6620   16.0420   -2.8280 N   0  0  0  0  0
   31.8170   18.1280    0.2830 N   0  0  0  0  0
   32.0440   17.2500   -0.6250 N   0  0  0  0  0
   30.4000   13.2470   -3.3840 O   0  0  0  0  0
   27.8100   16.3310    1.4560 S   0  0  0  0  0
   31.4750   13.9720   -3.6650 C   0  0  0  0  0
   28.3750   16.2200   -2.4890 C   0  0  0  0  0
   25.8800   17.8220   -5.5420 C   0  0  0  0  0
   30.5340   18.0500    0.6710 C   0  0  0  0  0
   27.5220   16.7650   -3.5120 C   0  0  0  0  0
   26.4600   15.6250    0.6460 C   0  0  0  0  0
   26.6960   15.5570   -0.7220 C   0  0  0  0  0
   30.8940   16.5810   -0.8330 C   0  0  0  0  0
   27.9310   16.1250   -1.1370 C   0  0  0  0  0
   28.6600   16.6020   -0.0300 C   0  0  0  0  0
   30.6460   15.4630   -1.8660 C   0  0  0  0  0
   29.9320   17.0880   -0.0610 N   0  0  0  0  0
   29.7310   12.3020   -4.2990 C   0  0  0  0  0
   30.4257   18.8432    2.6709 H   0  0  0  0  0
   29.9696   19.9988    1.3950 H   0  0  0  0  0
   28.8511   18.6910    1.8532 H   0  0  0  0  0
   25.4925   14.3336    2.0949 H   0  0  0  0  0
   24.7461   15.9426    1.9364 H   0  0  0  0  0
   24.4918   14.7146    0.6720 H   0  0  0  0  0
   25.5174   13.8872   -1.4226 H   0  0  0  0  0
   24.7398   15.4750   -1.6357 H   0  0  0  0  0
   26.0727   14.9850   -2.7101 H   0  0  0  0  0
   28.5352   13.8744   -5.1058 H   0  0  0  0  0
   30.0775   13.6038   -5.9539 H   0  0  0  0  0
   28.7276   12.4636   -6.1753 H   0  0  0  0  0
   31.5395   11.5077   -5.1848 H   0  0  0  0  0
   30.9395   10.5801   -3.7882 H   0  0  0  0  0
   30.1141   10.4550   -5.3611 H   0  0  0  0  0
   28.9079   11.2395   -2.6142 H   0  0  0  0  0
   27.8800   12.5590   -3.2254 H   0  0  0  0  0
   27.9989   11.0305   -4.1311 H   0  0  0  0  0
   24.6109   18.4834   -3.9548 H   0  0  0  0  0
   27.2884   16.9445   -6.9144 H   0  0  0  0  0
   26.0646   17.5820   -2.1670 H   0  0  0  0  0
   28.7757   16.0884   -5.1375 H   0  0  0  0  0
   32.4321   15.8025   -3.0229 H   0  0  0  0  0
   32.5606   14.4740   -1.8626 H   0  0  0  0  0
   30.2773   14.5685   -1.3640 H   0  0  0  0  0
 22  1  1  0  0  0
 24  2  1  0  0  0
 25  3  1  0  0  0
 31  4  1  0  0  0
 31  5  1  0  0  0
 31  6  1  0  0  0
 19  7  2  0  0  0
 21  8  1  0  0  0
 11  9  4  0  0  0
  9 21  4  0  0  0
 12 10  4  0  0  0
 10 21  4  0  0  0
 23 11  4  0  0  0
 23 12  4  0  0  0
 13 19  1  0  0  0
 29 13  1  0  0  0
 14 20  2  0  0  0
 29 14  1  0  0  0
 16 15  4  0  0  0
 15 22  4  0  0  0
 26 16  4  0  0  0
 19 17  1  0  0  0
 17 31  1  0  0  0
 24 18  4  0  0  0
 18 28  4  0  0  0
 20 23  1  0  0  0
 20 27  1  0  0  0
 22 30  4  0  0  0
 25 24  4  0  0  0
 27 25  4  0  0  0
 26 29  1  0  0  0
 26 30  4  0  0  0
 27 28  4  0  0  0
 28 30  1  0  0  0
  1 32  1  0  0  0
  1 33  1  0  0  0
  1 34  1  0  0  0
  2 35  1  0  0  0
  2 36  1  0  0  0
  2 37  1  0  0  0
  3 38  1  0  0  0
  3 39  1  0  0  0
  3 40  1  0  0  0
  4 41  1  0  0  0
  4 42  1  0  0  0
  4 43  1  0  0  0
  5 44  1  0  0  0
  5 45  1  0  0  0
  5 46  1  0  0  0
  6 47  1  0  0  0
  6 48  1  0  0  0
  6 49  1  0  0  0
  9 50  1  0  0  0
 10 51  1  0  0  0
 11 52  1  0  0  0
 12 53  1  0  0  0
 13 54  1  0  0  0
 13 55  1  0  0  0
 29 56  1  0  0  0
M  END
$$$$
