4ge1_ligand
  -I-interpret- 

 24 25  0  0  0  0  0  0  0  0999 V2000
    4.8580    6.1310   46.6830 N   0  3  0  0  0
    6.1600    5.5690   46.4170 C   0  0  0  0  0
    6.8970    4.9790   47.5780 C   0  0  0  0  0
    6.1010    4.2420   48.6080 C   0  0  0  0  0
    5.8520    4.6530   49.9100 C   0  0  0  0  0
    5.1120    3.7150   50.5370 N   0  0  0  0  0
    4.8490    2.6800   49.6630 C   0  0  0  0  0
    5.4520    2.9770   48.4670 C   0  0  0  0  0
    4.1120    1.4740   49.8170 C   0  0  0  0  0
    4.0110    0.5800   48.7550 C   0  0  0  0  0
    4.6260    0.8820   47.5380 C   0  0  0  0  0
    5.3450    2.0730   47.3850 C   0  0  0  0  0
    4.4637    6.4975   45.8166 H   0  0  0  0  0
    4.2458    5.4057   47.0565 H   0  0  0  0  0
    4.9473    6.8857   47.3633 H   0  0  0  0  0
    6.7748    6.3973   46.0648 H   0  0  0  0  0
    5.9920    4.7459   45.7225 H   0  0  0  0  0
    7.3386    5.8261   48.1030 H   0  0  0  0  0
    7.5723    4.2392   47.1482 H   0  0  0  0  0
    6.1991    5.5854   50.3553 H   0  0  0  0  0
    3.6262    1.2495   50.7666 H   0  0  0  0  0
    3.4552   -0.3503   48.8724 H   0  0  0  0  0
    4.5456    0.1863   46.7027 H   0  0  0  0  0
    5.8221    2.3035   46.4325 H   0  0  0  0  0
  1  2  1  0  0  0
  2  3  1  0  0  0
  3  4  1  0  0  0
  4  5  4  0  0  0
  4  8  4  0  0  0
  5  6  4  0  0  0
  6  7  4  0  0  0
  7  8  4  0  0  0
  7  9  4  0  0  0
  8 12  4  0  0  0
  9 10  4  0  0  0
 10 11  4  0  0  0
 11 12  4  0  0  0
  1 13  1  0  0  0
  1 14  1  0  0  0
  1 15  1  0  0  0
  2 16  1  0  0  0
  2 17  1  0  0  0
  3 18  1  0  0  0
  3 19  1  0  0  0
  5 20  1  0  0  0
  9 21  1  0  0  0
 10 22  1  0  0  0
 11 23  1  0  0  0
 12 24  1  0  0  0
M  END
$$$$
