3iok_ligand
  -I-interpret- 

 42 45  0  0  0  0  0  0  0  0999 V2000
   15.7800   15.8270    6.3610 C   0  0  0  0  0
   15.4000   14.5350    5.6290 C   0  0  0  0  0
   16.2870   13.4310    6.0480 N   0  0  0  0  0
   16.2050   12.1310    5.5420 C   0  0  0  0  0
   17.1510   11.2370    5.8410 N   0  0  0  0  0
   17.0940    9.9920    5.3870 C   0  0  0  0  0
   16.1120    9.5860    4.5990 N   0  0  0  0  0
   15.1130   10.4120    4.2540 C   0  0  0  0  0
   15.1460   11.7240    4.7220 C   0  0  0  0  0
   14.0400    9.9580    3.3430 C   0  0  0  0  0
   12.9890   10.7230    2.8020 C   0  0  0  0  0
   12.6100   11.9930    2.9560 N   0  0  0  0  0
   11.5730   12.4730    2.3000 C   0  0  0  0  0
   10.8240   11.6700    1.4320 C   0  0  0  0  0
   11.1810   10.3720    1.2850 C   0  0  0  0  0
   12.2750    9.9030    1.9670 N   0  0  0  0  0
   12.8920    8.6470    1.9780 N   0  0  0  0  0
   13.9340    8.6770    2.7790 C   0  0  0  0  0
   14.7790    7.6000    3.0340 N   0  0  0  0  0
   15.4650   14.7720    4.1320 C   0  0  0  0  0
   16.6690   14.7280    3.4370 C   0  0  0  0  0
   16.6610   14.9470    2.0640 C   0  0  0  0  0
   15.4710   15.2130    1.3940 C   0  0  0  0  0
   15.4740   15.4220    0.0610 F   0  0  0  0  0
   14.2730   15.2480    2.0810 C   0  0  0  0  0
   14.2800   15.0320    3.4500 C   0  0  0  0  0
   16.7920   16.1182    6.0798 H   0  0  0  0  0
   15.0829   16.6181    6.0847 H   0  0  0  0  0
   15.7343   15.6602    7.4372 H   0  0  0  0  0
   14.3808   14.2473    5.8869 H   0  0  0  0  0
   17.0018   13.6291    6.7482 H   0  0  0  0  0
   17.8751    9.2864    5.6700 H   0  0  0  0  0
   14.3563   12.4254    4.4527 H   0  0  0  0  0
   11.2925   13.5175    2.4361 H   0  0  0  0  0
    9.9735   12.0798    0.8872 H   0  0  0  0  0
   10.6082    9.7104    0.6351 H   0  0  0  0  0
   15.5589    7.7061    3.6827 H   0  0  0  0  0
   14.6180    6.7049    2.5721 H   0  0  0  0  0
   17.6035   14.5252    3.9601 H   0  0  0  0  0
   17.5970   14.9099    1.5066 H   0  0  0  0  0
   13.3381   15.4422    1.5553 H   0  0  0  0  0
   13.3409   15.0664    4.0023 H   0  0  0  0  0
  1  2  1  0  0  0
  2  3  1  0  0  0
  2 20  1  0  0  0
  3  4  1  0  0  0
  4  5  4  0  0  0
  4  9  4  0  0  0
  5  6  4  0  0  0
  6  7  4  0  0  0
  7  8  4  0  0  0
  8  9  4  0  0  0
  8 10  1  0  0  0
 10 11  4  0  0  0
 10 18  4  0  0  0
 11 12  4  0  0  0
 11 16  4  0  0  0
 12 13  4  0  0  0
 13 14  4  0  0  0
 14 15  4  0  0  0
 15 16  4  0  0  0
 16 17  4  0  0  0
 17 18  4  0  0  0
 18 19  1  0  0  0
 20 21  4  0  0  0
 20 26  4  0  0  0
 21 22  4  0  0  0
 22 23  4  0  0  0
 23 24  1  0  0  0
 23 25  4  0  0  0
 25 26  4  0  0  0
  1 27  1  0  0  0
  1 28  1  0  0  0
  1 29  1  0  0  0
  2 30  1  0  0  0
  3 31  1  0  0  0
  6 32  1  0  0  0
  9 33  1  0  0  0
 13 34  1  0  0  0
 14 35  1  0  0  0
 15 36  1  0  0  0
 19 37  1  0  0  0
 19 38  1  0  0  0
 21 39  1  0  0  0
 22 40  1  0  0  0
 25 41  1  0  0  0
 26 42  1  0  0  0
M  END
$$$$
