4ibf_ligand
  -I-interpret- 

 44 47  0  0  0  0  0  0  0  0999 V2000
   -4.7610   19.8900   -3.1520 O   0  0  0  0  0
   -3.6490   20.3950   -3.4510 C   0  0  0  0  0
   -3.0330   19.9980   -4.4760 O   0  0  0  0  0
   -3.0630   21.4520   -2.5770 C   0  0  0  0  0
   -1.8380   21.0770   -1.8150 C   0  0  0  0  0
   -0.5990   21.5740   -2.1990 C   0  0  0  0  0
    0.5400   21.2190   -1.4910 C   0  0  0  0  0
   -1.9410   20.2230   -0.7260 C   0  0  0  0  0
   -0.8010   19.8730   -0.0150 C   0  0  0  0  0
    0.4400   20.3640   -0.4010 C   0  0  0  0  0
    1.6210   20.0130    0.3310 N   0  0  0  0  0
    2.5550   20.9070    0.6780 C   0  0  0  0  0
    2.0570   21.9800    1.5650 C   0  0  0  0  0
    1.4470   21.6710    3.0950 S   0  0  0  0  0
    1.0430   23.2330    3.5570 C   0  0  0  0  0
    1.4060   24.0310    2.4610 C   0  0  0  0  0
    1.1710   25.9460    2.4810 Br  0  0  0  0  0
    1.9700   23.3530    1.3440 C   0  0  0  0  0
    1.9990   18.7770    0.6540 C   0  0  0  0  0
    1.2360   17.6490    0.4660 O   0  0  0  0  0
    3.2880   18.8610    1.1890 C   0  0  0  0  0
    4.0480   17.7990    1.6200 O   0  0  0  0  0
    3.6560   20.2190    1.1670 C   0  0  0  0  0
    4.8540   20.9310    1.7320 C   0  0  0  0  0
    5.1090   22.0700    1.3610 O   0  0  0  0  0
    5.7730   20.3400    2.7410 C   0  0  0  0  0
    7.3470   20.8760    3.0230 S   0  0  0  0  0
    7.7610   19.7950    4.2470 C   0  0  0  0  0
    9.2840   19.7260    5.0560 Cl  0  0  0  0  0
    6.6410   18.9730    4.4810 C   0  0  0  0  0
    5.5280   19.2850    3.6410 C   0  0  0  0  0
   -2.2079   20.4816   -4.5595 H   0  0  0  0  0
   -3.8237   21.6851   -1.8320 H   0  0  0  0  0
   -2.7698   22.2656   -3.2405 H   0  0  0  0  0
   -0.5217   22.2427   -3.0563 H   0  0  0  0  0
    1.5123   21.6106   -1.7898 H   0  0  0  0  0
   -2.9131   19.8286   -0.4300 H   0  0  0  0  0
   -0.8798   19.2116    0.8478 H   0  0  0  0  0
    2.8623   21.4657   -0.2061 H   0  0  0  0  0
    0.5980   23.5557    4.4982 H   0  0  0  0  0
    2.2941   23.8471    0.4281 H   0  0  0  0  0
    3.5458   16.9868    1.5217 H   0  0  0  0  0
    6.6251   18.1790    5.2276 H   0  0  0  0  0
    4.5768   18.7551    3.6921 H   0  0  0  0  0
  1  2  2  0  0  0
  2  3  1  0  0  0
  2  4  1  0  0  0
  4  5  1  0  0  0
  5  6  4  0  0  0
  5  8  4  0  0  0
  6  7  4  0  0  0
  7 10  4  0  0  0
  8  9  4  0  0  0
  9 10  4  0  0  0
 10 11  1  0  0  0
 11 12  1  0  0  0
 11 19  1  0  0  0
 12 13  1  0  0  0
 12 23  1  0  0  0
 13 14  4  0  0  0
 13 18  4  0  0  0
 14 15  4  0  0  0
 15 16  4  0  0  0
 16 17  1  0  0  0
 16 18  4  0  0  0
 19 20  2  0  0  0
 19 21  1  0  0  0
 21 22  1  0  0  0
 21 23  2  0  0  0
 23 24  1  0  0  0
 24 25  2  0  0  0
 24 26  1  0  0  0
 26 27  4  0  0  0
 26 31  4  0  0  0
 27 28  4  0  0  0
 28 29  1  0  0  0
 28 30  4  0  0  0
 30 31  4  0  0  0
  3 32  1  0  0  0
  4 33  1  0  0  0
  4 34  1  0  0  0
  6 35  1  0  0  0
  7 36  1  0  0  0
  8 37  1  0  0  0
  9 38  1  0  0  0
 12 39  1  0  0  0
 15 40  1  0  0  0
 18 41  1  0  0  0
 22 42  1  0  0  0
 30 43  1  0  0  0
 31 44  1  0  0  0
M  END
$$$$
