6ftf_ligand
  -I-interpret- 

 33 35  0  0  0  0  0  0  0  0999 V2000
  -25.4650   97.0380   52.6600 C   0  0  0  0  0
  -24.3150   96.8240   51.7030 N   0  0  0  0  0
  -24.9820   97.5990   53.8610 O   0  0  0  0  0
  -24.4220   96.9050   50.3880 C   0  0  0  0  0
  -25.5010   97.2220   49.6320 N   0  0  0  0  0
  -27.4660   95.9390   53.2840 O   0  0  0  0  0
  -25.3280   97.3290   48.2990 C   0  0  0  0  0
  -24.0940   97.0260   47.7030 N   0  0  0  0  0
  -26.1510   94.4150   55.0250 O   0  0  0  0  0
  -23.0040   96.6660   48.4490 C   0  0  0  0  0
  -19.7720   95.6730   50.9630 N   0  0  0  0  0
  -23.1270   96.6240   49.8540 C   0  0  0  0  0
  -21.9470   96.3700   47.8210 O   0  0  0  0  0
  -22.2380   96.3490   50.9770 C   0  0  0  0  0
  -23.0540   96.5060   52.0880 C   0  0  0  0  0
  -20.8930   95.9830   50.9610 C   0  0  0  0  0
  -26.1210   95.7560   53.0410 C   0  0  0  0  0
  -25.3910   95.3670   54.2190 C   0  0  0  0  0
  -25.2500   96.7210   54.9460 C   0  0  0  0  0
  -24.0550   96.7820   55.9800 C   0  0  0  0  0
  -22.9050   96.2580   55.4110 O   0  0  0  0  0
  -26.1771   97.6875   52.1510 H   0  0  0  0  0
  -27.9050   96.1963   52.4699 H   0  0  0  0  0
  -26.1595   97.6559   47.6746 H   0  0  0  0  0
  -24.0071   97.0753   46.6879 H   0  0  0  0  0
  -25.6399   94.1750   55.8014 H   0  0  0  0  0
  -22.7284   96.3904   53.1218 H   0  0  0  0  0
  -26.0917   94.9939   52.2623 H   0  0  0  0  0
  -24.4452   94.8660   54.0124 H   0  0  0  0  0
  -26.1310   96.9493   55.5458 H   0  0  0  0  0
  -24.3156   96.1976   56.8624 H   0  0  0  0  0
  -23.8752   97.8206   56.2578 H   0  0  0  0  0
  -22.1870   96.3001   56.0468 H   0  0  0  0  0
  1  2  1  0  0  0
  1  3  1  0  0  0
 17  1  1  0  0  0
  2  4  4  0  0  0
  2 15  4  0  0  0
  3 19  1  0  0  0
  4  5  1  0  0  0
  4 12  4  0  0  0
  5  7  2  0  0  0
 17  6  1  0  0  0
  7  8  1  0  0  0
 10  8  1  0  0  0
 18  9  1  0  0  0
 12 10  1  0  0  0
 10 13  2  0  0  0
 16 11  3  0  0  0
 14 12  4  0  0  0
 15 14  4  0  0  0
 14 16  1  0  0  0
 17 18  1  0  0  0
 18 19  1  0  0  0
 19 20  1  0  0  0
 20 21  1  0  0  0
  1 22  1  0  0  0
  6 23  1  0  0  0
  7 24  1  0  0  0
  8 25  1  0  0  0
  9 26  1  0  0  0
 15 27  1  0  0  0
 17 28  1  0  0  0
 18 29  1  0  0  0
 19 30  1  0  0  0
 20 31  1  0  0  0
 20 32  1  0  0  0
 21 33  1  0  0  0
M  END
$$$$
