4xu3_ligand
  -I-interpret- 

 61 64  0  0  0  0  0  0  0  0999 V2000
   -7.9830   -0.8360   11.9430 C   0  0  0  0  0
   -5.7150   -0.4180   11.5860 C   0  0  0  0  0
   -5.4690   -0.6170   12.9330 C   0  0  0  0  0
   -6.5280   -0.9260   13.7730 C   0  0  0  0  0
   -7.7710   -1.0270   13.2540 N   0  0  0  0  0
   -6.9770   -0.5360   11.1110 N   0  0  0  0  0
   -3.5890   -0.1560   11.9390 C   0  0  0  0  0
   -2.1730  -10.0380   13.8600 C   0  0  0  0  0
   -0.9670   -9.3290   13.4760 N   0  0  0  0  0
   -0.0140   -9.4500   14.3960 C   0  0  0  0  0
    1.0770   -8.9030   14.3530 O   0  0  0  0  0
   -0.4160  -10.2370   15.3830 N   0  0  0  0  0
   -1.8200  -10.5520   15.2570 C   0  0  0  0  0
   -2.5620   -9.8080   16.3550 C   0  0  0  0  0
   -3.5920   -8.6430   15.5470 S   0  0  0  0  0
   -3.3920   -9.1210   13.8700 C   0  0  0  0  0
   -3.2120   -7.9110   12.9660 C   0  0  0  0  0
   -3.5580   -8.2950   11.5330 C   0  0  0  0  0
   -3.6830   -7.0670   10.6420 C   0  0  0  0  0
   -4.0790   -7.4760    9.2300 C   0  0  0  0  0
   -4.4590   -6.2530    8.4300 C   0  0  0  0  0
   -5.5420   -5.7230    8.6110 O   0  0  0  0  0
   -3.5600   -5.8220    7.5460 N   0  0  0  0  0
   -3.9540   -4.7650    6.4070 S   0  0  0  0  0
   -5.3130   -4.9670    5.9900 O   0  0  0  0  0
   -3.0940   -4.9340    5.2690 O   0  0  0  0  0
   -3.7760   -3.2690    6.9390 N   0  0  0  0  0
   -3.0680   -3.0040    8.1730 C   0  0  0  0  0
   -3.0370   -1.5120    8.4790 C   0  0  0  0  0
   -4.3340   -1.1330    8.9250 O   0  0  0  0  0
   -4.3460    0.1310    9.5830 C   0  0  0  0  0
   -4.5470   -0.1430   11.0020 N   0  0  0  0  0
   -4.1470   -0.4490   13.1340 N   0  0  0  0  0
   -6.3170   -1.1230   15.0980 N   0  0  0  0  0
   -8.9944   -0.9268   11.5469 H   0  0  0  0  0
   -2.5307    0.0384   11.7651 H   0  0  0  0  0
   -2.4505  -10.8337   13.1687 H   0  0  0  0  0
   -0.8628   -8.8030   12.6083 H   0  0  0  0  0
    0.1865  -10.5758   16.1330 H   0  0  0  0  0
   -2.0757  -11.6064   15.3615 H   0  0  0  0  0
   -1.8668   -9.3136   17.0335 H   0  0  0  0  0
   -3.1487  -10.4934   16.9666 H   0  0  0  0  0
   -4.2726   -9.6325   13.4814 H   0  0  0  0  0
   -2.1770   -7.5723   13.0126 H   0  0  0  0  0
   -3.8704   -7.1079   13.2970 H   0  0  0  0  0
   -4.5143   -8.8181   11.5367 H   0  0  0  0  0
   -2.7598   -8.9259   11.1419 H   0  0  0  0  0
   -2.7221   -6.5536   10.6072 H   0  0  0  0  0
   -4.4498   -6.4084   11.0497 H   0  0  0  0  0
   -4.9308   -8.1545    9.2771 H   0  0  0  0  0
   -3.2364   -7.9732    8.7494 H   0  0  0  0  0
   -2.6029   -6.1713    7.5949 H   0  0  0  0  0
   -4.1653   -2.4930    6.4035 H   0  0  0  0  0
   -2.0429   -3.3600    8.0700 H   0  0  0  0  0
   -3.5820   -3.5160    8.9865 H   0  0  0  0  0
   -2.7635   -0.9482    7.5871 H   0  0  0  0  0
   -2.2948   -1.2986    9.2482 H   0  0  0  0  0
   -5.1400    0.7672    9.1919 H   0  0  0  0  0
   -3.4111    0.6663    9.4173 H   0  0  0  0  0
   -5.3752   -1.0441   15.4817 H   0  0  0  0  0
   -7.1001   -1.3501   15.7109 H   0  0  0  0  0
  1  5  4  0  0  0
  6  1  4  0  0  0
  2  3  4  0  0  0
  2  6  4  0  0  0
 32  2  4  0  0  0
  3  4  4  0  0  0
 33  3  4  0  0  0
  4  5  4  0  0  0
  4 34  1  0  0  0
 32  7  4  0  0  0
  7 33  4  0  0  0
  8  9  1  0  0  0
  8 13  1  0  0  0
 16  8  1  0  0  0
  9 10  1  0  0  0
 10 11  2  0  0  0
 12 10  1  0  0  0
 13 12  1  0  0  0
 14 13  1  0  0  0
 15 14  1  0  0  0
 16 15  1  0  0  0
 17 16  1  0  0  0
 18 17  1  0  0  0
 19 18  1  0  0  0
 20 19  1  0  0  0
 21 20  1  0  0  0
 21 22  2  0  0  0
 23 21  1  0  0  0
 24 23  1  0  0  0
 24 25  2  0  0  0
 24 26  2  0  0  0
 27 24  1  0  0  0
 28 27  1  0  0  0
 29 28  1  0  0  0
 30 29  1  0  0  0
 31 30  1  0  0  0
 31 32  1  0  0  0
  1 35  1  0  0  0
  7 36  1  0  0  0
  8 37  1  0  0  0
  9 38  1  0  0  0
 12 39  1  0  0  0
 13 40  1  0  0  0
 14 41  1  0  0  0
 14 42  1  0  0  0
 16 43  1  0  0  0
 17 44  1  0  0  0
 17 45  1  0  0  0
 18 46  1  0  0  0
 18 47  1  0  0  0
 19 48  1  0  0  0
 19 49  1  0  0  0
 20 50  1  0  0  0
 20 51  1  0  0  0
 23 52  1  0  0  0
 27 53  1  0  0  0
 28 54  1  0  0  0
 28 55  1  0  0  0
 29 56  1  0  0  0
 29 57  1  0  0  0
 31 58  1  0  0  0
 31 59  1  0  0  0
 34 60  1  0  0  0
 34 61  1  0  0  0
M  END
$$$$
