5lsg_ligand
  -I-interpret- 

 81 85  0  0  0  0  0  0  0  0999 V2000
   19.0500   19.7650   17.8230 C   0  0  0  0  0
   20.3410   20.5440   17.9070 C   0  0  0  0  0
   21.1060   20.7610   16.6590 C   0  0  0  0  0
   20.7420   21.1770   19.0170 C   0  0  0  0  0
   18.8030   19.1200   19.1910 C   0  0  0  0  0
   19.8250   17.9800   19.1170 C   0  0  0  0  0
   19.3980   17.2820   17.8420 C   0  0  0  0  0
   20.4200   16.4810   17.0070 C   0  0  0  0  0
   19.7650   15.9310   15.7210 C   0  0  0  0  0
   18.9820   16.9590   14.8760 C   0  0  0  0  0
   18.2940   17.9420   15.8510 C   0  0  0  0  0
   19.1680   18.4990   16.9820 C   0  0  0  0  0
   17.3390   18.8770   15.1830 C   0  0  0  0  0
   16.2170   18.2260   14.4070 C   0  0  0  0  0
   16.9350   17.4860   13.3020 C   0  0  0  0  0
   16.1370   17.3150   11.9570 C   0  0  0  0  0
   17.0970   16.8620   10.8450 C   0  0  0  0  0
   17.7400   17.8900    9.8540 C   0  0  0  0  0
   17.1630   17.4490    8.5280 C   0  0  0  0  0
   19.2460   17.7060    9.6530 C   0  0  0  0  0
   17.4330   19.3850   10.0710 C   0  0  0  0  0
   17.1480   20.1260    8.8900 O   0  0  0  0  0
   16.3660   19.7480   11.0780 C   0  0  0  0  0
   15.4770   18.6050   11.4910 C   0  0  0  0  0
   18.0080   15.7390   11.2980 C   0  0  0  0  0
   18.4840   15.6150   12.7450 C   0  0  0  0  0
   17.8380   16.3580   13.8990 C   0  0  0  0  0
   17.0200   15.3190   14.6890 C   0  0  0  0  0
   14.9470   16.3480   12.0630 C   0  0  0  0  0
   20.1030   17.6450   14.1080 C   0  0  0  0  0
   18.3910   16.3500   18.3170 C   0  0  0  0  0
   18.6320   15.6980   19.3400 O   0  0  0  0  0
   17.3580   16.2370   17.6700 O   0  0  0  0  0
   18.3108   20.4701   17.4428 H   0  0  0  0  0
   21.0852   21.8198   16.4011 H   0  0  0  0  0
   22.1377   20.4419   16.8066 H   0  0  0  0  0
   20.6566   20.1806   15.8533 H   0  0  0  0  0
   21.6122   21.8327   18.9863 H   0  0  0  0  0
   20.1982   21.0365   19.9511 H   0  0  0  0  0
   17.7755   18.8012   19.3665 H   0  0  0  0  0
   18.9280   19.7907   20.0411 H   0  0  0  0  0
   19.8233   17.3319   19.9934 H   0  0  0  0  0
   20.8607   18.3196   19.1053 H   0  0  0  0  0
   20.7823   15.6435   17.6032 H   0  0  0  0  0
   21.2416   17.1411   16.7288 H   0  0  0  0  0
   19.0428   15.1793   16.0396 H   0  0  0  0  0
   20.5777   15.5688   15.0913 H   0  0  0  0  0
   17.6313   17.3190   16.4517 H   0  0  0  0  0
   19.9243   19.0185   16.3936 H   0  0  0  0  0
   17.9218   19.4489   14.4610 H   0  0  0  0  0
   16.8686   19.4566   15.9773 H   0  0  0  0  0
   15.4976   18.9506   14.0256 H   0  0  0  0  0
   15.6095   17.5656   15.0258 H   0  0  0  0  0
   17.6845   18.1167   12.8240 H   0  0  0  0  0
   16.3791   16.4727   10.1231 H   0  0  0  0  0
   17.4596   16.4192    8.3286 H   0  0  0  0  0
   16.0756   17.5143    8.5666 H   0  0  0  0  0
   17.5393   18.0966    7.7361 H   0  0  0  0  0
   19.7556   17.8199   10.6098 H   0  0  0  0  0
   19.4390   16.7104    9.2534 H   0  0  0  0  0
   19.6123   18.4571    8.9531 H   0  0  0  0  0
   18.3992   19.6705   10.4870 H   0  0  0  0  0
   16.9705   21.0404    9.1223 H   0  0  0  0  0
   15.7259   20.4943   10.6074 H   0  0  0  0  0
   16.8801   20.0909   11.9759 H   0  0  0  0  0
   14.9190   18.9708   12.3529 H   0  0  0  0  0
   14.9189   18.3355   10.5944 H   0  0  0  0  0
   18.9278   15.9148   10.7402 H   0  0  0  0  0
   17.4040   14.8439   11.1497 H   0  0  0  0  0
   19.4882   16.0376   12.7111 H   0  0  0  0  0
   18.2835   14.5701   12.9817 H   0  0  0  0  0
   17.6797   14.5199   15.0271 H   0  0  0  0  0
   16.5591   15.8007   15.5513 H   0  0  0  0  0
   16.2443   14.9037   14.0456 H   0  0  0  0  0
   15.3070   15.3615   12.3550 H   0  0  0  0  0
   14.2463   16.7169   12.8120 H   0  0  0  0  0
   14.4467   16.2823   11.0968 H   0  0  0  0  0
   20.7954   18.1057   14.8126 H   0  0  0  0  0
   20.6330   16.9075   13.5053 H   0  0  0  0  0
   19.6805   18.4113   13.4581 H   0  0  0  0  0
   19.4941   15.9470   19.6811 H   0  0  0  0  0
  1  2  1  0  0  0
  1  5  1  0  0  0
  1 12  1  0  0  0
  2  3  1  0  0  0
  2  4  2  0  0  0
  5  6  1  0  0  0
  6  7  1  0  0  0
  7  8  1  0  0  0
  7 12  1  0  0  0
  7 31  1  0  0  0
  8  9  1  0  0  0
  9 10  1  0  0  0
 10 11  1  0  0  0
 10 27  1  0  0  0
 10 30  1  0  0  0
 11 12  1  0  0  0
 11 13  1  0  0  0
 13 14  1  0  0  0
 14 15  1  0  0  0
 15 16  1  0  0  0
 15 27  1  0  0  0
 16 17  1  0  0  0
 16 24  1  0  0  0
 16 29  1  0  0  0
 17 18  1  0  0  0
 17 25  1  0  0  0
 18 19  1  0  0  0
 18 20  1  0  0  0
 18 21  1  0  0  0
 21 22  1  0  0  0
 21 23  1  0  0  0
 23 24  1  0  0  0
 25 26  1  0  0  0
 26 27  1  0  0  0
 27 28  1  0  0  0
 31 32  1  0  0  0
 31 33  2  0  0  0
  1 34  1  0  0  0
  3 35  1  0  0  0
  3 36  1  0  0  0
  3 37  1  0  0  0
  4 38  1  0  0  0
  4 39  1  0  0  0
  5 40  1  0  0  0
  5 41  1  0  0  0
  6 42  1  0  0  0
  6 43  1  0  0  0
  8 44  1  0  0  0
  8 45  1  0  0  0
  9 46  1  0  0  0
  9 47  1  0  0  0
 11 48  1  0  0  0
 12 49  1  0  0  0
 13 50  1  0  0  0
 13 51  1  0  0  0
 14 52  1  0  0  0
 14 53  1  0  0  0
 15 54  1  0  0  0
 17 55  1  0  0  0
 19 56  1  0  0  0
 19 57  1  0  0  0
 19 58  1  0  0  0
 20 59  1  0  0  0
 20 60  1  0  0  0
 20 61  1  0  0  0
 21 62  1  0  0  0
 22 63  1  0  0  0
 23 64  1  0  0  0
 23 65  1  0  0  0
 24 66  1  0  0  0
 24 67  1  0  0  0
 25 68  1  0  0  0
 25 69  1  0  0  0
 26 70  1  0  0  0
 26 71  1  0  0  0
 28 72  1  0  0  0
 28 73  1  0  0  0
 28 74  1  0  0  0
 29 75  1  0  0  0
 29 76  1  0  0  0
 29 77  1  0  0  0
 30 78  1  0  0  0
 30 79  1  0  0  0
 30 80  1  0  0  0
 32 81  1  0  0  0
M  END
$$$$
