1ow6_ligand
  -I-interpret- 

192191  0  0  0  0  0  0  0  0999 V2000
   24.8710   36.2740   19.6690 N   0  3  0  0  0
   24.6200   34.8560   20.0550 C   0  0  0  0  0
   24.9330   33.9020   18.9080 C   0  0  0  0  0
   24.8730   32.6850   19.0830 O   0  0  0  0  0
   23.1630   34.6820   20.5390 C   0  0  0  0  0
   23.0340   35.3270   21.8180 O   0  0  0  0  0
   22.7660   33.2260   20.8350 C   0  0  0  0  0
   25.2870   34.4400   17.7430 N   0  0  0  0  0
   25.7680   33.5950   16.6450 C   0  0  0  0  0
   27.2130   33.1610   16.9210 C   0  0  0  0  0
   27.5270   31.9910   16.6880 O   0  0  0  0  0
   25.6360   34.3000   15.2870 C   0  0  0  0  0
   24.7370   33.6040   14.2620 C   0  0  0  0  0
   24.4760   34.4520   13.0060 C   0  0  0  0  0
   23.2110   35.1960   13.0220 N   0  0  0  0  0
   22.8690   36.1960   12.2040 C   0  0  0  0  0
   23.6970   36.6340   11.2620 N   0  0  0  0  0
   21.6770   36.7760   12.3210 N   0  0  0  0  0
   28.0630   34.0590   17.4290 N   0  0  0  0  0
   29.4220   33.7160   17.8930 C   0  0  0  0  0
   29.4570   32.8190   19.1430 C   0  0  0  0  0
   30.3370   31.9620   19.2570 O   0  0  0  0  0
   30.3000   34.9670   18.1040 C   0  0  0  0  0
   30.0950   36.0560   17.0530 C   0  0  0  0  0
   31.1790   37.1240   16.9750 C   0  0  0  0  0
   31.3490   37.9250   17.9190 O   0  0  0  0  0
   31.8540   37.2040   15.9270 O   0  0  0  0  0
   28.4990   32.9930   20.0550 N   0  0  0  0  0
   28.3040   32.1480   21.2380 C   0  0  0  0  0
   27.8230   30.7510   20.8560 C   0  0  0  0  0
   28.0960   29.7750   21.5580 O   0  0  0  0  0
   27.2710   32.7760   22.1780 C   0  0  0  0  0
   26.8330   31.9880   23.4150 C   0  0  0  0  0
   28.0020   31.8110   24.3620 C   0  0  0  0  0
   25.6760   32.6480   24.1410 C   0  0  0  0  0
   27.1120   30.6730   19.7360 N   0  0  0  0  0
   26.6290   29.4100   19.1760 C   0  0  0  0  0
   27.6640   28.6610   18.3300 C   0  0  0  0  0
   27.6070   27.4380   18.1980 O   0  0  0  0  0
   25.3450   29.6420   18.3720 C   0  0  0  0  0
   24.1500   29.9520   19.2620 C   0  0  0  0  0
   24.1420   29.4960   20.4290 O   0  0  0  0  0
   23.1830   30.6580   18.8870 O   0  0  0  0  0
   28.6480   29.3850   17.8070 N   0  0  0  0  0
   29.8400   28.7460   17.2240 C   0  0  0  0  0
   30.5300   27.9060   18.3010 C   0  0  0  0  0
   31.0010   26.8020   18.0200 O   0  0  0  0  0
   30.8510   29.7870   16.7260 C   0  0  0  0  0
   30.2970   30.8500   15.7840 C   0  0  0  0  0
   30.3530   30.4420   14.3260 C   0  0  0  0  0
   31.3350   30.8600   13.6780 O   0  0  0  0  0
   29.4420   29.7150   13.8680 O   0  0  0  0  0
   30.5460   28.4660   19.5140 N   0  0  0  0  0
   30.9910   27.8480   20.7710 C   0  0  0  0  0
   30.0940   26.7720   21.3730 C   0  0  0  0  0
   30.5630   25.7010   21.7530 O   0  0  0  0  0
   31.1160   28.9140   21.8600 C   0  0  0  0  0
   32.0950   30.0560   21.5780 C   0  0  0  0  0
   31.7640   31.1130   22.6120 C   0  0  0  0  0
   33.6040   29.6910   21.5880 C   0  0  0  0  0
   28.8060   27.0520   21.5100 N   0  0  0  0  0
   27.9250   25.9980   21.9900 C   0  0  0  0  0
   27.9250   24.7840   21.0610 C   0  0  0  0  0
   27.8080   23.6420   21.5230 O   0  0  0  0  0
   26.5170   26.5640   22.1420 C   0  0  0  0  0
   26.3860   27.5050   23.3290 C   0  0  0  0  0
   27.2080   26.8770   24.8190 S   0  0  0  0  0
   25.9760   25.7520   25.4610 C   0  0  0  0  0
   28.0970   25.0270   19.7620 N   0  0  0  0  0
   28.2150   23.9630   18.7650 C   0  0  0  0  0
   29.5750   23.2520   18.7670 C   0  0  0  0  0
   29.6880   22.1560   18.2190 O   0  0  0  0  0
   27.9260   24.5330   17.3830 C   0  0  0  0  0
   30.5960   23.8650   19.3620 N   0  0  0  0  0
   31.9260   23.2750   19.5620 C   0  0  0  0  0
   31.9680   22.1510   20.5940 C   0  0  0  0  0
   32.9140   21.3570   20.6210 O   0  0  0  0  0
   32.9270   24.3150   20.0700 C   0  0  0  0  0
   33.4170   25.1470   19.0360 O   0  0  0  0  0
   30.9640   22.1180   21.4680 N   0  0  0  0  0
   30.8370   21.0600   22.4730 C   0  0  0  0  0
   29.8850   19.9600   21.9790 C   0  0  0  0  0
   29.6980   18.9280   22.6390 O   0  0  0  0  0
   30.4080   21.6690   23.8210 C   0  0  0  0  0
   31.3350   22.7320   24.4250 C   0  0  0  0  0
   30.5730   23.6050   25.3920 C   0  0  0  0  0
   32.5600   22.1140   25.0950 C   0  0  0  0  0
   29.3090   20.2160   20.8030 N   0  0  0  0  0
   28.4540   19.2890   20.0670 C   0  0  0  0  0
   27.0950   19.1070   20.7440 C   0  0  0  0  0
   26.4410   20.0730   21.1400 O   0  0  0  0  0
   29.1750   17.9560   19.8360 C   0  0  0  0  0
   30.4610   18.1840   19.2870 O   0  0  0  0  0
   26.5740   17.9940   20.9200 O   0  0  0  0  0
   25.8354   36.3732   19.3521 H   0  0  0  0  0
   24.2356   36.5377   18.9159 H   0  0  0  0  0
   24.7131   36.8778   20.4758 H   0  0  0  0  0
   25.2904   34.6055   20.8771 H   0  0  0  0  0
   22.5427   35.0840   19.7379 H   0  0  0  0  0
   23.2648   36.2549   21.7319 H   0  0  0  0  0
   23.4431   32.8107   21.5815 H   0  0  0  0  0
   21.7445   33.1992   21.2142 H   0  0  0  0  0
   22.8301   32.6397   19.9183 H   0  0  0  0  0
   25.2231   35.4496   17.6127 H   0  0  0  0  0
   25.1424   32.7040   16.5925 H   0  0  0  0  0
   26.6359   34.3250   14.8538 H   0  0  0  0  0
   25.1825   35.2710   15.4862 H   0  0  0  0  0
   23.7750   33.4186   14.7399 H   0  0  0  0  0
   25.2438   32.6927   13.9445 H   0  0  0  0  0
   24.4293   33.7638   12.1620 H   0  0  0  0  0
   25.2772   35.1887   12.9478 H   0  0  0  0  0
   22.5257   34.9231   13.7265 H   0  0  0  0  0
   24.6160   36.2055   11.1513 H   0  0  0  0  0
   21.4172   37.5385   11.6953 H   0  0  0  0  0
   21.0231   36.4580   13.0363 H   0  0  0  0  0
   27.7575   35.0296   17.4996 H   0  0  0  0  0
   29.8434   33.1259   17.0792 H   0  0  0  0  0
   31.3397   34.6465   18.0382 H   0  0  0  0  0
   30.0269   35.3941   19.0689 H   0  0  0  0  0
   29.1751   36.5737   17.3249 H   0  0  0  0  0
   30.0931   35.5515   16.0868 H   0  0  0  0  0
   30.7450   37.7089   18.6332 H   0  0  0  0  0
   27.8541   33.7716   19.9196 H   0  0  0  0  0
   29.2696   32.0683   21.7373 H   0  0  0  0  0
   26.3687   32.8859   21.5765 H   0  0  0  0  0
   27.7499   33.6742   22.5677 H   0  0  0  0  0
   26.4878   31.0136   23.0693 H   0  0  0  0  0
   28.7994   31.2674   23.8553 H   0  0  0  0  0
   28.3680   32.7897   24.6723 H   0  0  0  0  0
   27.6768   31.2490   25.2375 H   0  0  0  0  0
   25.9732   33.6456   24.4643 H   0  0  0  0  0
   24.8215   32.7222   23.4683 H   0  0  0  0  0
   25.4048   32.0487   25.0102 H   0  0  0  0  0
   26.8917   31.5374   19.2414 H   0  0  0  0  0
   26.4228   28.7639   20.0293 H   0  0  0  0  0
   25.1248   28.7294   17.8182 H   0  0  0  0  0
   25.5079   30.4976   17.7166 H   0  0  0  0  0
   23.3239   30.9352   17.9788 H   0  0  0  0  0
   28.5764   30.4025   17.8094 H   0  0  0  0  0
   29.5138   28.1344   16.3828 H   0  0  0  0  0
   31.6059   29.2387   16.1624 H   0  0  0  0  0
   31.2105   30.3149   17.6093 H   0  0  0  0  0
   30.9075   31.7454   15.9004 H   0  0  0  0  0
   29.2501   31.0081   16.0431 H   0  0  0  0  0
   28.8033   29.5299   14.5604 H   0  0  0  0  0
   30.2128   29.4281   19.5742 H   0  0  0  0  0
   31.9271   27.3715   20.4798 H   0  0  0  0  0
   31.4924   28.4019   22.7456 H   0  0  0  0  0
   30.1314   29.3726   21.9516 H   0  0  0  0  0
   31.9609   30.3903   20.5492 H   0  0  0  0  0
   30.7279   31.4283   22.4885 H   0  0  0  0  0
   31.9025   30.6985   23.6106 H   0  0  0  0  0
   32.4243   31.9698   22.4781 H   0  0  0  0  0
   33.8753   29.2996   22.5685 H   0  0  0  0  0
   33.7987   28.9353   20.8271 H   0  0  0  0  0
   34.1936   30.5828   21.3755 H   0  0  0  0  0
   28.4431   27.9785   21.2857 H   0  0  0  0  0
   28.2914   25.6506   22.9560 H   0  0  0  0  0
   25.8363   25.7278   22.3019 H   0  0  0  0  0
   26.2853   27.1301   21.2398 H   0  0  0  0  0
   25.3249   27.6127   23.5537 H   0  0  0  0  0
   26.8593   28.4493   23.0599 H   0  0  0  0  0
   25.0593   26.3020   25.6738 H   0  0  0  0  0
   25.7730   24.9772   24.7217 H   0  0  0  0  0
   26.3471   25.2933   26.3775 H   0  0  0  0  0
   28.1486   25.9966   19.4495 H   0  0  0  0  0
   27.4815   23.2025   19.0328 H   0  0  0  0  0
   26.9155   24.9411   17.3638 H   0  0  0  0  0
   28.6428   25.3234   17.1602 H   0  0  0  0  0
   28.0136   23.7411   16.6392 H   0  0  0  0  0
   30.4434   24.8138   19.7040 H   0  0  0  0  0
   32.1792   22.8849   18.5762 H   0  0  0  0  0
   33.7741   23.7826   20.5027 H   0  0  0  0  0
   32.4154   24.9471   20.7958 H   0  0  0  0  0
   34.0386   25.7797   19.4034 H   0  0  0  0  0
   30.2592   22.8547   21.4366 H   0  0  0  0  0
   31.8036   20.5815   22.6307 H   0  0  0  0  0
   30.3954   20.8433   24.5324 H   0  0  0  0  0
   29.4584   22.1706   23.6345 H   0  0  0  0  0
   31.7012   23.3516   23.6064 H   0  0  0  0  0
   29.7573   24.1013   24.8663 H   0  0  0  0  0
   30.1679   22.9885   26.1945 H   0  0  0  0  0
   31.2454   24.3535   25.8112 H   0  0  0  0  0
   32.2376   21.4495   25.8966 H   0  0  0  0  0
   33.1284   21.5470   24.3578 H   0  0  0  0  0
   33.1854   22.9059   25.5072 H   0  0  0  0  0
   29.4793   21.1309   20.3854 H   0  0  0  0  0
   28.2486   19.7236   19.0887 H   0  0  0  0  0
   28.5925   17.3511   19.1411 H   0  0  0  0  0
   29.2807   17.4377   20.7891 H   0  0  0  0  0
   30.9018   17.3427   19.1472 H   0  0  0  0  0
   27.1573   17.3115   20.5801 H   0  0  0  0  0
  1  2  1  0  0  0
  2  3  1  0  0  0
  2  5  1  0  0  0
  3  4  2  0  0  0
  3  8  1  0  0  0
  5  6  1  0  0  0
  5  7  1  0  0  0
  8  9  1  0  0  0
  9 10  1  0  0  0
  9 12  1  0  0  0
 10 11  2  0  0  0
 10 19  1  0  0  0
 12 13  1  0  0  0
 13 14  1  0  0  0
 14 15  1  0  0  0
 15 16  1  0  0  0
 16 17  2  0  0  0
 16 18  1  0  0  0
 19 20  1  0  0  0
 20 21  1  0  0  0
 20 23  1  0  0  0
 21 22  2  0  0  0
 21 28  1  0  0  0
 23 24  1  0  0  0
 24 25  1  0  0  0
 25 26  1  0  0  0
 25 27  2  0  0  0
 28 29  1  0  0  0
 29 30  1  0  0  0
 29 32  1  0  0  0
 30 31  2  0  0  0
 30 36  1  0  0  0
 32 33  1  0  0  0
 33 34  1  0  0  0
 33 35  1  0  0  0
 36 37  1  0  0  0
 37 38  1  0  0  0
 37 40  1  0  0  0
 38 39  2  0  0  0
 38 44  1  0  0  0
 40 41  1  0  0  0
 41 42  2  0  0  0
 41 43  1  0  0  0
 44 45  1  0  0  0
 45 46  1  0  0  0
 45 48  1  0  0  0
 46 47  2  0  0  0
 46 53  1  0  0  0
 48 49  1  0  0  0
 49 50  1  0  0  0
 50 51  2  0  0  0
 50 52  1  0  0  0
 53 54  1  0  0  0
 54 55  1  0  0  0
 54 57  1  0  0  0
 55 56  2  0  0  0
 55 61  1  0  0  0
 57 58  1  0  0  0
 58 59  1  0  0  0
 58 60  1  0  0  0
 61 62  1  0  0  0
 62 63  1  0  0  0
 62 65  1  0  0  0
 63 64  2  0  0  0
 63 69  1  0  0  0
 65 66  1  0  0  0
 66 67  1  0  0  0
 67 68  1  0  0  0
 69 70  1  0  0  0
 70 71  1  0  0  0
 70 73  1  0  0  0
 71 72  2  0  0  0
 71 74  1  0  0  0
 74 75  1  0  0  0
 75 76  1  0  0  0
 75 78  1  0  0  0
 76 77  2  0  0  0
 76 80  1  0  0  0
 78 79  1  0  0  0
 80 81  1  0  0  0
 81 82  1  0  0  0
 81 84  1  0  0  0
 82 83  2  0  0  0
 82 88  1  0  0  0
 84 85  1  0  0  0
 85 86  1  0  0  0
 85 87  1  0  0  0
 88 89  1  0  0  0
 89 90  1  0  0  0
 89 92  1  0  0  0
 90 91  2  0  0  0
 90 94  1  0  0  0
 92 93  1  0  0  0
  1 95  1  0  0  0
  1 96  1  0  0  0
  1 97  1  0  0  0
  2 98  1  0  0  0
  5 99  1  0  0  0
  6100  1  0  0  0
  7101  1  0  0  0
  7102  1  0  0  0
  7103  1  0  0  0
  8104  1  0  0  0
  9105  1  0  0  0
 12106  1  0  0  0
 12107  1  0  0  0
 13108  1  0  0  0
 13109  1  0  0  0
 14110  1  0  0  0
 14111  1  0  0  0
 15112  1  0  0  0
 17113  1  0  0  0
 18114  1  0  0  0
 18115  1  0  0  0
 19116  1  0  0  0
 20117  1  0  0  0
 23118  1  0  0  0
 23119  1  0  0  0
 24120  1  0  0  0
 24121  1  0  0  0
 26122  1  0  0  0
 28123  1  0  0  0
 29124  1  0  0  0
 32125  1  0  0  0
 32126  1  0  0  0
 33127  1  0  0  0
 34128  1  0  0  0
 34129  1  0  0  0
 34130  1  0  0  0
 35131  1  0  0  0
 35132  1  0  0  0
 35133  1  0  0  0
 36134  1  0  0  0
 37135  1  0  0  0
 40136  1  0  0  0
 40137  1  0  0  0
 43138  1  0  0  0
 44139  1  0  0  0
 45140  1  0  0  0
 48141  1  0  0  0
 48142  1  0  0  0
 49143  1  0  0  0
 49144  1  0  0  0
 52145  1  0  0  0
 53146  1  0  0  0
 54147  1  0  0  0
 57148  1  0  0  0
 57149  1  0  0  0
 58150  1  0  0  0
 59151  1  0  0  0
 59152  1  0  0  0
 59153  1  0  0  0
 60154  1  0  0  0
 60155  1  0  0  0
 60156  1  0  0  0
 61157  1  0  0  0
 62158  1  0  0  0
 65159  1  0  0  0
 65160  1  0  0  0
 66161  1  0  0  0
 66162  1  0  0  0
 68163  1  0  0  0
 68164  1  0  0  0
 68165  1  0  0  0
 69166  1  0  0  0
 70167  1  0  0  0
 73168  1  0  0  0
 73169  1  0  0  0
 73170  1  0  0  0
 74171  1  0  0  0
 75172  1  0  0  0
 78173  1  0  0  0
 78174  1  0  0  0
 79175  1  0  0  0
 80176  1  0  0  0
 81177  1  0  0  0
 84178  1  0  0  0
 84179  1  0  0  0
 85180  1  0  0  0
 86181  1  0  0  0
 86182  1  0  0  0
 86183  1  0  0  0
 87184  1  0  0  0
 87185  1  0  0  0
 87186  1  0  0  0
 88187  1  0  0  0
 89188  1  0  0  0
 92189  1  0  0  0
 92190  1  0  0  0
 93191  1  0  0  0
 94192  1  0  0  0
M  END
$$$$
