### 
### Created by X-TOOL on Mon Sep 10 21:12:50 2018
### 

@<TRIPOS>MOLECULE
1ow6_ligand
  189   188     1     0     0
SMALL
GAST_HUCK


@<TRIPOS>ATOM
      1 N          24.8710   36.2740   19.6690 N.4       1 THR         0.2398
      2 CA         24.6200   34.8560   20.0550 C.3       1 THR         0.0910
      3 C          24.9330   33.9020   18.9080 C.2       1 THR         0.2293
      4 O          24.8730   32.6850   19.0830 O.2       1 THR        -0.3906
      5 CB         23.1630   34.6820   20.5390 C.3       1 THR         0.1120
      6 OG1        23.0340   35.3270   21.8180 O.3       1 THR        -0.3840
      7 CG2        22.7660   33.2260   20.8350 C.3       1 THR        -0.0314
      8 N          25.2870   34.4400   17.7430 N.am      1 ARG        -0.2609
      9 CA         25.7680   33.5950   16.6450 C.3       1 ARG         0.1312
     10 C          27.2130   33.1610   16.9210 C.2       1 ARG         0.2039
     11 O          27.5270   31.9910   16.6880 O.2       1 ARG        -0.3944
     12 CB         25.6360   34.3000   15.2870 C.3       1 ARG        -0.0092
     13 CG         24.7370   33.6040   14.2620 C.3       1 ARG        -0.0156
     14 CD         24.4760   34.4520   13.0060 C.3       1 ARG         0.0627
     15 NE         23.2110   35.1960   13.0220 N.pl3     1 ARG        -0.2723
     16 CZ         22.8690   36.1960   12.2040 C.cat     1 ARG         0.2882
     17 NH1        23.6970   36.6340   11.2620 N.pl3     1 ARG        -0.2849
     18 NH2        21.6770   36.7760   12.3210 N.pl3     1 ARG        -0.2849
     19 N          28.0630   34.0590   17.4290 N.am      1 GLU        -0.2636
     20 CA         29.4220   33.7160   17.8930 C.3       1 GLU         0.1325
     21 C          29.4570   32.8190   19.1430 C.2       1 GLU         0.2040
     22 O          30.3370   31.9620   19.2570 O.2       1 GLU        -0.3944
     23 CB         30.3000   34.9670   18.1040 C.3       1 GLU        -0.0008
     24 CG         30.0950   36.0560   17.0530 C.3       1 GLU         0.0044
     25 CD         31.1790   37.1240   16.9750 C.2       1 GLU         0.0350
     26 OE1        31.3490   37.9250   17.9190 O.co2     1 GLU        -0.5690
     27 OE2        31.8540   37.2040   15.9270 O.co2     1 GLU        -0.5690
     28 N          28.4990   32.9930   20.0550 N.am      1 LEU        -0.2637
     29 CA         28.3040   32.1480   21.2380 C.3       1 LEU         0.1312
     30 C          27.8230   30.7510   20.8560 C.2       1 LEU         0.2040
     31 O          28.0960   29.7750   21.5580 O.2       1 LEU        -0.3944
     32 CB         27.2710   32.7760   22.1780 C.3       1 LEU        -0.0101
     33 CG         26.8330   31.9880   23.4150 C.3       1 LEU        -0.0425
     34 CD1        28.0020   31.8110   24.3620 C.3       1 LEU        -0.0625
     35 CD2        25.6760   32.6480   24.1410 C.3       1 LEU        -0.0625
     36 N          27.1120   30.6730   19.7360 N.am      1 ASP        -0.2622
     37 CA         26.6290   29.4100   19.1760 C.3       1 ASP         0.1423
     38 C          27.6640   28.6610   18.3300 C.2       1 ASP         0.2056
     39 O          27.6070   27.4380   18.1980 O.2       1 ASP        -0.3943
     40 CB         25.3450   29.6420   18.3720 C.3       1 ASP         0.0406
     41 CG         24.1500   29.9520   19.2620 C.2       1 ASP         0.0393
     42 OD1        24.1420   29.4960   20.4290 O.co2     1 ASP        -0.5688
     43 OD2        23.1830   30.6580   18.8870 O.co2     1 ASP        -0.5688
     44 N          28.6480   29.3850   17.8070 N.am      1 GLU        -0.2635
     45 CA         29.8400   28.7460   17.2240 C.3       1 GLU         0.1325
     46 C          30.5300   27.9060   18.3010 C.2       1 GLU         0.2040
     47 O          31.0010   26.8020   18.0200 O.2       1 GLU        -0.3944
     48 CB         30.8510   29.7870   16.7260 C.3       1 GLU        -0.0008
     49 CG         30.2970   30.8500   15.7840 C.3       1 GLU         0.0044
     50 CD         30.3530   30.4420   14.3260 C.2       1 GLU         0.0350
     51 OE1        31.3350   30.8600   13.6780 O.co2     1 GLU        -0.5690
     52 OE2        29.4420   29.7150   13.8680 O.co2     1 GLU        -0.5690
     53 N          30.5460   28.4660   19.5140 N.am      1 LEU        -0.2637
     54 CA         30.9910   27.8480   20.7710 C.3       1 LEU         0.1312
     55 C          30.0940   26.7720   21.3730 C.2       1 LEU         0.2039
     56 O          30.5630   25.7010   21.7530 O.2       1 LEU        -0.3944
     57 CB         31.1160   28.9140   21.8600 C.3       1 LEU        -0.0101
     58 CG         32.0950   30.0560   21.5780 C.3       1 LEU        -0.0425
     59 CD1        31.7640   31.1130   22.6120 C.3       1 LEU        -0.0625
     60 CD2        33.6040   29.6910   21.5880 C.3       1 LEU        -0.0625
     61 N          28.8060   27.0520   21.5100 N.am      1 MET        -0.2637
     62 CA         27.9250   25.9980   21.9900 C.3       1 MET         0.1317
     63 C          27.9250   24.7840   21.0610 C.2       1 MET         0.2039
     64 O          27.8080   23.6420   21.5230 O.2       1 MET        -0.3944
     65 CB         26.5170   26.5640   22.1420 C.3       1 MET        -0.0034
     66 CG         26.3860   27.5050   23.3290 C.3       1 MET        -0.0024
     67 SD         27.2080   26.8770   24.8190 S.3       1 MET        -0.1639
     68 CE         25.9760   25.7520   25.4610 C.3       1 MET        -0.0181
     69 N          28.0970   25.0270   19.7620 N.am      1 ALA        -0.2640
     70 CA         28.2150   23.9630   18.7650 C.3       1 ALA         0.1282
     71 C          29.5750   23.2520   18.7670 C.2       1 ALA         0.2037
     72 O          29.6880   22.1560   18.2190 O.2       1 ALA        -0.3944
     73 CB         27.9260   24.5330   17.3830 C.3       1 ALA        -0.0244
     74 N          30.5960   23.8650   19.3620 N.am      1 SER        -0.2616
     75 CA         31.9260   23.2750   19.5620 C.3       1 SER         0.1539
     76 C          31.9680   22.1510   20.5940 C.2       1 SER         0.2062
     77 O          32.9140   21.3570   20.6210 O.2       1 SER        -0.3943
     78 CB         32.9270   24.3150   20.0700 C.3       1 SER         0.0843
     79 OG         33.4170   25.1470   19.0360 O.3       1 SER        -0.3903
     80 N          30.9640   22.1180   21.4680 N.am      1 LEU        -0.2637
     81 CA         30.8370   21.0600   22.4730 C.3       1 LEU         0.1312
     82 C          29.8850   19.9600   21.9790 C.2       1 LEU         0.2034
     83 O          29.6980   18.9280   22.6390 O.2       1 LEU        -0.3944
     84 CB         30.4080   21.6690   23.8210 C.3       1 LEU        -0.0101
     85 CG         31.3350   22.7320   24.4250 C.3       1 LEU        -0.0425
     86 CD1        30.5730   23.6050   25.3920 C.3       1 LEU        -0.0625
     87 CD2        32.5600   22.1140   25.0950 C.3       1 LEU        -0.0625
     88 N          29.3090   20.2160   20.8030 N.am      1 SER        -0.2672
     89 CA         28.4540   19.2890   20.0670 C.3       1 SER         0.1173
     90 C          27.0950   19.1070   20.7440 C.2       1 SER         0.0623
     91 O          26.4410   20.0730   21.1400 O.co2     1 SER        -0.5665
     92 CB         29.1750   17.9560   19.8360 C.3       1 SER         0.0789
     93 OG         30.4610   18.1840   19.2870 O.3       1 SER        -0.3910
     94 OXT        26.5740   17.9940   20.9200 O.co2     1 SER        -0.5665
     95 H1         25.8239   36.3733   19.3556 H         1 THR         0.2016
     96 H2         24.7153   36.8717   20.4656 H         1 THR         0.2016
     97 H3         24.2436   36.5358   18.9248 H         1 THR         0.2016
     98 H4         25.2895   34.6081   20.8919 H         1 THR         0.1125
     99 H5         22.4791   35.1191   19.7966 H         1 THR         0.0674
    100 H6         22.1426   35.2300   22.1318 H         1 THR         0.2102
    101 H7         21.7194   33.1926   21.1720 H         1 THR         0.0258
    102 H8         23.4180   32.8211   21.6230 H         1 THR         0.0258
    103 H9         22.8765   32.6229   19.9218 H         1 THR         0.0258
    104 H10        25.2244   35.4298   17.6153 H         1 ARG         0.1884
    105 H11        25.1421   32.6910   16.6126 H         1 ARG         0.0800
    106 H12        26.6424   34.3850   14.8512 H         1 ARG         0.0313
    107 H13        25.2280   35.3056   15.4666 H         1 ARG         0.0313
    108 H14        23.7714   33.3807   14.7392 H         1 ARG         0.0301
    109 H15        25.2201   32.6647   13.9548 H         1 ARG         0.0301
    110 H16        24.4680   33.7808   12.1346 H         1 ARG         0.0689
    111 H17        25.2981   35.1757   12.9039 H         1 ARG         0.0689
    112 H18        22.5190   34.9204   13.7334 H         1 ARG         0.2642
    113 H19        23.4110   37.4063   10.6434 H         1 ARG         0.2615
    114 H20        24.6250   36.2013   11.1503 H         1 ARG         0.2615
    115 H21        21.0167   36.4549   13.0434 H         1 ARG         0.2615
    116 H22        21.4147   37.5460   11.6892 H         1 ARG         0.2615
    117 H23        27.7634   35.0106   17.4982 H         1 GLU         0.1883
    118 H24        29.8839   33.1358   17.0806 H         1 GLU         0.0801
    119 H25        31.3551   34.6570   18.0791 H         1 GLU         0.0330
    120 H26        30.0656   35.3912   19.0915 H         1 GLU         0.0330
    121 H27        29.1420   36.5597   17.2722 H         1 GLU         0.0433
    122 H28        30.0336   35.5669   16.0696 H         1 GLU         0.0433
    123 H29        27.8668   33.7563   19.9222 H         1 LEU         0.1883
    124 H30        29.2649   32.0610   21.7663 H         1 LEU         0.0800
    125 H31        26.3676   32.9730   21.5822 H         1 LEU         0.0315
    126 H32        27.6916   33.7286   22.5323 H         1 LEU         0.0315
    127 H33        26.5016   30.9932   23.0825 H         1 LEU         0.0298
    128 H34        27.6751   31.2439   25.2460 H         1 LEU         0.0232
    129 H35        28.3723   32.7981   24.6759 H         1 LEU         0.0232
    130 H36        28.8074   31.2624   23.8518 H         1 LEU         0.0232
    131 H37        24.8314   32.7731   23.4474 H         1 LEU         0.0232
    132 H38        25.9919   33.6329   24.5154 H         1 LEU         0.0232
    133 H39        25.3656   32.0166   24.9865 H         1 LEU         0.0232
    134 H40        26.8960   31.5205   19.2511 H         1 ASP         0.1884
    135 H41        26.3780   28.7578   20.0255 H         1 ASP         0.0819
    136 H42        25.1250   28.7357   17.7887 H         1 ASP         0.0478
    137 H43        25.5048   30.4885   17.6880 H         1 ASP         0.0478
    138 H44        28.5778   30.3825   17.8093 H         1 GLU         0.1883
    139 H45        29.5327   28.1036   16.3857 H         1 GLU         0.0801
    140 H46        31.6537   29.2523   16.1971 H         1 GLU         0.0330
    141 H47        31.2690   30.2994   17.6050 H         1 GLU         0.0330
    142 H48        30.8842   31.7713   15.9121 H         1 GLU         0.0433
    143 H49        29.2481   31.0434   16.0530 H         1 GLU         0.0433
    144 H50        30.2193   29.4093   19.5731 H         1 LEU         0.1883
    145 H51        31.9776   27.4008   20.5798 H         1 LEU         0.0800
    146 H52        31.4413   28.4135   22.7839 H         1 LEU         0.0315
    147 H53        30.1203   29.3557   22.0133 H         1 LEU         0.0315
    148 H54        31.8736   30.4541   20.5768 H         1 LEU         0.0298
    149 H55        32.4298   31.9783   22.4779 H         1 LEU         0.0232
    150 H56        31.9034   30.6960   23.6203 H         1 LEU         0.0232
    151 H57        30.7186   31.4322   22.4885 H         1 LEU         0.0232
    152 H58        33.8005   28.9231   20.8253 H         1 LEU         0.0232
    153 H59        33.8807   29.3025   22.5792 H         1 LEU         0.0232
    154 H60        34.1999   30.5887   21.3665 H         1 LEU         0.0232
    155 H61        28.4502   27.9603   21.2901 H         1 MET         0.1883
    156 H62        28.2810   25.6706   22.9779 H         1 MET         0.0800
    157 H63        25.8147   25.7282   22.2768 H         1 MET         0.0320
    158 H64        26.2590   27.1156   21.2260 H         1 MET         0.0320
    159 H65        25.3176   27.6453   23.5499 H         1 MET         0.0378
    160 H66        26.8353   28.4727   23.0614 H         1 MET         0.0378
    161 H67        26.3494   25.2884   26.3860 H         1 MET         0.0340
    162 H68        25.7702   24.9694   24.7159 H         1 MET         0.0340
    163 H69        25.0503   26.3059   25.6763 H         1 MET         0.0340
    164 H70        28.1476   25.9776   19.4556 H         1 ALA         0.1883
    165 H71        27.4490   23.2077   18.9945 H         1 ALA         0.0797
    166 H72        28.0141   23.7347   16.6314 H         1 ALA         0.0277
    167 H73        28.6487   25.3308   17.1569 H         1 ALA         0.0277
    168 H74        26.9064   24.9452   17.3622 H         1 ALA         0.0277
    169 H75        30.4464   24.7952   19.6973 H         1 SER         0.1884
    170 H76        32.2655   22.8813   18.5926 H         1 SER         0.0823
    171 H77        33.7760   23.7906   20.5327 H         1 SER         0.0606
    172 H78        32.4301   24.9442   20.8231 H         1 SER         0.0606
    173 H79        32.6919   25.6107   18.6337 H         1 SER         0.2097
    174 H80        30.2730   22.8402   21.4372 H         1 LEU         0.1883
    175 H81        31.8268   20.6016   22.6146 H         1 LEU         0.0800
    176 H82        30.3268   20.8467   24.5471 H         1 LEU         0.0315
    177 H83        29.4200   22.1311   23.6783 H         1 LEU         0.0315
    178 H84        31.6926   23.3696   23.6030 H         1 LEU         0.0298
    179 H85        31.2506   24.3609   25.8158 H         1 LEU         0.0232
    180 H86        30.1637   22.9840   26.2024 H         1 LEU         0.0232
    181 H87        29.7495   24.1065   24.8626 H         1 LEU         0.0232
    182 H88        33.0959   21.4841   24.3697 H         1 LEU         0.0232
    183 H89        32.2397   21.4988   25.9488 H         1 LEU         0.0232
    184 H90        33.2269   22.9139   25.4491 H         1 LEU         0.0232
    185 H91        29.4759   21.1130   20.3936 H         1 SER         0.1876
    186 H92        28.2640   19.7325   19.0785 H         1 SER         0.0749
    187 H93        28.5866   17.3405   19.1396 H         1 SER         0.0599
    188 H94        29.2780   17.4276   20.7952 H         1 SER         0.0599
    189 H95        30.8972   17.3514   19.1486 H         1 SER         0.2096
@<TRIPOS>BOND
     1    1    2 1  
     2    2    3 1  
     3    2    5 1  
     4    3    4 2  
     5    3    8 am 
     6    5    6 1  
     7    5    7 1  
     8    8    9 1  
     9    9   10 1  
    10    9   12 1  
    11   10   11 2  
    12   10   19 am 
    13   12   13 1  
    14   13   14 1  
    15   14   15 1  
    16   15   16 ar 
    17   16   17 ar 
    18   16   18 ar 
    19   19   20 1  
    20   20   21 1  
    21   20   23 1  
    22   21   22 2  
    23   21   28 am 
    24   23   24 1  
    25   24   25 1  
    26   25   26 ar 
    27   25   27 ar 
    28   28   29 1  
    29   29   30 1  
    30   29   32 1  
    31   30   31 2  
    32   30   36 am 
    33   32   33 1  
    34   33   34 1  
    35   33   35 1  
    36   36   37 1  
    37   37   38 1  
    38   37   40 1  
    39   38   39 2  
    40   38   44 am 
    41   40   41 1  
    42   41   42 ar 
    43   41   43 ar 
    44   44   45 1  
    45   45   46 1  
    46   45   48 1  
    47   46   47 2  
    48   46   53 am 
    49   48   49 1  
    50   49   50 1  
    51   50   51 ar 
    52   50   52 ar 
    53   53   54 1  
    54   54   55 1  
    55   54   57 1  
    56   55   56 2  
    57   55   61 am 
    58   57   58 1  
    59   58   59 1  
    60   58   60 1  
    61   61   62 1  
    62   62   63 1  
    63   62   65 1  
    64   63   64 2  
    65   63   69 am 
    66   65   66 1  
    67   66   67 1  
    68   67   68 1  
    69   69   70 1  
    70   70   71 1  
    71   70   73 1  
    72   71   72 2  
    73   71   74 am 
    74   74   75 1  
    75   75   76 1  
    76   75   78 1  
    77   76   77 2  
    78   76   80 am 
    79   78   79 1  
    80   80   81 1  
    81   81   82 1  
    82   81   84 1  
    83   82   83 2  
    84   82   88 am 
    85   84   85 1  
    86   85   86 1  
    87   85   87 1  
    88   88   89 1  
    89   89   90 1  
    90   89   92 1  
    91   90   91 ar 
    92   90   94 ar 
    93   92   93 1  
    94    1   95 1  
    95    1   96 1  
    96    1   97 1  
    97    2   98 1  
    98    5   99 1  
    99    6  100 1  
   100    7  101 1  
   101    7  102 1  
   102    7  103 1  
   103    8  104 1  
   104    9  105 1  
   105   12  106 1  
   106   12  107 1  
   107   13  108 1  
   108   13  109 1  
   109   14  110 1  
   110   14  111 1  
   111   15  112 1  
   112   17  113 1  
   113   17  114 1  
   114   18  115 1  
   115   18  116 1  
   116   19  117 1  
   117   20  118 1  
   118   23  119 1  
   119   23  120 1  
   120   24  121 1  
   121   24  122 1  
   122   28  123 1  
   123   29  124 1  
   124   32  125 1  
   125   32  126 1  
   126   33  127 1  
   127   34  128 1  
   128   34  129 1  
   129   34  130 1  
   130   35  131 1  
   131   35  132 1  
   132   35  133 1  
   133   36  134 1  
   134   37  135 1  
   135   40  136 1  
   136   40  137 1  
   137   44  138 1  
   138   45  139 1  
   139   48  140 1  
   140   48  141 1  
   141   49  142 1  
   142   49  143 1  
   143   53  144 1  
   144   54  145 1  
   145   57  146 1  
   146   57  147 1  
   147   58  148 1  
   148   59  149 1  
   149   59  150 1  
   150   59  151 1  
   151   60  152 1  
   152   60  153 1  
   153   60  154 1  
   154   61  155 1  
   155   62  156 1  
   156   65  157 1  
   157   65  158 1  
   158   66  159 1  
   159   66  160 1  
   160   68  161 1  
   161   68  162 1  
   162   68  163 1  
   163   69  164 1  
   164   70  165 1  
   165   73  166 1  
   166   73  167 1  
   167   73  168 1  
   168   74  169 1  
   169   75  170 1  
   170   78  171 1  
   171   78  172 1  
   172   79  173 1  
   173   80  174 1  
   174   81  175 1  
   175   84  176 1  
   176   84  177 1  
   177   85  178 1  
   178   86  179 1  
   179   86  180 1  
   180   86  181 1  
   181   87  182 1  
   182   87  183 1  
   183   87  184 1  
   184   88  185 1  
   185   89  186 1  
   186   92  187 1  
   187   92  188 1  
   188   93  189 1  
@<TRIPOS>SUBSTRUCTURE
     1 THR         1

