1v48_ligand
  -I-interpret- 

 36 37  0  0  0  0  0  0  0  0999 V2000
   72.3650   46.4880   50.0860 N   0  0  0  0  0
   71.1030   46.9890   50.3430 C   0  0  0  0  0
   71.0510   48.2700   50.0890 N   0  0  0  0  0
   72.2950   48.6540   49.6530 C   0  0  0  0  0
   72.8050   49.9450   49.2380 C   0  0  0  0  0
   72.1750   51.0160   49.1910 O   0  0  0  0  0
   74.1800   49.9120   48.8540 N   0  0  0  0  0
   74.9780   48.7450   48.8730 C   0  0  0  0  0
   76.2840   48.8480   48.4800 N   0  0  0  0  0
   74.4860   47.5150   49.2700 N   0  0  0  0  0
   73.1450   47.5500   49.6440 C   0  0  0  0  0
   72.6500   45.1320   50.2120 C   0  0  0  0  0
   73.4070   44.8400   51.5340 C   0  0  0  0  0
   74.3640   43.6420   51.3350 C   0  0  0  0  0
   73.6010   42.3740   50.8350 C   0  0  0  0  0
   74.4710   41.0990   50.9880 C   0  0  0  0  0
   74.4940   40.7400   52.2830 F   0  0  0  0  0
   75.7270   41.3680   50.5970 F   0  0  0  0  0
   73.9180   39.9670   50.1360 P   0  0  0  0  0
   72.4530   39.8050   50.3640 O   0  0  0  0  0
   74.1700   40.2640   48.6970 O   0  0  0  0  0
   74.6210   38.6860   50.4980 O   0  0  0  0  0
   70.2644   46.3961   50.7081 H   0  0  0  0  0
   74.6127   50.7833   48.5474 H   0  0  0  0  0
   76.8837   48.0229   48.4818 H   0  0  0  0  0
   76.6582   49.7499   48.1851 H   0  0  0  0  0
   73.2799   44.8291   49.3756 H   0  0  0  0  0
   71.7114   44.5778   50.2182 H   0  0  0  0  0
   72.6870   44.6004   52.3165 H   0  0  0  0  0
   73.9843   45.7190   51.8208 H   0  0  0  0  0
   74.8284   43.4091   52.2932 H   0  0  0  0  0
   75.1067   43.9151   50.5854 H   0  0  0  0  0
   73.3602   42.5063   49.7802 H   0  0  0  0  0
   72.6980   42.2529   51.4334 H   0  0  0  0  0
   72.2938   39.6139   51.2912 H   0  0  0  0  0
   74.4640   38.4868   51.4239 H   0  0  0  0  0
  1  2  4  0  0  0
  1 11  4  0  0  0
  1 12  1  0  0  0
  2  3  4  0  0  0
  3  4  4  0  0  0
  4  5  1  0  0  0
  4 11  4  0  0  0
  5  6  2  0  0  0
  5  7  1  0  0  0
  7  8  1  0  0  0
  8  9  1  0  0  0
  8 10  2  0  0  0
 10 11  1  0  0  0
 12 13  1  0  0  0
 13 14  1  0  0  0
 14 15  1  0  0  0
 15 16  1  0  0  0
 16 17  1  0  0  0
 16 18  1  0  0  0
 16 19  1  0  0  0
 19 20  1  0  0  0
 19 21  2  0  0  0
 19 22  1  0  0  0
  2 23  1  0  0  0
  7 24  1  0  0  0
  9 25  1  0  0  0
  9 26  1  0  0  0
 12 27  1  0  0  0
 12 28  1  0  0  0
 13 29  1  0  0  0
 13 30  1  0  0  0
 14 31  1  0  0  0
 14 32  1  0  0  0
 15 33  1  0  0  0
 15 34  1  0  0  0
 20 35  1  0  0  0
 22 36  1  0  0  0
M  END
$$$$
