1a37_ligand
  -I-interpret- 

 62 61  0  0  0  0  0  0  0  0999 V2000
   18.8740   66.1660  -19.8220 N   0  3  0  0  0
   19.3510   66.2730  -18.3800 C   0  0  0  0  0
   18.2520   66.8080  -17.4710 C   0  0  0  0  0
   17.0990   66.7980  -17.8940 O   0  0  0  0  0
   18.5530   67.1860  -16.2250 N   0  0  0  0  0
   17.5050   67.7380  -15.3700 C   0  0  0  0  0
   17.3340   67.1920  -13.9590 C   0  0  0  0  0
   18.2410   67.3330  -13.1500 O   0  0  0  0  0
   16.1130   66.7160  -13.6570 N   0  0  0  0  0
   15.7210   66.1050  -12.3740 C   0  0  0  0  0
   15.9140   66.8620  -11.0660 C   0  0  0  0  0
   16.6360   67.8550  -11.0790 O   0  0  0  0  0
   15.2830   66.4620   -9.9480 N   0  0  0  0  0
   14.3780   65.3200   -9.8140 C   0  0  0  0  0
   13.7520   65.2630   -8.3770 C   0  0  0  0  0
   12.5660   64.9690   -8.1840 O   0  0  0  0  0
   15.2090   64.0250   -9.9580 C   0  0  0  0  0
   15.3410   63.2390  -10.9140 O   0  0  0  0  0
   17.3870   61.8400  -11.1910 O   0  0  0  0  0
   16.4770   62.0590   -8.8320 O   0  0  0  0  0
   15.2580   60.7350  -10.5510 O   0  0  0  0  0
   16.1950   61.8450  -10.3070 P   0  0  0  0  0
   14.5570   65.5170   -7.3520 N   0  0  0  0  0
   14.0370   65.4740   -5.9940 C   0  0  0  0  0
   15.0710   65.7060   -4.9070 C   0  0  0  0  0
   16.0550   66.3920   -5.1480 O   0  0  0  0  0
   14.8550   65.1340   -3.7200 N   0  0  0  0  0
   15.7890   65.3010   -2.6110 C   0  0  0  0  0
   15.2140   64.8830   -1.2530 C   0  0  0  0  0
   14.0050   64.7240   -1.1170 O   0  0  0  0  0
   16.0610   64.6820   -0.2480 N   0  0  0  0  0
   15.5510   64.2780    1.0500 C   0  0  0  0  0
   16.5510   64.4290    2.1760 C   0  0  0  0  0
   16.5720   63.5600    3.0700 O   0  0  0  0  0
   17.3867   65.4630    2.2111 O   0  0  0  0  0
   19.6308   65.8058  -20.4034 H   0  0  0  0  0
   18.0764   65.5320  -19.8689 H   0  0  0  0  0
   18.5964   67.0888  -20.1564 H   0  0  0  0  0
   20.1958   66.9608  -18.3444 H   0  0  0  0  0
   19.6340   65.2790  -18.0338 H   0  0  0  0  0
   19.5059   67.0899  -15.8741 H   0  0  0  0  0
   16.5723   67.4944  -15.8787 H   0  0  0  0  0
   17.7782   68.7843  -15.2334 H   0  0  0  0  0
   15.3955   66.7837  -14.3788 H   0  0  0  0  0
   16.3729   65.2365  -12.2801 H   0  0  0  0  0
   14.6412   65.9802  -12.4550 H   0  0  0  0  0
   15.4529   67.0118   -9.1058 H   0  0  0  0  0
   13.5972   65.4168  -10.5684 H   0  0  0  0  0
   14.6738   63.3814   -9.2599 H   0  0  0  0  0
   16.2147   64.4436   -9.9205 H   0  0  0  0  0
   17.9479   62.5883  -10.9742 H   0  0  0  0  0
   17.0902   62.7902   -8.7274 H   0  0  0  0  0
   15.5382   65.7419   -7.5165 H   0  0  0  0  0
   13.6368   64.4718   -5.8406 H   0  0  0  0  0
   13.3051   66.2774   -5.9104 H   0  0  0  0  0
   14.0178   64.5672   -3.5851 H   0  0  0  0  0
   16.6498   64.6628   -2.8109 H   0  0  0  0  0
   16.0347   66.3611   -2.5486 H   0  0  0  0  0
   17.0631   64.8109   -0.3880 H   0  0  0  0  0
   15.2955   63.2205    0.9830 H   0  0  0  0  0
   14.7034   64.9235    1.2805 H   0  0  0  0  0
   17.2299   66.0257    1.4493 H   0  0  0  0  0
  2  1  1  0  0  0
  3  2  1  0  0  0
  3  4  2  0  0  0
  6  5  1  0  0  0
  7  6  1  0  0  0
  7  8  2  0  0  0
  5  3  1  0  0  0
 10  9  1  0  0  0
 11 10  1  0  0  0
 11 12  2  0  0  0
  9  7  1  0  0  0
 14 13  1  0  0  0
 15 14  1  0  0  0
 14 17  1  0  0  0
 15 16  2  0  0  0
 17 18  1  0  0  0
 18 22  1  0  0  0
 22 19  1  0  0  0
 22 20  1  0  0  0
 22 21  2  0  0  0
 23 24  1  0  0  0
 24 25  1  0  0  0
 25 26  2  0  0  0
 28 29  1  0  0  0
 27 28  1  0  0  0
 29 30  2  0  0  0
 25 27  1  0  0  0
 31 32  1  0  0  0
 32 33  1  0  0  0
 33 34  2  0  0  0
 29 31  1  0  0  0
 13 11  1  0  0  0
 15 23  1  0  0  0
 33 35  1  0  0  0
  1 36  1  0  0  0
  1 37  1  0  0  0
  1 38  1  0  0  0
  2 39  1  0  0  0
  2 40  1  0  0  0
  5 41  1  0  0  0
  6 42  1  0  0  0
  6 43  1  0  0  0
  9 44  1  0  0  0
 10 45  1  0  0  0
 10 46  1  0  0  0
 13 47  1  0  0  0
 14 48  1  0  0  0
 17 49  1  0  0  0
 17 50  1  0  0  0
 19 51  1  0  0  0
 20 52  1  0  0  0
 23 53  1  0  0  0
 24 54  1  0  0  0
 24 55  1  0  0  0
 27 56  1  0  0  0
 28 57  1  0  0  0
 28 58  1  0  0  0
 31 59  1  0  0  0
 32 60  1  0  0  0
 32 61  1  0  0  0
 35 62  1  0  0  0
M  END
$$$$
