4g19_ligand
  -I-interpret- 

 38 37  0  0  0  0  0  0  0  0999 V2000
  -19.6490   55.1380  125.8500 N   0  3  0  0  0
  -20.2940   55.5480  127.0850 C   0  0  0  0  0
  -21.5580   54.7670  127.3050 C   0  0  0  0  0
  -22.2800   54.4540  126.3220 O   0  0  0  0  0
  -21.8940   54.4200  128.4660 O   0  0  0  0  0
  -20.6440   57.0240  126.9640 C   0  0  0  0  0
  -21.5910   57.4400  128.0820 C   0  0  0  0  0
  -21.5920   58.9540  128.1790 C   0  0  0  0  0
  -20.9560   59.7310  127.1890 O   0  0  0  0  0
  -22.2170   59.5130  129.2130 N   0  0  0  0  0
  -22.0220   60.9320  129.4580 C   0  0  0  0  0
  -20.8080   61.1830  130.3020 C   0  0  0  0  0
  -20.6790   60.4800  131.5060 O   0  0  0  0  0
  -23.2530   61.4490  130.1800 C   0  0  0  0  0
  -24.6200   61.7590  129.0360 S   0  0  0  0  0
  -19.8850   62.0690  129.9150 N   0  0  0  0  0
  -18.9450   62.5010  130.9300 C   0  0  0  0  0
  -18.1940   63.7570  130.5770 C   0  0  0  0  0
  -17.1680   64.0780  131.2130 O   0  0  0  0  0
  -18.5800   64.4830  129.6520 O   0  0  0  0  0
  -19.4044   54.1494  125.9075 H   0  0  0  0  0
  -20.2877   55.2866  125.0687 H   0  0  0  0  0
  -18.8035   55.6910  125.7095 H   0  0  0  0  0
  -19.6219   55.3684  127.9241 H   0  0  0  0  0
  -21.8847   54.7927  125.5154 H   0  0  0  0  0
  -21.1316   57.1952  126.0043 H   0  0  0  0  0
  -19.7293   57.6124  127.0369 H   0  0  0  0  0
  -21.2612   57.0083  129.0270 H   0  0  0  0  0
  -22.5978   57.0817  127.8675 H   0  0  0  0  0
  -22.8196   58.9574  129.8200 H   0  0  0  0  0
  -21.8737   61.4441  128.5073 H   0  0  0  0  0
  -22.9949   62.3884  130.6688 H   0  0  0  0  0
  -23.5716   60.6941  130.8988 H   0  0  0  0  0
  -25.6712   62.2090  129.7153 H   0  0  0  0  0
  -19.8445   62.4214  128.9587 H   0  0  0  0  0
  -18.2080   61.7064  131.0463 H   0  0  0  0  0
  -19.5188   62.7111  131.8326 H   0  0  0  0  0
  -16.9965   63.4228  131.8933 H   0  0  0  0  0
  1  2  1  0  0  0
  2  3  1  0  0  0
  2  6  1  0  0  0
  3  4  1  0  0  0
  3  5  2  0  0  0
  6  7  1  0  0  0
  7  8  1  0  0  0
  8  9  2  0  0  0
  8 10  1  0  0  0
 10 11  1  0  0  0
 11 12  1  0  0  0
 11 14  1  0  0  0
 12 13  2  0  0  0
 12 16  1  0  0  0
 14 15  1  0  0  0
 16 17  1  0  0  0
 17 18  1  0  0  0
 18 19  1  0  0  0
 18 20  2  0  0  0
  1 21  1  0  0  0
  1 22  1  0  0  0
  1 23  1  0  0  0
  2 24  1  0  0  0
  4 25  1  0  0  0
  6 26  1  0  0  0
  6 27  1  0  0  0
  7 28  1  0  0  0
  7 29  1  0  0  0
 10 30  1  0  0  0
 11 31  1  0  0  0
 14 32  1  0  0  0
 14 33  1  0  0  0
 15 34  1  0  0  0
 16 35  1  0  0  0
 17 36  1  0  0  0
 17 37  1  0  0  0
 19 38  1  0  0  0
M  END
$$$$
