2zo3_ligand
  -I-interpret- 

 67 70  0  0  0  0  0  0  0  0999 V2000
   18.5960  -17.5430   24.9920 C   0  0  0  0  0
   18.6290  -18.7390   25.7250 C   0  0  0  0  0
   18.3040  -18.7250   27.0810 C   0  0  0  0  0
   17.9470  -17.5430   27.7200 C   0  0  0  0  0
   17.9150  -16.3500   26.9880 C   0  0  0  0  0
   18.2380  -16.3490   25.6270 C   0  0  0  0  0
   18.2260  -15.0720   24.7510 C   0  0  0  0  0
   17.7610  -15.2520   23.2790 C   0  0  0  0  0
   17.7230  -13.8800   22.6210 C   0  0  0  0  0
   18.6110  -13.4510   21.6830 N   0  0  0  0  0
   18.4760  -12.1080   21.1290 C   0  0  0  0  0
   17.1200  -12.0380   20.4430 C   0  0  0  0  0
   16.7520  -13.0260   19.8230 O   0  0  0  0  0
   16.4550  -10.8700   20.5460 N   0  0  0  0  0
   15.1690  -10.8060   19.7930 C   0  0  0  0  0
   14.0590  -10.6760   20.8370 C   0  0  0  0  0
   13.6160  -11.8180   21.4860 C   0  0  0  0  0
   12.6140  -11.7930   22.4460 C   0  0  0  0  0
   12.0150  -10.5710   22.7850 C   0  0  0  0  0
   10.9220  -10.5600   23.8390 C   0  0  0  0  0
   10.2390  -11.6890   24.1310 N   0  0  0  0  0
   10.6440   -9.4830   24.4530 N   0  0  0  0  0
   12.4490   -9.4150   22.1440 C   0  0  0  0  0
   13.4640   -9.4540   21.1730 C   0  0  0  0  0
   19.5610  -12.1080   20.0100 C   0  0  0  0  0
   20.5050  -13.2450   20.4680 C   0  0  0  0  0
   19.5020  -14.3450   20.9290 C   0  0  0  0  0
   16.8080  -13.1400   22.9930 O   0  0  0  0  0
   16.4490  -15.9680   23.1650 N   0  3  0  0  0
   19.6290  -14.4240   24.8070 C   0  0  0  0  0
   20.7220  -14.9670   24.1220 C   0  0  0  0  0
   21.9730  -14.3330   24.2100 C   0  0  0  0  0
   22.1540  -13.1820   24.9610 C   0  0  0  0  0
   21.0620  -12.6360   25.6470 C   0  0  0  0  0
   19.8190  -13.2660   25.5580 C   0  0  0  0  0
   18.8484  -17.5442   23.9316 H   0  0  0  0  0
   18.9070  -19.6734   25.2374 H   0  0  0  0  0
   18.3303  -19.6551   27.6487 H   0  0  0  0  0
   17.6945  -17.5451   28.7804 H   0  0  0  0  0
   17.6373  -15.4182   27.4806 H   0  0  0  0  0
   17.4612  -14.4245   25.1798 H   0  0  0  0  0
   18.4737  -15.8918   22.7587 H   0  0  0  0  0
   18.5707  -11.3019   21.8565 H   0  0  0  0  0
   16.8055  -10.0874   21.0983 H   0  0  0  0  0
   15.0289  -11.6992   19.1842 H   0  0  0  0  0
   15.1605   -9.9586   19.1074 H   0  0  0  0  0
   14.0731  -12.7744   21.2321 H   0  0  0  0  0
   12.2954  -12.7150   22.9322 H   0  0  0  0  0
    9.5060  -11.6726   24.8401 H   0  0  0  0  0
   10.4565  -12.5575   23.6423 H   0  0  0  0  0
   11.1549   -8.6268   24.2378 H   0  0  0  0  0
   11.9922   -8.4591   22.4003 H   0  0  0  0  0
   13.7871   -8.5356   20.6828 H   0  0  0  0  0
   20.0660  -11.1481   19.9016 H   0  0  0  0  0
   19.1497  -12.2668   19.0132 H   0  0  0  0  0
   21.1956  -12.9384   21.2535 H   0  0  0  0  0
   21.1810  -13.5833   19.6827 H   0  0  0  0  0
   19.0382  -14.9377   20.1405 H   0  0  0  0  0
   19.9248  -15.1845   21.4809 H   0  0  0  0  0
   16.1958  -16.0566   22.1809 H   0  0  0  0  0
   16.5320  -16.8957   23.5808 H   0  0  0  0  0
   15.7296  -15.4372   23.6560 H   0  0  0  0  0
   20.6041  -15.8723   23.5264 H   0  0  0  0  0
   22.8224  -14.7569   23.6743 H   0  0  0  0  0
   23.1339  -12.7079   25.0169 H   0  0  0  0  0
   21.1808  -11.7310   26.2427 H   0  0  0  0  0
   18.9709  -12.8384   26.0928 H   0  0  0  0  0
  1  2  4  0  0  0
  1  6  4  0  0  0
  2  3  4  0  0  0
  3  4  4  0  0  0
  4  5  4  0  0  0
  5  6  4  0  0  0
  6  7  1  0  0  0
  7  8  1  0  0  0
  7 30  1  0  0  0
  8  9  1  0  0  0
  8 29  1  0  0  0
  9 10  1  0  0  0
  9 28  2  0  0  0
 10 11  1  0  0  0
 10 27  1  0  0  0
 11 12  1  0  0  0
 11 25  1  0  0  0
 12 13  2  0  0  0
 12 14  1  0  0  0
 14 15  1  0  0  0
 15 16  1  0  0  0
 16 17  4  0  0  0
 16 24  4  0  0  0
 17 18  4  0  0  0
 18 19  4  0  0  0
 19 20  1  0  0  0
 19 23  4  0  0  0
 20 21  1  0  0  0
 20 22  2  0  0  0
 23 24  4  0  0  0
 25 26  1  0  0  0
 26 27  1  0  0  0
 30 31  4  0  0  0
 30 35  4  0  0  0
 31 32  4  0  0  0
 32 33  4  0  0  0
 33 34  4  0  0  0
 34 35  4  0  0  0
  1 36  1  0  0  0
  2 37  1  0  0  0
  3 38  1  0  0  0
  4 39  1  0  0  0
  5 40  1  0  0  0
  7 41  1  0  0  0
  8 42  1  0  0  0
 11 43  1  0  0  0
 14 44  1  0  0  0
 15 45  1  0  0  0
 15 46  1  0  0  0
 17 47  1  0  0  0
 18 48  1  0  0  0
 21 49  1  0  0  0
 21 50  1  0  0  0
 22 51  1  0  0  0
 23 52  1  0  0  0
 24 53  1  0  0  0
 25 54  1  0  0  0
 25 55  1  0  0  0
 26 56  1  0  0  0
 26 57  1  0  0  0
 27 58  1  0  0  0
 27 59  1  0  0  0
 29 60  1  0  0  0
 29 61  1  0  0  0
 29 62  1  0  0  0
 31 63  1  0  0  0
 32 64  1  0  0  0
 33 65  1  0  0  0
 34 66  1  0  0  0
 35 67  1  0  0  0
M  END
$$$$
