3qci_ligand
  -I-interpret- 

 42 44  0  0  0  0  0  0  0  0999 V2000
   20.6840   30.7920   64.7490 S   0  0  0  0  0
   20.5910   30.8860   63.0450 C   0  0  0  0  0
   19.5490   30.1740   62.6060 C   0  0  0  0  0
   18.7360   29.5870   63.6690 C   0  0  0  0  0
   19.2700   29.8240   64.8580 C   0  0  0  0  0
   21.5500   31.6730   62.2290 C   0  0  0  0  0
   22.4920   32.3650   62.8750 N   0  0  0  0  0
   21.4220   31.6720   61.0120 O   0  0  0  0  0
   23.4130   33.4600   62.1020 S   0  0  0  0  0
   19.1790   29.9590   60.9190 S   0  0  0  0  0
   17.6460   29.1040   61.0130 C   0  0  0  0  0
   17.2160   28.6730   59.6380 C   0  0  0  0  0
   16.6160   29.6290   58.7200 C   0  0  0  0  0
   16.1940   29.2400   57.4170 C   0  0  0  0  0
   16.4010   27.8630   57.0920 C   0  0  0  0  0
   16.9990   26.8970   57.9890 C   0  0  0  0  0
   17.4200   27.2880   59.2870 C   0  0  0  0  0
   17.1980   25.2300   57.4850 Cl  0  0  0  0  0
   15.8690   27.3170   55.5380 Cl  0  0  0  0  0
   23.8590   34.3620   63.1140 O   0  0  0  0  0
   22.7490   33.9860   60.9480 O   0  0  0  0  0
   24.9630   32.7470   61.6620 C   0  0  0  0  0
   25.1750   31.9950   60.4410 C   0  0  0  0  0
   26.4770   31.4370   60.1380 C   0  0  0  0  0
   27.5290   31.6790   61.1120 C   0  0  0  0  0
   27.3200   32.4380   62.3390 C   0  0  0  0  0
   26.0210   32.9810   62.6260 C   0  0  0  0  0
   28.3370   32.6590   63.2240 N   0  0  0  0  0
   17.8140   29.0291   63.5055 H   0  0  0  0  0
   18.8599   29.4485   65.7955 H   0  0  0  0  0
   22.6365   32.2037   63.8718 H   0  0  0  0  0
   16.8901   29.7661   61.4353 H   0  0  0  0  0
   17.7630   28.2241   61.6457 H   0  0  0  0  0
   16.4869   30.6641   59.0362 H   0  0  0  0  0
   15.7443   29.9431   56.7159 H   0  0  0  0  0
   17.8730   26.5803   59.9813 H   0  0  0  0  0
   24.3485   31.8483   59.7457 H   0  0  0  0  0
   26.6585   30.8657   59.2276 H   0  0  0  0  0
   28.5215   31.2735   60.9154 H   0  0  0  0  0
   25.8369   33.5496   63.5375 H   0  0  0  0  0
   29.2684   32.2897   63.0332 H   0  0  0  0  0
   28.1649   33.1934   64.0756 H   0  0  0  0  0
  1  2  4  0  0  0
  1  5  4  0  0  0
  2  3  4  0  0  0
  2  6  1  0  0  0
  3  4  4  0  0  0
  3 10  1  0  0  0
  4  5  4  0  0  0
  6  7  1  0  0  0
  6  8  2  0  0  0
  7  9  1  0  0  0
  9 20  2  0  0  0
  9 21  2  0  0  0
  9 22  1  0  0  0
 10 11  1  0  0  0
 11 12  1  0  0  0
 12 13  4  0  0  0
 12 17  4  0  0  0
 13 14  4  0  0  0
 14 15  4  0  0  0
 15 16  4  0  0  0
 15 19  1  0  0  0
 16 17  4  0  0  0
 16 18  1  0  0  0
 22 23  4  0  0  0
 22 27  4  0  0  0
 23 24  4  0  0  0
 24 25  4  0  0  0
 25 26  4  0  0  0
 26 27  4  0  0  0
 26 28  1  0  0  0
  4 29  1  0  0  0
  5 30  1  0  0  0
  7 31  1  0  0  0
 11 32  1  0  0  0
 11 33  1  0  0  0
 13 34  1  0  0  0
 14 35  1  0  0  0
 17 36  1  0  0  0
 23 37  1  0  0  0
 24 38  1  0  0  0
 25 39  1  0  0  0
 27 40  1  0  0  0
 28 41  1  0  0  0
 28 42  1  0  0  0
M  END
$$$$
