6f8j_ligand
  -I-interpret- 

 43 45  0  0  0  0  0  0  0  0999 V2000
   59.5810   27.7790   68.3670 C   0  0  0  0  0
   59.1420   27.2420   69.5780 C   0  0  0  0  0
   60.0510   26.8010   70.5240 C   0  0  0  0  0
   61.4280   26.9030   70.2520 N   0  0  0  0  0
   61.8630   27.4580   69.0290 C   0  0  0  0  0
   60.9530   27.8880   68.0580 C   0  0  0  0  0
   61.4630   28.4330   66.9220 N   0  0  0  0  0
   60.8500   28.3980   65.7120 C   0  0  0  0  0
   59.7420   27.9060   65.5020 O   0  0  0  0  0
   61.4560   29.1030   64.6350 C   0  0  0  0  0
   61.7380   30.4640   64.8250 C   0  0  0  0  0
   62.2830   31.2600   63.8040 N   0  0  0  0  0
   62.5510   30.7410   62.5890 C   0  0  0  0  0
   63.0620   31.6490   61.7280 N   0  0  0  0  0
   63.6940   31.3750   60.5620 C   0  0  0  0  0
   63.9020   30.2410   60.1330 O   0  0  0  0  0
   64.1560   32.4570   59.9090 N   0  0  0  0  0
   64.9290   32.3790   58.6610 C   0  0  0  0  0
   65.9460   33.5210   58.5900 C   0  0  0  0  0
   62.2580   29.3730   62.3600 C   0  0  0  0  0
   61.6990   28.5480   63.3560 C   0  0  0  0  0
   61.4940   27.2350   63.0720 N   0  0  0  0  0
   61.7210   26.2190   63.9310 N   0  0  0  0  0
   61.4560   25.0600   63.3160 C   0  0  0  0  0
   61.0950   25.3370   62.0660 C   0  0  0  0  0
   61.1240   26.6640   61.9110 C   0  0  0  0  0
   58.8445   28.1232   67.6410 H   0  0  0  0  0
   58.0735   27.1692   69.7807 H   0  0  0  0  0
   59.7047   26.3800   71.4679 H   0  0  0  0  0
   62.9317   27.5535   68.8373 H   0  0  0  0  0
   62.3678   28.8999   66.9833 H   0  0  0  0  0
   61.5279   30.9173   65.7938 H   0  0  0  0  0
   62.9623   32.6324   61.9800 H   0  0  0  0  0
   63.9598   33.3785   60.2999 H   0  0  0  0  0
   64.2461   32.4590   57.8152 H   0  0  0  0  0
   65.4609   31.4280   58.6320 H   0  0  0  0  0
   65.4212   34.4758   58.6238 H   0  0  0  0  0
   66.6294   33.4504   59.4362 H   0  0  0  0  0
   66.5090   33.4471   57.6596 H   0  0  0  0  0
   62.4723   28.9451   61.3807 H   0  0  0  0  0
   61.5239   24.0669   63.7600 H   0  0  0  0  0
   60.8231   24.6089   61.3018 H   0  0  0  0  0
   60.8860   27.1984   60.9913 H   0  0  0  0  0
  1  2  4  0  0  0
  1  6  4  0  0  0
  2  3  4  0  0  0
  3  4  4  0  0  0
  4  5  4  0  0  0
  5  6  4  0  0  0
  6  7  1  0  0  0
  7  8  1  0  0  0
  8  9  2  0  0  0
  8 10  1  0  0  0
 10 11  4  0  0  0
 10 21  4  0  0  0
 11 12  4  0  0  0
 12 13  4  0  0  0
 13 14  1  0  0  0
 13 20  4  0  0  0
 14 15  1  0  0  0
 15 16  2  0  0  0
 15 17  1  0  0  0
 17 18  1  0  0  0
 18 19  1  0  0  0
 20 21  4  0  0  0
 21 22  1  0  0  0
 22 23  4  0  0  0
 22 26  4  0  0  0
 23 24  4  0  0  0
 24 25  4  0  0  0
 25 26  4  0  0  0
  1 27  1  0  0  0
  2 28  1  0  0  0
  3 29  1  0  0  0
  5 30  1  0  0  0
  7 31  1  0  0  0
 11 32  1  0  0  0
 14 33  1  0  0  0
 17 34  1  0  0  0
 18 35  1  0  0  0
 18 36  1  0  0  0
 19 37  1  0  0  0
 19 38  1  0  0  0
 19 39  1  0  0  0
 20 40  1  0  0  0
 24 41  1  0  0  0
 25 42  1  0  0  0
 26 43  1  0  0  0
M  END
$$$$
