2q3z_ligand
  -I-interpret- 

 89 91  0  0  0  0  0  0  0  0999 V2000
   -6.8360   -2.1530   22.7090 N   0  3  0  0  0
   -5.8020   -3.1700   22.9670 C   0  0  0  0  0
   -4.5210   -2.8320   22.2120 C   0  0  0  0  0
   -4.4110   -1.7950   21.5730 O   0  0  0  0  0
   -6.3700   -4.4890   22.4070 C   0  0  0  0  0
   -7.5780   -4.1160   21.5370 C   0  0  0  0  0
   -7.6990   -2.5830   21.5960 C   0  0  0  0  0
   -3.5660   -3.7430   22.3140 N   0  0  0  0  0
   -2.2760   -3.6270   21.6510 C   0  0  0  0  0
   -2.3730   -4.4540   20.3480 C   0  0  0  0  0
   -2.7690   -5.6200   20.3330 O   0  0  0  0  0
   -1.1650   -4.2170   22.5200 C   0  0  0  0  0
   -0.5280   -3.1790   23.4260 C   0  0  0  0  0
    0.5010   -3.8320   24.3310 C   0  0  0  0  0
    0.3350   -4.9660   24.7740 O   0  0  0  0  0
    1.7470   -3.0460   24.6900 C   0  0  0  0  0
   -1.9820   -3.8010   19.2670 N   0  0  0  0  0
   -1.9960   -4.3600   17.9250 C   0  0  0  0  0
   -0.6270   -4.1680   17.2900 C   0  0  0  0  0
    0.0930   -3.2540   17.6730 O   0  0  0  0  0
   -2.9780   -3.5050   17.0930 C   0  0  0  0  0
   -4.2790   -3.1110   17.8190 C   0  0  0  0  0
   -4.8790   -1.8360   17.2060 C   0  0  0  0  0
   -5.3160   -4.2300   17.7960 C   0  0  0  0  0
   -0.1980   -4.9400   16.2810 N   0  0  0  0  0
    1.0980   -4.7510   15.5910 C   0  0  0  0  0
    1.0900   -3.3160   15.0200 C   0  0  0  0  0
    0.0210   -2.7850   14.7050 O   0  0  0  0  0
    1.0620   -5.7520   14.4430 C   0  0  0  0  0
   -0.4250   -6.0640   14.2650 C   0  0  0  0  0
   -0.9630   -6.0470   15.6900 C   0  0  0  0  0
    2.2580   -2.6820   14.9120 N   0  0  0  0  0
    2.3080   -1.2990   14.3870 C   0  0  0  0  0
    1.7280   -1.3050   12.9590 C   0  0  0  0  0
    1.8670   -2.2860   12.2280 O   0  0  0  0  0
    3.7280   -0.7270   14.4140 C   0  0  0  0  0
    4.5890   -1.3700   13.3270 C   0  0  0  0  0
    5.3880   -2.4570   13.6320 C   0  0  0  0  0
    4.5610   -0.8780   12.0260 C   0  0  0  0  0
    6.1680   -3.0540   12.6430 C   0  0  0  0  0
    5.3320   -1.4700   11.0250 C   0  0  0  0  0
    6.1380   -2.5630   11.3370 C   0  0  0  0  0
    1.0703   -0.2391   12.5116 O   0  0  0  0  0
   -6.3856   -1.2715   22.4631 H   0  0  0  0  0
   -7.4046   -2.0325   23.5472 H   0  0  0  0  0
   -5.5652   -3.2279   24.0294 H   0  0  0  0  0
   -6.6656   -5.1582   23.2150 H   0  0  0  0  0
   -5.6181   -5.0174   21.8209 H   0  0  0  0  0
   -8.4864   -4.5945   21.9031 H   0  0  0  0  0
   -7.4419   -4.4584   20.5112 H   0  0  0  0  0
   -7.3904   -2.1252   20.6562 H   0  0  0  0  0
   -8.7321   -2.2733   21.7538 H   0  0  0  0  0
   -3.7435   -4.5683   22.8865 H   0  0  0  0  0
   -2.0428   -2.5793   21.4610 H   0  0  0  0  0
   -0.3916   -4.6089   21.8594 H   0  0  0  0  0
   -1.6037   -4.9911   23.1496 H   0  0  0  0  0
   -1.3021   -2.7190   24.0403 H   0  0  0  0  0
   -0.0354   -2.4247   22.8125 H   0  0  0  0  0
    1.7927   -2.9137   25.7710 H   0  0  0  0  0
    2.6286   -3.5905   24.3517 H   0  0  0  0  0
    1.7123   -2.0707   24.2045 H   0  0  0  0  0
   -1.6492   -2.8437   19.3819 H   0  0  0  0  0
   -2.2677   -5.4151   17.9575 H   0  0  0  0  0
   -3.2689   -4.1087   16.2333 H   0  0  0  0  0
   -2.4596   -2.5769   16.8523 H   0  0  0  0  0
   -4.0135   -2.9237   18.8594 H   0  0  0  0  0
   -4.1631   -1.0191   17.2968 H   0  0  0  0  0
   -5.1015   -2.0105   16.1533 H   0  0  0  0  0
   -5.7965   -1.5773   17.7346 H   0  0  0  0  0
   -5.5650   -4.4717   16.7627 H   0  0  0  0  0
   -4.9075   -5.1124   18.2886 H   0  0  0  0  0
   -6.2137   -3.9025   18.3203 H   0  0  0  0  0
    1.9725   -4.8907   16.2265 H   0  0  0  0  0
    1.6474   -6.6460   14.6578 H   0  0  0  0  0
    1.5104   -5.3518   13.5337 H   0  0  0  0  0
   -0.5956   -7.0172   13.7646 H   0  0  0  0  0
   -0.9290   -5.3452   13.6188 H   0  0  0  0  0
   -2.0428   -5.9092   15.7463 H   0  0  0  0  0
   -0.8356   -6.9937   16.2150 H   0  0  0  0  0
    3.1193   -3.1513   15.1919 H   0  0  0  0  0
    1.7115   -0.6479   15.0260 H   0  0  0  0  0
    4.1739   -0.9355   15.3865 H   0  0  0  0  0
    3.6790    0.3472   14.2358 H   0  0  0  0  0
    5.4078   -2.8481   14.6492 H   0  0  0  0  0
    3.9306   -0.0217   11.7863 H   0  0  0  0  0
    6.8022   -3.9054   12.8900 H   0  0  0  0  0
    5.3040   -1.0807   10.0073 H   0  0  0  0  0
    6.7438   -3.0335   10.5626 H   0  0  0  0  0
    1.0498    0.4335   13.1963 H   0  0  0  0  0
  1  2  1  0  0  0
  1  7  1  0  0  0
  2  3  1  0  0  0
  2  5  1  0  0  0
  3  4  2  0  0  0
  3  8  1  0  0  0
  5  6  1  0  0  0
  6  7  1  0  0  0
  8  9  1  0  0  0
  9 10  1  0  0  0
  9 12  1  0  0  0
 10 11  2  0  0  0
 10 17  1  0  0  0
 12 13  1  0  0  0
 13 14  1  0  0  0
 14 15  2  0  0  0
 14 16  1  0  0  0
 17 18  1  0  0  0
 18 19  1  0  0  0
 18 21  1  0  0  0
 19 20  2  0  0  0
 19 25  1  0  0  0
 21 22  1  0  0  0
 22 23  1  0  0  0
 22 24  1  0  0  0
 25 26  1  0  0  0
 25 31  1  0  0  0
 26 27  1  0  0  0
 26 29  1  0  0  0
 27 28  2  0  0  0
 27 32  1  0  0  0
 29 30  1  0  0  0
 30 31  1  0  0  0
 32 33  1  0  0  0
 33 34  1  0  0  0
 33 36  1  0  0  0
 34 35  2  0  0  0
 36 37  1  0  0  0
 37 38  4  0  0  0
 37 39  4  0  0  0
 38 40  4  0  0  0
 39 41  4  0  0  0
 40 42  4  0  0  0
 41 42  4  0  0  0
 34 43  1  0  0  0
  1 44  1  0  0  0
  1 45  1  0  0  0
  2 46  1  0  0  0
  5 47  1  0  0  0
  5 48  1  0  0  0
  6 49  1  0  0  0
  6 50  1  0  0  0
  7 51  1  0  0  0
  7 52  1  0  0  0
  8 53  1  0  0  0
  9 54  1  0  0  0
 12 55  1  0  0  0
 12 56  1  0  0  0
 13 57  1  0  0  0
 13 58  1  0  0  0
 16 59  1  0  0  0
 16 60  1  0  0  0
 16 61  1  0  0  0
 17 62  1  0  0  0
 18 63  1  0  0  0
 21 64  1  0  0  0
 21 65  1  0  0  0
 22 66  1  0  0  0
 23 67  1  0  0  0
 23 68  1  0  0  0
 23 69  1  0  0  0
 24 70  1  0  0  0
 24 71  1  0  0  0
 24 72  1  0  0  0
 26 73  1  0  0  0
 29 74  1  0  0  0
 29 75  1  0  0  0
 30 76  1  0  0  0
 30 77  1  0  0  0
 31 78  1  0  0  0
 31 79  1  0  0  0
 32 80  1  0  0  0
 33 81  1  0  0  0
 36 82  1  0  0  0
 36 83  1  0  0  0
 38 84  1  0  0  0
 39 85  1  0  0  0
 40 86  1  0  0  0
 41 87  1  0  0  0
 42 88  1  0  0  0
 43 89  1  0  0  0
M  END
$$$$
