3smq_ligand
  -I-interpret- 

 39 41  0  0  0  0  0  0  0  0999 V2000
    3.0980   -4.5800   12.0230 O   0  0  0  0  0
    5.0630   -6.2080    6.9110 C   0  0  0  0  0
   -0.8350   -4.8290   13.5660 C   0  0  0  0  0
   -1.2720   -5.2010   14.8350 C   0  0  0  0  0
    1.3850   -5.5820   14.0960 C   0  0  0  0  0
    6.2640   -6.4890    6.2600 C   0  0  0  0  0
    7.3630   -5.4440    6.5670 C   0  0  0  0  0
    6.8700   -3.9940    6.7030 C   0  0  0  0  0
    3.2780   -3.9240    9.3750 C   0  0  0  0  0
    5.7460   -3.8830    7.7470 C   0  0  0  0  0
    3.3460   -4.9480    8.2400 C   0  0  0  0  0
    0.3250   -6.6670   17.6510 N   0  0  0  0  0
   -0.6260   -6.1840   17.0100 N   0  0  0  0  0
    2.0290   -4.1700   10.1110 N   0  0  0  0  0
    0.8270   -4.6470   11.9500 N   0  0  0  0  0
    1.6630   -6.6310   16.7100 S   0  0  0  0  0
    4.7380   -5.0380    7.6110 C   0  0  0  0  0
    2.0390   -4.4890   11.3990 C   0  0  0  0  0
    0.4960   -5.0080   13.1920 C   0  0  0  0  0
   -0.3900   -5.7680   15.7440 C   0  0  0  0  0
    0.9350   -5.9420   15.3610 C   0  0  0  0  0
    4.2952   -6.9807    6.8712 H   0  0  0  0  0
   -1.5406   -4.3937   12.8584 H   0  0  0  0  0
   -2.3136   -5.0458   15.1160 H   0  0  0  0  0
    2.4249   -5.7478   13.8146 H   0  0  0  0  0
    6.4120   -7.3494    5.6073 H   0  0  0  0  0
    8.0545   -5.4612    5.7246 H   0  0  0  0  0
    7.7952   -5.7186    7.5292 H   0  0  0  0  0
    6.4818   -3.6671    5.7384 H   0  0  0  0  0
    7.7053   -3.3717    7.0242 H   0  0  0  0  0
    3.2947   -2.9094    8.9771 H   0  0  0  0  0
    4.1387   -4.0268   10.0358 H   0  0  0  0  0
    5.2183   -2.9424    7.5891 H   0  0  0  0  0
    6.1910   -3.9269    8.7410 H   0  0  0  0  0
    2.6470   -4.6356    7.4642 H   0  0  0  0  0
    3.1019   -5.9257    8.6554 H   0  0  0  0  0
    1.1372   -4.0939    9.6218 H   0  0  0  0  0
    0.0402   -4.4641   11.3272 H   0  0  0  0  0
    5.4664   -4.2271    7.6107 H   0  0  0  0  0
 18  1  2  0  0  0
  2  6  2  0  0  0
 17  2  1  0  0  0
  3  4  4  0  0  0
 19  3  4  0  0  0
  4 20  4  0  0  0
 19  5  4  0  0  0
  5 21  4  0  0  0
  6  7  1  0  0  0
  8  7  1  0  0  0
 10  8  1  0  0  0
  9 11  1  0  0  0
 14  9  1  0  0  0
 17 10  1  0  0  0
 11 17  1  0  0  0
 13 12  4  0  0  0
 12 16  4  0  0  0
 20 13  4  0  0  0
 18 14  1  0  0  0
 15 18  1  0  0  0
 15 19  1  0  0  0
 16 21  4  0  0  0
 20 21  4  0  0  0
  2 22  1  0  0  0
  3 23  1  0  0  0
  4 24  1  0  0  0
  5 25  1  0  0  0
  6 26  1  0  0  0
  7 27  1  0  0  0
  7 28  1  0  0  0
  8 29  1  0  0  0
  8 30  1  0  0  0
  9 31  1  0  0  0
  9 32  1  0  0  0
 10 33  1  0  0  0
 10 34  1  0  0  0
 11 35  1  0  0  0
 11 36  1  0  0  0
 14 37  1  0  0  0
 15 38  1  0  0  0
 17 39  1  0  0  0
M  END
$$$$
