4wcf_ligand
  -I-interpret- 

 20 21  0  0  0  0  0  0  0  0999 V2000
    5.6720  -12.9010   15.6160 N   0  0  0  0  0
    5.8820  -14.1500   15.2850 C   0  0  0  0  0
    4.8490  -15.0840   15.3840 C   0  0  0  0  0
    5.1300  -16.3960   15.0320 C   0  0  0  0  0
    6.4330  -16.7170   14.5830 N   0  0  0  0  0
    7.4690  -15.7510   14.4750 C   0  0  0  0  0
    7.1690  -14.4430   14.8180 C   0  0  0  0  0
    8.1070  -13.4870   14.7950 C   0  0  0  0  0
    9.7800  -13.6360   14.3300 S   0  0  0  0  0
    7.8900  -12.2340   15.2260 N   0  0  0  0  0
    8.9770  -11.3770   15.1960 N   0  0  0  0  0
   10.1100  -11.9380   14.7450 C   0  0  0  0  0
   11.2770  -11.2950   14.6340 N   0  0  0  0  0
    4.7525  -12.6088   15.9469 H   0  0  0  0  0
    6.4279  -12.2200   15.5430 H   0  0  0  0  0
    3.8560  -14.7923   15.7261 H   0  0  0  0  0
    4.3612  -17.1656   15.1000 H   0  0  0  0  0
    8.4660  -16.0296   14.1338 H   0  0  0  0  0
   12.0977  -11.7854   14.2784 H   0  0  0  0  0
   11.3466  -10.3141   14.9049 H   0  0  0  0  0
  1  2  1  0  0  0
  2  3  4  0  0  0
  2  7  4  0  0  0
  3  4  4  0  0  0
  4  5  4  0  0  0
  5  6  4  0  0  0
  6  7  4  0  0  0
  7  8  1  0  0  0
  8  9  4  0  0  0
  8 10  4  0  0  0
  9 12  4  0  0  0
 10 11  4  0  0  0
 11 12  4  0  0  0
 12 13  1  0  0  0
  1 14  1  0  0  0
  1 15  1  0  0  0
  3 16  1  0  0  0
  4 17  1  0  0  0
  6 18  1  0  0  0
 13 19  1  0  0  0
 13 20  1  0  0  0
M  END
$$$$
