2x6x_ligand
  -I-interpret- 

 92 95  0  0  0  0  0  0  0  0999 V2000
  -16.9810    2.9320   28.4080 C   0  0  0  0  0
  -16.0990    2.8920   27.1560 C   0  0  0  0  0
  -16.5800    1.8650   26.1390 C   0  0  0  0  0
  -18.0850    1.9910   25.9250 C   0  0  0  0  0
  -18.8380    1.9520   27.2700 C   0  0  0  0  0
  -20.3360    2.1990   27.1110 C   0  0  0  0  0
  -16.1450    4.1770   26.6010 O   0  0  0  0  0
  -15.9110    2.0000   24.8930 O   0  0  0  0  0
  -18.4790    0.9510   25.0490 O   0  0  0  0  0
  -18.3700    2.9920   28.1130 O   0  0  0  0  0
  -14.6750   -0.0580   32.3210 C   0  0  0  0  0
  -13.5850    1.0030   32.3240 C   0  0  0  0  0
  -14.1930    2.3930   32.5020 C   0  0  0  0  0
  -15.2500    2.6240   31.4330 C   0  0  0  0  0
  -16.2840    1.4910   31.4820 C   0  0  0  0  0
  -17.3280    1.5270   30.3730 C   0  0  0  0  0
  -12.7400    0.7030   33.3960 O   0  0  0  0  0
  -13.1960    3.4090   32.4290 O   0  0  0  0  0
  -15.8630    3.8590   31.6590 O   0  0  0  0  0
  -15.6210    0.2550   31.3340 O   0  0  0  0  0
  -16.7250    1.7850   29.1840 O   0  0  0  0  0
  -16.3370   -1.1860   36.6610 C   0  0  0  0  0
  -17.3220   -0.2840   35.9340 C   0  0  0  0  0
  -17.4230   -0.8120   34.4880 C   0  0  0  0  0
  -16.0490   -1.2100   33.8960 C   0  0  0  0  0
  -15.3380   -2.2690   34.7850 C   0  0  0  0  0
  -13.8980   -2.5860   34.3920 C   0  0  0  0  0
  -17.1830   -2.3250   36.7890 O   0  0  0  0  0
  -18.5760   -0.2970   36.5640 O   0  0  0  0  0
  -18.0900    0.1650   33.7330 O   0  0  0  0  0
  -15.2870   -0.1460   33.5930 O   0  0  0  0  0
  -15.2650   -1.9430   36.1720 O   0  0  0  0  0
  -13.8430   -3.7470   33.6210 O   0  0  0  0  0
  -19.3720   -0.0450   33.3680 C   0  0  0  0  0
  -20.0070    1.3070   33.0420 C   0  0  0  0  0
  -21.3660    1.2320   32.3390 C   0  0  0  0  0
  -21.4080    0.1250   31.2960 C   0  0  0  0  0
  -20.7480   -1.1400   31.8200 C   0  0  0  0  0
  -20.7740   -2.2770   30.8130 C   0  0  0  0  0
  -19.4190    3.1650   34.5060 C   0  0  0  0  0
  -19.6930    3.8710   35.8040 C   0  0  0  0  0
  -20.1570    2.0860   34.2560 N   0  0  0  0  0
  -21.6840    2.4840   31.7520 O   0  0  0  0  0
  -22.7650   -0.1260   30.9780 O   0  0  0  0  0
  -19.4040   -0.8930   32.2380 O   0  0  0  0  0
  -20.0230   -1.9350   29.6710 O   0  0  0  0  0
  -18.5450    3.5730   33.7360 O   0  0  0  0  0
  -16.7299    3.8441   28.9493 H   0  0  0  0  0
  -15.0853    2.5965   27.4265 H   0  0  0  0  0
  -16.3487    0.8796   26.5435 H   0  0  0  0  0
  -18.3359    2.9519   25.4758 H   0  0  0  0  0
  -18.6621    0.9585   27.6824 H   0  0  0  0  0
  -20.8145    2.1646   28.0898 H   0  0  0  0  0
  -20.4956    3.1790   26.6613 H   0  0  0  0  0
  -20.7637    1.4291   26.4688 H   0  0  0  0  0
  -15.8401    4.8156   27.2497 H   0  0  0  0  0
  -14.9640    1.9205   25.0292 H   0  0  0  0  0
  -17.9834    1.0193   24.2297 H   0  0  0  0  0
  -14.2331   -1.0290   32.0975 H   0  0  0  0  0
  -13.0392    1.0054   31.3805 H   0  0  0  0  0
  -14.6500    2.4444   33.4903 H   0  0  0  0  0
  -14.7898    2.6308   30.4449 H   0  0  0  0  0
  -16.7912    1.6176   32.4385 H   0  0  0  0  0
  -18.0549    2.3106   30.5867 H   0  0  0  0  0
  -17.8321    0.5620   30.3203 H   0  0  0  0  0
  -12.0331    1.3513   33.4359 H   0  0  0  0  0
  -13.6077    4.2686   32.5441 H   0  0  0  0  0
  -16.5317    4.0108   30.9871 H   0  0  0  0  0
  -15.8867   -0.4796   37.3584 H   0  0  0  0  0
  -16.9809    0.7512   35.9453 H   0  0  0  0  0
  -17.9915   -1.7418   34.4678 H   0  0  0  0  0
  -16.2295   -1.6946   32.9365 H   0  0  0  0  0
  -15.9923   -3.1233   34.6111 H   0  0  0  0  0
  -13.3098   -2.7355   35.2974 H   0  0  0  0  0
  -13.5005   -1.7556   33.8084 H   0  0  0  0  0
  -16.7087   -3.0250   37.2435 H   0  0  0  0  0
  -19.1784    0.2787   36.0872 H   0  0  0  0  0
  -12.9308   -3.9295   33.3841 H   0  0  0  0  0
  -19.9283   -0.5228   34.1744 H   0  0  0  0  0
  -19.3219    1.7788   32.3376 H   0  0  0  0  0
  -22.1149    0.9918   33.0937 H   0  0  0  0  0
  -20.8600    0.4362   30.4066 H   0  0  0  0  0
  -21.3381   -1.4495   32.6826 H   0  0  0  0  0
  -21.8057   -2.4671   30.5170 H   0  0  0  0  0
  -20.3420   -3.1673   31.2699 H   0  0  0  0  0
  -18.7909    3.8669   36.4158 H   0  0  0  0  0
  -19.9911    4.8996   35.6008 H   0  0  0  0  0
  -20.4951    3.3568   36.3335 H   0  0  0  0  0
  -20.8532    1.7966   34.9430 H   0  0  0  0  0
  -22.5368    2.4240   31.3152 H   0  0  0  0  0
  -22.8146   -0.8231   30.3198 H   0  0  0  0  0
  -20.0478   -2.6613   29.0437 H   0  0  0  0  0
  1  2  1  0  0  0
  1 10  1  0  0  0
 21  1  1  0  0  0
  2  3  1  0  0  0
  2  7  1  0  0  0
  3  4  1  0  0  0
  3  8  1  0  0  0
  5  4  1  0  0  0
  4  9  1  0  0  0
  5  6  1  0  0  0
 10  5  1  0  0  0
 11 12  1  0  0  0
 11 20  1  0  0  0
 31 11  1  0  0  0
 12 13  1  0  0  0
 12 17  1  0  0  0
 13 14  1  0  0  0
 13 18  1  0  0  0
 15 14  1  0  0  0
 14 19  1  0  0  0
 15 16  1  0  0  0
 20 15  1  0  0  0
 16 21  1  0  0  0
 23 22  1  0  0  0
 22 28  1  0  0  0
 22 32  1  0  0  0
 24 23  1  0  0  0
 23 29  1  0  0  0
 24 25  1  0  0  0
 30 24  1  0  0  0
 25 26  1  0  0  0
 25 31  1  0  0  0
 26 27  1  0  0  0
 26 32  1  0  0  0
 27 33  1  0  0  0
 34 30  1  0  0  0
 35 34  1  0  0  0
 34 45  1  0  0  0
 35 36  1  0  0  0
 42 35  1  0  0  0
 36 37  1  0  0  0
 36 43  1  0  0  0
 37 38  1  0  0  0
 37 44  1  0  0  0
 38 39  1  0  0  0
 45 38  1  0  0  0
 39 46  1  0  0  0
 40 41  1  0  0  0
 40 42  1  0  0  0
 40 47  2  0  0  0
  1 48  1  0  0  0
  2 49  1  0  0  0
  3 50  1  0  0  0
  4 51  1  0  0  0
  5 52  1  0  0  0
  6 53  1  0  0  0
  6 54  1  0  0  0
  6 55  1  0  0  0
  7 56  1  0  0  0
  8 57  1  0  0  0
  9 58  1  0  0  0
 11 59  1  0  0  0
 12 60  1  0  0  0
 13 61  1  0  0  0
 14 62  1  0  0  0
 15 63  1  0  0  0
 16 64  1  0  0  0
 16 65  1  0  0  0
 17 66  1  0  0  0
 18 67  1  0  0  0
 19 68  1  0  0  0
 22 69  1  0  0  0
 23 70  1  0  0  0
 24 71  1  0  0  0
 25 72  1  0  0  0
 26 73  1  0  0  0
 27 74  1  0  0  0
 27 75  1  0  0  0
 28 76  1  0  0  0
 29 77  1  0  0  0
 33 78  1  0  0  0
 34 79  1  0  0  0
 35 80  1  0  0  0
 36 81  1  0  0  0
 37 82  1  0  0  0
 38 83  1  0  0  0
 39 84  1  0  0  0
 39 85  1  0  0  0
 41 86  1  0  0  0
 41 87  1  0  0  0
 41 88  1  0  0  0
 42 89  1  0  0  0
 43 90  1  0  0  0
 44 91  1  0  0  0
 46 92  1  0  0  0
M  END
$$$$
