4fli_ligand
  -I-interpret- 

 50 49  0  0  0  0  0  0  0  0999 V2000
   19.5560   -2.1360   15.0020 N   0  0  0  0  0
   23.8250   -2.9170    9.5530 O   0  0  0  0  0
   17.8540   -3.6420   17.9290 N   0  0  0  0  0
   22.3470   -1.8780   13.2130 O   0  0  0  0  0
   22.1320   -1.3580   10.7340 O   0  0  0  0  0
   19.7890   -4.3070   14.4190 O   0  0  0  0  0
   17.0240   -3.0060   15.9090 O   0  0  0  0  0
   19.3190   -3.1970   11.7680 O   0  0  0  0  0
   23.4920   -7.1810   11.6900 C   0  0  0  0  0
   23.5670   -5.6810   11.5800 C   0  0  0  0  0
   23.0360   -4.9320   10.6070 C   0  0  0  0  0
   23.3280   -3.4820   10.8170 C   0  0  0  0  0
   22.0130   -2.7500   11.1120 C   0  0  0  0  0
   21.6050   -2.8650   12.5840 C   0  0  0  0  0
   20.1250   -2.6420   12.8360 C   0  0  0  0  0
   22.6640   -7.8080   10.6140 C   0  0  0  0  0
   22.8030   -7.4160   13.0820 C   0  0  0  0  0
   24.9000   -7.7410   11.7480 C   0  0  0  0  0
   19.8350   -3.1600   14.2300 C   0  0  0  0  0
   19.3380   -2.6110   16.3540 C   0  0  0  0  0
   17.9660   -3.0950   16.6600 C   0  0  0  0  0
   18.0320   -2.5920   11.6560 C   0  0  0  0  0
   19.5014   -1.1634   14.6996 H   0  0  0  0  0
   24.0168   -1.9842    9.6743 H   0  0  0  0  0
   16.9522   -3.9869   18.2579 H   0  0  0  0  0
   18.6734   -3.6995   18.5337 H   0  0  0  0  0
   22.1494   -1.8804   14.1524 H   0  0  0  0  0
   21.3064   -0.9051   10.9208 H   0  0  0  0  0
   24.6343   -5.5219   11.4265 H   0  0  0  0  0
   22.9866   -5.3647   12.4467 H   0  0  0  0  0
   21.9551   -5.0724   10.6119 H   0  0  0  0  0
   23.4712   -5.2393    9.6561 H   0  0  0  0  0
   24.0469   -3.3722   11.6289 H   0  0  0  0  0
   21.2300   -3.2261   10.5219 H   0  0  0  0  0
   21.7921   -3.8737   12.9522 H   0  0  0  0  0
   19.8501   -1.5874   12.8158 H   0  0  0  0  0
   21.6464   -7.4212   10.6685 H   0  0  0  0  0
   23.0934   -7.5689    9.6411 H   0  0  0  0  0
   22.6509   -8.8893   10.7510 H   0  0  0  0  0
   23.4145   -6.9730   13.8681 H   0  0  0  0  0
   21.8172   -6.9509   13.0812 H   0  0  0  0  0
   22.7008   -8.4866   13.2593 H   0  0  0  0  0
   25.4374   -7.4641   10.8410 H   0  0  0  0  0
   25.4165   -7.3329   12.6168 H   0  0  0  0  0
   24.8547   -8.8271   11.8278 H   0  0  0  0  0
   19.5163   -1.7594   17.0106 H   0  0  0  0  0
   20.0017   -3.4649   16.4897 H   0  0  0  0  0
   17.4836   -2.7324   12.5875 H   0  0  0  0  0
   18.1488   -1.5264   11.4588 H   0  0  0  0  0
   17.4836   -3.0565   10.8365 H   0  0  0  0  0
  1 19  1  0  0  0
 20  1  1  0  0  0
 12  2  1  0  0  0
 21  3  1  0  0  0
 14  4  1  0  0  0
 13  5  1  0  0  0
 19  6  2  0  0  0
 21  7  2  0  0  0
 15  8  1  0  0  0
  8 22  1  0  0  0
 10  9  1  0  0  0
  9 16  1  0  0  0
  9 17  1  0  0  0
  9 18  1  0  0  0
 11 10  1  0  0  0
 12 11  1  0  0  0
 13 12  1  0  0  0
 14 13  1  0  0  0
 15 14  1  0  0  0
 19 15  1  0  0  0
 20 21  1  0  0  0
  1 23  1  0  0  0
  2 24  1  0  0  0
  3 25  1  0  0  0
  3 26  1  0  0  0
  4 27  1  0  0  0
  5 28  1  0  0  0
 10 29  1  0  0  0
 10 30  1  0  0  0
 11 31  1  0  0  0
 11 32  1  0  0  0
 12 33  1  0  0  0
 13 34  1  0  0  0
 14 35  1  0  0  0
 15 36  1  0  0  0
 16 37  1  0  0  0
 16 38  1  0  0  0
 16 39  1  0  0  0
 17 40  1  0  0  0
 17 41  1  0  0  0
 17 42  1  0  0  0
 18 43  1  0  0  0
 18 44  1  0  0  0
 18 45  1  0  0  0
 20 46  1  0  0  0
 20 47  1  0  0  0
 22 48  1  0  0  0
 22 49  1  0  0  0
 22 50  1  0  0  0
M  END
$$$$
