3qcy_ligand
  -I-interpret- 

 53 57  0  0  0  0  0  0  0  0999 V2000
  -52.3130   24.8140    9.0860 C   0  0  0  0  0
  -51.9380   23.6580    8.4390 C   0  0  0  0  0
  -51.4510   25.4180    9.9730 C   0  0  0  0  0
  -40.6460   16.4430   13.0320 C   0  0  0  0  0
  -41.8160   17.0990   12.7060 C   0  0  0  0  0
  -50.7030   23.1030    8.6790 C   0  0  0  0  0
  -50.2160   24.8640   10.2120 C   0  0  0  0  0
  -42.8600   15.1180   11.8700 C   0  0  0  0  0
  -44.2550   18.5570   11.9890 C   0  0  0  0  0
  -40.5950   15.0820   12.7690 C   0  0  0  0  0
  -42.9030   16.4710   12.1350 C   0  0  0  0  0
  -41.6950   14.4700   12.2100 C   0  0  0  0  0
  -49.8460   23.7080    9.5660 C   0  0  0  0  0
  -44.0980   17.2080   11.7620 C   0  0  0  0  0
  -45.4340   19.1380   11.5730 C   0  0  0  0  0
  -39.6330   14.0450   12.9310 C   0  0  0  0  0
  -46.1520   17.1230   10.7690 C   0  0  0  0  0
  -48.0390   23.1910   11.0650 C   0  0  0  0  0
  -44.8460   21.1600   12.7850 C   0  0  0  0  0
  -46.9820   21.0280   11.6660 C   0  0  0  0  0
  -44.6550   22.5540   12.2170 C   0  0  0  0  0
  -46.7480   22.4300   11.1220 C   0  0  0  0  0
  -45.0390   16.4830   11.1520 N   0  0  0  0  0
  -46.3800   18.4270   10.9520 N   0  0  0  0  0
  -40.1020   12.8730   12.4900 N   0  0  0  0  0
  -41.3440   13.1560   12.0670 N   0  0  0  0  0
  -45.6220   20.5300   11.7460 N   0  0  0  0  0
  -38.3940   14.2510   13.4610 N   0  0  0  0  0
  -47.1560   16.3900   10.1260 N   0  0  0  0  0
  -48.5900   23.1390    9.8060 N   0  0  0  0  0
  -48.5120   23.7790   12.0280 O   0  0  0  0  0
  -45.9310   23.1790   12.0300 O   0  0  0  0  0
  -53.2932   25.2512    8.8957 H   0  0  0  0  0
  -52.6211   23.1820    7.7355 H   0  0  0  0  0
  -51.7471   26.3337   10.4848 H   0  0  0  0  0
  -39.8013   16.9701   13.4756 H   0  0  0  0  0
  -41.8842   18.1675   12.9102 H   0  0  0  0  0
  -50.4054   22.1874    8.1679 H   0  0  0  0  0
  -49.5307   25.3406   10.9129 H   0  0  0  0  0
  -43.7008   14.5924   11.4172 H   0  0  0  0  0
  -43.4772   19.1429   12.4787 H   0  0  0  0  0
  -45.3325   21.1492   13.7603 H   0  0  0  0  0
  -43.9100   20.6457   13.0032 H   0  0  0  0  0
  -47.6384   20.4185   11.0450 H   0  0  0  0  0
  -47.5151   21.0077   12.6165 H   0  0  0  0  0
  -44.1422   22.4859   11.2576 H   0  0  0  0  0
  -44.0601   23.1482   12.9106 H   0  0  0  0  0
  -46.2899   22.3176   10.1394 H   0  0  0  0  0
  -38.1178   15.1849   13.7642 H   0  0  0  0  0
  -37.7431   13.4712   13.5543 H   0  0  0  0  0
  -47.0309   15.3916    9.9587 H   0  0  0  0  0
  -48.0128   16.8542    9.8247 H   0  0  0  0  0
  -48.0827   22.6852    9.0463 H   0  0  0  0  0
  2  1  4  0  0  0
  3  1  4  0  0  0
  6  2  4  0  0  0
  7  3  4  0  0  0
  5  4  4  0  0  0
  4 10  4  0  0  0
 11  5  4  0  0  0
 13  6  4  0  0  0
 13  7  4  0  0  0
 11  8  4  0  0  0
  8 12  4  0  0  0
  9 14  4  0  0  0
 15  9  4  0  0  0
 12 10  4  0  0  0
 10 16  4  0  0  0
 14 11  1  0  0  0
 12 26  4  0  0  0
 30 13  1  0  0  0
 14 23  4  0  0  0
 15 24  4  0  0  0
 27 15  1  0  0  0
 16 25  4  0  0  0
 16 28  1  0  0  0
 17 23  4  0  0  0
 24 17  4  0  0  0
 17 29  1  0  0  0
 22 18  1  0  0  0
 18 30  1  0  0  0
 18 31  2  0  0  0
 19 21  1  0  0  0
 27 19  1  0  0  0
 20 22  1  0  0  0
 20 27  1  0  0  0
 21 32  1  0  0  0
 22 32  1  0  0  0
 25 26  4  0  0  0
  1 33  1  0  0  0
  2 34  1  0  0  0
  3 35  1  0  0  0
  4 36  1  0  0  0
  5 37  1  0  0  0
  6 38  1  0  0  0
  7 39  1  0  0  0
  8 40  1  0  0  0
  9 41  1  0  0  0
 19 42  1  0  0  0
 19 43  1  0  0  0
 20 44  1  0  0  0
 20 45  1  0  0  0
 21 46  1  0  0  0
 21 47  1  0  0  0
 22 48  1  0  0  0
 28 49  1  0  0  0
 28 50  1  0  0  0
 29 51  1  0  0  0
 29 52  1  0  0  0
 30 53  1  0  0  0
M  END
$$$$
