3mz3_ligand
  -I-interpret- 

 45 45  0  0  0  0  0  0  0  0999 V2000
   19.7590   32.5870   18.9310 O   0  0  0  0  0
   20.8380   33.2660   18.9560 C   0  0  0  0  0
   21.3220   33.7800   20.2970 C   0  0  0  0  0
   22.6610   34.3240   20.4760 C   0  0  0  0  0
   23.0510   34.7970   21.7900 C   0  0  0  0  0
   22.1090   34.7360   22.9450 C   0  0  0  0  0
   22.4520   35.1960   24.2670 N   0  0  0  0  0
   23.7470   35.7640   24.6050 C   0  0  0  0  0
   21.4870   35.1180   25.3780 C   0  0  0  0  0
   20.7790   34.1850   22.7230 C   0  0  0  0  0
   20.3940   33.7180   21.4350 C   0  0  0  0  0
   21.5720   33.5420   17.8270 N   0  0  0  0  0
   21.2460   33.1170   16.4530 C   0  0  0  0  0
   21.8220   31.7640   16.0580 C   0  0  0  0  0
   21.1670   30.6350   16.8560 C   0  0  0  0  0
   21.7580   29.3030   16.4850 C   0  0  0  0  0
   21.1920   28.1410   17.2280 C   0  0  0  0  0
   21.9060   26.8950   16.7510 C   0  0  0  0  0
   21.0460   25.6800   16.9740 C   0  0  0  0  0
   20.5570   25.4050   18.0640 O   0  0  0  0  0
   20.8320   24.9080   15.9340 N   0  0  0  0  0
   20.1270   23.8880   16.0460 O   0  0  0  0  0
   23.3566   34.3746   19.6383 H   0  0  0  0  0
   24.0512   35.2048   21.9365 H   0  0  0  0  0
   23.6117   36.7824   24.9692 H   0  0  0  0  0
   24.2165   35.1588   25.3805 H   0  0  0  0  0
   24.3802   35.7751   23.7178 H   0  0  0  0  0
   21.8994   34.4964   26.1728 H   0  0  0  0  0
   21.2946   36.1200   25.7615 H   0  0  0  0  0
   20.5558   34.6801   25.0186 H   0  0  0  0  0
   20.0722   34.1299   23.5509 H   0  0  0  0  0
   19.3946   33.3077   21.2901 H   0  0  0  0  0
   22.4218   34.0923   17.9512 H   0  0  0  0  0
   21.6778   33.8569   15.7790 H   0  0  0  0  0
   20.1609   33.0316   16.3942 H   0  0  0  0  0
   22.8918   31.7649   16.2671 H   0  0  0  0  0
   21.6313   31.5989   14.9976 H   0  0  0  0  0
   20.1005   30.6201   16.6316 H   0  0  0  0  0
   21.3385   30.8111   17.9179 H   0  0  0  0  0
   22.8195   29.3483   16.7283 H   0  0  0  0  0
   21.5387   29.1417   15.4295 H   0  0  0  0  0
   20.1212   28.0582   17.0421 H   0  0  0  0  0
   21.3347   28.2718   18.3007 H   0  0  0  0  0
   22.8340   26.7810   17.3113 H   0  0  0  0  0
   22.1151   26.9914   15.6856 H   0  0  0  0  0
  1  2  2  0  0  0
  2  3  1  0  0  0
  2 12  1  0  0  0
  3  4  4  0  0  0
  3 11  4  0  0  0
  4  5  4  0  0  0
  5  6  4  0  0  0
  6  7  1  0  0  0
  6 10  4  0  0  0
  7  8  1  0  0  0
  7  9  1  0  0  0
 10 11  4  0  0  0
 12 13  1  0  0  0
 13 14  1  0  0  0
 14 15  1  0  0  0
 15 16  1  0  0  0
 16 17  1  0  0  0
 17 18  1  0  0  0
 18 19  1  0  0  0
 19 20  2  0  0  0
 19 21  1  0  0  0
 21 22  2  0  0  0
  4 23  1  0  0  0
  5 24  1  0  0  0
  8 25  1  0  0  0
  8 26  1  0  0  0
  8 27  1  0  0  0
  9 28  1  0  0  0
  9 29  1  0  0  0
  9 30  1  0  0  0
 10 31  1  0  0  0
 11 32  1  0  0  0
 12 33  1  0  0  0
 13 34  1  0  0  0
 13 35  1  0  0  0
 14 36  1  0  0  0
 14 37  1  0  0  0
 15 38  1  0  0  0
 15 39  1  0  0  0
 16 40  1  0  0  0
 16 41  1  0  0  0
 17 42  1  0  0  0
 17 43  1  0  0  0
 18 44  1  0  0  0
 18 45  1  0  0  0
M  END
$$$$
