6drg_ligand
  -I-interpret- 

 81 83  0  0  0  0  0  0  0  0999 V2000
    1.6410   -6.6840    0.3880 C   0  0  0  0  0
    0.8010    4.8790    2.4770 C   0  0  0  0  0
    1.7200    4.0590   -2.0170 C   0  0  0  0  0
    3.0990    3.3700   -2.0650 C   0  0  0  0  0
    4.1350    4.0890   -1.1870 C   0  0  0  0  0
    4.0520    3.6770    0.3010 C   0  0  0  0  0
    4.5190    4.7940    1.2630 C   0  0  0  0  0
    4.3750    4.4130    2.7620 C   0  0  0  0  0
    4.3060    2.8910    3.0200 C   0  0  0  0  0
    5.2220    2.1420    2.0410 C   0  0  0  0  0
    4.8080    2.3450    0.5700 C   0  0  0  0  0
    1.7950    0.1990   -0.5090 C   0  0  0  0  0
   -0.5370    4.5630    1.7600 C   0  0  0  0  0
    1.5690   -1.2020    0.0180 C   0  0  0  0  0
    2.5760   -2.1490   -0.1460 C   0  0  0  0  0
    2.3910   -3.4370    0.3330 C   0  0  0  0  0
    1.2060   -3.7770    0.9760 C   0  0  0  0  0
    0.2070   -2.8280    1.1690 C   0  0  0  0  0
    0.3900   -1.5350    0.6960 C   0  0  0  0  0
    1.4890   -6.2290   -1.0920 C   0  0  0  0  0
    0.7960   -7.9560    0.5390 C   0  0  0  0  0
    3.1200   -7.0050    0.7180 C   0  0  0  0  0
   -1.5450    3.9060    2.7370 C   0  0  0  0  0
   -1.8760    4.8010    3.9440 C   0  0  0  0  0
   -0.6700    5.6360    4.4320 C   0  0  0  0  0
    0.6900    5.0510    4.0080 C   0  0  0  0  0
   -0.0520    2.5860    0.3020 C   0  0  0  0  0
    0.5850    0.7980   -1.2630 C   0  0  0  0  0
    0.4970    3.1280   -2.0950 C   0  0  0  0  0
    0.3460    2.2160   -0.9490 N   0  0  0  0  0
   -0.3570    3.8900    0.4700 N   0  0  0  0  0
    0.5540   -5.4560   -1.4020 O   0  0  0  0  0
   -0.1290    1.7790    1.2300 O   0  0  0  0  0
    2.2770   -6.7170   -1.9310 O   0  0  0  0  0
    0.9210   -5.4300    1.5290 S   0  0  0  0  0
    1.1583    5.8279    2.0769 H   0  0  0  0  0
    1.4627    4.0309    2.3008 H   0  0  0  0  0
    1.6697    4.7042   -2.8941 H   0  0  0  0  0
    1.6619    4.5601   -1.0508 H   0  0  0  0  0
    3.4537    3.3905   -3.0955 H   0  0  0  0  0
    2.9840    2.3526   -1.6913 H   0  0  0  0  0
    3.9376    5.1593   -1.2477 H   0  0  0  0  0
    5.1258    3.8192   -1.5524 H   0  0  0  0  0
    2.9954    3.5110    0.5109 H   0  0  0  0  0
    3.8921    5.6673    1.0832 H   0  0  0  0  0
    5.5762    4.9754    1.0691 H   0  0  0  0  0
    3.4386    4.8438    3.1165 H   0  0  0  0  0
    5.2590    4.7885    3.2774 H   0  0  0  0  0
    3.2799    2.5522    2.8772 H   0  0  0  0  0
    4.6333    2.6879    4.0397 H   0  0  0  0  0
    5.1540    1.0775    2.2651 H   0  0  0  0  0
    6.2328    2.5314    2.1621 H   0  0  0  0  0
    5.7228    2.3683   -0.0221 H   0  0  0  0  0
    4.1304    1.5316    0.3106 H   0  0  0  0  0
    2.6207    0.1455   -1.2186 H   0  0  0  0  0
    1.9849    0.8391    0.3526 H   0  0  0  0  0
   -1.0016    5.5039    1.4651 H   0  0  0  0  0
    3.5050   -1.8794   -0.6483 H   0  0  0  0  0
    3.1750   -4.1834    0.2054 H   0  0  0  0  0
   -0.7129   -3.0974    1.6879 H   0  0  0  0  0
   -0.3820   -0.7816    0.8522 H   0  0  0  0  0
   -0.2441   -7.7297    0.3044 H   0  0  0  0  0
    1.1661   -8.7198   -0.1448 H   0  0  0  0  0
    0.8679   -8.3188    1.5643 H   0  0  0  0  0
    3.4708   -7.8055    0.0667 H   0  0  0  0  0
    3.7277   -6.1140    0.5603 H   0  0  0  0  0
    3.1986   -7.3205    1.7584 H   0  0  0  0  0
   -1.0934    2.9890    3.1155 H   0  0  0  0  0
   -2.4710    3.7269    2.1905 H   0  0  0  0  0
   -2.1807    4.1505    4.7638 H   0  0  0  0  0
   -2.6561    5.4968    3.6352 H   0  0  0  0  0
   -0.6975    5.6476    5.5216 H   0  0  0  0  0
   -0.7547    6.6272    3.9866 H   0  0  0  0  0
    1.4703    5.7412    4.3287 H   0  0  0  0  0
    0.7940    4.0681    4.4676 H   0  0  0  0  0
   -0.3008    0.2400   -0.9597 H   0  0  0  0  0
    0.7949    0.7282   -2.3303 H   0  0  0  0  0
    0.6267    2.5064   -2.9810 H   0  0  0  0  0
   -0.3871    3.7654   -2.1127 H   0  0  0  0  0
   -0.4720    4.4549   -0.3715 H   0  0  0  0  0
    0.0750   -5.2013   -0.6100 H   0  0  0  0  0
  1 20  1  0  0  0
  1 21  1  0  0  0
  1 22  1  0  0  0
 35  1  1  0  0  0
 13  2  1  0  0  0
  2 26  1  0  0  0
  3  4  1  0  0  0
 29  3  1  0  0  0
  4  5  1  0  0  0
  5  6  1  0  0  0
  6  7  1  0  0  0
  6 11  1  0  0  0
  7  8  1  0  0  0
  8  9  1  0  0  0
 10  9  1  0  0  0
 11 10  1  0  0  0
 12 14  1  0  0  0
 28 12  1  0  0  0
 13 23  1  0  0  0
 31 13  1  0  0  0
 14 15  4  0  0  0
 14 19  4  0  0  0
 15 16  4  0  0  0
 16 17  4  0  0  0
 18 17  4  0  0  0
 17 35  1  0  0  0
 19 18  4  0  0  0
 20 32  1  0  0  0
 20 34  2  0  0  0
 23 24  1  0  0  0
 24 25  1  0  0  0
 26 25  1  0  0  0
 30 27  1  0  0  0
 27 31  1  0  0  0
 27 33  2  0  0  0
 30 28  1  0  0  0
 29 30  1  0  0  0
  2 36  1  0  0  0
  2 37  1  0  0  0
  3 38  1  0  0  0
  3 39  1  0  0  0
  4 40  1  0  0  0
  4 41  1  0  0  0
  5 42  1  0  0  0
  5 43  1  0  0  0
  6 44  1  0  0  0
  7 45  1  0  0  0
  7 46  1  0  0  0
  8 47  1  0  0  0
  8 48  1  0  0  0
  9 49  1  0  0  0
  9 50  1  0  0  0
 10 51  1  0  0  0
 10 52  1  0  0  0
 11 53  1  0  0  0
 11 54  1  0  0  0
 12 55  1  0  0  0
 12 56  1  0  0  0
 13 57  1  0  0  0
 15 58  1  0  0  0
 16 59  1  0  0  0
 18 60  1  0  0  0
 19 61  1  0  0  0
 21 62  1  0  0  0
 21 63  1  0  0  0
 21 64  1  0  0  0
 22 65  1  0  0  0
 22 66  1  0  0  0
 22 67  1  0  0  0
 23 68  1  0  0  0
 23 69  1  0  0  0
 24 70  1  0  0  0
 24 71  1  0  0  0
 25 72  1  0  0  0
 25 73  1  0  0  0
 26 74  1  0  0  0
 26 75  1  0  0  0
 28 76  1  0  0  0
 28 77  1  0  0  0
 29 78  1  0  0  0
 29 79  1  0  0  0
 31 80  1  0  0  0
 32 81  1  0  0  0
M  END
$$$$
