4b5s_ligand
  -I-interpret- 

 10  9  0  0  0  0  0  0  0  0999 V2000
  -48.5870  -31.3390  -18.0920 C   0  0  0  0  0
  -49.2790  -30.7750  -17.1390 O   0  0  0  0  0
  -49.1070  -31.4810  -19.2950 O   0  0  0  0  0
  -47.2980  -31.8030  -17.8250 C   0  0  0  0  0
  -46.5990  -32.2960  -18.8110 O   0  0  0  0  0
  -46.7360  -31.7890  -16.4370 C   0  0  0  0  0
  -48.4693  -31.9112  -19.8693 H   0  0  0  0  0
  -46.5228  -32.8106  -16.1224 H   0  0  0  0  0
  -45.8162  -31.2042  -16.4247 H   0  0  0  0  0
  -47.4614  -31.3420  -15.7572 H   0  0  0  0  0
  1  2  2  0  0  0
  1  3  1  0  0  0
  1  4  1  0  0  0
  4  5  2  0  0  0
  4  6  1  0  0  0
  3  7  1  0  0  0
  6  8  1  0  0  0
  6  9  1  0  0  0
  6 10  1  0  0  0
M  END
$$$$
