4s3f_ligand
  -I-interpret- 

 20 19  0  0  0  0  0  0  0  0999 V2000
  -13.4180   23.1790   15.7170 O   0  0  0  0  0
  -12.6060   22.1440   15.0000 P   0  0  0  0  0
  -12.0840   21.0630   16.0450 O   0  0  0  0  0
  -13.3600   21.4780   13.7690 O   0  0  0  0  0
  -11.2270   22.8070   14.5450 O   0  0  0  0  0
  -11.0730   24.1620   13.7250 P   0  0  0  0  0
   -9.6360   24.2990   13.4000 O   0  0  0  0  0
  -12.0150   24.1590   12.4590 O   0  0  0  0  0
  -11.4750   25.3660   14.6870 O   0  0  0  0  0
  -10.7220   25.5320   15.8800 C   0  0  0  0  0
  -11.4570   26.5770   16.6790 C   0  0  0  0  0
  -12.8840   26.3290   16.7650 C   0  0  0  0  0
  -14.1340   26.1130   16.8600 C   0  0  0  0  0
  -11.5638   20.4001   15.5851 H   0  0  0  0  0
  -12.7860   20.8279   13.3573 H   0  0  0  0  0
  -12.9280   24.0675   12.7411 H   0  0  0  0  0
   -9.6985   25.8399   15.6663 H   0  0  0  0  0
  -10.6361   24.5956   16.4312 H   0  0  0  0  0
  -11.3171   27.5352   16.1787 H   0  0  0  0  0
  -11.0565   26.5610   17.6926 H   0  0  0  0  0
  1  2  2  0  0  0
  2  3  1  0  0  0
  2  4  1  0  0  0
  2  5  1  0  0  0
  5  6  1  0  0  0
  6  7  2  0  0  0
  6  8  1  0  0  0
  6  9  1  0  0  0
  9 10  1  0  0  0
 10 11  1  0  0  0
 11 12  1  0  0  0
 12 13  3  0  0  0
  3 14  1  0  0  0
  4 15  1  0  0  0
  8 16  1  0  0  0
 10 17  1  0  0  0
 10 18  1  0  0  0
 11 19  1  0  0  0
 11 20  1  0  0  0
M  END
$$$$
