### 
### Created by X-TOOL on Mon Sep 10 21:13:20 2018
### 

@<TRIPOS>MOLECULE
4s3f_ligand
   18    17     1     0     0
SMALL
GAST_HUCK


@<TRIPOS>ATOM
      1 O6        -13.4180   23.1790   15.7170 O.co2     1 43W        -0.5891
      2 P         -12.6060   22.1440   15.0000 P.3       1 43W         0.2069
      3 O         -12.0840   21.0630   16.0450 O.co2     1 43W        -0.5891
      4 O5        -13.3600   21.4780   13.7690 O.co2     1 43W        -0.5891
      5 O1        -11.2270   22.8070   14.5450 O.3       1 43W        -0.1548
      6 P1        -11.0730   24.1620   13.7250 P.3       1 43W         0.3275
      7 O4         -9.6360   24.2990   13.4000 O.co2     1 43W        -0.5556
      8 O3        -12.0150   24.1590   12.4590 O.co2     1 43W        -0.5556
      9 O2        -11.4750   25.3660   14.6870 O.3       1 43W        -0.2453
     10 C         -10.7220   25.5320   15.8800 C.3       1 43W         0.0952
     11 C1        -11.4570   26.5770   16.6790 C.3       1 43W         0.0374
     12 C2        -12.8840   26.3290   16.7650 C.1       1 43W        -0.1029
     13 C3        -14.1340   26.1130   16.8600 C.1       1 43W        -0.1191
     14 H1         -9.7027   25.8733   15.6467 H         1 43W         0.0630
     15 H2        -10.6730   24.5855   16.4383 H         1 43W         0.0630
     16 H3        -11.3000   27.5561   16.2029 H         1 43W         0.0424
     17 H4        -11.0428   26.5940   17.6979 H         1 43W         0.0424
     18 H5        -15.1717   25.9337   16.9389 H         1 43W         0.1228
@<TRIPOS>BOND
     1    1    2 ar 
     2    2    3 ar 
     3    2    4 ar 
     4    2    5 1  
     5    5    6 1  
     6    6    7 ar 
     7    6    8 ar 
     8    6    9 1  
     9    9   10 1  
    10   10   11 1  
    11   11   12 1  
    12   12   13 3  
    13   10   14 1  
    14   10   15 1  
    15   11   16 1  
    16   11   17 1  
    17   13   18 1  
@<TRIPOS>SUBSTRUCTURE
     1 43W         1

