4cwt_ligand
  -I-interpret- 

 46 50  0  0  0  0  0  0  0  0999 V2000
    3.9350   16.7780   26.2640 F   0  0  0  0  0
    4.4640   15.6710   25.6980 C   0  0  0  0  0
    3.6500   14.6440   25.2310 C   0  0  0  0  0
    4.2450   13.5100   24.6710 C   0  0  0  0  0
    5.6360   13.3930   24.5700 C   0  0  0  0  0
    6.4560   14.4300   25.0370 C   0  0  0  0  0
    7.8190   14.3530   24.9530 N   0  0  0  0  0
    8.6950   15.4260   25.4430 C   0  0  0  0  0
    8.8170   15.1740   26.9540 C   0  0  0  0  0
    9.8550   15.9700   27.5410 O   0  0  0  0  0
    5.8480   15.5600   25.5860 C   0  0  0  0  0
    6.1260   12.2170   23.9900 C   0  0  0  0  0
    7.4010   11.8090   23.7520 N   0  0  0  0  0
    7.2550   10.5810   23.1620 C   0  0  0  0  0
    8.3220    9.8180   22.7590 N   0  0  0  0  0
    5.9860   10.1510   23.0090 N   0  0  0  0  0
    5.3180   11.2470   23.5700 N   0  0  0  0  0
    3.9840   11.3860   23.6540 C   0  0  0  0  0
    3.4560   12.5000   24.2260 N   0  0  0  0  0
    3.0590   10.2770   23.2200 C   0  0  0  0  0
    3.1590    9.2900   24.3870 C   0  0  0  0  0
    3.6610    7.9980   24.1540 C   0  0  0  0  0
    3.8020    7.0290   25.1600 C   0  0  0  0  0
    3.4250    7.3950   26.4470 C   0  0  0  0  0
    2.9090    8.7270   26.7120 C   0  0  0  0  0
    2.7790    9.6700   25.6920 C   0  0  0  0  0
    3.4350    6.6870   27.6170 O   0  0  0  0  0
    2.8410    7.5080   28.6510 C   0  0  0  0  0
    2.6200    8.8070   28.0530 O   0  0  0  0  0
    2.5651   14.7225   25.3007 H   0  0  0  0  0
    8.2413   13.5232   24.5364 H   0  0  0  0  0
    8.2864   16.4134   25.2280 H   0  0  0  0  0
    9.6669   15.4134   24.9498 H   0  0  0  0  0
    9.0605   14.1229   27.1088 H   0  0  0  0  0
    7.8709   15.4412   27.4247 H   0  0  0  0  0
    9.9029   15.7877   28.4823 H   0  0  0  0  0
    6.4746   16.3797   25.9374 H   0  0  0  0  0
    9.2735   10.1597   22.8945 H   0  0  0  0  0
    8.1637    8.9091   22.3239 H   0  0  0  0  0
    3.3377    9.8373   22.2624 H   0  0  0  0  0
    2.0405   10.6175   23.0334 H   0  0  0  0  0
    3.9565    7.7344   23.1385 H   0  0  0  0  0
    4.1898    6.0340   24.9417 H   0  0  0  0  0
    2.3957   10.6696   25.8967 H   0  0  0  0  0
    3.4940    7.5803   29.5208 H   0  0  0  0  0
    1.9073    7.0753   29.0102 H   0  0  0  0  0
  1  2  1  0  0  0
  2  3  4  0  0  0
  2 11  4  0  0  0
  3  4  4  0  0  0
  4  5  4  0  0  0
  4 19  4  0  0  0
  5  6  4  0  0  0
  5 12  4  0  0  0
  6  7  1  0  0  0
  6 11  4  0  0  0
  7  8  1  0  0  0
  8  9  1  0  0  0
  9 10  1  0  0  0
 12 13  4  0  0  0
 12 17  4  0  0  0
 13 14  4  0  0  0
 14 15  1  0  0  0
 14 16  4  0  0  0
 16 17  4  0  0  0
 17 18  4  0  0  0
 18 19  4  0  0  0
 18 20  1  0  0  0
 20 21  1  0  0  0
 21 22  4  0  0  0
 21 26  4  0  0  0
 22 23  4  0  0  0
 23 24  4  0  0  0
 24 25  4  0  0  0
 24 27  1  0  0  0
 25 26  4  0  0  0
 25 29  1  0  0  0
 27 28  1  0  0  0
 28 29  1  0  0  0
  3 30  1  0  0  0
  7 31  1  0  0  0
  8 32  1  0  0  0
  8 33  1  0  0  0
  9 34  1  0  0  0
  9 35  1  0  0  0
 10 36  1  0  0  0
 11 37  1  0  0  0
 15 38  1  0  0  0
 15 39  1  0  0  0
 20 40  1  0  0  0
 20 41  1  0  0  0
 22 42  1  0  0  0
 23 43  1  0  0  0
 26 44  1  0  0  0
 28 45  1  0  0  0
 28 46  1  0  0  0
M  END
$$$$
