2rgp_ligand
  -I-interpret- 

 58 62  0  0  0  0  0  0  0  0999 V2000
   14.7180   40.1160   97.0990 C   0  0  0  0  0
   16.0310   40.2220   97.6320 C   0  0  0  0  0
   16.8780   39.0760   97.6860 C   0  0  0  0  0
   13.9670   33.2580   86.9490 N   0  0  0  0  0
   17.3230   36.5580   97.2600 C   0  0  0  0  0
   15.5850   33.7600   95.9940 C   0  0  0  0  0
   16.0750   34.2210   94.7560 C   0  0  0  0  0
   16.8400   35.3580   95.0700 C   0  0  0  0  0
   17.5140   36.1290   94.0760 C   0  0  0  0  0
   17.3900   35.7120   92.7350 C   0  0  0  0  0
   16.6250   34.5740   92.3820 C   0  0  0  0  0
   15.9650   33.8170   93.4030 C   0  0  0  0  0
   14.1240   33.6450   88.2640 C   0  0  0  0  0
   15.3910   33.7190   88.8960 C   0  0  0  0  0
   16.6440   33.3950   88.1860 C   0  0  0  0  0
   19.5090   31.9970   84.8580 C   0  0  0  0  0
   18.1270   31.9340   85.5370 C   0  0  0  0  0
   19.1670   31.5240   87.7400 C   0  0  0  0  0
   20.5540   31.1900   85.6350 C   0  0  0  0  0
   16.4190   37.8080   97.2090 C   0  0  0  0  0
   15.0830   37.7300   96.6750 C   0  0  0  0  0
   14.2560   38.8690   96.6250 C   0  0  0  0  0
   13.0110   38.7560   96.1180 F   0  0  0  0  0
   16.7310   35.4930   96.4340 N   0  0  0  0  0
   15.9710   34.5190   97.0190 N   0  0  0  0  0
   16.5250   34.2480   91.0370 N   0  0  0  0  0
   12.9540   33.9630   88.9110 N   0  0  0  0  0
   15.3910   34.1200   90.2310 C   0  0  0  0  0
   14.2120   34.4440   90.8920 N   0  0  0  0  0
   13.0410   34.3520   90.2010 C   0  0  0  0  0
   16.9000   32.2900   87.5590 N   0  0  0  0  0
   18.1460   32.3440   86.9840 N   0  0  0  0  0
   20.5730   31.5960   87.1120 C   0  0  0  0  0
   14.0713   40.9924   97.0564 H   0  0  0  0  0
   16.3918   41.1822   98.0007 H   0  0  0  0  0
   17.8844   39.1671   98.0945 H   0  0  0  0  0
   14.7830   33.0103   86.3894 H   0  0  0  0  0
   13.0349   33.2196   86.5365 H   0  0  0  0  0
   17.4104   36.2136   98.2905 H   0  0  0  0  0
   18.3124   36.8083   96.8772 H   0  0  0  0  0
   14.9566   32.8759   96.1019 H   0  0  0  0  0
   18.1022   37.0068   94.3434 H   0  0  0  0  0
   17.8945   36.2785   91.9522 H   0  0  0  0  0
   15.3812   32.9348   93.1402 H   0  0  0  0  0
   17.4256   34.1548   88.1894 H   0  0  0  0  0
   19.8307   33.0380   84.8260 H   0  0  0  0  0
   19.4213   31.5748   83.8569 H   0  0  0  0  0
   17.7902   30.8982   85.4958 H   0  0  0  0  0
   17.4725   32.6282   85.0098 H   0  0  0  0  0
   18.8435   30.4834   87.7166 H   0  0  0  0  0
   19.2324   31.9226   88.7524 H   0  0  0  0  0
   21.5368   31.3850   85.2058 H   0  0  0  0  0
   20.3012   30.1320   85.5661 H   0  0  0  0  0
   14.7071   36.7763   96.3046 H   0  0  0  0  0
   17.4131   34.0759   90.5658 H   0  0  0  0  0
   12.1182   34.6081   90.7216 H   0  0  0  0  0
   21.2253   30.9077   87.6494 H   0  0  0  0  0
   20.9284   32.6241   87.1815 H   0  0  0  0  0
  2  1  4  0  0  0
 22  1  4  0  0  0
  3  2  4  0  0  0
 20  3  4  0  0  0
 13  4  1  0  0  0
  5 20  1  0  0  0
 24  5  1  0  0  0
  7  6  4  0  0  0
  6 25  4  0  0  0
  7  8  4  0  0  0
 12  7  4  0  0  0
  9  8  4  0  0  0
  8 24  4  0  0  0
 10  9  4  0  0  0
 11 10  4  0  0  0
 11 12  4  0  0  0
 26 11  1  0  0  0
 14 13  4  0  0  0
 13 27  4  0  0  0
 15 14  1  0  0  0
 14 28  4  0  0  0
 31 15  2  0  0  0
 17 16  1  0  0  0
 16 19  1  0  0  0
 32 17  1  0  0  0
 32 18  1  0  0  0
 18 33  1  0  0  0
 33 19  1  0  0  0
 20 21  4  0  0  0
 21 22  4  0  0  0
 22 23  1  0  0  0
 24 25  4  0  0  0
 28 26  1  0  0  0
 27 30  4  0  0  0
 28 29  4  0  0  0
 29 30  4  0  0  0
 31 32  1  0  0  0
  1 34  1  0  0  0
  2 35  1  0  0  0
  3 36  1  0  0  0
  4 37  1  0  0  0
  4 38  1  0  0  0
  5 39  1  0  0  0
  5 40  1  0  0  0
  6 41  1  0  0  0
  9 42  1  0  0  0
 10 43  1  0  0  0
 12 44  1  0  0  0
 15 45  1  0  0  0
 16 46  1  0  0  0
 16 47  1  0  0  0
 17 48  1  0  0  0
 17 49  1  0  0  0
 18 50  1  0  0  0
 18 51  1  0  0  0
 19 52  1  0  0  0
 19 53  1  0  0  0
 21 54  1  0  0  0
 26 55  1  0  0  0
 30 56  1  0  0  0
 33 57  1  0  0  0
 33 58  1  0  0  0
M  END
$$$$
