5dqc_ligand
  -I-interpret- 

 99101  0  0  0  0  0  0  0  0999 V2000
    6.1420  -20.5630   33.5730 C   0  0  0  0  0
    5.4970  -20.2490   32.2770 N   0  0  0  0  0
    6.2780  -20.7790   30.8570 S   0  0  0  0  0
    7.0320  -21.9160   31.2210 O   0  0  0  0  0
    7.3530  -19.5030   30.3170 C   0  0  0  0  0
    5.3380  -20.9810   29.8210 O   0  0  0  0  0
    4.2350  -19.5170   32.2380 C   0  0  0  0  0
    3.2940  -19.5830   33.3010 C   0  0  0  0  0
    2.0770  -18.8910   33.2610 C   0  0  0  0  0
    1.0580  -18.9070   34.3710 C   0  0  0  0  0
   -0.3060  -18.7980   34.1340 N   0  0  0  0  0
   -1.4530  -18.7430   35.0500 C   0  0  0  0  0
   -2.5130  -17.6820   34.6060 C   0  0  0  0  0
   -1.9070  -16.4590   33.8830 C   0  0  0  0  0
   -2.3550  -15.9480   32.6550 C   0  0  0  0  0
   -1.7540  -14.8420   32.0430 C   0  0  0  0  0
   -0.6760  -14.2120   32.6290 C   0  0  0  0  0
   -0.1910  -14.6890   33.8370 C   0  0  0  0  0
   -0.8090  -15.7880   34.4280 C   0  0  0  0  0
   -2.0370  -20.2070   35.1920 C   0  0  0  0  0
   -3.1320  -20.1490   36.0520 O   0  0  0  0  0
   -0.9350  -21.1170   35.8430 C   0  0  0  0  0
   -1.3420  -22.5090   36.1880 N   0  3  0  0  0
   -0.8660  -22.9870   37.5170 C   0  0  0  0  0
    0.6400  -23.4170   37.4360 C   0  0  0  0  0
    0.8290  -24.4300   38.3890 O   0  0  0  0  0
    1.0550  -23.9250   36.0570 C   0  0  0  0  0
   -0.9790  -22.0060   38.7350 C   0  0  0  0  0
   -2.1460  -21.7690   39.4570 N   0  0  0  0  0
   -2.1950  -20.8350   40.6080 C   0  0  0  0  0
   -3.5610  -20.7250   41.3330 C   0  0  0  0  0
   -4.3310  -19.4920   40.8640 C   0  0  0  0  0
   -4.4220  -21.9630   41.1090 C   0  0  0  0  0
    0.0500  -21.4120   39.0810 O   0  0  0  0  0
    1.4270  -18.9970   35.5610 O   0  0  0  0  0
    1.8210  -18.1200   32.1130 C   0  0  0  0  0
    2.6980  -17.9920   31.0190 C   0  0  0  0  0
    2.3240  -17.1470   29.8010 C   0  0  0  0  0
    1.0100  -17.0080   29.3600 N   0  0  0  0  0
    0.4500  -16.2830   28.2100 C   0  0  0  0  0
   -0.7310  -15.4260   28.6750 C   0  0  0  0  0
   -0.0320  -17.2990   27.1650 C   0  0  0  0  0
    0.4810  -17.3040   25.8620 C   0  0  0  0  0
    0.0520  -18.2380   24.9120 C   0  0  0  0  0
   -0.8890  -19.2030   25.2450 C   0  0  0  0  0
   -1.4000  -19.2220   26.5340 C   0  0  0  0  0
   -0.9640  -18.2850   27.4680 C   0  0  0  0  0
    3.2020  -16.5400   29.1560 O   0  0  0  0  0
    3.8910  -18.7220   31.1130 C   0  0  0  0  0
    6.3628  -19.6357   34.1016 H   0  0  0  0  0
    5.4684  -21.1738   34.1741 H   0  0  0  0  0
    7.0677  -21.1098   33.3936 H   0  0  0  0  0
    8.0369  -19.2400   31.1240 H   0  0  0  0  0
    7.9226  -19.8501   29.4549 H   0  0  0  0  0
    6.7653  -18.6285   30.0376 H   0  0  0  0  0
    3.5268  -20.1914   34.1750 H   0  0  0  0  0
   -0.5563  -18.7470   33.1465 H   0  0  0  0  0
   -1.1330  -18.4010   36.0342 H   0  0  0  0  0
   -3.0036  -17.3159   35.5079 H   0  0  0  0  0
   -3.1888  -18.1718   33.9049 H   0  0  0  0  0
   -3.1995  -16.4287   32.1612 H   0  0  0  0  0
   -2.1421  -14.4746   31.0930 H   0  0  0  0  0
   -0.2116  -13.3507   32.1488 H   0  0  0  0  0
    0.6623  -14.2104   34.3175 H   0  0  0  0  0
   -0.4108  -16.1480   35.3766 H   0  0  0  0  0
   -2.3307  -20.6061   34.2212 H   0  0  0  0  0
   -3.5043  -21.0280   36.1540 H   0  0  0  0  0
   -0.6656  -20.6387   36.7847 H   0  0  0  0  0
   -0.1420  -21.2091   35.1009 H   0  0  0  0  0
   -0.9267  -23.1219   35.4863 H   0  0  0  0  0
   -2.3615  -22.5214   36.2162 H   0  0  0  0  0
   -1.5579  -23.8045   37.7196 H   0  0  0  0  0
    1.2610  -22.5423   37.6293 H   0  0  0  0  0
    1.7439  -24.7201   38.3688 H   0  0  0  0  0
    0.4521  -24.7945   35.7949 H   0  0  0  0  0
    0.8996  -23.1378   35.3193 H   0  0  0  0  0
    2.1085  -24.2041   36.0759 H   0  0  0  0  0
   -2.9994  -22.2563   39.1839 H   0  0  0  0  0
   -1.9787  -19.8441   40.2087 H   0  0  0  0  0
   -1.4869  -21.2168   41.3435 H   0  0  0  0  0
   -3.3441  -20.6374   42.3976 H   0  0  0  0  0
   -3.7471  -18.5971   41.0790 H   0  0  0  0  0
   -4.5085  -19.5625   39.7909 H   0  0  0  0  0
   -5.2850  -19.4397   41.3887 H   0  0  0  0  0
   -4.6089  -22.0858   40.0422 H   0  0  0  0  0
   -3.9006  -22.8406   41.4912 H   0  0  0  0  0
   -5.3699  -21.8446   41.6340 H   0  0  0  0  0
    0.8741  -17.5820   32.0668 H   0  0  0  0  0
    0.3183  -17.4917   29.9326 H   0  0  0  0  0
    1.2121  -15.6387   27.7716 H   0  0  0  0  0
   -1.4967  -16.0694   29.1084 H   0  0  0  0  0
   -0.3877  -14.7123   29.4239 H   0  0  0  0  0
   -1.1462  -14.8885   27.8224 H   0  0  0  0  0
    1.2308  -16.5643   25.5815 H   0  0  0  0  0
    0.4603  -18.2075   23.9018 H   0  0  0  0  0
   -1.2203  -19.9328   24.5063 H   0  0  0  0  0
   -2.1419  -19.9692   26.8160 H   0  0  0  0  0
   -1.3705  -18.3266   28.4785 H   0  0  0  0  0
    4.5912  -18.6770   30.2788 H   0  0  0  0  0
  1  2  1  0  0  0
  2  3  1  0  0  0
  2  7  1  0  0  0
  3  4  2  0  0  0
  3  5  1  0  0  0
  3  6  2  0  0  0
  7  8  4  0  0  0
  7 49  4  0  0  0
  8  9  4  0  0  0
  9 10  1  0  0  0
  9 36  4  0  0  0
 10 11  1  0  0  0
 10 35  2  0  0  0
 11 12  1  0  0  0
 12 13  1  0  0  0
 12 20  1  0  0  0
 13 14  1  0  0  0
 14 15  4  0  0  0
 14 19  4  0  0  0
 15 16  4  0  0  0
 16 17  4  0  0  0
 17 18  4  0  0  0
 18 19  4  0  0  0
 20 21  1  0  0  0
 20 22  1  0  0  0
 22 23  1  0  0  0
 23 24  1  0  0  0
 24 25  1  0  0  0
 24 28  1  0  0  0
 25 26  1  0  0  0
 25 27  1  0  0  0
 28 29  1  0  0  0
 28 34  2  0  0  0
 29 30  1  0  0  0
 30 31  1  0  0  0
 31 32  1  0  0  0
 31 33  1  0  0  0
 36 37  4  0  0  0
 37 38  1  0  0  0
 37 49  4  0  0  0
 38 39  1  0  0  0
 38 48  2  0  0  0
 39 40  1  0  0  0
 40 41  1  0  0  0
 40 42  1  0  0  0
 42 43  4  0  0  0
 42 47  4  0  0  0
 43 44  4  0  0  0
 44 45  4  0  0  0
 45 46  4  0  0  0
 46 47  4  0  0  0
  1 50  1  0  0  0
  1 51  1  0  0  0
  1 52  1  0  0  0
  5 53  1  0  0  0
  5 54  1  0  0  0
  5 55  1  0  0  0
  8 56  1  0  0  0
 11 57  1  0  0  0
 12 58  1  0  0  0
 13 59  1  0  0  0
 13 60  1  0  0  0
 15 61  1  0  0  0
 16 62  1  0  0  0
 17 63  1  0  0  0
 18 64  1  0  0  0
 19 65  1  0  0  0
 20 66  1  0  0  0
 21 67  1  0  0  0
 22 68  1  0  0  0
 22 69  1  0  0  0
 23 70  1  0  0  0
 23 71  1  0  0  0
 24 72  1  0  0  0
 25 73  1  0  0  0
 26 74  1  0  0  0
 27 75  1  0  0  0
 27 76  1  0  0  0
 27 77  1  0  0  0
 29 78  1  0  0  0
 30 79  1  0  0  0
 30 80  1  0  0  0
 31 81  1  0  0  0
 32 82  1  0  0  0
 32 83  1  0  0  0
 32 84  1  0  0  0
 33 85  1  0  0  0
 33 86  1  0  0  0
 33 87  1  0  0  0
 36 88  1  0  0  0
 39 89  1  0  0  0
 40 90  1  0  0  0
 41 91  1  0  0  0
 41 92  1  0  0  0
 41 93  1  0  0  0
 43 94  1  0  0  0
 44 95  1  0  0  0
 45 96  1  0  0  0
 46 97  1  0  0  0
 47 98  1  0  0  0
 49 99  1  0  0  0
M  END
$$$$
