1c8v_ligand
  -I-interpret- 

 31 31  0  0  0  0  0  0  0  0999 V2000
   48.4100   29.4010   10.0770 P   0  0  0  0  0
   49.4360   30.5170   10.1960 O   0  0  0  0  0
   48.6340   28.8270    8.7100 O   0  0  0  0  0
   47.0730   30.1480    9.9630 O   0  0  0  0  0
   48.4960   28.2380   11.3430 C   0  0  0  0  0
   48.5490   28.8450   12.7530 C   0  0  0  0  0
   48.9750   28.2830   15.1840 C   0  0  0  0  0
   48.6130   27.7460   13.8060 C   0  0  0  0  0
   49.0200   26.8740   16.3090 S   0  0  0  0  0
   52.0160   27.1870   15.3120 O   0  0  0  0  0
   51.7880   23.5660   14.8230 C   0  0  0  0  0
   52.2830   24.8810   14.8590 C   0  0  0  0  0
   51.4760   25.9280   15.3030 C   0  0  0  0  0
   50.1440   25.6410   15.7230 C   0  0  0  0  0
   49.6550   24.3290   15.6860 C   0  0  0  0  0
   50.4780   23.2910   15.2380 C   0  0  0  0  0
   49.3526   30.9365   11.0555 H   0  0  0  0  0
   46.8580   30.5479   10.8088 H   0  0  0  0  0
   49.4183   27.6749   11.2004 H   0  0  0  0  0
   47.5905   27.6338   11.2868 H   0  0  0  0  0
   47.6501   29.4395   12.9163 H   0  0  0  0  0
   49.4397   29.4676   12.8369 H   0  0  0  0  0
   48.2401   29.0164   15.5159 H   0  0  0  0  0
   49.9419   28.7856   15.1587 H   0  0  0  0  0
   49.3849   27.0369   13.5069 H   0  0  0  0  0
   47.6278   27.2844   13.8720 H   0  0  0  0  0
   51.3632   27.8117   15.6364 H   0  0  0  0  0
   52.4264   22.7559   14.4705 H   0  0  0  0  0
   53.3046   25.0838   14.5377 H   0  0  0  0  0
   48.6347   24.1174   16.0059 H   0  0  0  0  0
   50.1008   22.2687   15.2116 H   0  0  0  0  0
  1  2  1  0  0  0
  1  3  2  0  0  0
  1  4  1  0  0  0
  5  1  1  0  0  0
  6  5  1  0  0  0
  8  6  1  0  0  0
  7  8  1  0  0  0
  9  7  1  0  0  0
 14  9  1  0  0  0
 13 10  1  0  0  0
 12 11  4  0  0  0
 11 16  4  0  0  0
 13 12  4  0  0  0
 13 14  4  0  0  0
 14 15  4  0  0  0
 15 16  4  0  0  0
  2 17  1  0  0  0
  4 18  1  0  0  0
  5 19  1  0  0  0
  5 20  1  0  0  0
  6 21  1  0  0  0
  6 22  1  0  0  0
  7 23  1  0  0  0
  7 24  1  0  0  0
  8 25  1  0  0  0
  8 26  1  0  0  0
 10 27  1  0  0  0
 11 28  1  0  0  0
 12 29  1  0  0  0
 15 30  1  0  0  0
 16 31  1  0  0  0
M  END
$$$$
