### 
### Created by X-TOOL on Mon Sep 10 21:12:47 2018
### 

@<TRIPOS>MOLECULE
1c8v_ligand
   29    29     1     0     0
SMALL
GAST_HUCK


@<TRIPOS>ATOM
      1 P1         48.4100   29.4010   10.0770 P.3       1 HE1         0.0579
      2 O1         49.4360   30.5170   10.1960 O.co2     1 HE1        -0.5623
      3 O2         48.6340   28.8270    8.7100 O.co2     1 HE1        -0.5623
      4 O3         47.0730   30.1480    9.9630 O.co2     1 HE1        -0.5623
      5 C1         48.4960   28.2380   11.3430 C.3       1 HE1         0.0196
      6 C2         48.5490   28.8450   12.7530 C.3       1 HE1        -0.0371
      7 C3         48.9750   28.2830   15.1840 C.3       1 HE1         0.0052
      8 C4         48.6130   27.7460   13.8060 C.3       1 HE1        -0.0409
      9 S1         49.0200   26.8740   16.3090 S.3       1 HE1        -0.1071
     10 OH         52.0160   27.1870   15.3120 O.3       1 HE1        -0.3360
     11 C5         51.7880   23.5660   14.8230 C.ar      1 HE1        -0.0776
     12 C6         52.2830   24.8810   14.8590 C.ar      1 HE1        -0.0390
     13 C7         51.4760   25.9280   15.3030 C.ar      1 HE1         0.0996
     14 C8         50.1440   25.6410   15.7230 C.ar      1 HE1         0.0439
     15 C9         49.6550   24.3290   15.6860 C.ar      1 HE1        -0.0583
     16 C10        50.4780   23.2910   15.2380 C.ar      1 HE1        -0.0789
     17 H1         49.4020   27.6322   11.1940 H         1 HE1         0.0451
     18 H2         47.6081   27.5918   11.2788 H         1 HE1         0.0451
     19 H3         47.6477   29.4532   12.9192 H         1 HE1         0.0279
     20 H4         49.4420   29.4814   12.8396 H         1 HE1         0.0279
     21 H5         48.2174   29.0076   15.5173 H         1 HE1         0.0399
     22 H6         49.9602   28.7712   15.1516 H         1 HE1         0.0399
     23 H7         49.3724   27.0102   13.5030 H         1 HE1         0.0275
     24 H8         47.6302   27.2556   13.8650 H         1 HE1         0.0275
     25 H9         52.2736   27.4262   14.4295 H         1 HE1         0.2456
     26 H10        52.4229   22.7603   14.4724 H         1 HE1         0.0531
     27 H11        53.2990   25.0827   14.5394 H         1 HE1         0.0521
     28 H12        48.6403   24.1186   16.0041 H         1 HE1         0.0534
     29 H13        50.1029   22.2743   15.2117 H         1 HE1         0.0505
@<TRIPOS>BOND
     1    1    2 ar 
     2    1    3 ar 
     3    1    4 ar 
     4    5    1 1  
     5    6    5 1  
     6    8    6 1  
     7    7    8 1  
     8    9    7 1  
     9   14    9 1  
    10   13   10 1  
    11   12   11 ar 
    12   11   16 ar 
    13   13   12 ar 
    14   13   14 ar 
    15   14   15 ar 
    16   15   16 ar 
    17    5   17 1  
    18    5   18 1  
    19    6   19 1  
    20    6   20 1  
    21    7   21 1  
    22    7   22 1  
    23    8   23 1  
    24    8   24 1  
    25   10   25 1  
    26   11   26 1  
    27   12   27 1  
    28   15   28 1  
    29   16   29 1  
@<TRIPOS>SUBSTRUCTURE
     1 HE1         1

