1eef_ligand
  -I-interpret- 

 56 59  0  0  0  0  0  0  0  0999 V2000
   20.7670   19.8500   39.3330 C   0  0  0  0  0
   19.9050   21.0200   38.8730 C   0  0  0  0  0
   18.4480   20.6560   38.7970 C   0  0  0  0  0
   18.2490   19.4050   38.0070 C   0  0  0  0  0
   19.0560   18.2800   38.5740 C   0  0  0  0  0
   18.9460   17.0210   37.7210 C   0  0  0  0  0
   20.4890   19.6890   40.7420 O   0  0  0  0  0
   20.0050   22.1110   39.7720 O   0  0  0  0  0
   17.7320   21.7440   38.1960 O   0  0  0  0  0
   18.6730   19.6850   36.6430 O   0  0  0  0  0
   20.4410   18.6390   38.5990 O   0  0  0  0  0
   19.5270   15.9940   38.4870 O   0  0  0  0  0
   21.3510   19.0350   41.5780 C   0  0  0  0  0
   20.9270   17.8980   42.2310 C   0  0  0  0  0
   21.8200   17.1970   43.0390 C   0  0  0  0  0
   23.1370   17.6550   43.2020 C   0  0  0  0  0
   23.5540   18.8080   42.5260 C   0  0  0  0  0
   22.6640   19.4960   41.7230 C   0  0  0  0  0
   21.3610   15.9830   43.7130 C   0  0  0  0  0
   20.2450   15.5170   43.6010 O   0  0  0  0  0
   22.2490   15.3720   44.4510 N   0  0  0  0  0
   23.5790   15.7980   44.6400 N   0  0  0  0  0
   24.0950   16.8920   44.0470 C   0  0  0  0  0
   25.2680   17.2080   44.2210 O   0  0  0  0  0
   21.9340   14.2750   45.3330 C   0  0  0  0  0
   21.9430   13.0730   44.4380 C   0  0  0  0  0
   23.1260   13.0580   43.5200 C   0  0  0  0  0
   24.3650   12.6190   43.9910 C   0  0  0  0  0
   23.0440   13.6200   42.2410 C   0  0  0  0  0
   25.5020   12.7410   43.2230 C   0  0  0  0  0
   24.1840   13.7550   41.4470 C   0  0  0  0  0
   25.4150   13.3190   41.9330 C   0  0  0  0  0
   21.8248   20.0409   39.1520 H   0  0  0  0  0
   20.2768   21.2878   37.8840 H   0  0  0  0  0
   18.0708   20.4737   39.8033 H   0  0  0  0  0
   17.2022   19.1027   38.0384 H   0  0  0  0  0
   18.6689   18.0876   39.5746 H   0  0  0  0  0
   19.4548   17.1417   36.7646 H   0  0  0  0  0
   17.9084   16.7960   37.4741 H   0  0  0  0  0
   20.9242   22.3766   39.8501 H   0  0  0  0  0
   17.8690   22.5406   38.7139 H   0  0  0  0  0
   18.1498   20.4076   36.2884 H   0  0  0  0  0
   19.4867   15.1692   37.9974 H   0  0  0  0  0
   19.9006   17.5495   42.1163 H   0  0  0  0  0
   24.5792   19.1626   42.6329 H   0  0  0  0  0
   22.9852   20.3982   41.2024 H   0  0  0  0  0
   24.1805   15.2511   45.2561 H   0  0  0  0  0
   20.9746   14.4100   45.8325 H   0  0  0  0  0
   22.6488   14.1853   46.1510 H   0  0  0  0  0
   21.0407   13.0991   43.8270 H   0  0  0  0  0
   21.9907   12.1835   45.0662 H   0  0  0  0  0
   24.4336   12.1723   44.9829 H   0  0  0  0  0
   22.0793   13.9560   41.8607 H   0  0  0  0  0
   26.4622   12.3950   43.6056 H   0  0  0  0  0
   24.1118   14.1983   40.4538 H   0  0  0  0  0
   26.3107   13.4228   41.3205 H   0  0  0  0  0
  1  2  1  0  0  0
  1  7  1  0  0  0
  1 11  1  0  0  0
  2  3  1  0  0  0
  2  8  1  0  0  0
  3  4  1  0  0  0
  3  9  1  0  0  0
  4  5  1  0  0  0
  4 10  1  0  0  0
  5  6  1  0  0  0
  5 11  1  0  0  0
  6 12  1  0  0  0
  7 13  1  0  0  0
 13 14  4  0  0  0
 13 18  4  0  0  0
 14 15  4  0  0  0
 15 16  4  0  0  0
 15 19  1  0  0  0
 16 17  4  0  0  0
 16 23  1  0  0  0
 17 18  4  0  0  0
 19 20  2  0  0  0
 19 21  1  0  0  0
 21 22  1  0  0  0
 21 25  1  0  0  0
 22 23  1  0  0  0
 23 24  2  0  0  0
 25 26  1  0  0  0
 26 27  1  0  0  0
 27 28  4  0  0  0
 27 29  4  0  0  0
 28 30  4  0  0  0
 29 31  4  0  0  0
 30 32  4  0  0  0
 31 32  4  0  0  0
  1 33  1  0  0  0
  2 34  1  0  0  0
  3 35  1  0  0  0
  4 36  1  0  0  0
  5 37  1  0  0  0
  6 38  1  0  0  0
  6 39  1  0  0  0
  8 40  1  0  0  0
  9 41  1  0  0  0
 10 42  1  0  0  0
 12 43  1  0  0  0
 14 44  1  0  0  0
 17 45  1  0  0  0
 18 46  1  0  0  0
 22 47  1  0  0  0
 25 48  1  0  0  0
 25 49  1  0  0  0
 26 50  1  0  0  0
 26 51  1  0  0  0
 28 52  1  0  0  0
 29 53  1  0  0  0
 30 54  1  0  0  0
 31 55  1  0  0  0
 32 56  1  0  0  0
M  END
$$$$
