2aoj_ligand
  -I-interpret- 

172174  0  0  0  0  0  0  0  0999 V2000
   27.9820   27.2200   14.9440 N   0  3  0  0  0
   28.7650   28.3540   15.4060 C   0  0  0  0  0
   28.2380   28.9960   16.6860 C   0  0  0  0  0
   28.9730   29.0200   17.6940 O   0  0  0  0  0
   28.8600   29.4880   14.3540 C   0  0  0  0  0
   29.5240   30.6850   15.0180 C   0  0  0  0  0
   29.6230   29.0710   13.1290 C   0  0  0  0  0
   27.0840   29.5540   16.7480 N   0  0  0  0  0
   25.7710   29.6370   16.2370 C   0  0  0  0  0
   25.1470   28.2200   16.3180 C   0  0  0  0  0
   25.5740   27.3280   15.5790 O   0  0  0  0  0
   25.6580   30.1230   14.7850 C   0  0  0  0  0
   24.7040   29.2380   14.1860 O   0  0  0  0  0
   24.2110   28.1240   17.2550 N   0  0  0  0  0
   23.4840   26.9090   17.5740 C   0  0  0  0  0
   21.9920   27.1670   17.4280 C   0  0  0  0  0
   21.4550   28.2230   17.7970 O   0  0  0  0  0
   23.7220   26.3890   18.9990 C   0  0  0  0  0
   24.9360   25.4640   19.0550 C   0  0  0  0  0
   26.2070   26.0150   19.0110 C   0  0  0  0  0
   24.7830   24.0930   19.1400 C   0  0  0  0  0
   27.3290   25.2040   19.0560 C   0  0  0  0  0
   25.8970   23.2720   19.1930 C   0  0  0  0  0
   27.1560   23.8360   19.1510 C   0  0  0  0  0
   21.3460   26.1910   16.8160 N   0  0  0  0  0
   19.9460   26.3470   16.4000 C   0  0  0  0  0
   19.1600   25.0980   16.7780 C   0  0  0  0  0
   19.4590   24.0610   16.1680 O   0  0  0  0  0
   19.9190   26.6060   14.8840 C   0  0  0  0  0
   20.6430   27.9120   14.5520 C   0  0  0  0  0
   20.0960   28.9750   14.8300 O   0  0  0  0  0
   21.8750   27.8450   14.0690 N   0  0  0  0  0
   18.2430   25.2060   17.7260 N   0  0  0  0  0
   17.5250   24.0930   18.3280 C   0  0  0  0  0
   16.0510   24.1550   17.9730 C   0  0  0  0  0
   17.7730   24.0910   19.8500 C   0  0  0  0  0
   19.2470   23.9700   20.2090 C   0  0  0  0  0
   19.9190   25.0110   20.8220 C   0  0  0  0  0
   19.9360   22.8100   19.9090 C   0  0  0  0  0
   21.2570   24.9060   21.1260 C   0  0  0  0  0
   21.2780   22.6970   20.2220 C   0  0  0  0  0
   21.9460   23.7390   20.8450 C   0  0  0  0  0
   15.6460   23.8260   16.7340 N   0  3  0  0  0
   14.4160   23.0540   16.5460 C   0  0  0  0  0
   14.5470   21.5860   16.9370 C   0  0  0  0  0
   15.5780   20.9240   16.8240 O   0  0  0  0  0
   14.1400   23.1390   15.0400 C   0  0  0  0  0
   15.4890   23.3970   14.4430 C   0  0  0  0  0
   16.2520   24.2070   15.4540 C   0  0  0  0  0
   13.4310   21.0340   17.4070 N   0  0  0  0  0
   13.4020   19.6030   17.7070 C   0  0  0  0  0
   12.0100   19.0440   17.4780 C   0  0  0  0  0
   11.0110   19.6830   17.8020 O   0  0  0  0  0
   13.8390   19.3870   19.1570 C   0  0  0  0  0
   13.7160   17.9790   19.6860 C   0  0  0  0  0
   12.4160   17.6680   20.4120 C   0  0  0  0  0
   11.7510   18.5520   20.9280 O   0  0  0  0  0
   12.0350   16.4010   20.3780 N   0  0  0  0  0
   11.9500   17.8050   16.9930 N   0  0  0  0  0
   10.7440   16.9910   16.9700 C   0  0  0  0  0
   10.9730   15.5220   17.3220 C   0  0  0  0  0
   12.0430   14.9240   17.1770 O   0  0  0  0  0
   10.0910   16.9840   15.5700 C   0  0  0  0  0
   10.8570   16.0430   14.6470 C   0  0  0  0  0
    9.9500   18.3820   15.0030 C   0  0  0  0  0
   10.2540   15.8840   13.2740 C   0  0  0  0  0
    9.8810   14.8850   17.8000 N   0  0  0  0  0
   10.0200   13.4760   18.1300 C   0  0  0  0  0
    9.8560   12.6210   16.8760 C   0  0  0  0  0
    8.9360   12.8970   16.1160 O   0  0  0  0  0
    8.9880   12.9620   19.1480 C   0  0  0  0  0
    9.3050   13.4530   20.4540 O   0  0  0  0  0
    9.0480   11.4420   19.2400 C   0  0  0  0  0
   10.7280   11.6580   16.7750 N   0  0  0  0  0
   10.7290   10.3370   16.2290 C   0  0  0  0  0
   11.2410   10.2930   14.7720 C   0  0  0  0  0
   12.3240   10.8530   14.5800 O   0  0  0  0  0
    9.3430    9.6830   16.2700 C   0  0  0  0  0
   10.4280    9.6570   13.9850 N   0  0  0  0  0
   10.1600    9.0830   12.7100 C   0  0  0  0  0
    9.2590    9.9030   11.7870 C   0  0  0  0  0
    8.9700   11.0760   12.0660 O   0  0  0  0  0
    9.4830    7.7200   12.9360 C   0  0  0  0  0
    8.8220    9.3530   10.7530 N   0  0  0  0  0
   27.9538   26.5079   15.6738 H   0  0  0  0  0
   27.0332   27.5278   14.7307 H   0  0  0  0  0
   28.4114   26.8313   14.1044 H   0  0  0  0  0
   29.7433   27.9114   15.5936 H   0  0  0  0  0
   27.8561   29.7410   14.0131 H   0  0  0  0  0
   30.5408   30.4202   15.3081 H   0  0  0  0  0
   29.5504   31.5193   14.3171 H   0  0  0  0  0
   28.9549   30.9700   15.9029 H   0  0  0  0  0
   29.6498   29.8985   12.4200 H   0  0  0  0  0
   30.6402   28.7994   13.4111 H   0  0  0  0  0
   29.1306   28.2136   12.6702 H   0  0  0  0  0
   27.1409   30.2420   17.4989 H   0  0  0  0  0
   25.2546   30.3830   16.8411 H   0  0  0  0  0
   26.6181   30.0995   14.2696 H   0  0  0  0  0
   25.3435   31.1649   14.7254 H   0  0  0  0  0
   24.5778   29.4807   13.2658 H   0  0  0  0  0
   23.9870   28.9640   17.7886 H   0  0  0  0  0
   23.8519   26.1526   16.8808 H   0  0  0  0  0
   22.8427   25.8280   19.3156 H   0  0  0  0  0
   23.9038   27.2411   19.6540 H   0  0  0  0  0
   26.3247   27.0963   18.9403 H   0  0  0  0  0
   23.7842   23.6574   19.1654 H   0  0  0  0  0
   28.3289   25.6362   19.0172 H   0  0  0  0  0
   25.7806   22.1908   19.2672 H   0  0  0  0  0
   28.0322   23.1890   19.1936 H   0  0  0  0  0
   21.8286   25.3121   16.6287 H   0  0  0  0  0
   19.4783   27.1915   16.9062 H   0  0  0  0  0
   18.8824   26.6818   14.5556 H   0  0  0  0  0
   20.4206   25.7831   14.3747 H   0  0  0  0  0
   22.4092   28.7000   13.9139 H   0  0  0  0  0
   22.2892   26.9384   13.8522 H   0  0  0  0  0
   18.0221   26.1437   18.0611 H   0  0  0  0  0
   17.8970   23.1489   17.9299 H   0  0  0  0  0
   15.7890   25.2081   18.0757 H   0  0  0  0  0
   15.5825   23.4132   18.6198 H   0  0  0  0  0
   17.2558   23.2287   20.2707 H   0  0  0  0  0
   17.4099   25.0385   20.2480 H   0  0  0  0  0
   19.3819   25.9271   21.0678 H   0  0  0  0  0
   19.4197   21.9815   19.4241 H   0  0  0  0  0
   21.7760   25.7449   21.5897 H   0  0  0  0  0
   21.8149   21.7807   19.9767 H   0  0  0  0  0
   22.9988   23.6410   21.1099 H   0  0  0  0  0
   16.4976   23.9800   17.2739 H   0  0  0  0  0
   13.6254   23.4569   17.1791 H   0  0  0  0  0
   13.4210   23.9203   14.7935 H   0  0  0  0  0
   13.6809   22.2303   14.6505 H   0  0  0  0  0
   15.4026   23.9322   13.4974 H   0  0  0  0  0
   16.0040   22.4623   14.2211 H   0  0  0  0  0
   17.3229   24.0061   15.4249 H   0  0  0  0  0
   16.1846   25.2783   15.2647 H   0  0  0  0  0
   12.6000   21.6061   17.5572 H   0  0  0  0  0
   14.0882   19.0770   17.0432 H   0  0  0  0  0
   13.1787   20.0014   19.7691 H   0  0  0  0  0
   14.8995   19.6357   19.1960 H   0  0  0  0  0
   14.5180   17.8475   20.4123 H   0  0  0  0  0
   13.7567   17.3164   18.8215 H   0  0  0  0  0
   11.1469   16.1241   20.7962 H   0  0  0  0  0
   12.6295   15.7014   19.9336 H   0  0  0  0  0
   12.8055   17.4001   16.6127 H   0  0  0  0  0
   10.1088   17.4556   17.7242 H   0  0  0  0  0
    9.0730   16.6048   15.6598 H   0  0  0  0  0
   10.8466   15.0589   15.1155 H   0  0  0  0  0
   11.8509   16.4693   14.5110 H   0  0  0  0  0
    9.3268   18.9809   15.6671 H   0  0  0  0  0
   10.9358   18.8391   14.9174 H   0  0  0  0  0
    9.4863   18.3282   14.0180 H   0  0  0  0  0
    9.2438   15.4851   13.3662 H   0  0  0  0  0
   10.2190   16.8546   12.7793 H   0  0  0  0  0
   10.8649   15.1977   12.6875 H   0  0  0  0  0
    8.9943   15.3736   17.9243 H   0  0  0  0  0
   11.0138   13.3908   18.5695 H   0  0  0  0  0
    8.0050   13.2996   18.8197 H   0  0  0  0  0
    8.6567   13.1279   21.0829 H   0  0  0  0  0
    8.8299   11.0112   18.2628 H   0  0  0  0  0
   10.0450   11.1376   19.5584 H   0  0  0  0  0
    8.3118   11.0938   19.9644 H   0  0  0  0  0
   11.6281   11.9073   17.1850 H   0  0  0  0  0
   11.4132    9.7772   16.8666 H   0  0  0  0  0
    9.0033    9.6190   17.3037 H   0  0  0  0  0
    8.6415   10.2848   15.6923 H   0  0  0  0  0
    9.4023    8.6818   15.8431 H   0  0  0  0  0
    9.5882    9.4906   14.5395 H   0  0  0  0  0
   11.1250    9.0213   12.2069 H   0  0  0  0  0
   10.1501    7.0747   13.5076 H   0  0  0  0  0
    8.5540    7.8642   13.4877 H   0  0  0  0  0
    9.2669    7.2588   11.9723 H   0  0  0  0  0
    8.2141    9.8705   10.1181 H   0  0  0  0  0
    9.0734    8.3868   10.5442 H   0  0  0  0  0
  1  2  1  0  0  0
  2  3  1  0  0  0
  2  5  1  0  0  0
  3  4  2  0  0  0
  3  8  1  0  0  0
  5  6  1  0  0  0
  5  7  1  0  0  0
  8  9  1  0  0  0
  9 10  1  0  0  0
  9 12  1  0  0  0
 10 11  2  0  0  0
 10 14  1  0  0  0
 12 13  1  0  0  0
 14 15  1  0  0  0
 15 16  1  0  0  0
 15 18  1  0  0  0
 16 17  2  0  0  0
 16 25  1  0  0  0
 18 19  1  0  0  0
 19 20  4  0  0  0
 19 21  4  0  0  0
 20 22  4  0  0  0
 21 23  4  0  0  0
 22 24  4  0  0  0
 23 24  4  0  0  0
 25 26  1  0  0  0
 26 27  1  0  0  0
 26 29  1  0  0  0
 27 28  2  0  0  0
 27 33  1  0  0  0
 29 30  1  0  0  0
 30 31  2  0  0  0
 30 32  1  0  0  0
 33 34  1  0  0  0
 34 35  1  0  0  0
 34 36  1  0  0  0
 35 43  1  0  0  0
 36 37  1  0  0  0
 37 38  4  0  0  0
 37 39  4  0  0  0
 38 40  4  0  0  0
 39 41  4  0  0  0
 40 42  4  0  0  0
 41 42  4  0  0  0
 43 44  1  0  0  0
 43 49  1  0  0  0
 44 45  1  0  0  0
 44 47  1  0  0  0
 45 46  2  0  0  0
 45 50  1  0  0  0
 47 48  1  0  0  0
 48 49  1  0  0  0
 50 51  1  0  0  0
 51 52  1  0  0  0
 51 54  1  0  0  0
 52 53  2  0  0  0
 52 59  1  0  0  0
 54 55  1  0  0  0
 55 56  1  0  0  0
 56 57  2  0  0  0
 56 58  1  0  0  0
 59 60  1  0  0  0
 60 61  1  0  0  0
 60 63  1  0  0  0
 61 62  2  0  0  0
 61 67  1  0  0  0
 63 64  1  0  0  0
 63 65  1  0  0  0
 64 66  1  0  0  0
 67 68  1  0  0  0
 68 69  1  0  0  0
 68 71  1  0  0  0
 69 70  2  0  0  0
 69 74  1  0  0  0
 71 72  1  0  0  0
 71 73  1  0  0  0
 74 75  1  0  0  0
 75 76  1  0  0  0
 75 78  1  0  0  0
 76 77  2  0  0  0
 76 79  1  0  0  0
 79 80  1  0  0  0
 80 81  1  0  0  0
 80 83  1  0  0  0
 81 82  2  0  0  0
 81 84  1  0  0  0
  1 85  1  0  0  0
  1 86  1  0  0  0
  1 87  1  0  0  0
  2 88  1  0  0  0
  5 89  1  0  0  0
  6 90  1  0  0  0
  6 91  1  0  0  0
  6 92  1  0  0  0
  7 93  1  0  0  0
  7 94  1  0  0  0
  7 95  1  0  0  0
  8 96  1  0  0  0
  9 97  1  0  0  0
 12 98  1  0  0  0
 12 99  1  0  0  0
 13100  1  0  0  0
 14101  1  0  0  0
 15102  1  0  0  0
 18103  1  0  0  0
 18104  1  0  0  0
 20105  1  0  0  0
 21106  1  0  0  0
 22107  1  0  0  0
 23108  1  0  0  0
 24109  1  0  0  0
 25110  1  0  0  0
 26111  1  0  0  0
 29112  1  0  0  0
 29113  1  0  0  0
 32114  1  0  0  0
 32115  1  0  0  0
 33116  1  0  0  0
 34117  1  0  0  0
 35118  1  0  0  0
 35119  1  0  0  0
 36120  1  0  0  0
 36121  1  0  0  0
 38122  1  0  0  0
 39123  1  0  0  0
 40124  1  0  0  0
 41125  1  0  0  0
 42126  1  0  0  0
 43127  1  0  0  0
 44128  1  0  0  0
 47129  1  0  0  0
 47130  1  0  0  0
 48131  1  0  0  0
 48132  1  0  0  0
 49133  1  0  0  0
 49134  1  0  0  0
 50135  1  0  0  0
 51136  1  0  0  0
 54137  1  0  0  0
 54138  1  0  0  0
 55139  1  0  0  0
 55140  1  0  0  0
 58141  1  0  0  0
 58142  1  0  0  0
 59143  1  0  0  0
 60144  1  0  0  0
 63145  1  0  0  0
 64146  1  0  0  0
 64147  1  0  0  0
 65148  1  0  0  0
 65149  1  0  0  0
 65150  1  0  0  0
 66151  1  0  0  0
 66152  1  0  0  0
 66153  1  0  0  0
 67154  1  0  0  0
 68155  1  0  0  0
 71156  1  0  0  0
 72157  1  0  0  0
 73158  1  0  0  0
 73159  1  0  0  0
 73160  1  0  0  0
 74161  1  0  0  0
 75162  1  0  0  0
 78163  1  0  0  0
 78164  1  0  0  0
 78165  1  0  0  0
 79166  1  0  0  0
 80167  1  0  0  0
 83168  1  0  0  0
 83169  1  0  0  0
 83170  1  0  0  0
 84171  1  0  0  0
 84172  1  0  0  0
M  END
$$$$
