### 
### Created by X-TOOL on Mon Sep 10 21:12:53 2018
### 

@<TRIPOS>MOLECULE
2aoj_ligand
  172   174     1     0     0
SMALL
GAST_HUCK


@<TRIPOS>ATOM
      1 N          27.9820   27.2200   14.9440 N.4       1 VAL         0.2381
      2 CA         28.7650   28.3540   15.4060 C.3       1 VAL         0.0673
      3 C          28.2380   28.9960   16.6860 C.2       1 VAL         0.2270
      4 O          28.9730   29.0200   17.6940 O.2       1 VAL        -0.3907
      5 CB         28.8600   29.4880   14.3540 C.3       1 VAL         0.0139
      6 CG1        29.5240   30.6850   15.0180 C.3       1 VAL        -0.0553
      7 CG2        29.6230   29.0710   13.1290 C.3       1 VAL        -0.0553
      8 N          27.0840   29.5540   16.7480 N.am      1 SER        -0.2588
      9 CA         25.7710   29.6370   16.2370 C.3       1 SER         0.1540
     10 C          25.1470   28.2200   16.3180 C.2       1 SER         0.2063
     11 O          25.5740   27.3280   15.5790 O.2       1 SER        -0.3943
     12 CB         25.6580   30.1230   14.7850 C.3       1 SER         0.0843
     13 OG         24.7040   29.2380   14.1860 O.3       1 SER        -0.3903
     14 N          24.2110   28.1240   17.2550 N.am      1 PHE        -0.2619
     15 CA         23.4840   26.9090   17.5740 C.3       1 PHE         0.1404
     16 C          21.9920   27.1670   17.4280 C.2       1 PHE         0.2061
     17 O          21.4550   28.2230   17.7970 O.2       1 PHE        -0.3942
     18 CB         23.7220   26.3890   18.9990 C.3       1 PHE         0.0214
     19 CG         24.9360   25.4640   19.0550 C.ar      1 PHE        -0.0386
     20 CD1        26.2070   26.0150   19.0110 C.ar      1 PHE        -0.0601
     21 CD2        24.7830   24.0930   19.1400 C.ar      1 PHE        -0.0601
     22 CE1        27.3290   25.2040   19.0560 C.ar      1 PHE        -0.0686
     23 CE2        25.8970   23.2720   19.1930 C.ar      1 PHE        -0.0686
     24 CZ         27.1560   23.8360   19.1510 C.ar      1 PHE        -0.0687
     25 N          21.3460   26.1910   16.8160 N.am      1 ASN        -0.2615
     26 CA         19.9460   26.3470   16.4000 C.3       1 ASN         0.1475
     27 C          19.1600   25.0980   16.7780 C.2       1 ASN         0.2046
     28 O          19.4590   24.0610   16.1680 O.2       1 ASN        -0.3943
     29 CB         19.9190   26.6060   14.8840 C.3       1 ASN         0.0773
     30 CG         20.6430   27.9120   14.5520 C.2       1 ASN         0.1780
     31 OD1        20.0960   28.9750   14.8300 O.2       1 ASN        -0.3970
     32 ND2        21.8750   27.8450   14.0690 N.am      1 ASN        -0.3007
     33 N          18.2430   25.2060   17.7260 N.am      1 FRD        -0.2748
     34 CA         17.5250   24.0930   18.3280 C.3       1 FRD         0.0912
     35 C          16.0510   24.1550   17.9730 C.3       1 FRD        -0.0044
     36 CB         17.7730   24.0910   19.8500 C.3       1 FRD         0.0089
     37 CG         19.2470   23.9700   20.2090 C.ar      1 FRD        -0.0406
     38 CD1        19.9190   25.0110   20.8220 C.ar      1 FRD        -0.0603
     39 CD2        19.9360   22.8100   19.9090 C.ar      1 FRD        -0.0603
     40 CE1        21.2570   24.9060   21.1260 C.ar      1 FRD        -0.0686
     41 CE2        21.2780   22.6970   20.2220 C.ar      1 FRD        -0.0686
     42 CZ         21.9460   23.7390   20.8450 C.ar      1 FRD        -0.0687
     43 N          15.6460   23.8260   16.7340 N.4       1 PRO         0.2559
     44 CA         14.4160   23.0540   16.5460 C.3       1 PRO         0.0689
     45 C          14.5470   21.5860   16.9370 C.2       1 PRO         0.2268
     46 O          15.5780   20.9240   16.8240 O.2       1 PRO        -0.3907
     47 CB         14.1400   23.1390   15.0400 C.3       1 PRO         0.0128
     48 CG         15.4890   23.3970   14.4430 C.3       1 PRO        -0.0052
     49 CD         16.2520   24.2070   15.4540 C.3       1 PRO        -0.0294
     50 N          13.4310   21.0340   17.4070 N.am      1 GLN        -0.2609
     51 CA         13.4020   19.6030   17.7070 C.3       1 GLN         0.1331
     52 C          12.0100   19.0440   17.4780 C.2       1 GLN         0.2041
     53 O          11.0110   19.6830   17.8020 O.2       1 GLN        -0.3944
     54 CB         13.8390   19.3870   19.1570 C.3       1 GLN         0.0045
     55 CG         13.7160   17.9790   19.6860 C.3       1 GLN         0.0412
     56 CD         12.4160   17.6680   20.4120 C.2       1 GLN         0.1737
     57 OE1        11.7510   18.5520   20.9280 O.2       1 GLN        -0.3973
     58 NE2        12.0350   16.4010   20.3780 N.am      1 GLN        -0.3009
     59 N          11.9500   17.8050   16.9930 N.am      1 ILE        -0.2635
     60 CA         10.7440   16.9910   16.9700 C.3       1 ILE         0.1335
     61 C          10.9730   15.5220   17.3220 C.2       1 ILE         0.2042
     62 O          12.0430   14.9240   17.1770 O.2       1 ILE        -0.3944
     63 CB         10.0910   16.9840   15.5700 C.3       1 ILE        -0.0037
     64 CG1        10.8570   16.0430   14.6470 C.3       1 ILE        -0.0491
     65 CG2         9.9500   18.3820   15.0030 C.3       1 ILE        -0.0582
     66 CD1        10.2540   15.8840   13.2740 C.3       1 ILE        -0.0648
     67 N           9.8810   14.8850   17.8000 N.am      1 THR        -0.2613
     68 CA         10.0200   13.4760   18.1300 C.3       1 THR         0.1565
     69 C           9.8560   12.6210   16.8760 C.2       1 THR         0.2065
     70 O           8.9360   12.8970   16.1160 O.2       1 THR        -0.3943
     71 CB          8.9880   12.9620   19.1480 C.3       1 THR         0.0924
     72 OG1         9.3050   13.4530   20.4540 O.3       1 THR        -0.3874
     73 CG2         9.0480   11.4420   19.2400 C.3       1 THR        -0.0346
     74 N          10.7280   11.6580   16.7750 N.am      1 ALA        -0.2639
     75 CA         10.7290   10.3370   16.2290 C.3       1 ALA         0.1282
     76 C          11.2410   10.2930   14.7720 C.2       1 ALA         0.2036
     77 O          12.3240   10.8530   14.5800 O.2       1 ALA        -0.3944
     78 CB          9.3430    9.6830   16.2700 C.3       1 ALA        -0.0244
     79 N          10.4280    9.6570   13.9850 N.am      1 ALA        -0.2640
     80 CA         10.1600    9.0830   12.7100 C.3       1 ALA         0.1279
     81 C           9.2590    9.9030   11.7870 C.2       1 ALA         0.1989
     82 O           8.9700   11.0760   12.0660 O.2       1 ALA        -0.3947
     83 CB          9.4830    7.7200   12.9360 C.3       1 ALA        -0.0244
     84 N           8.8220    9.3530   10.7530 N.am      1 NH2        -0.2990
     85 H1         27.9534   26.5156   15.6645 H         1 VAL         0.2015
     86 H2         28.4055   26.8349   14.1143 H         1 VAL         0.2015
     87 H3         27.0441   27.5229   14.7329 H         1 VAL         0.2015
     88 H4         29.7803   27.9803   15.6046 H         1 VAL         0.1101
     89 H5         27.8422   29.7679   14.0446 H         1 VAL         0.0376
     90 H6         29.6052   31.5082   14.2929 H         1 VAL         0.0236
     91 H7         30.5286   30.4014   15.3648 H         1 VAL         0.0236
     92 H8         28.9182   31.0109   15.8764 H         1 VAL         0.0236
     93 H9         29.1270   28.2057   12.6650 H         1 VAL         0.0236
     94 H10        30.6498   28.7966   13.4123 H         1 VAL         0.0236
     95 H11        29.6508   29.9053   12.4126 H         1 VAL         0.0236
     96 H12        27.1397   30.2285   17.4842 H         1 SER         0.1885
     97 H13        25.1996   30.3291   16.8730 H         1 SER         0.0823
     98 H14        26.6294   30.0516   14.2740 H         1 SER         0.0606
     99 H15        25.3004   31.1626   14.7492 H         1 SER         0.0606
    100 H16        25.0254   28.3456   14.2381 H         1 SER         0.2097
    101 H17        23.9914   28.9475   17.7781 H         1 PHE         0.1885
    102 H18        23.7927   26.1289   16.8626 H         1 PHE         0.0823
    103 H19        22.8325   25.8337   19.3314 H         1 PHE         0.0474
    104 H20        23.8919   27.2445   19.6692 H         1 PHE         0.0474
    105 H21        26.3241   27.0904   18.9407 H         1 PHE         0.0557
    106 H22        23.7897   23.6598   19.1652 H         1 PHE         0.0557
    107 H23        28.3234   25.6338   19.0175 H         1 PHE         0.0599
    108 H24        25.7813   22.1967   19.2668 H         1 PHE         0.0599
    109 H25        28.0274   23.1926   19.1934 H         1 PHE         0.0559
    110 H26        21.8191   25.3293   16.6323 H         1 ASN         0.1885
    111 H27        19.5047   27.2114   16.9177 H         1 ASN         0.0826
    112 H28        18.8742   26.6752   14.5469 H         1 ASN         0.0551
    113 H29        20.4173   25.7737   14.3654 H         1 ASN         0.0551
    114 H30        22.3701   28.6842   13.8439 H         1 ASN         0.1814
    115 H31        22.3097   26.9553   13.9296 H         1 ASN         0.1814
    116 H32        18.0264   26.1253   18.0546 H         1 FRD         0.1859
    117 H33        17.9291   23.1560   17.9172 H         1 FRD         0.0632
    118 H34        15.7244   25.1904   18.1499 H         1 FRD         0.0839
    119 H35        15.5278   23.4817   18.6679 H         1 FRD         0.0839
    120 H36        17.2329   23.2411   20.2927 H         1 FRD         0.0450
    121 H37        17.3853   25.0308   20.2702 H         1 FRD         0.0450
    122 H38        19.3849   25.9221   21.0664 H         1 FRD         0.0557
    123 H39        19.4225   21.9861   19.4267 H         1 FRD         0.0557
    124 H40        21.7732   25.7402   21.5872 H         1 FRD         0.0599
    125 H41        21.8120   21.7857   19.9780 H         1 FRD         0.0599
    126 H42        22.9930   23.6415   21.1085 H         1 FRD         0.0559
    127 H43        16.2168   22.9964   16.7781 H         1 PRO         0.2056
    128 H44        13.5966   23.5080   17.1226 H         1 PRO         0.1100
    129 H45        13.4477   23.9635   14.8145 H         1 PRO         0.0347
    130 H46        13.7198   22.1942   14.6648 H         1 PRO         0.0347
    131 H47        15.3880   23.9592   13.5030 H         1 PRO         0.0320
    132 H48        16.0069   22.4464   14.2479 H         1 PRO         0.0320
    133 H49        17.3217   23.9512   15.4349 H         1 PRO         0.0815
    134 H50        16.1291   25.2840   15.2670 H         1 PRO         0.0815
    135 H51        12.6163   21.5949   17.5543 H         1 GLN         0.1885
    136 H52        14.1054   19.0825   17.0404 H         1 GLN         0.0801
    137 H53        13.2241   20.0399   19.7939 H         1 GLN         0.0337
    138 H54        14.8948   19.6849   19.2375 H         1 GLN         0.0337
    139 H55        14.5462   17.8055   20.3865 H         1 GLN         0.0504
    140 H56        13.8037   17.2875   18.8351 H         1 GLN         0.0504
    141 H57        11.1901   16.1206   20.8334 H         1 GLN         0.1814
    142 H58        12.5921   15.7241   19.8969 H         1 GLN         0.1814
    143 H59        12.7887   17.4081   16.6202 H         1 ILE         0.1883
    144 H60        10.0394   17.4220   17.6965 H         1 ILE         0.0803
    145 H61         9.0742   16.5792   15.6805 H         1 ILE         0.0345
    146 H62        10.8951   15.0517   15.1221 H         1 ILE         0.0267
    147 H63        11.8788   16.4331   14.5301 H         1 ILE         0.0267
    148 H64         9.3909   19.0105   15.7118 H         1 ILE         0.0235
    149 H65         9.4083   18.3369   14.0467 H         1 ILE         0.0235
    150 H66        10.9484   18.8136   14.8389 H         1 ILE         0.0235
    151 H67        10.8696   15.1915   12.6811 H         1 ILE         0.0230
    152 H68        10.2182   16.8629   12.7736 H         1 ILE         0.0230
    153 H69         9.2344   15.4815   13.3656 H         1 ILE         0.0230
    154 H70         9.0117   15.3640   17.9219 H         1 THR         0.1884
    155 H71        11.0272   13.3248   18.5456 H         1 THR         0.0826
    156 H72         7.9807   13.2878   18.8492 H         1 THR         0.0639
    157 H73         9.2914   14.4029   20.4459 H         1 THR         0.2101
    158 H74         8.3054   11.0893   19.9709 H         1 THR         0.0257
    159 H75        10.0538   11.1335   19.5613 H         1 THR         0.0257
    160 H76         8.8281   11.0060   18.2543 H         1 THR         0.0257
    161 H77        11.6105   11.9024   17.1769 H         1 ALA         0.1883
    162 H78        11.4092    9.7317   16.8463 H         1 ALA         0.0797
    163 H79         9.4015    8.6725   15.8394 H         1 ALA         0.0277
    164 H80         8.6340   10.2894   15.6872 H         1 ALA         0.0277
    165 H81         8.9990    9.6178   17.3128 H         1 ALA         0.0277
    166 H82         9.6047    9.4939   14.5286 H         1 ALA         0.1883
    167 H83        11.1222    8.9342   12.1982 H         1 ALA         0.0797
    168 H84         9.2644    7.2536   11.9641 H         1 ALA         0.0277
    169 H85         8.5453    7.8641   13.4927 H         1 ALA         0.0277
    170 H86        10.1553    7.0678   13.5127 H         1 ALA         0.0277
    171 H87         8.2300    9.8619   10.1280 H         1 NH2         0.1815
    172 H88         9.0644    8.4041   10.5508 H         1 NH2         0.1815
@<TRIPOS>BOND
     1    1    2 1  
     2    2    3 1  
     3    2    5 1  
     4    3    4 2  
     5    3    8 am 
     6    5    6 1  
     7    5    7 1  
     8    8    9 1  
     9    9   10 1  
    10    9   12 1  
    11   10   11 2  
    12   10   14 am 
    13   12   13 1  
    14   14   15 1  
    15   15   16 1  
    16   15   18 1  
    17   16   17 2  
    18   16   25 am 
    19   18   19 1  
    20   19   20 ar 
    21   19   21 ar 
    22   20   22 ar 
    23   21   23 ar 
    24   22   24 ar 
    25   23   24 ar 
    26   25   26 1  
    27   26   27 1  
    28   26   29 1  
    29   27   28 2  
    30   27   33 am 
    31   29   30 1  
    32   30   31 2  
    33   30   32 am 
    34   33   34 1  
    35   34   35 1  
    36   34   36 1  
    37   35   43 1  
    38   36   37 1  
    39   37   38 ar 
    40   37   39 ar 
    41   38   40 ar 
    42   39   41 ar 
    43   40   42 ar 
    44   41   42 ar 
    45   43   44 1  
    46   43   49 1  
    47   44   45 1  
    48   44   47 1  
    49   45   46 2  
    50   45   50 am 
    51   47   48 1  
    52   48   49 1  
    53   50   51 1  
    54   51   52 1  
    55   51   54 1  
    56   52   53 2  
    57   52   59 am 
    58   54   55 1  
    59   55   56 1  
    60   56   57 2  
    61   56   58 am 
    62   59   60 1  
    63   60   61 1  
    64   60   63 1  
    65   61   62 2  
    66   61   67 am 
    67   63   64 1  
    68   63   65 1  
    69   64   66 1  
    70   67   68 1  
    71   68   69 1  
    72   68   71 1  
    73   69   70 2  
    74   69   74 am 
    75   71   72 1  
    76   71   73 1  
    77   74   75 1  
    78   75   76 1  
    79   75   78 1  
    80   76   77 2  
    81   76   79 am 
    82   79   80 1  
    83   80   81 1  
    84   80   83 1  
    85   81   82 2  
    86   81   84 am 
    87    1   85 1  
    88    1   86 1  
    89    1   87 1  
    90    2   88 1  
    91    5   89 1  
    92    6   90 1  
    93    6   91 1  
    94    6   92 1  
    95    7   93 1  
    96    7   94 1  
    97    7   95 1  
    98    8   96 1  
    99    9   97 1  
   100   12   98 1  
   101   12   99 1  
   102   13  100 1  
   103   14  101 1  
   104   15  102 1  
   105   18  103 1  
   106   18  104 1  
   107   20  105 1  
   108   21  106 1  
   109   22  107 1  
   110   23  108 1  
   111   24  109 1  
   112   25  110 1  
   113   26  111 1  
   114   29  112 1  
   115   29  113 1  
   116   32  114 1  
   117   32  115 1  
   118   33  116 1  
   119   34  117 1  
   120   35  118 1  
   121   35  119 1  
   122   36  120 1  
   123   36  121 1  
   124   38  122 1  
   125   39  123 1  
   126   40  124 1  
   127   41  125 1  
   128   42  126 1  
   129   43  127 1  
   130   44  128 1  
   131   47  129 1  
   132   47  130 1  
   133   48  131 1  
   134   48  132 1  
   135   49  133 1  
   136   49  134 1  
   137   50  135 1  
   138   51  136 1  
   139   54  137 1  
   140   54  138 1  
   141   55  139 1  
   142   55  140 1  
   143   58  141 1  
   144   58  142 1  
   145   59  143 1  
   146   60  144 1  
   147   63  145 1  
   148   64  146 1  
   149   64  147 1  
   150   65  148 1  
   151   65  149 1  
   152   65  150 1  
   153   66  151 1  
   154   66  152 1  
   155   66  153 1  
   156   67  154 1  
   157   68  155 1  
   158   71  156 1  
   159   72  157 1  
   160   73  158 1  
   161   73  159 1  
   162   73  160 1  
   163   74  161 1  
   164   75  162 1  
   165   78  163 1  
   166   78  164 1  
   167   78  165 1  
   168   79  166 1  
   169   80  167 1  
   170   83  168 1  
   171   83  169 1  
   172   83  170 1  
   173   84  171 1  
   174   84  172 1  
@<TRIPOS>SUBSTRUCTURE
     1 VAL         1

