6op9_ligand
  -I-interpret- 

 67 70  0  0  0  0  0  0  0  0999 V2000
  -52.5580  -16.3930   13.3490 C   0  0  0  0  0
  -43.5090  -15.6330   12.9320 O   0  0  0  0  0
  -55.9110  -12.3080   14.4150 C   0  0  0  0  0
  -45.2170  -13.0730   10.0350 N   0  0  0  0  0
  -42.5190  -17.3270   10.8120 Cl  0  0  0  0  0
  -47.6290  -17.1700    8.9250 Cl  0  0  0  0  0
  -46.2440  -13.0370   10.5110 C   0  0  0  0  0
  -47.8280  -11.7700   11.2840 C   0  0  0  0  0
  -45.2270  -17.1300   10.0000 C   0  0  0  0  0
  -45.7970  -15.5080   12.2040 C   0  0  0  0  0
  -51.2030  -11.7780   12.8050 C   0  0  0  0  0
  -50.6990  -14.5300   12.5300 C   0  0  0  0  0
  -55.4490  -11.2870   13.3650 C   0  0  0  0  0
  -53.9170  -11.2070   13.3770 C   0  0  0  0  0
  -59.4780  -10.5040   18.3510 C   0  0  0  0  0
  -56.9320  -12.6050   16.5370 C   0  0  0  0  0
  -57.7590  -10.9100   15.0260 C   0  0  0  0  0
  -57.7360  -11.9740   17.6750 C   0  0  0  0  0
  -58.5440  -10.2490   16.1670 C   0  0  0  0  0
  -49.0020  -11.3030   11.8340 N   0  0  0  0  0
  -48.1770  -15.4030   11.3740 N   0  0  0  0  0
  -52.8770  -15.0320   13.5200 O   0  0  0  0  0
  -53.4000  -12.4500   13.7800 O   0  0  0  0  0
  -44.5180  -15.9730   12.0160 C   0  0  0  0  0
  -44.2260  -16.7870   10.9350 C   0  0  0  0  0
  -46.5160  -16.6380   10.2100 C   0  0  0  0  0
  -47.6240  -13.1670   11.1530 C   0  0  0  0  0
  -46.7870  -15.8360   11.3000 C   0  0  0  0  0
  -51.9040  -14.1060   13.0800 C   0  0  0  0  0
  -52.1470  -12.7260   13.2140 C   0  0  0  0  0
  -48.5800  -14.0230   11.5770 C   0  0  0  0  0
  -49.9750  -12.2040   12.2490 C   0  0  0  0  0
  -49.7490  -13.5650   12.1230 C   0  0  0  0  0
  -56.5840  -11.6260   15.5170 N   0  3  0  0  0
  -58.8820  -11.2000   17.2180 N   0  3  0  0  0
  -43.9140  -14.7900   13.9790 C   0  0  0  0  0
  -52.4021  -16.5980   12.2899 H   0  0  0  0  0
  -51.6481  -16.6239   13.9029 H   0  0  0  0  0
  -53.3778  -17.0067   13.7224 H   0  0  0  0  0
  -55.0424  -12.8410   14.8017 H   0  0  0  0  0
  -56.6052  -13.0087   13.9510 H   0  0  0  0  0
  -47.0613  -11.0701   10.9519 H   0  0  0  0  0
  -44.9998  -17.7601    9.1401 H   0  0  0  0  0
  -46.0294  -14.8815   13.0651 H   0  0  0  0  0
  -51.4136  -10.7142   12.9147 H   0  0  0  0  0
  -50.4895  -15.5934   12.4141 H   0  0  0  0  0
  -55.8677  -10.3081   13.5984 H   0  0  0  0  0
  -55.7908  -11.5981   12.3778 H   0  0  0  0  0
  -53.5938  -10.4308   14.0707 H   0  0  0  0  0
  -53.5528  -10.9622   12.3793 H   0  0  0  0  0
  -59.8027  -11.2329   19.0936 H   0  0  0  0  0
  -58.7398   -9.8358   18.7945 H   0  0  0  0  0
  -60.3357   -9.9246   18.0095 H   0  0  0  0  0
  -57.5419  -13.3811   16.0746 H   0  0  0  0  0
  -56.0097  -13.0115   16.9521 H   0  0  0  0  0
  -57.4231  -10.1285   14.3445 H   0  0  0  0  0
  -58.4140  -11.6268   14.5308 H   0  0  0  0  0
  -57.0717  -11.2926   18.2065 H   0  0  0  0  0
  -58.1156  -12.7850   18.2965 H   0  0  0  0  0
  -59.4716   -9.8499   15.7566 H   0  0  0  0  0
  -57.9211   -9.4672   16.6016 H   0  0  0  0  0
  -48.9071  -16.1088   11.2778 H   0  0  0  0  0
  -55.9623  -10.9329   15.9335 H   0  0  0  0  0
  -59.5498  -11.8559   16.8127 H   0  0  0  0  0
  -44.2883  -13.8534   13.5656 H   0  0  0  0  0
  -44.7034  -15.2772   14.5514 H   0  0  0  0  0
  -43.0637  -14.5872   14.6301 H   0  0  0  0  0
 22  1  1  0  0  0
 24  2  1  0  0  0
  2 36  1  0  0  0
 13  3  1  0  0  0
  3 34  1  0  0  0
  7  4  3  0  0  0
 25  5  1  0  0  0
 26  6  1  0  0  0
 27  7  1  0  0  0
 20  8  4  0  0  0
  8 27  4  0  0  0
  9 25  4  0  0  0
 26  9  4  0  0  0
 10 24  4  0  0  0
 28 10  4  0  0  0
 30 11  4  0  0  0
 11 32  4  0  0  0
 29 12  4  0  0  0
 12 33  4  0  0  0
 14 13  1  0  0  0
 23 14  1  0  0  0
 35 15  1  0  0  0
 16 18  1  0  0  0
 34 16  1  0  0  0
 17 19  1  0  0  0
 34 17  1  0  0  0
 18 35  1  0  0  0
 19 35  1  0  0  0
 32 20  4  0  0  0
 21 28  1  0  0  0
 31 21  1  0  0  0
 29 22  1  0  0  0
 30 23  1  0  0  0
 24 25  4  0  0  0
 28 26  4  0  0  0
 27 31  4  0  0  0
 29 30  4  0  0  0
 31 33  4  0  0  0
 32 33  4  0  0  0
  1 37  1  0  0  0
  1 38  1  0  0  0
  1 39  1  0  0  0
  3 40  1  0  0  0
  3 41  1  0  0  0
  8 42  1  0  0  0
  9 43  1  0  0  0
 10 44  1  0  0  0
 11 45  1  0  0  0
 12 46  1  0  0  0
 13 47  1  0  0  0
 13 48  1  0  0  0
 14 49  1  0  0  0
 14 50  1  0  0  0
 15 51  1  0  0  0
 15 52  1  0  0  0
 15 53  1  0  0  0
 16 54  1  0  0  0
 16 55  1  0  0  0
 17 56  1  0  0  0
 17 57  1  0  0  0
 18 58  1  0  0  0
 18 59  1  0  0  0
 19 60  1  0  0  0
 19 61  1  0  0  0
 21 62  1  0  0  0
 34 63  1  0  0  0
 35 64  1  0  0  0
 36 65  1  0  0  0
 36 66  1  0  0  0
 36 67  1  0  0  0
M  END
$$$$
