4ju3_ligand
  -I-interpret- 

 47 49  0  0  0  0  0  0  0  0999 V2000
  -27.4370   47.6420   55.5520 C   0  0  0  0  0
  -27.9100   47.6400   54.2140 C   0  0  0  0  0
  -27.9150   48.8420   53.4390 C   0  0  0  0  0
  -27.4390   50.0530   54.0130 C   0  0  0  0  0
  -26.9660   50.0710   55.3480 C   0  0  0  0  0
  -26.9620   48.8590   56.1160 C   0  0  0  0  0
  -26.3630   48.8770   57.8020 S   0  0  0  0  0
  -26.4050   50.2600   58.2850 O   0  0  0  0  0
  -27.1730   47.8840   58.4950 O   0  0  0  0  0
  -24.7170   48.2860   57.7400 N   0  0  0  0  0
  -23.7400   48.8420   56.8080 C   0  0  0  0  0
  -22.8500   47.9900   56.0400 C   0  0  0  0  0
  -21.9100   48.5930   55.1420 C   0  0  0  0  0
  -21.8660   50.0070   54.9540 C   0  0  0  0  0
  -22.7540   50.8320   55.7150 C   0  0  0  0  0
  -23.6840   50.2530   56.6130 C   0  0  0  0  0
  -22.8800   46.5120   56.2120 C   0  0  0  0  0
  -21.7780   45.8770   55.7670 O   0  0  0  0  0
  -23.8090   45.8880   56.7050 O   0  0  0  0  0
  -20.9060   50.3940   54.0290 O   0  0  0  0  0
  -20.5260   51.8040   54.1060 C   0  0  0  0  0
  -21.0310   52.7390   53.1280 C   0  0  0  0  0
  -20.6520   54.1310   53.2000 C   0  0  0  0  0
  -19.7660   54.5930   54.2540 C   0  0  0  0  0
  -19.2620   53.6490   55.2310 C   0  0  0  0  0
  -19.6350   52.2660   55.1600 C   0  0  0  0  0
  -19.3880   55.9140   54.3310 C   0  0  0  0  0
  -28.4170   48.8250   52.0310 C   0  0  0  0  0
  -18.2450   56.3280   54.5890 O   0  0  0  0  0
  -20.4100   56.7490   54.0830 O   0  0  0  0  0
  -27.4376   46.7239   56.1396 H   0  0  0  0  0
  -28.2735   46.7122   53.7721 H   0  0  0  0  0
  -27.4382   50.9700   53.4238 H   0  0  0  0  0
  -26.6070   51.0006   55.7896 H   0  0  0  0  0
  -24.4334   47.5354   58.3698 H   0  0  0  0  0
  -21.2148   47.9591   54.5916 H   0  0  0  0  0
  -22.7143   51.9155   55.6026 H   0  0  0  0  0
  -24.3686   50.8975   57.1644 H   0  0  0  0  0
  -21.1590   46.5210   55.4153 H   0  0  0  0  0
  -21.6971   52.3948   52.3368 H   0  0  0  0  0
  -21.0320   54.8366   52.4612 H   0  0  0  0  0
  -18.5965   53.9915   56.0234 H   0  0  0  0  0
  -19.2507   51.5601   55.8963 H   0  0  0  0  0
  -27.8154   48.1340   51.4405 H   0  0  0  0  0
  -29.4580   48.5019   52.0216 H   0  0  0  0  0
  -28.3423   49.8267   51.6079 H   0  0  0  0  0
  -21.2036   56.2382   53.9071 H   0  0  0  0  0
  1  2  4  0  0  0
  1  6  4  0  0  0
  2  3  4  0  0  0
  3  4  4  0  0  0
  3 28  1  0  0  0
  4  5  4  0  0  0
  5  6  4  0  0  0
  6  7  1  0  0  0
  7  8  2  0  0  0
  7  9  2  0  0  0
  7 10  1  0  0  0
 10 11  1  0  0  0
 11 12  4  0  0  0
 11 16  4  0  0  0
 12 13  4  0  0  0
 12 17  1  0  0  0
 13 14  4  0  0  0
 14 15  4  0  0  0
 14 20  1  0  0  0
 15 16  4  0  0  0
 17 18  1  0  0  0
 17 19  2  0  0  0
 20 21  1  0  0  0
 21 22  4  0  0  0
 21 26  4  0  0  0
 22 23  4  0  0  0
 23 24  4  0  0  0
 24 25  4  0  0  0
 24 27  1  0  0  0
 25 26  4  0  0  0
 27 29  2  0  0  0
 27 30  1  0  0  0
  1 31  1  0  0  0
  2 32  1  0  0  0
  4 33  1  0  0  0
  5 34  1  0  0  0
 10 35  1  0  0  0
 13 36  1  0  0  0
 15 37  1  0  0  0
 16 38  1  0  0  0
 18 39  1  0  0  0
 22 40  1  0  0  0
 23 41  1  0  0  0
 25 42  1  0  0  0
 26 43  1  0  0  0
 28 44  1  0  0  0
 28 45  1  0  0  0
 28 46  1  0  0  0
 30 47  1  0  0  0
M  END
$$$$
