6fng_ligand
  -I-interpret- 

 57 61  0  0  0  0  0  0  0  0999 V2000
 -109.0820  -11.8780   50.3750 F   0  0  0  0  0
 -108.9400  -11.7820   51.6550 C   0  0  0  0  0
 -107.8940  -11.0240   51.8700 F   0  0  0  0  0
 -110.0170  -11.1530   52.1660 F   0  0  0  0  0
 -108.7640  -13.0600   52.2460 C   0  0  0  0  0
 -107.9710  -14.0370   51.6170 C   0  0  0  0  0
 -109.3400  -13.3630   53.4810 C   0  0  0  0  0
 -109.1370  -14.6160   54.0630 C   0  0  0  0  0
 -108.3620  -15.5780   53.4180 C   0  0  0  0  0
 -107.7470  -15.3050   52.1950 C   0  0  0  0  0
 -107.0270  -16.3170   51.6150 N   0  0  0  0  0
 -106.0110  -16.1300   50.7220 C   0  0  0  0  0
 -105.6520  -15.0070   50.3340 O   0  0  0  0  0
 -105.5050  -17.2870   50.0670 C   0  0  0  0  0
 -104.5550  -17.1180   49.0560 C   0  0  0  0  0
 -105.9780  -18.5920   50.2850 C   0  0  0  0  0
 -105.4770  -19.6680   49.5370 C   0  0  0  0  0
 -104.5170  -19.4870   48.5400 C   0  0  0  0  0
 -104.0300  -20.5900   47.8070 C   0  0  0  0  0
 -104.0430  -18.1880   48.3210 C   0  0  0  0  0
 -103.1340  -17.9890   47.3400 N   0  0  0  0  0
 -101.8000  -17.7940   47.5030 C   0  0  0  0  0
 -101.1390  -17.2810   46.4500 N   0  0  0  0  0
 -101.1130  -18.1160   48.6320 C   0  0  0  0  0
 -101.3900  -18.6190   49.8480 C   0  0  0  0  0
 -100.2460  -18.6950   50.5430 N   0  0  0  0  0
 -100.0450  -19.1760   51.9370 C   0  0  0  0  0
  -99.3030  -18.2690   49.8480 N   0  0  0  0  0
  -99.7800  -17.9040   48.6600 C   0  0  0  0  0
  -99.1290  -17.3960   47.6040 N   0  0  0  0  0
  -99.8080  -17.0940   46.4930 C   0  0  0  0  0
  -99.1570  -16.5190   45.3970 C   0  0  0  0  0
  -97.7780  -16.3420   45.3730 C   0  0  0  0  0
  -97.1780  -15.7320   44.2740 C   0  0  0  0  0
  -97.9440  -15.2780   43.2090 C   0  0  0  0  0
  -99.3230  -15.4330   43.2290 N   0  0  0  0  0
  -99.9120  -16.0460   44.3370 C   0  0  0  0  0
 -107.5155  -13.8077   50.6536 H   0  0  0  0  0
 -109.9503  -12.6189   53.9928 H   0  0  0  0  0
 -109.5880  -14.8433   55.0289 H   0  0  0  0  0
 -108.2341  -16.5590   53.8757 H   0  0  0  0  0
 -107.2666  -17.2757   51.8678 H   0  0  0  0  0
 -104.2004  -16.1117   48.8330 H   0  0  0  0  0
 -106.7414  -18.7701   51.0424 H   0  0  0  0  0
 -105.8475  -20.6728   49.7400 H   0  0  0  0  0
 -103.5645  -21.3011   48.4894 H   0  0  0  0  0
 -104.8572  -21.0723   47.2862 H   0  0  0  0  0
 -103.2934  -20.2456   47.0811 H   0  0  0  0  0
 -103.4852  -17.9849   46.3824 H   0  0  0  0  0
 -102.3758  -18.9144   50.2071 H   0  0  0  0  0
 -100.6297  -18.5601   52.6204 H   0  0  0  0  0
 -100.3702  -20.2136   52.0124 H   0  0  0  0  0
  -98.9885  -19.1053   52.1956 H   0  0  0  0  0
  -97.1687  -16.6795   46.2114 H   0  0  0  0  0
  -96.0951  -15.6098   44.2499 H   0  0  0  0  0
  -97.4621  -14.7995   42.3565 H   0  0  0  0  0
 -100.9961  -16.1551   44.3682 H   0  0  0  0  0
  1  2  1  0  0  0
  2  3  1  0  0  0
  2  4  1  0  0  0
  2  5  1  0  0  0
  5  6  4  0  0  0
  5  7  4  0  0  0
  6 10  4  0  0  0
  7  8  4  0  0  0
  8  9  4  0  0  0
  9 10  4  0  0  0
 10 11  1  0  0  0
 11 12  1  0  0  0
 12 13  2  0  0  0
 12 14  1  0  0  0
 14 15  4  0  0  0
 14 16  4  0  0  0
 15 20  4  0  0  0
 16 17  4  0  0  0
 17 18  4  0  0  0
 18 19  1  0  0  0
 18 20  4  0  0  0
 20 21  1  0  0  0
 21 22  1  0  0  0
 22 23  4  0  0  0
 22 24  4  0  0  0
 23 31  4  0  0  0
 24 25  4  0  0  0
 24 29  4  0  0  0
 25 26  4  0  0  0
 26 27  1  0  0  0
 26 28  4  0  0  0
 28 29  4  0  0  0
 29 30  4  0  0  0
 30 31  4  0  0  0
 31 32  1  0  0  0
 32 33  4  0  0  0
 32 37  4  0  0  0
 33 34  4  0  0  0
 34 35  4  0  0  0
 35 36  4  0  0  0
 36 37  4  0  0  0
  6 38  1  0  0  0
  7 39  1  0  0  0
  8 40  1  0  0  0
  9 41  1  0  0  0
 11 42  1  0  0  0
 15 43  1  0  0  0
 16 44  1  0  0  0
 17 45  1  0  0  0
 19 46  1  0  0  0
 19 47  1  0  0  0
 19 48  1  0  0  0
 21 49  1  0  0  0
 25 50  1  0  0  0
 27 51  1  0  0  0
 27 52  1  0  0  0
 27 53  1  0  0  0
 33 54  1  0  0  0
 34 55  1  0  0  0
 35 56  1  0  0  0
 37 57  1  0  0  0
M  END
$$$$
