4m6p_ligand
  -I-interpret- 

 43 46  0  0  0  0  0  0  0  0999 V2000
   17.6850    3.5980   -3.8450 C   0  0  0  0  0
   17.5010    3.3580   -2.4850 C   0  0  0  0  0
   16.4510    3.9610   -1.8100 C   0  0  0  0  0
   15.5700    4.7930   -2.4980 C   0  0  0  0  0
   15.7430    5.0070   -3.8670 C   0  0  0  0  0
   16.8090    4.4040   -4.5560 C   0  0  0  0  0
   14.2320    5.5040   -1.5650 S   0  0  0  0  0
   13.7730    4.4110   -0.7400 O   0  0  0  0  0
   13.2850    6.0960   -2.4500 O   0  0  0  0  0
   15.0480    6.6720   -0.5330 C   0  0  0  0  0
   15.4620    7.8900   -1.0040 C   0  0  0  0  0
   16.1410    8.7690   -0.1970 C   0  0  0  0  0
   16.4220    8.4250    1.0980 C   0  0  0  0  0
   16.0390    7.2050    1.5630 C   0  0  0  0  0
   15.3410    6.3350    0.7620 C   0  0  0  0  0
   17.2320    9.3510    1.9690 C   0  0  0  0  0
   16.7410    9.5340    3.3570 N   0  0  0  0  0
   15.6900   10.3260    3.4400 C   0  0  0  0  0
   15.1650   10.7910    2.4160 O   0  0  0  0  0
   15.1110   10.5780    4.7700 C   0  0  0  0  0
   15.6610   10.0220    5.9260 C   0  0  0  0  0
   15.0360   10.3260    7.1380 C   0  0  0  0  0
   15.2440    9.9510    8.5180 C   0  0  0  0  0
   14.2960   10.5130    9.2100 N   0  0  0  0  0
   13.4960   11.3300    8.4160 N   0  0  0  0  0
   13.9110   11.1850    7.1290 C   0  0  0  0  0
   13.4600   11.6970    6.0080 N   0  0  0  0  0
   14.0110   11.4050    4.8480 C   0  0  0  0  0
   18.5323    3.1443   -4.3590 H   0  0  0  0  0
   18.1829    2.6958   -1.9515 H   0  0  0  0  0
   16.3148    3.7846   -0.7430 H   0  0  0  0  0
   15.0449    5.6475   -4.4060 H   0  0  0  0  0
   16.9442    4.5662   -5.6253 H   0  0  0  0  0
   15.2488    8.1659   -2.0367 H   0  0  0  0  0
   16.4553    9.7375   -0.5860 H   0  0  0  0  0
   16.2892    6.9148    2.5834 H   0  0  0  0  0
   15.0187    5.3721    1.1584 H   0  0  0  0  0
   17.1874   10.3324    1.4967 H   0  0  0  0  0
   18.2231    8.9048    2.0513 H   0  0  0  0  0
   17.1738    9.0908    4.1673 H   0  0  0  0  0
   16.5399    9.3786    5.8850 H   0  0  0  0  0
   16.0425    9.3182    8.9053 H   0  0  0  0  0
   13.5901   11.8244    3.9342 H   0  0  0  0  0
  1  2  4  0  0  0
  1  6  4  0  0  0
  2  3  4  0  0  0
  3  4  4  0  0  0
  4  5  4  0  0  0
  4  7  1  0  0  0
  5  6  4  0  0  0
  7  8  2  0  0  0
  7  9  2  0  0  0
  7 10  1  0  0  0
 10 11  4  0  0  0
 10 15  4  0  0  0
 11 12  4  0  0  0
 12 13  4  0  0  0
 13 14  4  0  0  0
 13 16  1  0  0  0
 14 15  4  0  0  0
 16 17  1  0  0  0
 17 18  1  0  0  0
 18 19  2  0  0  0
 18 20  1  0  0  0
 20 21  4  0  0  0
 20 28  4  0  0  0
 21 22  4  0  0  0
 22 23  4  0  0  0
 22 26  4  0  0  0
 23 24  4  0  0  0
 24 25  4  0  0  0
 25 26  4  0  0  0
 26 27  4  0  0  0
 27 28  4  0  0  0
  1 29  1  0  0  0
  2 30  1  0  0  0
  3 31  1  0  0  0
  5 32  1  0  0  0
  6 33  1  0  0  0
 11 34  1  0  0  0
 12 35  1  0  0  0
 14 36  1  0  0  0
 15 37  1  0  0  0
 16 38  1  0  0  0
 16 39  1  0  0  0
 17 40  1  0  0  0
 21 41  1  0  0  0
 23 42  1  0  0  0
 28 43  1  0  0  0
M  END
$$$$
