5ezg_ligand
  -I-interpret- 

 44 46  0  0  0  0  0  0  0  0999 V2000
   29.9800    4.7120   -4.5790 C   0  0  0  0  0
   28.7370    4.8030   -3.9540 C   0  0  0  0  0
   28.6610    7.0370   -4.6740 C   0  0  0  0  0
   26.5090    8.2320   -4.1440 C   0  0  0  0  0
   26.4730    9.2310   -2.9710 C   0  0  0  0  0
   27.1970   10.5740   -3.3440 C   0  0  0  0  0
   28.5580    9.4750   -5.1910 C   0  0  0  0  0
   27.1450   11.4460   -2.0960 C   0  0  0  0  0
   27.9170   13.6090   -1.2300 C   0  0  0  0  0
   30.0100   16.6460   -1.1710 C   0  0  0  0  0
   29.0600   15.7150   -0.4640 C   0  0  0  0  0
   27.6710   13.1930   -0.0670 O   0  0  0  0  0
   28.5530   14.7800   -1.4810 N   0  0  0  0  0
   29.5270   16.6170   -2.6200 C   0  0  0  0  0
   28.9650   15.2150   -2.7790 C   0  0  0  0  0
   27.6670   12.8020   -2.2710 N   0  0  0  0  0
   28.6410   10.3700   -3.9350 C   0  0  0  0  0
   27.8780    8.2770   -4.6980 N   0  0  0  0  0
   29.8520    6.9760   -5.3390 N   0  0  0  0  0
   30.5620    5.7910   -5.2940 C   0  0  0  0  0
   28.1030    5.9990   -4.0220 N   0  0  0  0  0
   30.5282    3.7720   -4.5158 H   0  0  0  0  0
   28.2958    3.9521   -3.4350 H   0  0  0  0  0
   25.7737    8.4980   -4.9034 H   0  0  0  0  0
   26.2598    7.2263   -3.8055 H   0  0  0  0  0
   26.9860    8.7849   -2.1190 H   0  0  0  0  0
   25.4321    9.4516   -2.7345 H   0  0  0  0  0
   26.6860   11.0725   -4.1677 H   0  0  0  0  0
   29.5362    9.2586   -5.6205 H   0  0  0  0  0
   28.0279    9.9523   -6.0152 H   0  0  0  0  0
   27.7697   10.9614   -1.3457 H   0  0  0  0  0
   26.0944   11.5447   -1.8230 H   0  0  0  0  0
   31.0501   16.3357   -1.0714 H   0  0  0  0  0
   30.0019   17.6507   -0.7483 H   0  0  0  0  0
   28.2426   16.2693   -0.0028 H   0  0  0  0  0
   29.5655   15.1795    0.3397 H   0  0  0  0  0
   30.3256   16.8298   -3.3307 H   0  0  0  0  0
   28.7871   17.3896   -2.8291 H   0  0  0  0  0
   28.1232   15.2132   -3.4715 H   0  0  0  0  0
   29.7176   14.5422   -3.1903 H   0  0  0  0  0
   27.8463   13.1440   -3.2151 H   0  0  0  0  0
   29.2762    9.8928   -3.1887 H   0  0  0  0  0
   29.0647   11.3375   -4.2043 H   0  0  0  0  0
   31.5287    5.6894   -5.7872 H   0  0  0  0  0
  2  1  4  0  0  0
  1 20  4  0  0  0
 21  2  4  0  0  0
 18  3  1  0  0  0
  3 19  4  0  0  0
  3 21  4  0  0  0
  5  4  1  0  0  0
  4 18  1  0  0  0
  6  5  1  0  0  0
  8  6  1  0  0  0
  6 17  1  0  0  0
 17  7  1  0  0  0
  7 18  1  0  0  0
 16  8  1  0  0  0
  9 12  2  0  0  0
 13  9  1  0  0  0
  9 16  1  0  0  0
 11 10  1  0  0  0
 10 14  1  0  0  0
 11 13  1  0  0  0
 13 15  1  0  0  0
 14 15  1  0  0  0
 19 20  4  0  0  0
  1 22  1  0  0  0
  2 23  1  0  0  0
  4 24  1  0  0  0
  4 25  1  0  0  0
  5 26  1  0  0  0
  5 27  1  0  0  0
  6 28  1  0  0  0
  7 29  1  0  0  0
  7 30  1  0  0  0
  8 31  1  0  0  0
  8 32  1  0  0  0
 10 33  1  0  0  0
 10 34  1  0  0  0
 11 35  1  0  0  0
 11 36  1  0  0  0
 14 37  1  0  0  0
 14 38  1  0  0  0
 15 39  1  0  0  0
 15 40  1  0  0  0
 16 41  1  0  0  0
 17 42  1  0  0  0
 17 43  1  0  0  0
 20 44  1  0  0  0
M  END
$$$$
