1d7j_ligand
  -I-interpret- 

 14 13  0  0  0  0  0  0  0  0999 V2000
   60.8010   -6.0610   -1.8860 C   0  0  0  0  0
   60.6140   -5.5790   -0.4640 C   0  0  0  0  0
   60.4980   -6.4210    0.4290 O   0  0  0  0  0
   60.5610   -4.0930   -0.1430 C   0  0  0  0  0
   60.2240   -3.2290   -1.3580 C   0  0  0  0  0
   59.0760   -3.5710   -2.1240 O   0  0  0  0  0
   61.7079   -6.6625   -1.9481 H   0  0  0  0  0
   59.9422   -6.6647   -2.1795 H   0  0  0  0  0
   60.8871   -5.2018   -2.5512 H   0  0  0  0  0
   61.5477   -3.7953    0.2118 H   0  0  0  0  0
   59.7766   -3.9421    0.5987 H   0  0  0  0  0
   61.0689   -3.3437   -2.0371 H   0  0  0  0  0
   60.0189   -2.2360   -0.9581 H   0  0  0  0  0
   58.9819   -2.9516   -2.8514 H   0  0  0  0  0
  2  1  1  0  0  0
  2  4  1  0  0  0
  2  3  2  0  0  0
  4  5  1  0  0  0
  5  6  1  0  0  0
  1  7  1  0  0  0
  1  8  1  0  0  0
  1  9  1  0  0  0
  4 10  1  0  0  0
  4 11  1  0  0  0
  5 12  1  0  0  0
  5 13  1  0  0  0
  6 14  1  0  0  0
M  END
$$$$
