6ny0_ligand
  -I-interpret- 

 20 19  0  0  0  0  0  0  0  0999 V2000
    3.8920   -1.1820    2.7970 C   0  0  0  0  0
   -0.5440    0.0400    3.8950 C   0  0  0  0  0
    3.0470   -0.0940    3.0130 O   0  0  0  0  0
    1.8240   -0.3350    3.7000 C   0  0  0  0  0
    0.5960    0.0770    2.8820 C   0  0  0  0  0
    0.6350    1.4160    2.3140 O   0  0  0  0  0
   -1.8170   -0.1740    3.2600 O   0  0  0  0  0
   -2.7590    0.8030    3.3570 C   0  0  0  0  0
    4.1806   -1.6123    3.7560 H   0  0  0  0  0
    3.3711   -1.9326    2.2026 H   0  0  0  0  0
    4.7825   -0.8486    2.2642 H   0  0  0  0  0
   -0.5755    1.0000    4.4102 H   0  0  0  0  0
   -0.3625   -0.7843    4.5847 H   0  0  0  0  0
    1.8313    0.2577    4.6147 H   0  0  0  0  0
    1.7538   -1.4054    3.8934 H   0  0  0  0  0
    0.5098   -0.5894    2.0237 H   0  0  0  0  0
   -0.1740    1.5779    1.8232 H   0  0  0  0  0
   -2.9946    0.9758    4.4071 H   0  0  0  0  0
   -2.3749    1.7216    2.9135 H   0  0  0  0  0
   -3.6596    0.4915    2.8278 H   0  0  0  0  0
  3  1  1  0  0  0
  5  2  1  0  0  0
  2  7  1  0  0  0
  4  3  1  0  0  0
  4  5  1  0  0  0
  5  6  1  0  0  0
  7  8  1  0  0  0
  1  9  1  0  0  0
  1 10  1  0  0  0
  1 11  1  0  0  0
  2 12  1  0  0  0
  2 13  1  0  0  0
  4 14  1  0  0  0
  4 15  1  0  0  0
  5 16  1  0  0  0
  6 17  1  0  0  0
  8 18  1  0  0  0
  8 19  1  0  0  0
  8 20  1  0  0  0
M  END
$$$$
