### 
### Created by X-TOOL on Mon Sep 10 21:12:56 2018
### 

@<TRIPOS>MOLECULE
2uxx_ligand
  106   113     1     0     0
SMALL
GAST_HUCK


@<TRIPOS>ATOM
      1 O4         70.0700   56.7020   35.3830 O.2       1 FAJ        -0.3310
      2 O2         69.3920   56.4680   30.9180 O.2       1 FAJ        -0.3910
      3 C4         69.2620   56.8020   34.4660 C.2       1 FAJ         0.2584
      4 N3         69.6420   56.3450   33.1950 N.am      1 FAJ        -0.1823
      5 C2         69.0420   56.8590   32.0350 C.2       1 FAJ         0.2897
      6 N1         68.0340   57.8230   32.1560 N.am      1 FAJ        -0.2442
      7 C10        67.6380   58.3000   33.4210 C.3       1 FAJ         0.1552
      8 C4A        67.8620   57.4310   34.6830 C.3       1 FAJ         0.1884
      9 N5         67.7520   58.2310   35.9480 N.pl3     1 FAJ        -0.2776
     10 C5A        67.3210   59.5630   35.9230 C.ar      1 FAJ         0.0478
     11 C6         67.2170   60.2210   37.1450 C.ar      1 FAJ        -0.0600
     12 C7         66.7890   61.5380   37.2120 C.ar      1 FAJ        -0.0686
     13 C7M        66.7040   62.1980   38.5880 C.3       1 FAJ        -0.0426
     14 C8         66.4510   62.2140   36.0350 C.ar      1 FAJ        -0.0686
     15 C8M        65.9710   63.6660   36.0490 C.3       1 FAJ        -0.0426
     16 C9         66.5470   61.5550   34.8150 C.ar      1 FAJ        -0.0599
     17 C9A        66.9760   60.2270   34.7450 C.ar      1 FAJ         0.0481
     18 N10        67.0670   59.5720   33.5010 N.pl3     1 FAJ        -0.2923
     19 P          66.6620   65.4290   26.8730 P.3       1 FAJ         0.2972
     20 O1P        67.6470   66.2030   26.0930 O.co2     1 FAJ        -0.6127
     21 O2P        65.5110   64.7880   26.2020 O.co2     1 FAJ        -0.6127
     22 O3P        66.0220   66.3900   27.9820 O.3       1 FAJ        -0.1319
     23 C3B        66.6980   56.4170   34.9070 C.3       1 FAJ         0.0335
     24 CB1        66.8000   55.0700   34.1600 C.ar      1 FAJ        -0.0383
     25 CB2        67.5970   54.0250   34.6480 C.ar      1 FAJ        -0.0601
     26 CB3        67.6580   52.8090   33.9660 C.ar      1 FAJ        -0.0686
     27 CB4        66.9100   52.6310   32.8020 C.ar      1 FAJ        -0.0687
     28 CB5        66.1090   53.6640   32.3250 C.ar      1 FAJ        -0.0686
     29 CB6        66.0470   54.8810   33.0050 C.ar      1 FAJ        -0.0601
     30 C2B        66.7050   56.1200   36.4130 C.3       1 FAJ         0.0077
     31 C1B        67.4570   57.2830   37.0480 C.3       1 FAJ         0.1344
     32 O1B        68.6640   56.8050   37.6490 O.3       1 FAJ        -0.3711
     33 C1'        66.4430   60.1620   32.2850 C.3       1 FAJ         0.0535
     34 C2'        67.4540   60.8750   31.3750 C.3       1 FAJ         0.1024
     35 O2'        68.3010   61.6940   32.1720 O.3       1 FAJ        -0.3872
     36 C3'        66.7190   61.7470   30.3510 C.3       1 FAJ         0.1111
     37 O3'        65.8330   60.9200   29.6030 O.3       1 FAJ        -0.3865
     38 C4'        67.6230   62.5030   29.3550 C.3       1 FAJ         0.1118
     39 O4'        68.8530   62.9440   29.9550 O.3       1 FAJ        -0.3865
     40 C5'        66.8590   63.7260   28.8590 C.3       1 FAJ         0.1124
     41 O5'        67.4590   64.3110   27.7090 O.3       1 FAJ        -0.2477
     42 PA         66.8690   67.4080   28.8660 P.3       1 FAJ         0.2972
     43 O1A        66.0000   67.8650   29.9710 O.co2     1 FAJ        -0.6127
     44 O2A        68.1880   66.8170   29.1650 O.co2     1 FAJ        -0.6127
     45 OA5        67.0720   68.6230   27.8270 O.3       1 FAJ        -0.2476
     46 CA5        66.1580   69.7250   27.7900 C.3       1 FAJ         0.1128
     47 CA4        66.9010   71.0490   27.9530 C.3       1 FAJ         0.1189
     48 OA4        65.9620   72.1420   27.7770 O.3       1 FAJ        -0.3364
     49 CA3        67.4400   71.1950   29.3760 C.3       1 FAJ         0.1149
     50 OA3        68.8120   71.5570   29.2900 O.3       1 FAJ        -0.3864
     51 CA2        66.6350   72.3550   29.9620 C.3       1 FAJ         0.1385
     52 OA2        67.4350   73.1110   30.8780 O.3       1 FAJ        -0.3836
     53 CA1        66.3680   73.1600   28.7070 C.3       1 FAJ         0.2010
     54 N9A        65.2390   74.1030   28.8120 N.pl3     1 FAJ        -0.1919
     55 C8A        64.1000   73.9340   29.4940 C.2       1 FAJ         0.1123
     56 N7A        63.3270   75.0120   29.3260 N.2       1 FAJ        -0.2958
     57 C5C        63.9770   75.8610   28.5320 C.ar      1 FAJ         0.1045
     58 C4C        65.1890   75.2820   28.2010 C.ar      1 FAJ         0.1613
     59 N3A        66.0430   75.9350   27.3980 N.ar      1 FAJ        -0.2714
     60 C2A        65.7350   77.1270   26.9160 C.ar      1 FAJ         0.0533
     61 N1A        64.5810   77.7110   27.2110 N.ar      1 FAJ        -0.2698
     62 C6A        63.6830   77.1120   28.0070 C.ar      1 FAJ         0.1298
     63 N6A        62.5350   77.7140   28.2900 N.pl3     1 FAJ        -0.3152
     64 H1         70.3501   55.6434   33.1146 H         1 FAJ         0.2260
     65 H2         67.5892   58.1777   31.3336 H         1 FAJ         0.1874
     66 H3         66.6411   57.8537   33.2910 H         1 FAJ         0.0824
     67 H4         67.4744   59.6960   38.0578 H         1 FAJ         0.0400
     68 H5         67.0169   61.4790   39.3595 H         1 FAJ         0.0350
     69 H6         65.6679   62.5139   38.7798 H         1 FAJ         0.0350
     70 H7         67.3660   63.0760   38.6151 H         1 FAJ         0.0350
     71 H8         65.7629   63.9933   35.0196 H         1 FAJ         0.0350
     72 H9         66.7514   64.3060   36.4865 H         1 FAJ         0.0350
     73 H10        65.0535   63.7431   36.6508 H         1 FAJ         0.0350
     74 H11        66.2849   62.0796   33.9033 H         1 FAJ         0.0400
     75 H12        65.7529   56.8985   34.6156 H         1 FAJ         0.0476
     76 H13        68.1683   54.1621   35.5590 H         1 FAJ         0.0557
     77 H14        68.2838   52.0064   34.3391 H         1 FAJ         0.0599
     78 H15        66.9528   51.6880   32.2691 H         1 FAJ         0.0559
     79 H16        65.5297   53.5225   31.4198 H         1 FAJ         0.0599
     80 H17        65.4131   55.6782   32.6340 H         1 FAJ         0.0557
     81 H18        67.2215   55.1703   36.6162 H         1 FAJ         0.0334
     82 H19        65.6768   56.0685   36.8005 H         1 FAJ         0.0334
     83 H20        66.8349   57.7709   37.8128 H         1 FAJ         0.0853
     84 H21        69.1878   56.3592   36.9937 H         1 FAJ         0.2121
     85 H22        65.6815   60.8904   32.6005 H         1 FAJ         0.0533
     86 H23        65.9634   59.3554   31.7111 H         1 FAJ         0.0533
     87 H24        68.0602   60.1252   30.8455 H         1 FAJ         0.0639
     88 H25        68.9284   62.1373   31.6130 H         1 FAJ         0.2100
     89 H26        66.1333   62.4938   30.9070 H         1 FAJ         0.0647
     90 H27        66.3319   60.2463   29.1562 H         1 FAJ         0.2100
     91 H28        67.8564   61.8406   28.5084 H         1 FAJ         0.0647
     92 H29        69.3741   63.4023   29.3061 H         1 FAJ         0.2100
     93 H30        66.8321   64.4758   29.6634 H         1 FAJ         0.0647
     94 H31        65.8324   63.4225   28.6060 H         1 FAJ         0.0647
     95 H32        65.4292   69.6172   28.6069 H         1 FAJ         0.0648
     96 H33        65.6300   69.7238   26.8250 H         1 FAJ         0.0648
     97 H34        67.7196   71.1120   27.2210 H         1 FAJ         0.0651
     98 H35        67.3125   70.2737   29.9632 H         1 FAJ         0.0648
     99 H36        68.8925   72.3796   28.8218 H         1 FAJ         0.2100
    100 H37        65.7085   72.0180   30.4498 H         1 FAJ         0.0676
    101 H38        68.1920   73.4600   30.4222 H         1 FAJ         0.2101
    102 H39        67.2744   73.6919   28.3823 H         1 FAJ         0.0996
    103 H40        63.8439   73.0592   30.0899 H         1 FAJ         0.1349
    104 H41        66.4386   77.6366   26.2677 H         1 FAJ         0.0996
    105 H42        62.3289   78.6422   27.8940 H         1 FAJ         0.1820
    106 H43        61.8499   77.2531   28.9057 H         1 FAJ         0.1820
@<TRIPOS>BOND
     1    3    1 2  
     2    5    2 2  
     3    3    4 am 
     4    8    3 1  
     5    5    4 am 
     6    6    5 am 
     7    7    6 1  
     8    7    8 1  
     9   18    7 1  
    10    8    9 1  
    11    8   23 1  
    12   10    9 1  
    13    9   31 1  
    14   10   11 ar 
    15   17   10 ar 
    16   11   12 ar 
    17   12   13 1  
    18   14   12 ar 
    19   14   15 1  
    20   16   14 ar 
    21   17   16 ar 
    22   18   17 1  
    23   33   18 1  
    24   19   20 ar 
    25   19   21 ar 
    26   19   22 1  
    27   41   19 1  
    28   22   42 1  
    29   23   24 1  
    30   23   30 1  
    31   24   25 ar 
    32   24   29 ar 
    33   25   26 ar 
    34   26   27 ar 
    35   28   27 ar 
    36   29   28 ar 
    37   31   30 1  
    38   31   32 1  
    39   34   33 1  
    40   34   35 1  
    41   36   34 1  
    42   36   37 1  
    43   38   36 1  
    44   38   39 1  
    45   40   38 1  
    46   40   41 1  
    47   42   43 ar 
    48   42   44 ar 
    49   42   45 1  
    50   45   46 1  
    51   46   47 1  
    52   47   48 1  
    53   47   49 1  
    54   48   53 1  
    55   49   50 1  
    56   49   51 1  
    57   51   52 1  
    58   51   53 1  
    59   53   54 1  
    60   54   55 1  
    61   54   58 1  
    62   55   56 2  
    63   56   57 1  
    64   57   58 ar 
    65   57   62 ar 
    66   58   59 ar 
    67   59   60 ar 
    68   60   61 ar 
    69   61   62 ar 
    70   62   63 1  
    71    4   64 1  
    72    6   65 1  
    73    7   66 1  
    74   11   67 1  
    75   13   68 1  
    76   13   69 1  
    77   13   70 1  
    78   15   71 1  
    79   15   72 1  
    80   15   73 1  
    81   16   74 1  
    82   23   75 1  
    83   25   76 1  
    84   26   77 1  
    85   27   78 1  
    86   28   79 1  
    87   29   80 1  
    88   30   81 1  
    89   30   82 1  
    90   31   83 1  
    91   32   84 1  
    92   33   85 1  
    93   33   86 1  
    94   34   87 1  
    95   35   88 1  
    96   36   89 1  
    97   37   90 1  
    98   38   91 1  
    99   39   92 1  
   100   40   93 1  
   101   40   94 1  
   102   46   95 1  
   103   46   96 1  
   104   47   97 1  
   105   49   98 1  
   106   50   99 1  
   107   51  100 1  
   108   52  101 1  
   109   53  102 1  
   110   55  103 1  
   111   60  104 1  
   112   63  105 1  
   113   63  106 1  
@<TRIPOS>SUBSTRUCTURE
     1 FAJ         1

