2uxx_ligand
  -I-interpret- 

108115  0  0  0  0  0  0  0  0999 V2000
   70.0700   56.7020   35.3830 O   0  0  0  0  0
   69.3920   56.4680   30.9180 O   0  0  0  0  0
   69.2620   56.8020   34.4660 C   0  0  0  0  0
   69.6420   56.3450   33.1950 N   0  0  0  0  0
   69.0420   56.8590   32.0350 C   0  0  0  0  0
   68.0340   57.8230   32.1560 N   0  0  0  0  0
   67.6380   58.3000   33.4210 C   0  0  0  0  0
   67.8620   57.4310   34.6830 C   0  0  0  0  0
   67.7520   58.2310   35.9480 N   0  0  0  0  0
   67.3210   59.5630   35.9230 C   0  0  0  0  0
   67.2170   60.2210   37.1450 C   0  0  0  0  0
   66.7890   61.5380   37.2120 C   0  0  0  0  0
   66.7040   62.1980   38.5880 C   0  0  0  0  0
   66.4510   62.2140   36.0350 C   0  0  0  0  0
   65.9710   63.6660   36.0490 C   0  0  0  0  0
   66.5470   61.5550   34.8150 C   0  0  0  0  0
   66.9760   60.2270   34.7450 C   0  0  0  0  0
   67.0670   59.5720   33.5010 N   0  0  0  0  0
   66.6620   65.4290   26.8730 P   0  0  0  0  0
   67.6470   66.2030   26.0930 O   0  0  0  0  0
   65.5110   64.7880   26.2020 O   0  0  0  0  0
   66.0220   66.3900   27.9820 O   0  0  0  0  0
   66.6980   56.4170   34.9070 C   0  0  0  0  0
   66.8000   55.0700   34.1600 C   0  0  0  0  0
   67.5970   54.0250   34.6480 C   0  0  0  0  0
   67.6580   52.8090   33.9660 C   0  0  0  0  0
   66.9100   52.6310   32.8020 C   0  0  0  0  0
   66.1090   53.6640   32.3250 C   0  0  0  0  0
   66.0470   54.8810   33.0050 C   0  0  0  0  0
   66.7050   56.1200   36.4130 C   0  0  0  0  0
   67.4570   57.2830   37.0480 C   0  0  0  0  0
   68.6640   56.8050   37.6490 O   0  0  0  0  0
   66.4430   60.1620   32.2850 C   0  0  0  0  0
   67.4540   60.8750   31.3750 C   0  0  0  0  0
   68.3010   61.6940   32.1720 O   0  0  0  0  0
   66.7190   61.7470   30.3510 C   0  0  0  0  0
   65.8330   60.9200   29.6030 O   0  0  0  0  0
   67.6230   62.5030   29.3550 C   0  0  0  0  0
   68.8530   62.9440   29.9550 O   0  0  0  0  0
   66.8590   63.7260   28.8590 C   0  0  0  0  0
   67.4590   64.3110   27.7090 O   0  0  0  0  0
   66.8690   67.4080   28.8660 P   0  0  0  0  0
   66.0000   67.8650   29.9710 O   0  0  0  0  0
   68.1880   66.8170   29.1650 O   0  0  0  0  0
   67.0720   68.6230   27.8270 O   0  0  0  0  0
   66.1580   69.7250   27.7900 C   0  0  0  0  0
   66.9010   71.0490   27.9530 C   0  0  0  0  0
   65.9620   72.1420   27.7770 O   0  0  0  0  0
   67.4400   71.1950   29.3760 C   0  0  0  0  0
   68.8120   71.5570   29.2900 O   0  0  0  0  0
   66.6350   72.3550   29.9620 C   0  0  0  0  0
   67.4350   73.1110   30.8780 O   0  0  0  0  0
   66.3680   73.1600   28.7070 C   0  0  0  0  0
   65.2390   74.1030   28.8120 N   0  0  0  0  0
   64.1000   73.9340   29.4940 C   0  0  0  0  0
   63.3270   75.0120   29.3260 N   0  0  0  0  0
   63.9770   75.8610   28.5320 C   0  0  0  0  0
   65.1890   75.2820   28.2010 C   0  0  0  0  0
   66.0430   75.9350   27.3980 N   0  0  0  0  0
   65.7350   77.1270   26.9160 C   0  0  0  0  0
   64.5810   77.7110   27.2110 N   0  0  0  0  0
   63.6830   77.1120   28.0070 C   0  0  0  0  0
   62.5350   77.7140   28.2900 N   0  0  0  0  0
   70.3642   55.6294   33.1129 H   0  0  0  0  0
   67.5803   58.1848   31.3171 H   0  0  0  0  0
   67.0746   57.9323   34.2786 H   0  0  0  0  0
   67.4759   59.6931   38.0629 H   0  0  0  0  0
   66.0065   61.6415   39.2140 H   0  0  0  0  0
   67.6905   62.1971   39.0516 H   0  0  0  0  0
   66.3546   63.2244   38.4763 H   0  0  0  0  0
   65.0619   63.7411   36.6456 H   0  0  0  0  0
   66.7451   64.2991   36.4828 H   0  0  0  0  0
   65.7651   63.9891   35.0286 H   0  0  0  0  0
   66.2834   62.0825   33.8983 H   0  0  0  0  0
   64.9763   64.3297   26.8544 H   0  0  0  0  0
   65.7918   56.8786   34.5147 H   0  0  0  0  0
   68.1715   54.1629   35.5640 H   0  0  0  0  0
   68.2873   52.0019   34.3411 H   0  0  0  0  0
   66.9530   51.6828   32.2662 H   0  0  0  0  0
   65.5265   53.5217   31.4148 H   0  0  0  0  0
   65.4096   55.6826   32.6320 H   0  0  0  0  0
   67.1835   55.1654   36.6317 H   0  0  0  0  0
   65.6935   56.0317   36.8094 H   0  0  0  0  0
   66.8748   57.7682   37.8314 H   0  0  0  0  0
   68.4474   56.1940   38.3571 H   0  0  0  0  0
   65.7130   60.9020   32.6130 H   0  0  0  0  0
   65.9985   59.3479   31.7125 H   0  0  0  0  0
   68.0475   60.1304   30.8446 H   0  0  0  0  0
   68.9350   62.1419   31.6071 H   0  0  0  0  0
   66.2051   62.5116   30.9336 H   0  0  0  0  0
   65.3660   61.4552   28.9572 H   0  0  0  0  0
   67.8778   61.8218   28.5431 H   0  0  0  0  0
   69.3796   63.4071   29.2993 H   0  0  0  0  0
   66.8603   64.4702   29.6554 H   0  0  0  0  0
   65.8520   63.4079   28.5890 H   0  0  0  0  0
   65.1850   68.2210   29.6094 H   0  0  0  0  0
   65.4448   69.6185   28.6073 H   0  0  0  0  0
   65.6452   69.7251   26.8281 H   0  0  0  0  0
   67.7110   71.0683   27.2239 H   0  0  0  0  0
   67.3552   70.2890   29.9761 H   0  0  0  0  0
   69.1721   71.6544   30.1745 H   0  0  0  0  0
   65.7467   72.0612   30.5212 H   0  0  0  0  0
   66.9138   73.8337   31.2352 H   0  0  0  0  0
   67.2412   73.7613   28.4538 H   0  0  0  0  0
   63.8437   73.0584   30.0905 H   0  0  0  0  0
   66.4425   77.6394   26.2641 H   0  0  0  0  0
   61.8565   77.2576   28.8997 H   0  0  0  0  0
   62.3309   78.6332   27.8979 H   0  0  0  0  0
  3  1  2  0  0  0
  5  2  2  0  0  0
  3  4  1  0  0  0
  8  3  1  0  0  0
  5  4  1  0  0  0
  6  5  1  0  0  0
  7  6  1  0  0  0
  7  8  1  0  0  0
 18  7  1  0  0  0
  8  9  1  0  0  0
  8 23  1  0  0  0
 10  9  1  0  0  0
  9 31  1  0  0  0
 10 11  4  0  0  0
 17 10  4  0  0  0
 11 12  4  0  0  0
 12 13  1  0  0  0
 14 12  4  0  0  0
 14 15  1  0  0  0
 16 14  4  0  0  0
 17 16  4  0  0  0
 18 17  1  0  0  0
 33 18  1  0  0  0
 19 20  2  0  0  0
 19 21  1  0  0  0
 19 22  1  0  0  0
 41 19  1  0  0  0
 22 42  1  0  0  0
 23 24  1  0  0  0
 23 30  1  0  0  0
 24 25  4  0  0  0
 24 29  4  0  0  0
 25 26  4  0  0  0
 26 27  4  0  0  0
 28 27  4  0  0  0
 29 28  4  0  0  0
 31 30  1  0  0  0
 31 32  1  0  0  0
 34 33  1  0  0  0
 34 35  1  0  0  0
 36 34  1  0  0  0
 36 37  1  0  0  0
 38 36  1  0  0  0
 38 39  1  0  0  0
 40 38  1  0  0  0
 40 41  1  0  0  0
 42 43  1  0  0  0
 42 44  2  0  0  0
 42 45  1  0  0  0
 45 46  1  0  0  0
 46 47  1  0  0  0
 47 48  1  0  0  0
 47 49  1  0  0  0
 48 53  1  0  0  0
 49 50  1  0  0  0
 49 51  1  0  0  0
 51 52  1  0  0  0
 51 53  1  0  0  0
 53 54  1  0  0  0
 54 55  4  0  0  0
 54 58  4  0  0  0
 55 56  4  0  0  0
 56 57  4  0  0  0
 57 58  4  0  0  0
 57 62  4  0  0  0
 58 59  4  0  0  0
 59 60  4  0  0  0
 60 61  4  0  0  0
 61 62  4  0  0  0
 62 63  1  0  0  0
  4 64  1  0  0  0
  6 65  1  0  0  0
  7 66  1  0  0  0
 11 67  1  0  0  0
 13 68  1  0  0  0
 13 69  1  0  0  0
 13 70  1  0  0  0
 15 71  1  0  0  0
 15 72  1  0  0  0
 15 73  1  0  0  0
 16 74  1  0  0  0
 21 75  1  0  0  0
 23 76  1  0  0  0
 25 77  1  0  0  0
 26 78  1  0  0  0
 27 79  1  0  0  0
 28 80  1  0  0  0
 29 81  1  0  0  0
 30 82  1  0  0  0
 30 83  1  0  0  0
 31 84  1  0  0  0
 32 85  1  0  0  0
 33 86  1  0  0  0
 33 87  1  0  0  0
 34 88  1  0  0  0
 35 89  1  0  0  0
 36 90  1  0  0  0
 37 91  1  0  0  0
 38 92  1  0  0  0
 39 93  1  0  0  0
 40 94  1  0  0  0
 40 95  1  0  0  0
 43 96  1  0  0  0
 46 97  1  0  0  0
 46 98  1  0  0  0
 47 99  1  0  0  0
 49100  1  0  0  0
 50101  1  0  0  0
 51102  1  0  0  0
 52103  1  0  0  0
 53104  1  0  0  0
 55105  1  0  0  0
 60106  1  0  0  0
 63107  1  0  0  0
 63108  1  0  0  0
M  END
$$$$
