2uw4_ligand
  -I-interpret- 

 30 31  0  0  0  0  0  0  0  0999 V2000
    4.3990   10.0450    1.0270 C   0  0  0  0  0
    4.1070    9.9090    2.4800 C   0  0  0  0  0
    2.8250    9.8090    2.9440 N   0  0  0  0  0
    2.7950    9.6980    4.2990 N   0  0  0  0  0
    4.0830    9.7300    4.6900 C   0  0  0  0  0
    4.9410    9.8660    3.5960 C   0  0  0  0  0
    6.4090    9.9020    3.6190 C   0  0  0  0  0
    7.0930   10.2060    4.7890 C   0  0  0  0  0
    8.4750   10.2060    4.8130 C   0  0  0  0  0
    9.2000    9.8970    3.6690 C   0  0  0  0  0
   10.7080    9.8970    3.6870 C   0  0  0  0  0
   11.2940    8.4980    3.6820 C   0  0  0  0  0
   10.7360    7.6090    2.6270 N   0  3  0  0  0
    8.5140    9.5880    2.5030 C   0  0  0  0  0
    7.1370    9.5850    2.4790 C   0  0  0  0  0
    4.0087    9.1765    0.4964 H   0  0  0  0  0
    3.9244   10.9490    0.6454 H   0  0  0  0  0
    5.4770   10.1088    0.8788 H   0  0  0  0  0
    4.4135    9.6590    5.7262 H   0  0  0  0  0
    6.5360   10.4463    5.6946 H   0  0  0  0  0
    8.9999   10.4503    5.7365 H   0  0  0  0  0
   11.0316   10.3919    4.6027 H   0  0  0  0  0
   11.0532   10.4075    2.7879 H   0  0  0  0  0
   11.0556    8.0452    4.6444 H   0  0  0  0  0
   12.3622    8.5966    3.4887 H   0  0  0  0  0
   11.1776    6.6916    2.6885 H   0  0  0  0  0
    9.7296    7.5130    2.7623 H   0  0  0  0  0
   10.9197    8.0152    1.7096 H   0  0  0  0  0
    9.0702    9.3454    1.5976 H   0  0  0  0  0
    6.6135    9.3316    1.5571 H   0  0  0  0  0
  1  2  1  0  0  0
  2  3  4  0  0  0
  2  6  4  0  0  0
  3  4  4  0  0  0
  4  5  4  0  0  0
  5  6  4  0  0  0
  6  7  1  0  0  0
  7  8  4  0  0  0
  7 15  4  0  0  0
  8  9  4  0  0  0
  9 10  4  0  0  0
 10 11  1  0  0  0
 10 14  4  0  0  0
 11 12  1  0  0  0
 12 13  1  0  0  0
 14 15  4  0  0  0
  1 16  1  0  0  0
  1 17  1  0  0  0
  1 18  1  0  0  0
  5 19  1  0  0  0
  8 20  1  0  0  0
  9 21  1  0  0  0
 11 22  1  0  0  0
 11 23  1  0  0  0
 12 24  1  0  0  0
 12 25  1  0  0  0
 13 26  1  0  0  0
 13 27  1  0  0  0
 13 28  1  0  0  0
 14 29  1  0  0  0
 15 30  1  0  0  0
M  END
$$$$
