4ogt_ligand
  -I-interpret- 

 80 84  0  0  0  0  0  0  0  0999 V2000
  -12.5400   23.7530   -2.4070 C   0  0  0  0  0
  -13.5440   23.1710   -1.6290 C   0  0  0  0  0
  -15.1650   23.0720   -2.2480 Cl  0  0  0  0  0
  -13.2560   22.6740   -0.3580 C   0  0  0  0  0
  -11.9570   22.7590    0.1350 C   0  0  0  0  0
  -10.9570   23.3390   -0.6490 C   0  0  0  0  0
  -11.2360   23.8390   -1.9210 C   0  0  0  0  0
  -10.1130   24.4780   -2.7680 C   0  0  0  0  0
   -9.2820   25.3540   -1.9830 O   0  0  0  0  0
   -8.2990   26.0120   -2.7990 C   0  0  0  0  0
   -8.7340   27.2590   -3.5740 C   0  0  0  0  0
   -9.1580   28.4970   -2.7550 C   0  0  0  0  0
   -8.2730   29.5740   -2.7330 C   0  0  0  0  0
   -8.5900   30.7230   -2.0250 C   0  0  0  0  0
   -9.8090   30.7720   -1.3700 C   0  0  0  0  0
  -10.1850   32.0350   -0.5950 C   0  0  0  0  0
  -11.3140   32.0780   -0.0570 O   0  0  0  0  0
   -9.3560   32.9730   -0.5890 O   0  0  0  0  0
  -10.6680   29.6750   -1.4320 C   0  0  0  0  0
  -10.3360   28.5820   -2.1160 N   0  0  0  0  0
   -7.2520   26.4550   -1.7760 C   0  0  0  0  0
   -7.5070   25.0460   -3.6760 C   0  0  0  0  0
   -6.4360   25.4430   -4.1340 O   0  0  0  0  0
   -7.9650   23.7400   -3.9320 N   0  0  0  0  0
   -7.0610   22.7890   -4.6520 C   0  0  0  0  0
   -6.7390   23.0730   -6.1250 C   0  0  0  0  0
   -6.8780   21.8620   -7.0350 C   0  0  0  0  0
   -7.8970   23.0120   -7.1160 C   0  0  0  0  0
   -5.7460   22.5670   -3.8730 C   0  0  0  0  0
   -5.9940   21.8330   -2.2280 S   0  0  0  0  0
   -6.6700   20.5050   -2.3830 O   0  0  0  0  0
   -6.8550   22.7320   -1.3900 O   0  0  0  0  0
   -4.3890   21.6230   -1.3690 C   0  0  0  0  0
   -4.6480   20.9110   -0.0470 C   0  0  0  0  0
   -3.7600   22.9940   -1.1170 C   0  0  0  0  0
   -3.4640   20.7660   -2.2240 C   0  0  0  0  0
   -9.2510   23.3060   -3.3250 C   0  0  0  0  0
  -10.1150   22.4140   -4.2400 C   0  0  0  0  0
  -10.7640   22.9960   -5.3250 C   0  0  0  0  0
  -11.5660   22.2250   -6.1580 C   0  0  0  0  0
  -11.7300   20.8730   -5.8910 C   0  0  0  0  0
  -12.7360   19.9160   -6.9260 Cl  0  0  0  0  0
  -11.0900   20.2880   -4.8050 C   0  0  0  0  0
  -10.2860   21.0610   -3.9720 C   0  0  0  0  0
  -12.7770   24.1412   -3.3975 H   0  0  0  0  0
  -14.0431   22.2219    0.2454 H   0  0  0  0  0
  -11.7214   22.3750    1.1275 H   0  0  0  0  0
   -9.9407   23.4020   -0.2600 H   0  0  0  0  0
  -10.5495   25.0813   -3.5640 H   0  0  0  0  0
   -9.6201   26.9612   -4.1346 H   0  0  0  0  0
   -7.8582   27.5704   -4.1433 H   0  0  0  0  0
   -7.3288   29.5125   -3.2742 H   0  0  0  0  0
   -7.8986   31.5647   -1.9850 H   0  0  0  0  0
   -8.5665   32.7038   -1.0641 H   0  0  0  0  0
  -11.6256   29.7130   -0.9127 H   0  0  0  0  0
   -7.7147   27.1249   -1.0513 H   0  0  0  0  0
   -6.8551   25.5796   -1.2618 H   0  0  0  0  0
   -6.4426   26.9751   -2.2883 H   0  0  0  0  0
   -7.6710   21.8863   -4.6859 H   0  0  0  0  0
   -5.9685   23.8150   -5.9158 H   0  0  0  0  0
   -6.8743   20.7747   -6.9579 H   0  0  0  0  0
   -6.2594   21.2668   -7.7067 H   0  0  0  0  0
   -8.3655   23.6426   -7.8716 H   0  0  0  0  0
   -8.9779   23.1525   -7.1259 H   0  0  0  0  0
   -5.2807   23.5423   -3.7302 H   0  0  0  0  0
   -5.1345   21.8750   -4.4521 H   0  0  0  0  0
   -5.3240   21.5118    0.5614 H   0  0  0  0  0
   -5.0999   19.9384   -0.2420 H   0  0  0  0  0
   -3.7047   20.7753    0.4820 H   0  0  0  0  0
   -3.5989   23.4990   -2.0694 H   0  0  0  0  0
   -4.4287   23.5906   -0.4965 H   0  0  0  0  0
   -2.8057   22.8661   -0.6061 H   0  0  0  0  0
   -3.9212   19.7897   -2.3851 H   0  0  0  0  0
   -3.3017   21.2556   -3.1842 H   0  0  0  0  0
   -2.5097   20.6417   -1.7122 H   0  0  0  0  0
   -8.9257   22.6961   -2.4822 H   0  0  0  0  0
  -10.6427   24.0611   -5.5223 H   0  0  0  0  0
  -12.0629   22.6791   -7.0153 H   0  0  0  0  0
  -11.2175   19.2240   -4.6055 H   0  0  0  0  0
   -9.7924   20.6069   -3.1128 H   0  0  0  0  0
  1  2  4  0  0  0
  1  7  4  0  0  0
  2  3  1  0  0  0
  2  4  4  0  0  0
  4  5  4  0  0  0
  5  6  4  0  0  0
  6  7  4  0  0  0
  7  8  1  0  0  0
  8  9  1  0  0  0
  8 37  1  0  0  0
  9 10  1  0  0  0
 10 11  1  0  0  0
 10 21  1  0  0  0
 10 22  1  0  0  0
 11 12  1  0  0  0
 12 13  4  0  0  0
 12 20  4  0  0  0
 13 14  4  0  0  0
 14 15  4  0  0  0
 15 16  1  0  0  0
 15 19  4  0  0  0
 16 17  2  0  0  0
 16 18  1  0  0  0
 19 20  4  0  0  0
 22 23  2  0  0  0
 22 24  1  0  0  0
 24 25  1  0  0  0
 24 37  1  0  0  0
 25 26  1  0  0  0
 25 29  1  0  0  0
 26 27  1  0  0  0
 26 28  1  0  0  0
 27 28  1  0  0  0
 29 30  1  0  0  0
 30 31  2  0  0  0
 30 32  2  0  0  0
 30 33  1  0  0  0
 33 34  1  0  0  0
 33 35  1  0  0  0
 33 36  1  0  0  0
 37 38  1  0  0  0
 38 39  4  0  0  0
 38 44  4  0  0  0
 39 40  4  0  0  0
 40 41  4  0  0  0
 41 42  1  0  0  0
 41 43  4  0  0  0
 43 44  4  0  0  0
  1 45  1  0  0  0
  4 46  1  0  0  0
  5 47  1  0  0  0
  6 48  1  0  0  0
  8 49  1  0  0  0
 11 50  1  0  0  0
 11 51  1  0  0  0
 13 52  1  0  0  0
 14 53  1  0  0  0
 18 54  1  0  0  0
 19 55  1  0  0  0
 21 56  1  0  0  0
 21 57  1  0  0  0
 21 58  1  0  0  0
 25 59  1  0  0  0
 26 60  1  0  0  0
 27 61  1  0  0  0
 27 62  1  0  0  0
 28 63  1  0  0  0
 28 64  1  0  0  0
 29 65  1  0  0  0
 29 66  1  0  0  0
 34 67  1  0  0  0
 34 68  1  0  0  0
 34 69  1  0  0  0
 35 70  1  0  0  0
 35 71  1  0  0  0
 35 72  1  0  0  0
 36 73  1  0  0  0
 36 74  1  0  0  0
 36 75  1  0  0  0
 37 76  1  0  0  0
 39 77  1  0  0  0
 40 78  1  0  0  0
 43 79  1  0  0  0
 44 80  1  0  0  0
M  END
$$$$
