4qlk_ligand
  -I-interpret- 

 87 90  0  0  0  0  0  0  0  0999 V2000
  -13.2430   -2.0460   57.4290 O   0  0  0  0  0
  -12.1500   -2.6270   56.7050 C   0  0  0  0  0
  -12.3960   -2.5250   55.2010 C   0  0  0  0  0
  -13.6720   -3.0900   54.8820 O   0  0  0  0  0
  -11.2390   -3.2250   54.4780 C   0  0  0  0  0
  -11.4530   -3.3050   53.0550 O   0  0  0  0  0
  -10.9180   -1.9560   56.9960 O   0  0  0  0  0
   -9.7740   -2.5340   56.3470 C   0  0  0  0  0
   -8.5250   -1.8040   56.8570 C   0  0  0  0  0
   -8.6810   -0.3960   56.6370 O   0  0  0  0  0
   -9.9560   -2.4690   54.8240 C   0  0  0  0  0
   -8.8470   -3.0370   54.1180 O   0  0  0  0  0
   -7.9720   -2.1500   53.3990 C   0  0  0  0  0
   -6.6810   -2.9530   53.2280 C   0  0  0  0  0
   -6.0240   -3.0620   54.4960 O   0  0  0  0  0
   -5.7220   -2.3840   52.1820 C   0  0  0  0  0
   -4.6620   -3.3130   51.9650 O   0  0  0  0  0
   -8.5220   -1.7940   52.1170 O   0  0  0  0  0
   -7.6120   -1.1950   51.1760 C   0  0  0  0  0
   -8.3860   -0.8370   49.9140 C   0  0  0  0  0
   -9.4170    0.0840   50.2700 O   0  0  0  0  0
   -6.4380   -2.1180   50.8650 C   0  0  0  0  0
   -5.5320   -1.5310   49.9140 O   0  0  0  0  0
   -5.0290   -2.3840   48.8680 C   0  0  0  0  0
   -4.3160   -1.5560   47.8020 C   0  0  0  0  0
   -5.2550   -0.6140   47.2860 O   0  0  0  0  0
   -3.7470   -2.4250   46.6840 C   0  0  0  0  0
   -2.9140   -1.6480   45.8080 O   0  0  0  0  0
   -4.0560   -3.3230   49.3170 O   0  0  0  0  0
   -3.7340   -4.2930   48.3040 C   0  0  0  0  0
   -3.0280   -5.4530   48.9900 C   0  0  0  0  0
   -3.8120   -5.8220   50.1450 O   0  0  0  0  0
   -2.9430   -3.6390   47.1630 C   0  0  0  0  0
   -2.7800   -4.4930   46.0080 O   0  0  0  0  0
   -1.5530   -5.2410   45.7100 C   0  0  0  0  0
   -1.4480   -5.5450   44.1730 C   0  0  0  0  0
   -1.4290   -6.9520   43.8570 O   0  0  0  0  0
   -0.2060   -5.0140   43.4700 C   0  0  0  0  0
   -0.4160   -4.9730   42.0360 O   0  0  0  0  0
    0.0970   -3.6580   44.0770 C   0  0  0  0  0
    1.0890   -2.9730   43.3080 O   0  0  0  0  0
   -0.4050   -4.5920   46.3020 O   0  0  0  0  0
    0.5790   -3.9260   45.4980 C   0  0  0  0  0
    0.9590   -2.6450   46.2390 C   0  0  0  0  0
   -0.1770   -1.7650   46.3320 O   0  0  0  0  0
  -14.0527   -2.5149   57.2144 H   0  0  0  0  0
  -12.0797   -3.6705   57.0121 H   0  0  0  0  0
  -12.4234   -1.4861   54.8724 H   0  0  0  0  0
  -14.3582   -2.6174   55.3588 H   0  0  0  0  0
  -11.1653   -4.2598   54.8126 H   0  0  0  0  0
  -12.2658   -3.7855   52.8813 H   0  0  0  0  0
   -9.6585   -3.5912   56.5857 H   0  0  0  0  0
   -7.6463   -2.1634   56.3214 H   0  0  0  0  0
   -8.3976   -1.9965   57.9223 H   0  0  0  0  0
   -7.9011    0.0648   56.9549 H   0  0  0  0  0
  -10.0161   -1.4243   54.5188 H   0  0  0  0  0
   -7.8179   -1.2093   53.9276 H   0  0  0  0  0
   -6.9706   -3.9349   52.8537 H   0  0  0  0  0
   -5.2131   -3.5654   54.3928 H   0  0  0  0  0
   -5.3273   -1.4382   52.5531 H   0  0  0  0  0
   -4.0574   -2.9593   51.3086 H   0  0  0  0  0
   -7.1858   -0.2912   51.6115 H   0  0  0  0  0
   -8.8205   -1.7343   49.4734 H   0  0  0  0  0
   -7.7182   -0.3867   49.1796 H   0  0  0  0  0
   -9.9168    0.3219   49.4857 H   0  0  0  0  0
   -6.8021   -3.0418   50.4155 H   0  0  0  0  0
   -5.9084   -2.9063   48.4913 H   0  0  0  0  0
   -3.4641   -1.0447   48.2503 H   0  0  0  0  0
   -4.8313   -0.0783   46.6113 H   0  0  0  0  0
   -4.6242   -2.8066   46.1616 H   0  0  0  0  0
   -2.5673   -2.2129   45.1136 H   0  0  0  0  0
   -4.6251   -4.6913   47.8189 H   0  0  0  0  0
   -2.0223   -5.1603   49.2917 H   0  0  0  0  0
   -2.9360   -6.2982   48.3079 H   0  0  0  0  0
   -3.3875   -6.5544   50.5978 H   0  0  0  0  0
   -1.9547   -3.3993   47.5552 H   0  0  0  0  0
   -1.5851   -6.2237   46.1804 H   0  0  0  0  0
   -2.3451   -5.0349   43.8221 H   0  0  0  0  0
   -1.3639   -7.0643   42.9058 H   0  0  0  0  0
    0.6565   -5.6647   43.6141 H   0  0  0  0  0
    0.3745   -4.6366   41.6075 H   0  0  0  0  0
   -0.7835   -3.0156   44.0834 H   0  0  0  0  0
    1.2675   -2.1182   43.7068 H   0  0  0  0  0
    1.4530   -4.5640   45.3667 H   0  0  0  0  0
    1.7556   -2.1407   45.6920 H   0  0  0  0  0
    1.2934   -2.9015   47.2442 H   0  0  0  0  0
    0.0763   -0.9656   46.7993 H   0  0  0  0  0
  1  2  1  0  0  0
  2  3  1  0  0  0
  2  7  1  0  0  0
  3  4  1  0  0  0
  3  5  1  0  0  0
  5  6  1  0  0  0
  5 11  1  0  0  0
  7  8  1  0  0  0
  8  9  1  0  0  0
  8 11  1  0  0  0
  9 10  1  0  0  0
 11 12  1  0  0  0
 12 13  1  0  0  0
 13 14  1  0  0  0
 13 18  1  0  0  0
 14 15  1  0  0  0
 14 16  1  0  0  0
 16 17  1  0  0  0
 16 22  1  0  0  0
 18 19  1  0  0  0
 19 20  1  0  0  0
 19 22  1  0  0  0
 20 21  1  0  0  0
 22 23  1  0  0  0
 23 24  1  0  0  0
 24 25  1  0  0  0
 24 29  1  0  0  0
 25 26  1  0  0  0
 25 27  1  0  0  0
 27 28  1  0  0  0
 27 33  1  0  0  0
 29 30  1  0  0  0
 30 31  1  0  0  0
 30 33  1  0  0  0
 31 32  1  0  0  0
 33 34  1  0  0  0
 34 35  1  0  0  0
 35 36  1  0  0  0
 35 42  1  0  0  0
 36 37  1  0  0  0
 36 38  1  0  0  0
 38 39  1  0  0  0
 38 40  1  0  0  0
 40 41  1  0  0  0
 40 43  1  0  0  0
 42 43  1  0  0  0
 43 44  1  0  0  0
 44 45  1  0  0  0
  1 46  1  0  0  0
  2 47  1  0  0  0
  3 48  1  0  0  0
  4 49  1  0  0  0
  5 50  1  0  0  0
  6 51  1  0  0  0
  8 52  1  0  0  0
  9 53  1  0  0  0
  9 54  1  0  0  0
 10 55  1  0  0  0
 11 56  1  0  0  0
 13 57  1  0  0  0
 14 58  1  0  0  0
 15 59  1  0  0  0
 16 60  1  0  0  0
 17 61  1  0  0  0
 19 62  1  0  0  0
 20 63  1  0  0  0
 20 64  1  0  0  0
 21 65  1  0  0  0
 22 66  1  0  0  0
 24 67  1  0  0  0
 25 68  1  0  0  0
 26 69  1  0  0  0
 27 70  1  0  0  0
 28 71  1  0  0  0
 30 72  1  0  0  0
 31 73  1  0  0  0
 31 74  1  0  0  0
 32 75  1  0  0  0
 33 76  1  0  0  0
 35 77  1  0  0  0
 36 78  1  0  0  0
 37 79  1  0  0  0
 38 80  1  0  0  0
 39 81  1  0  0  0
 40 82  1  0  0  0
 41 83  1  0  0  0
 43 84  1  0  0  0
 44 85  1  0  0  0
 44 86  1  0  0  0
 45 87  1  0  0  0
M  END
$$$$
