2ay8_ligand
  -I-interpret- 

 21 21  0  0  0  0  0  0  0  0999 V2000
   94.3950   19.8500   -0.8210 S   0  0  0  0  0
   94.1950   18.5030   -1.9270 C   0  0  0  0  0
   95.1230   17.5370   -1.7350 C   0  0  0  0  0
   96.0490   17.8650   -0.6510 C   0  0  0  0  0
   95.7790   19.0540   -0.0830 C   0  0  0  0  0
   93.0680   18.5040   -2.9150 C   0  0  0  0  0
   93.1720   17.3870   -3.9370 C   0  0  0  0  0
   91.8120   16.8080   -4.2700 C   0  0  0  0  0
   91.7940   15.3020   -4.1330 C   0  0  0  0  0
   91.2010   14.7960   -3.1620 O   0  0  0  0  0
   92.4100   14.6140   -4.9680 O   0  0  0  0  0
   95.1746   16.6194   -2.3210 H   0  0  0  0  0
   96.8678   17.2171   -0.3380 H   0  0  0  0  0
   96.3531   19.4766    0.7416 H   0  0  0  0  0
   93.1009   19.4507   -3.4543 H   0  0  0  0  0
   92.1408   18.3603   -2.3602 H   0  0  0  0  0
   93.7912   16.5936   -3.5185 H   0  0  0  0  0
   93.6059   17.7947   -4.8500 H   0  0  0  0  0
   91.5757   17.0609   -5.3036 H   0  0  0  0  0
   91.0829   17.2240   -3.5747 H   0  0  0  0  0
   90.7916   15.4907   -2.6411 H   0  0  0  0  0
  1  2  4  0  0  0
  1  5  4  0  0  0
  2  3  4  0  0  0
  2  6  1  0  0  0
  3  4  4  0  0  0
  4  5  4  0  0  0
  6  7  1  0  0  0
  7  8  1  0  0  0
  8  9  1  0  0  0
  9 10  1  0  0  0
  9 11  2  0  0  0
  3 12  1  0  0  0
  4 13  1  0  0  0
  5 14  1  0  0  0
  6 15  1  0  0  0
  6 16  1  0  0  0
  7 17  1  0  0  0
  7 18  1  0  0  0
  8 19  1  0  0  0
  8 20  1  0  0  0
 10 21  1  0  0  0
M  END
$$$$
