5bw4_ligand
  -I-interpret- 

 51 53  0  0  0  0  0  0  0  0999 V2000
   -5.1560  -25.0600    2.1480 N   0  3  0  0  0
   -5.2780  -26.2370    1.2410 C   0  0  0  0  0
   -6.1220  -27.3600    1.8400 C   0  0  0  0  0
   -7.3690  -27.2590    1.8010 O   0  0  0  0  0
   -5.5690  -28.3620    2.3650 O   0  0  0  0  0
   -3.8990  -26.7940    0.8250 C   0  0  0  0  0
   -2.8130  -26.6250    1.8940 C   0  0  0  0  0
   -1.2640  -26.7110    1.2280 S   0  0  0  0  0
   -1.0500  -28.3630    1.2390 C   0  0  0  0  0
   -0.1720  -25.7290    2.0740 C   0  0  0  0  0
    0.1100  -24.4640    1.2710 C   0  0  0  0  0
    0.5570  -23.3330    2.0420 O   0  0  0  0  0
    1.2300  -24.7650    0.2640 C   0  0  0  0  0
    0.8130  -24.7780   -1.0900 O   0  0  0  0  0
    2.2320  -23.6520    0.4340 C   0  0  0  0  0
    2.7720  -23.1780   -0.7940 O   0  0  0  0  0
    1.3690  -22.5950    1.1080 C   0  0  0  0  0
    2.2830  -21.5630    1.6080 N   0  0  0  0  0
    3.4260  -21.7420    2.3020 C   0  0  0  0  0
    3.9970  -20.5800    2.6260 N   0  0  0  0  0
    3.1630  -19.6260    2.1530 C   0  0  0  0  0
    3.1750  -18.2020    2.1480 C   0  0  0  0  0
    4.2020  -17.5930    2.7430 N   0  0  0  0  0
    2.1470  -17.5490    1.6020 N   0  0  0  0  0
    1.1670  -18.1810    1.0250 C   0  0  0  0  0
    1.0510  -19.5080    0.9810 N   0  0  0  0  0
    2.0610  -20.2480    1.4870 C   0  0  0  0  0
   -6.0871  -24.7259    2.3966 H   0  0  0  0  0
   -4.6549  -25.3340    2.9931 H   0  0  0  0  0
   -4.6428  -24.3177    1.6726 H   0  0  0  0  0
   -5.7902  -25.8650    0.3537 H   0  0  0  0  0
   -4.6155  -28.2683    2.3042 H   0  0  0  0  0
   -3.5768  -26.2380   -0.0554 H   0  0  0  0  0
   -4.0200  -27.8633    0.6518 H   0  0  0  0  0
   -2.9193  -27.4291    2.6221 H   0  0  0  0  0
   -2.9347  -25.6452    2.3558 H   0  0  0  0  0
   -1.1171  -28.7300    2.2632 H   0  0  0  0  0
   -1.8242  -28.8324    0.6320 H   0  0  0  0  0
   -0.0692  -28.6038    0.8290 H   0  0  0  0  0
    0.7592  -26.2740    2.2285 H   0  0  0  0  0
   -0.6025  -25.4568    3.0377 H   0  0  0  0  0
   -0.8441  -24.1958    0.8172 H   0  0  0  0  0
    1.6172  -25.7637    0.4661 H   0  0  0  0  0
    1.5655  -24.9721   -1.6536 H   0  0  0  0  0
    3.1201  -23.9534    0.9894 H   0  0  0  0  0
    3.3997  -22.4739   -0.6156 H   0  0  0  0  0
    0.6659  -22.0309    0.4952 H   0  0  0  0  0
    3.8338  -22.7177    2.5662 H   0  0  0  0  0
    4.9399  -18.1461    3.1789 H   0  0  0  0  0
    4.2493  -16.5743    2.7621 H   0  0  0  0  0
    0.3895  -17.5859    0.5460 H   0  0  0  0  0
  1  2  1  0  0  0
  2  3  1  0  0  0
  2  6  1  0  0  0
  3  4  2  0  0  0
  3  5  1  0  0  0
  6  7  1  0  0  0
  7  8  1  0  0  0
  8  9  1  0  0  0
  8 10  1  0  0  0
 10 11  1  0  0  0
 11 12  1  0  0  0
 11 13  1  0  0  0
 12 17  1  0  0  0
 13 14  1  0  0  0
 13 15  1  0  0  0
 15 16  1  0  0  0
 15 17  1  0  0  0
 17 18  1  0  0  0
 18 19  4  0  0  0
 18 27  4  0  0  0
 19 20  4  0  0  0
 20 21  4  0  0  0
 21 22  4  0  0  0
 21 27  4  0  0  0
 22 23  1  0  0  0
 22 24  4  0  0  0
 24 25  4  0  0  0
 25 26  4  0  0  0
 26 27  4  0  0  0
  1 28  1  0  0  0
  1 29  1  0  0  0
  1 30  1  0  0  0
  2 31  1  0  0  0
  5 32  1  0  0  0
  6 33  1  0  0  0
  6 34  1  0  0  0
  7 35  1  0  0  0
  7 36  1  0  0  0
  9 37  1  0  0  0
  9 38  1  0  0  0
  9 39  1  0  0  0
 10 40  1  0  0  0
 10 41  1  0  0  0
 11 42  1  0  0  0
 13 43  1  0  0  0
 14 44  1  0  0  0
 15 45  1  0  0  0
 16 46  1  0  0  0
 17 47  1  0  0  0
 19 48  1  0  0  0
 23 49  1  0  0  0
 23 50  1  0  0  0
 25 51  1  0  0  0
M  END
$$$$
