6bgw_ligand
  -I-interpret- 

 53 56  0  0  0  0  0  0  0  0999 V2000
  -29.4830   22.0660    3.5950 C   0  0  0  0  0
  -27.8000   23.2220    5.5030 C   0  0  0  0  0
  -25.3790   23.6810    0.5980 C   0  0  0  0  0
  -21.6290   24.0510    0.8480 C   0  0  0  0  0
  -21.4280   25.1210   -0.1800 C   0  0  0  0  0
  -22.5700   26.0910   -0.2290 C   0  0  0  0  0
  -24.7480   20.3080    3.3730 C   0  0  0  0  0
  -23.2120   18.9690    7.7720 C   0  0  0  0  0
  -23.3670   18.6560    6.2780 C   0  0  0  0  0
  -23.9680   19.5400    5.3890 C   0  0  0  0  0
  -24.9970   21.2790    4.3130 C   0  0  0  0  0
  -25.6910   22.6170    4.2000 C   0  0  0  0  0
  -27.2090   22.6600    4.3740 C   0  0  0  0  0
  -28.0730   22.0610    3.4560 C   0  0  0  0  0
  -30.0580   22.6610    4.7330 C   0  0  0  0  0
  -29.2040   23.2430    5.6940 C   0  0  0  0  0
  -25.6190   22.7230    1.7260 C   0  0  0  0  0
  -23.0090   23.3780    0.6690 C   0  0  0  0  0
  -23.9350   25.3630   -0.3380 C   0  0  0  0  0
  -24.0880   19.2140    4.0360 C   0  0  0  0  0
  -23.0470   17.1910    4.4150 C   0  0  0  0  0
  -22.8860   17.4350    5.7730 C   0  0  0  0  0
  -20.2550   25.7990    0.0770 F   0  0  0  0  0
  -21.2520   24.5410   -1.4300 F   0  0  0  0  0
  -24.5410   20.8040    5.5340 N   0  0  0  0  0
  -24.0850   24.3670    0.7220 N   0  3  0  0  0
  -23.6340   18.0470    3.5290 N   0  0  0  0  0
  -23.8850   19.9500    8.2610 O   0  0  0  0  0
  -25.2550   23.3370    3.0000 O   0  0  0  0  0
  -22.4260   18.2760    8.5110 O   0  0  0  0  0
  -26.8190   23.9520    6.7280 Cl  0  0  0  0  0
  -30.1145   21.6145    2.8298 H   0  0  0  0  0
  -26.1667   24.4342    0.6178 H   0  0  0  0  0
  -25.3764   23.1156   -0.3339 H   0  0  0  0  0
  -21.5809   24.5003    1.8399 H   0  0  0  0  0
  -20.8503   23.2973    0.7306 H   0  0  0  0  0
  -22.4465   26.7235   -1.1081 H   0  0  0  0  0
  -22.5645   26.6754    0.6911 H   0  0  0  0  0
  -25.0044   20.3574    2.3147 H   0  0  0  0  0
  -25.3545   23.1376    5.0966 H   0  0  0  0  0
  -27.6408   21.5638    2.5876 H   0  0  0  0  0
  -31.1394   22.6722    4.8694 H   0  0  0  0  0
  -29.6250   23.7095    6.5847 H   0  0  0  0  0
  -25.0082   21.8333    1.5728 H   0  0  0  0  0
  -26.6760   22.4579    1.7484 H   0  0  0  0  0
  -23.1547   22.6590    1.4752 H   0  0  0  0  0
  -23.0344   22.8852   -0.3029 H   0  0  0  0  0
  -23.9851   24.8572   -1.3022 H   0  0  0  0  0
  -24.7325   26.0996   -0.2406 H   0  0  0  0  0
  -22.6758   16.2424    4.0271 H   0  0  0  0  0
  -22.4039   16.7058    6.4241 H   0  0  0  0  0
  -24.0405   24.8555    1.6163 H   0  0  0  0  0
  -24.4151   20.3500    7.5677 H   0  0  0  0  0
 14  1  4  0  0  0
  1 15  4  0  0  0
 13  2  4  0  0  0
  2 16  4  0  0  0
  2 31  1  0  0  0
  3 17  1  0  0  0
 26  3  1  0  0  0
  4  5  1  0  0  0
 18  4  1  0  0  0
  5  6  1  0  0  0
  5 23  1  0  0  0
  5 24  1  0  0  0
  6 19  1  0  0  0
 11  7  4  0  0  0
  7 20  4  0  0  0
  9  8  1  0  0  0
  8 28  1  0  0  0
  8 30  2  0  0  0
 10  9  4  0  0  0
  9 22  4  0  0  0
 10 20  4  0  0  0
 25 10  4  0  0  0
 12 11  1  0  0  0
 11 25  4  0  0  0
 12 13  1  0  0  0
 29 12  1  0  0  0
 13 14  4  0  0  0
 16 15  4  0  0  0
 17 29  1  0  0  0
 18 26  1  0  0  0
 19 26  1  0  0  0
 20 27  4  0  0  0
 22 21  4  0  0  0
 21 27  4  0  0  0
  1 32  1  0  0  0
  3 33  1  0  0  0
  3 34  1  0  0  0
  4 35  1  0  0  0
  4 36  1  0  0  0
  6 37  1  0  0  0
  6 38  1  0  0  0
  7 39  1  0  0  0
 12 40  1  0  0  0
 14 41  1  0  0  0
 15 42  1  0  0  0
 16 43  1  0  0  0
 17 44  1  0  0  0
 17 45  1  0  0  0
 18 46  1  0  0  0
 18 47  1  0  0  0
 19 48  1  0  0  0
 19 49  1  0  0  0
 21 50  1  0  0  0
 22 51  1  0  0  0
 26 52  1  0  0  0
 28 53  1  0  0  0
M  END
$$$$
