6eol_ligand
  -I-interpret- 

 49 52  0  0  0  0  0  0  0  0999 V2000
  -24.5340    9.3570   -1.9170 C   0  0  0  0  0
  -25.0580    8.0730   -1.9000 C   0  0  0  0  0
  -10.7930    9.0210    0.1080 C   0  0  0  0  0
  -10.8160    8.9660    1.4830 C   0  0  0  0  0
  -12.0180    8.7460    2.1150 C   0  0  0  0  0
  -11.9290    8.8410   -0.6380 C   0  0  0  0  0
  -13.1440    8.6530    0.0140 C   0  0  0  0  0
  -13.1830    8.5960    1.4110 C   0  0  0  0  0
  -15.6710    8.3670   -0.3530 C   0  0  0  0  0
  -20.3440    5.3690   -0.0550 C   0  0  0  0  0
  -15.5620    7.8780   -2.5120 N   0  0  0  0  0
  -19.8070    6.4510   -0.9430 C   0  0  0  0  0
  -18.6530    9.0700   -1.2330 C   0  0  0  0  0
  -21.7000    5.0920   -0.2990 O   0  0  0  0  0
  -20.1450    8.7890   -1.3940 C   0  0  0  0  0
  -24.8780    5.3930   -2.2590 Cl  0  0  0  0  0
  -24.2790    7.0070   -2.3300 C   0  0  0  0  0
  -26.6710    7.8140   -1.3100 Cl  0  0  0  0  0
  -22.9810    7.2140   -2.7560 C   0  0  0  0  0
  -22.4480    8.4940   -2.7590 C   0  0  0  0  0
  -23.2360    9.5710   -2.3590 C   0  0  0  0  0
  -20.7130    8.6130   -3.0990 S   0  0  0  0  0
  -20.5470    7.6520   -0.6450 O   0  0  0  0  0
  -18.3200    6.6920   -0.7130 C   0  0  0  0  0
  -18.0860    7.0000    0.6650 O   0  0  0  0  0
  -18.2700   10.1380   -2.0990 O   0  0  0  0  0
  -17.8230    7.8320   -1.5910 C   0  0  0  0  0
  -16.3780    8.0300   -1.4500 N   0  0  0  0  0
  -14.3730    8.4360   -0.7670 C   0  0  0  0  0
  -14.3420    8.1200   -2.0960 N   0  0  0  0  0
   -9.6330    9.3430   -0.5000 F   0  0  0  0  0
   -9.6850    9.2500    2.1470 F   0  0  0  0  0
  -12.0410    8.6670    3.4810 F   0  0  0  0  0
  -25.1417   10.1981   -1.5832 H   0  0  0  0  0
  -11.8812    8.8451   -1.7269 H   0  0  0  0  0
  -14.1269    8.4345    1.9317 H   0  0  0  0  0
  -16.0548    8.5463    0.6513 H   0  0  0  0  0
  -20.2512    5.7059    0.9775 H   0  0  0  0  0
  -19.7755    4.4603   -0.2526 H   0  0  0  0  0
  -19.9216    6.1552   -1.9858 H   0  0  0  0  0
  -18.4688    9.3378   -0.1926 H   0  0  0  0  0
  -21.9946    4.3955    0.2924 H   0  0  0  0  0
  -20.6223    9.6874   -1.0026 H   0  0  0  0  0
  -22.3760    6.3710   -3.0897 H   0  0  0  0  0
  -22.8325   10.5830   -2.3932 H   0  0  0  0  0
  -17.7740    5.7864   -0.9772 H   0  0  0  0  0
  -17.1480    7.1506    0.8032 H   0  0  0  0  0
  -17.3316   10.3119   -1.9951 H   0  0  0  0  0
  -17.9609    7.6058   -2.6483 H   0  0  0  0  0
  1  2  4  0  0  0
 21  1  4  0  0  0
 17  2  4  0  0  0
  2 18  1  0  0  0
  3  4  4  0  0  0
  6  3  4  0  0  0
  3 31  1  0  0  0
  5  4  4  0  0  0
  4 32  1  0  0  0
  8  5  4  0  0  0
  5 33  1  0  0  0
  7  6  4  0  0  0
  7  8  4  0  0  0
 29  7  1  0  0  0
 28  9  4  0  0  0
  9 29  4  0  0  0
 12 10  1  0  0  0
 10 14  1  0  0  0
 28 11  4  0  0  0
 11 30  4  0  0  0
 12 23  1  0  0  0
 24 12  1  0  0  0
 13 15  1  0  0  0
 13 26  1  0  0  0
 27 13  1  0  0  0
 15 22  1  0  0  0
 15 23  1  0  0  0
 17 16  1  0  0  0
 19 17  4  0  0  0
 20 19  4  0  0  0
 20 21  4  0  0  0
 22 20  1  0  0  0
 24 25  1  0  0  0
 27 24  1  0  0  0
 27 28  1  0  0  0
 29 30  4  0  0  0
  1 34  1  0  0  0
  6 35  1  0  0  0
  8 36  1  0  0  0
  9 37  1  0  0  0
 10 38  1  0  0  0
 10 39  1  0  0  0
 12 40  1  0  0  0
 13 41  1  0  0  0
 14 42  1  0  0  0
 15 43  1  0  0  0
 19 44  1  0  0  0
 21 45  1  0  0  0
 24 46  1  0  0  0
 25 47  1  0  0  0
 26 48  1  0  0  0
 27 49  1  0  0  0
M  END
$$$$
