1gi8_ligand
  -I-interpret- 

 30 32  0  0  0  0  0  0  0  0999 V2000
    8.9340    1.6430   24.7290 C   0  0  0  0  0
    9.6920    1.4510   23.5520 C   0  0  0  0  0
   10.3200    2.5160   22.9130 C   0  0  0  0  0
   10.1580    3.7640   23.4840 C   0  0  0  0  0
    9.4560    4.0000   24.6040 C   0  0  0  0  0
    8.8340    2.9700   25.2480 C   0  0  0  0  0
    8.3100    0.5980   25.3930 C   0  0  0  0  0
    7.8570    0.8250   26.5920 N   0  0  0  0  0
    8.1960   -0.5750   24.8100 N   0  0  0  0  0
   10.6090    4.9150   23.1410 N   0  0  0  0  0
    9.4440    5.2580   24.9790 N   0  0  0  0  0
   10.1820    5.7860   24.0150 C   0  0  0  0  0
   10.4530    7.1440   23.8690 C   0  0  0  0  0
   10.0690    8.0570   24.8520 C   0  0  0  0  0
   10.2680    9.4210   24.6990 C   0  0  0  0  0
   10.8720    9.9120   23.5440 C   0  0  0  0  0
   11.2740    9.0340   22.5480 C   0  0  0  0  0
   11.0710    7.6580   22.7020 C   0  0  0  0  0
   11.4970    6.8070   21.6840 O   0  0  0  0  0
    9.7868    0.4480   23.1359 H   0  0  0  0  0
   10.9100    2.3729   22.0077 H   0  0  0  0  0
    8.2622    3.1596   26.1564 H   0  0  0  0  0
    7.3949    0.0792   27.1123 H   0  0  0  0  0
    7.7399   -1.3453   25.2989 H   0  0  0  0  0
    8.5637   -0.7147   23.8689 H   0  0  0  0  0
    9.6002    7.6883   25.7644 H   0  0  0  0  0
    9.9516   10.1090   25.4830 H   0  0  0  0  0
   11.0285   10.9839   23.4229 H   0  0  0  0  0
   11.7486    9.4164   21.6443 H   0  0  0  0  0
   11.8891    7.3258   20.9778 H   0  0  0  0  0
  7  1  1  0  0  0
  1  6  4  0  0  0
  1  2  4  0  0  0
  2  3  4  0  0  0
  3  4  4  0  0  0
  4 10  4  0  0  0
  5  4  4  0  0  0
  5 11  4  0  0  0
  6  5  4  0  0  0
 11 12  4  0  0  0
 12 13  1  0  0  0
 10 12  4  0  0  0
 13 18  4  0  0  0
 13 14  4  0  0  0
 14 15  4  0  0  0
 15 16  4  0  0  0
 17 16  4  0  0  0
 18 17  4  0  0  0
 18 19  1  0  0  0
  7  9  1  0  0  0
  7  8  2  0  0  0
  2 20  1  0  0  0
  3 21  1  0  0  0
  6 22  1  0  0  0
  8 23  1  0  0  0
  9 24  1  0  0  0
  9 25  1  0  0  0
 14 26  1  0  0  0
 15 27  1  0  0  0
 16 28  1  0  0  0
 17 29  1  0  0  0
 19 30  1  0  0  0
M  END
$$$$
