6g1u_ligand
  -I-interpret- 

 29 31  0  0  0  0  0  0  0  0999 V2000
    6.7960   -7.1370   21.7780 C   0  0  0  0  0
    6.9920   -6.6810   20.3570 C   0  0  0  0  0
    6.1370   -5.4570   20.1650 C   0  0  0  0  0
    4.8130   -5.7030   20.5410 C   0  0  0  0  0
    2.5530   -5.0370   20.3970 C   0  0  0  0  0
    1.5850   -4.1670   19.9000 C   0  0  0  0  0
    0.2480   -4.3520   20.2400 C   0  0  0  0  0
   -0.1320   -5.3970   21.0700 C   0  0  0  0  0
    0.8280   -6.2670   21.5670 C   0  0  0  0  0
    2.1630   -6.0810   21.2270 C   0  0  0  0  0
    3.1410   -6.9300   21.7090 C   0  0  0  0  0
    4.4730   -6.7630   21.3910 C   0  0  0  0  0
    5.3940   -7.6700   21.9040 C   0  0  0  0  0
    4.2450   -3.7470   19.1910 C   0  0  0  0  0
    3.8540   -4.8710   20.0780 N   0  0  0  0  0
    2.7980   -7.9360   22.5040 N   0  0  0  0  0
   -0.9500   -3.2980   19.6410 Cl  0  0  0  0  0
    7.5381   -7.0896   22.5749 H   0  0  0  0  0
    7.6319   -7.1486   19.6087 H   0  0  0  0  0
    6.5023   -4.5038   19.7829 H   0  0  0  0  0
    1.8739   -3.3437   19.2467 H   0  0  0  0  0
   -1.1814   -5.5341   21.3308 H   0  0  0  0  0
    0.5374   -7.0904   22.2194 H   0  0  0  0  0
    5.1356   -8.6358   22.3384 H   0  0  0  0  0
    4.9425   -3.0958   19.7178 H   0  0  0  0  0
    4.7218   -4.1425   18.2941 H   0  0  0  0  0
    3.3568   -3.1801   18.9120 H   0  0  0  0  0
    1.8194   -8.0773   22.7544 H   0  0  0  0  0
    3.5130   -8.5678   22.8646 H   0  0  0  0  0
  2  1  4  0  0  0
  1 13  4  0  0  0
  3  2  4  0  0  0
  4  3  4  0  0  0
  4 12  4  0  0  0
 15  4  4  0  0  0
  5  6  4  0  0  0
  5 10  4  0  0  0
  5 15  4  0  0  0
  6  7  4  0  0  0
  7  8  4  0  0  0
  7 17  1  0  0  0
  8  9  4  0  0  0
  9 10  4  0  0  0
 10 11  4  0  0  0
 11 12  4  0  0  0
 11 16  1  0  0  0
 12 13  4  0  0  0
 15 14  1  0  0  0
  1 18  1  0  0  0
  2 19  1  0  0  0
  3 20  1  0  0  0
  6 21  1  0  0  0
  8 22  1  0  0  0
  9 23  1  0  0  0
 13 24  1  0  0  0
 14 25  1  0  0  0
 14 26  1  0  0  0
 14 27  1  0  0  0
 16 28  1  0  0  0
 16 29  1  0  0  0
M  END
$$$$
