1sre_ligand
  -I-interpret- 

 28 29  0  0  0  0  0  0  0  0999 V2000
   33.4080   12.2270   -5.3890 C   0  0  0  0  0
   34.4880   11.9540   -4.6170 C   0  0  0  0  0
   34.4630   10.8210   -3.7710 C   0  0  0  0  0
   33.3100   10.0230   -3.7440 C   0  0  0  0  0
   32.1880   10.3440   -4.5100 C   0  0  0  0  0
   32.2190   11.4550   -5.3560 C   0  0  0  0  0
   31.7790   14.3940   -7.8400 C   0  0  0  0  0
   32.6310   15.4890   -8.0010 C   0  0  0  0  0
   32.2270   16.5010   -8.8540 C   0  0  0  0  0
   31.0110   16.4270   -9.5220 C   0  0  0  0  0
   30.1510   15.3400   -9.3390 C   0  0  0  0  0
   30.5370   14.3020   -8.4820 C   0  0  0  0  0
   35.7370   12.8300   -4.6450 C   0  0  0  0  0
   33.3380   13.4220   -6.2980 N   0  0  0  0  0
   32.1900   13.3320   -6.9060 N   0  0  0  0  0
   36.5450   12.6660   -3.7250 O   0  0  0  0  0
   36.0000   13.8300   -5.6110 O   0  0  0  0  0
   30.6080   17.4910  -10.3380 O   0  0  0  0  0
   35.3244   10.5724   -3.1511 H   0  0  0  0  0
   33.2896    9.1348   -3.1125 H   0  0  0  0  0
   31.2900    9.7292   -4.4481 H   0  0  0  0  0
   31.3582   11.7197   -5.9701 H   0  0  0  0  0
   33.5826   15.5446   -7.4723 H   0  0  0  0  0
   32.8711   17.3675   -9.0038 H   0  0  0  0  0
   29.1926   15.3010   -9.8567 H   0  0  0  0  0
   29.8866   13.4428   -8.3182 H   0  0  0  0  0
   35.2917   13.8417   -6.2589 H   0  0  0  0  0
   29.7533   17.2894  -10.7258 H   0  0  0  0  0
  1  2  4  0  0  0
  1  6  4  0  0  0
 14  1  1  0  0  0
  2  3  4  0  0  0
  2 13  1  0  0  0
  3  4  4  0  0  0
  5  4  4  0  0  0
  6  5  4  0  0  0
  7  8  4  0  0  0
  7 12  4  0  0  0
 15  7  1  0  0  0
  8  9  4  0  0  0
  9 10  4  0  0  0
 11 10  4  0  0  0
 10 18  1  0  0  0
 12 11  4  0  0  0
 13 16  2  0  0  0
 13 17  1  0  0  0
 14 15  2  0  0  0
  3 19  1  0  0  0
  4 20  1  0  0  0
  5 21  1  0  0  0
  6 22  1  0  0  0
  8 23  1  0  0  0
  9 24  1  0  0  0
 11 25  1  0  0  0
 12 26  1  0  0  0
 17 27  1  0  0  0
 18 28  1  0  0  0
M  END
$$$$
