6hk6_ligand
  -I-interpret- 

 34 36  0  0  0  0  0  0  0  0999 V2000
  -71.9080  -17.9370   86.4020 C   0  0  0  0  0
  -70.2010  -24.8780   79.0350 C   0  0  0  0  0
  -72.4210  -19.2050   86.4690 C   0  0  0  0  0
  -73.1850  -19.8360   81.8110 C   0  0  0  0  0
  -71.1030  -23.8880   79.5110 C   0  0  0  0  0
  -73.8370  -20.8530   80.9160 C   0  0  0  0  0
  -72.8620  -21.8890   80.4210 C   0  0  0  0  0
  -72.8180  -23.1570   81.0350 C   0  0  0  0  0
  -71.9630  -24.1250   80.6020 C   0  0  0  0  0
  -71.1370  -22.6190   78.8760 C   0  0  0  0  0
  -72.0390  -21.6380   79.3520 C   0  0  0  0  0
  -72.8500  -19.8990   85.4000 N   0  0  0  0  0
  -73.2170  -20.1070   83.1460 N   0  0  0  0  0
  -71.8180  -17.3390   85.1630 C   0  0  0  0  0
  -72.7650  -19.3010   84.2050 C   0  0  0  0  0
  -72.2490  -18.0130   84.0420 C   0  0  0  0  0
  -72.7050  -18.8250   81.3280 O   0  0  0  0  0
  -69.3820  -24.6140   77.9820 C   0  0  0  0  0
  -69.4190  -23.3550   77.3470 C   0  0  0  0  0
  -70.2710  -22.3850   77.7800 C   0  0  0  0  0
  -71.5805  -17.4159   87.3016 H   0  0  0  0  0
  -70.1655  -25.8550   79.5170 H   0  0  0  0  0
  -72.4855  -19.6804   87.4478 H   0  0  0  0  0
  -74.2429  -20.3301   80.0500 H   0  0  0  0  0
  -74.6093  -21.3636   81.4913 H   0  0  0  0  0
  -73.4818  -23.3673   81.8736 H   0  0  0  0  0
  -71.9438  -25.0922   81.1042 H   0  0  0  0  0
  -72.0808  -20.6658   78.8608 H   0  0  0  0  0
  -73.6190  -21.0066   83.4096 H   0  0  0  0  0
  -71.4062  -16.3340   85.0708 H   0  0  0  0  0
  -72.1892  -17.5543   83.0550 H   0  0  0  0  0
  -68.6928  -25.3799   77.6265 H   0  0  0  0  0
  -68.7596  -23.1568   76.5020 H   0  0  0  0  0
  -70.2867  -21.4178   77.2776 H   0  0  0  0  0
  3  1  4  0  0  0
  1 14  4  0  0  0
  5  2  4  0  0  0
  2 18  4  0  0  0
 12  3  4  0  0  0
  4  6  1  0  0  0
 13  4  1  0  0  0
  4 17  2  0  0  0
  9  5  4  0  0  0
 10  5  4  0  0  0
  6  7  1  0  0  0
  7  8  4  0  0  0
  7 11  4  0  0  0
  8  9  4  0  0  0
 11 10  4  0  0  0
 10 20  4  0  0  0
 15 12  4  0  0  0
 13 15  1  0  0  0
 14 16  4  0  0  0
 15 16  4  0  0  0
 18 19  4  0  0  0
 19 20  4  0  0  0
  1 21  1  0  0  0
  2 22  1  0  0  0
  3 23  1  0  0  0
  6 24  1  0  0  0
  6 25  1  0  0  0
  8 26  1  0  0  0
  9 27  1  0  0  0
 11 28  1  0  0  0
 13 29  1  0  0  0
 14 30  1  0  0  0
 16 31  1  0  0  0
 18 32  1  0  0  0
 19 33  1  0  0  0
 20 34  1  0  0  0
M  END
$$$$
