5jgd_ligand
  -I-interpret- 

 58 61  0  0  0  0  0  0  0  0999 V2000
  -20.0260   51.4190   20.2110 C   0  0  0  0  0
  -20.6890   52.7430   19.6600 C   0  0  0  0  0
  -20.5540   55.1860   19.6000 C   0  0  0  0  0
  -18.5370   53.8490   19.6950 C   0  0  0  0  0
  -17.8720   52.5910   20.2970 C   0  0  0  0  0
  -19.9440   53.9450   20.1130 N   0  3  0  0  0
  -17.9220   50.1520   19.9910 C   0  0  0  0  0
  -17.7120   49.3460   18.7340 C   0  0  0  0  0
  -16.4570   49.1790   18.0820 C   0  0  0  0  0
  -15.0810   51.2080   18.5520 C   0  0  0  0  0
  -15.0980   51.7610   17.1420 C   0  0  0  0  0
  -13.7840   51.4190   19.2840 C   0  0  0  0  0
   -8.8340   49.4920   14.4830 O   0  0  0  0  0
   -9.9490   49.5010   15.0100 C   0  0  0  0  0
  -11.0070   48.5840   14.7040 C   0  0  0  0  0
  -10.9790   47.2920   13.5570 S   0  0  0  0  0
  -12.5880   46.8440   13.9190 C   0  0  0  0  0
  -10.2950   50.4290   15.9830 N   0  0  0  0  0
  -11.5100   50.4740   16.5930 C   0  0  0  0  0
  -12.5120   49.6600   16.3510 N   0  0  0  0  0
  -12.2410   48.6520   15.3440 C   0  0  0  0  0
  -13.1530   47.6360   14.8800 C   0  0  0  0  0
  -14.5870   47.4090   15.3450 C   0  0  0  0  0
  -15.2640   46.5030   14.8470 O   0  0  0  0  0
  -15.0510   48.2640   16.3210 N   0  0  0  0  0
  -16.3430   48.3790   16.9270 C   0  0  0  0  0
  -15.2960   49.7680   18.5690 O   0  0  0  0  0
  -17.4840   47.7480   16.4130 C   0  0  0  0  0
  -18.7110   47.9060   17.0510 C   0  0  0  0  0
  -18.8230   48.6890   18.1970 C   0  0  0  0  0
  -17.4800   49.7150   21.0380 O   0  0  0  0  0
  -18.5780   51.3500   19.9140 N   0  0  0  0  0
  -20.5111   50.5713   19.7271 H   0  0  0  0  0
  -20.1501   51.4041   21.2938 H   0  0  0  0  0
  -21.7100   52.8038   20.0368 H   0  0  0  0  0
  -20.6723   52.7133   18.5705 H   0  0  0  0  0
  -20.0093   56.0455   19.9907 H   0  0  0  0  0
  -20.5074   55.1891   18.5110 H   0  0  0  0  0
  -21.5945   55.2373   19.9205 H   0  0  0  0  0
  -18.4965   53.7824   18.6078 H   0  0  0  0  0
  -18.0040   54.7319   20.0478 H   0  0  0  0  0
  -17.9026   52.6776   21.3831 H   0  0  0  0  0
  -16.8517   52.5320   19.9180 H   0  0  0  0  0
  -19.9888   53.9812   21.1314 H   0  0  0  0  0
  -15.8822   51.7588   19.0447 H   0  0  0  0  0
  -14.9195   52.8358   17.1725 H   0  0  0  0  0
  -14.3172   51.2782   16.5543 H   0  0  0  0  0
  -16.0695   51.5655   16.6881 H   0  0  0  0  0
  -12.9769   50.9295   18.7390 H   0  0  0  0  0
  -13.5792   52.4871   19.3572 H   0  0  0  0  0
  -13.8594   50.9928   20.2844 H   0  0  0  0  0
  -13.1077   46.0165   13.4361 H   0  0  0  0  0
   -9.5956   51.1190   16.2571 H   0  0  0  0  0
  -11.6647   51.2488   17.3439 H   0  0  0  0  0
  -14.3578   48.9258   16.6702 H   0  0  0  0  0
  -17.4107   47.1345   15.5150 H   0  0  0  0  0
  -19.5948   47.4109   16.6487 H   0  0  0  0  0
  -19.7930   48.7914   18.6835 H   0  0  0  0  0
  1  2  1  0  0  0
 32  1  1  0  0  0
  2  6  1  0  0  0
  6  3  1  0  0  0
  5  4  1  0  0  0
  4  6  1  0  0  0
 32  5  1  0  0  0
  8  7  1  0  0  0
  7 31  2  0  0  0
  7 32  1  0  0  0
  9  8  4  0  0  0
  8 30  4  0  0  0
 26  9  4  0  0  0
  9 27  1  0  0  0
 10 11  1  0  0  0
 10 12  1  0  0  0
 27 10  1  0  0  0
 14 13  2  0  0  0
 15 14  1  0  0  0
 14 18  1  0  0  0
 15 16  4  0  0  0
 21 15  4  0  0  0
 17 16  4  0  0  0
 22 17  4  0  0  0
 19 18  1  0  0  0
 20 19  2  0  0  0
 21 20  1  0  0  0
 22 21  4  0  0  0
 23 22  1  0  0  0
 23 24  2  0  0  0
 25 23  1  0  0  0
 25 26  1  0  0  0
 26 28  4  0  0  0
 28 29  4  0  0  0
 29 30  4  0  0  0
  1 33  1  0  0  0
  1 34  1  0  0  0
  2 35  1  0  0  0
  2 36  1  0  0  0
  3 37  1  0  0  0
  3 38  1  0  0  0
  3 39  1  0  0  0
  4 40  1  0  0  0
  4 41  1  0  0  0
  5 42  1  0  0  0
  5 43  1  0  0  0
  6 44  1  0  0  0
 10 45  1  0  0  0
 11 46  1  0  0  0
 11 47  1  0  0  0
 11 48  1  0  0  0
 12 49  1  0  0  0
 12 50  1  0  0  0
 12 51  1  0  0  0
 17 52  1  0  0  0
 18 53  1  0  0  0
 19 54  1  0  0  0
 25 55  1  0  0  0
 28 56  1  0  0  0
 29 57  1  0  0  0
 30 58  1  0  0  0
M  END
$$$$
