5wf3_ligand
  -I-interpret- 

 61 64  0  0  0  0  0  0  0  0999 V2000
  128.6620  193.0890  282.3440 C   0  0  0  0  0
  133.8550  195.2730  280.6280 C   0  0  0  0  0
  130.3610  198.3280  282.0040 C   0  0  0  0  0
  128.4420  196.3770  281.4950 C   0  0  0  0  0
  129.6800  196.3240  280.8850 C   0  0  0  0  0
  130.6340  197.2940  281.1390 C   0  0  0  0  0
  130.5890  194.1130  276.9510 C   0  0  0  0  0
  130.6880  193.0260  277.7880 C   0  0  0  0  0
  131.4150  193.1110  278.9640 C   0  0  0  0  0
  131.9420  195.3890  278.4610 C   0  0  0  0  0
  131.2130  195.2910  277.2870 C   0  0  0  0  0
  129.8040  194.7280  285.0500 C   0  0  0  0  0
  127.3910  193.9080  282.4820 C   0  0  0  0  0
  134.3460  195.1320  282.0450 C   0  0  0  0  0
  129.1340  198.4050  282.6240 C   0  0  0  0  0
  128.1770  197.4400  282.3710 C   0  0  0  0  0
  131.7100  196.0140  284.6040 C   0  0  0  0  0
  132.0410  194.2950  279.2950 C   0  0  0  0  0
  131.3020  196.9920  285.4620 C   0  0  0  0  0
  130.0600  196.8200  286.1590 C   0  0  0  0  0
  132.9820  196.1090  283.8350 C   0  0  0  0  0
  130.7970  191.8880  285.0680 C   0  0  0  0  0
  129.4570  192.2770  285.6790 C   0  0  0  0  0
  129.0420  193.4490  284.7790 C   0  0  0  0  0
  130.4960  191.9050  283.5780 C   0  0  0  0  0
  130.9660  194.9160  284.4110 N   0  0  0  0  0
  129.3360  195.6660  285.9250 N   0  0  0  0  0
  133.2310  195.1170  282.9800 N   0  0  0  0  0
  129.3640  192.8510  283.4690 N   0  0  0  0  0
  132.0480  198.0920  285.6460 O   0  0  0  0  0
  129.6450  197.6710  286.9550 O   0  0  0  0  0
  133.7680  197.0490  283.9530 O   0  0  0  0  0
  129.0150  192.6100  281.2590 O   0  0  0  0  0
  132.7560  194.3730  280.4630 O   0  0  0  0  0
  127.2160  195.1570  281.1710 S   0  0  0  0  0
  126.6420  197.5620  283.1660 Cl  0  0  0  0  0
  134.6516  195.0356  279.9229 H   0  0  0  0  0
  133.5408  196.2984  280.4335 H   0  0  0  0  0
  131.1176  199.0880  282.1991 H   0  0  0  0  0
  129.9080  195.5101  280.1967 H   0  0  0  0  0
  131.6070  197.2382  280.6509 H   0  0  0  0  0
  130.0182  194.0407  276.0252 H   0  0  0  0  0
  130.1914  192.0922  277.5243 H   0  0  0  0  0
  131.4921  192.2472  279.6243 H   0  0  0  0  0
  132.4344  196.3252  278.7240 H   0  0  0  0  0
  131.1337  196.1536  276.6254 H   0  0  0  0  0
  127.4307  194.4295  283.4383 H   0  0  0  0  0
  126.5437  193.2261  282.4103 H   0  0  0  0  0
  134.9897  195.9798  282.2796 H   0  0  0  0  0
  134.8928  194.1934  282.1354 H   0  0  0  0  0
  128.9182  199.2231  283.3112 H   0  0  0  0  0
  131.1625  190.9230  285.4190 H   0  0  0  0  0
  131.6062  192.5625  285.3481 H   0  0  0  0  0
  129.5173  192.5372  286.7358 H   0  0  0  0  0
  128.7325  191.4628  285.6986 H   0  0  0  0  0
  128.0128  193.7847  284.9059 H   0  0  0  0  0
  130.2550  190.9162  283.1877 H   0  0  0  0  0
  131.3553  192.2089  282.9802 H   0  0  0  0  0
  128.4500  195.5148  286.4071 H   0  0  0  0  0
  132.6097  194.3080  282.9812 H   0  0  0  0  0
  131.6139  198.6697  286.2780 H   0  0  0  0  0
  1 13  1  0  0  0
 29  1  1  0  0  0
  1 33  2  0  0  0
 14  2  1  0  0  0
  2 34  1  0  0  0
  6  3  4  0  0  0
 15  3  4  0  0  0
  4  5  4  0  0  0
  4 16  4  0  0  0
 35  4  1  0  0  0
  5  6  4  0  0  0
  8  7  4  0  0  0
 11  7  4  0  0  0
  9  8  4  0  0  0
 18  9  4  0  0  0
 10 11  4  0  0  0
 18 10  4  0  0  0
 24 12  1  0  0  0
 12 26  2  0  0  0
 12 27  1  0  0  0
 13 35  1  0  0  0
 28 14  1  0  0  0
 16 15  4  0  0  0
 16 36  1  0  0  0
 17 19  2  0  0  0
 17 21  1  0  0  0
 26 17  1  0  0  0
 34 18  1  0  0  0
 20 19  1  0  0  0
 19 30  1  0  0  0
 27 20  1  0  0  0
 20 31  2  0  0  0
 21 28  1  0  0  0
 21 32  2  0  0  0
 23 22  1  0  0  0
 22 25  1  0  0  0
 24 23  1  0  0  0
 24 29  1  0  0  0
 25 29  1  0  0  0
  2 37  1  0  0  0
  2 38  1  0  0  0
  3 39  1  0  0  0
  5 40  1  0  0  0
  6 41  1  0  0  0
  7 42  1  0  0  0
  8 43  1  0  0  0
  9 44  1  0  0  0
 10 45  1  0  0  0
 11 46  1  0  0  0
 13 47  1  0  0  0
 13 48  1  0  0  0
 14 49  1  0  0  0
 14 50  1  0  0  0
 15 51  1  0  0  0
 22 52  1  0  0  0
 22 53  1  0  0  0
 23 54  1  0  0  0
 23 55  1  0  0  0
 24 56  1  0  0  0
 25 57  1  0  0  0
 25 58  1  0  0  0
 27 59  1  0  0  0
 28 60  1  0  0  0
 30 61  1  0  0  0
M  END
$$$$
