5f95_ligand
  -I-interpret- 

 43 46  0  0  0  0  0  0  0  0999 V2000
   77.3150   -1.4590  140.7230 C   0  0  0  0  0
   77.6140   -0.1620  141.1330 C   0  0  0  0  0
   78.3760    0.6380  140.2770 C   0  0  0  0  0
   78.8300    0.2130  139.0880 N   0  0  0  0  0
   78.5360   -1.0400  138.7250 C   0  0  0  0  0
   77.7930   -1.9020  139.4980 C   0  0  0  0  0
   76.4440   -2.3800  141.5120 C   0  0  0  0  0
   78.7920    1.9570  140.5240 N   0  0  0  0  0
   76.0910   -1.9490  142.7430 N   0  0  0  0  0
   76.0590   -3.4450  141.0360 O   0  0  0  0  0
   78.5960    2.7430  141.6080 C   0  0  0  0  0
   78.8640    4.2130  141.3730 C   0  0  0  0  0
   78.1950    2.3290  142.6890 O   0  0  0  0  0
   79.9400    4.8710  142.1870 C   0  0  0  0  0
   78.5250    5.1700  142.4780 C   0  0  0  0  0
   75.1020   -2.5080  143.5870 C   0  0  0  0  0
   74.6210   -3.8120  143.5060 C   0  0  0  0  0
   73.6550   -4.3140  144.2760 N   0  0  0  0  0
   73.1270   -3.4970  145.1840 C   0  0  0  0  0
   73.5220   -2.1870  145.3630 C   0  0  0  0  0
   74.5290   -1.6710  144.5540 C   0  0  0  0  0
   74.9550   -0.2530  144.7150 C   0  0  0  0  0
   74.5140    0.7270  143.8270 C   0  0  0  0  0
   74.9370    2.0390  143.9550 C   0  0  0  0  0
   75.8050    2.3910  144.9690 C   0  0  0  0  0
   76.2520    1.4280  145.8570 C   0  0  0  0  0
   75.8300    0.1170  145.7340 C   0  0  0  0  0
   77.2641    0.2179  142.0929 H   0  0  0  0  0
   78.9053   -1.3980  137.7640 H   0  0  0  0  0
   77.5835   -2.9150  139.1543 H   0  0  0  0  0
   79.3244    2.3893  139.7690 H   0  0  0  0  0
   76.5899   -1.1349  143.1018 H   0  0  0  0  0
   78.6316    4.1358  140.3109 H   0  0  0  0  0
   80.9976    5.0197  142.4047 H   0  0  0  0  0
   77.7770    5.7004  143.0673 H   0  0  0  0  0
   75.0661   -4.4698  142.7595 H   0  0  0  0  0
   72.3353   -3.8857  145.8245 H   0  0  0  0  0
   73.0524   -1.5665  146.1262 H   0  0  0  0  0
   73.8288    0.4574  143.0233 H   0  0  0  0  0
   74.5840    2.7953  143.2539 H   0  0  0  0  0
   76.1374    3.4242  145.0701 H   0  0  0  0  0
   76.9395    1.7042  146.6565 H   0  0  0  0  0
   76.1850   -0.6334  146.4404 H   0  0  0  0  0
  1  2  4  0  0  0
  1  6  4  0  0  0
  1  7  1  0  0  0
  2  3  4  0  0  0
  3  4  4  0  0  0
  3  8  1  0  0  0
  4  5  4  0  0  0
  5  6  4  0  0  0
  7  9  1  0  0  0
  7 10  2  0  0  0
  8 11  1  0  0  0
  9 16  1  0  0  0
 11 12  1  0  0  0
 11 13  2  0  0  0
 12 14  1  0  0  0
 12 15  1  0  0  0
 14 15  2  0  0  0
 16 17  4  0  0  0
 16 21  4  0  0  0
 17 18  4  0  0  0
 18 19  4  0  0  0
 19 20  4  0  0  0
 20 21  4  0  0  0
 21 22  1  0  0  0
 22 23  4  0  0  0
 22 27  4  0  0  0
 23 24  4  0  0  0
 24 25  4  0  0  0
 25 26  4  0  0  0
 26 27  4  0  0  0
  2 28  1  0  0  0
  5 29  1  0  0  0
  6 30  1  0  0  0
  8 31  1  0  0  0
  9 32  1  0  0  0
 12 33  1  0  0  0
 14 34  1  0  0  0
 15 35  1  0  0  0
 17 36  1  0  0  0
 19 37  1  0  0  0
 20 38  1  0  0  0
 23 39  1  0  0  0
 24 40  1  0  0  0
 25 41  1  0  0  0
 26 42  1  0  0  0
 27 43  1  0  0  0
M  END
$$$$
