5ale_ligand
  -I-interpret- 

 19 20  0  0  0  0  0  0  0  0999 V2000
   18.9120    9.7000   13.6540 C   0  0  0  0  0
   17.6090   10.1410   13.5430 C   0  0  0  0  0
   17.0180   10.1860   12.2970 C   0  0  0  0  0
   17.6810    9.7990   11.1500 C   0  0  0  0  0
   18.9810    9.3480   11.2780 C   0  0  0  0  0
   19.5880    9.3180   12.5150 C   0  0  0  0  0
   21.2030    8.7620   12.6350 Cl  0  0  0  0  0
   17.0420    9.7940    9.8500 C   0  0  0  0  0
   15.7420    9.8830    9.4120 C   0  0  0  0  0
   15.8300    9.7120    8.0090 C   0  0  0  0  0
   17.0940    9.5050    7.6170 N   0  0  0  0  0
   17.8570    9.5620    8.7820 O   0  0  0  0  0
   15.7230   10.6210   12.2130 O   0  0  0  0  0
   19.3994    9.6544   14.6279 H   0  0  0  0  0
   17.0537   10.4499   14.4286 H   0  0  0  0  0
   19.5288    9.0145   10.3966 H   0  0  0  0  0
   14.8456   10.0480   10.0098 H   0  0  0  0  0
   14.9759    9.7447    7.3326 H   0  0  0  0  0
   15.4391   10.6021   11.2961 H   0  0  0  0  0
  1  2  4  0  0  0
  1  6  4  0  0  0
  2  3  4  0  0  0
  3  4  4  0  0  0
  3 13  1  0  0  0
  4  5  4  0  0  0
  4  8  1  0  0  0
  5  6  4  0  0  0
  6  7  1  0  0  0
  8  9  4  0  0  0
  8 12  4  0  0  0
  9 10  4  0  0  0
 10 11  4  0  0  0
 11 12  4  0  0  0
  1 14  1  0  0  0
  2 15  1  0  0  0
  5 16  1  0  0  0
  9 17  1  0  0  0
 10 18  1  0  0  0
 13 19  1  0  0  0
M  END
$$$$
