2br6_ligand
  -I-interpret- 

 15 15  0  0  0  0  0  0  0  0999 V2000
    9.0250   20.9090   13.5860 N   0  3  0  0  0
    8.6970   22.1290   13.4550 C   0  0  0  0  0
    9.2120   23.0850   12.5000 C   0  0  0  0  0
    9.4140   22.9260   11.2950 O   0  0  0  0  0
    8.0430   22.8740   14.6590 C   0  0  0  0  0
    8.7190   24.2340   14.5760 C   0  0  0  0  0
    9.4110   24.3440   13.2390 O   0  0  0  0  0
    9.4358   20.5732   12.7149 H   0  0  0  0  0
    9.7055   20.8203   14.3406 H   0  0  0  0  0
    8.1962   20.3572   13.8073 H   0  0  0  0  0
    8.0726   21.5584   12.7675 H   0  0  0  0  0
    8.1890   22.3713   15.6151 H   0  0  0  0  0
    6.9555   22.9227   14.6039 H   0  0  0  0  0
    9.4464   24.3377   15.3811 H   0  0  0  0  0
    7.9763   25.0255   14.6768 H   0  0  0  0  0
  1  2  1  0  0  0
  2  3  1  0  0  0
  2  5  1  0  0  0
  3  4  2  0  0  0
  3  7  1  0  0  0
  5  6  1  0  0  0
  6  7  1  0  0  0
  1  8  1  0  0  0
  1  9  1  0  0  0
  1 10  1  0  0  0
  2 11  1  0  0  0
  5 12  1  0  0  0
  5 13  1  0  0  0
  6 14  1  0  0  0
  6 15  1  0  0  0
M  END
$$$$
