4gq4_ligand
  -I-interpret- 

 48 51  0  0  0  0  0  0  0  0999 V2000
   -6.7250    6.4740   11.9360 F   0  0  0  0  0
   -6.3090    7.8100   12.1970 C   0  0  0  0  0
   -6.6780    8.2860   10.9120 F   0  0  0  0  0
   -5.1690    7.8840   12.3710 F   0  0  0  0  0
   -7.3680    8.3500   13.1430 C   0  0  0  0  0
   -8.7670    8.2900   12.8530 C   0  0  0  0  0
   -9.6990    6.8110   12.9990 S   0  0  0  0  0
   -9.6040    9.2380   12.3110 C   0  0  0  0  0
  -10.9070    8.9110   12.0560 C   0  0  0  0  0
  -11.0540    7.5130   12.3840 C   0  0  0  0  0
  -12.2200    6.9060   12.1920 N   0  0  0  0  0
  -13.2060    7.5450   11.6540 C   0  0  0  0  0
  -13.1800    8.8850   11.3140 N   0  0  0  0  0
  -12.0660    9.5380   11.5870 C   0  0  0  0  0
  -12.0760   10.9060   11.2930 N   0  0  0  0  0
  -11.2120   11.8840   11.9440 C   0  0  0  0  0
  -12.0880   12.9190   12.6080 C   0  0  0  0  0
  -13.2880   11.4210   10.6250 C   0  0  0  0  0
  -13.1780   12.8960   10.2840 C   0  0  0  0  0
  -12.9050   13.6350   11.6360 N   0  3  0  0  0
  -13.6200   14.7320   11.9520 C   0  0  0  0  0
  -13.5210   15.3680   13.5070 S   0  0  0  0  0
  -14.3170   16.8820   13.0350 C   0  0  0  0  0
  -15.4050   17.1500   14.0430 C   0  0  0  0  0
  -13.2810   17.9190   12.8620 C   0  0  0  0  0
  -15.0390   16.5660   11.7470 C   0  0  0  0  0
  -14.3650   15.4460   11.1260 N   0  0  0  0  0
   -7.1625    9.4202   13.1641 H   0  0  0  0  0
   -7.2670    7.7129   14.0217 H   0  0  0  0  0
   -9.2327   10.2381   12.0875 H   0  0  0  0  0
  -14.1220    6.9889   11.4543 H   0  0  0  0  0
  -10.5626   12.3588   11.2085 H   0  0  0  0  0
  -10.5832   11.3930   12.6867 H   0  0  0  0  0
  -11.4458   13.6393   13.1148 H   0  0  0  0  0
  -12.7517   12.4105   13.3073 H   0  0  0  0  0
  -14.1287   11.2942   11.3070 H   0  0  0  0  0
  -13.4209   10.8687    9.6947 H   0  0  0  0  0
  -14.0911   13.2605    9.8134 H   0  0  0  0  0
  -12.3761   13.0759    9.5680 H   0  0  0  0  0
  -16.1168   16.3246   14.0355 H   0  0  0  0  0
  -14.9642   17.2423   15.0356 H   0  0  0  0  0
  -15.9181   18.0762   13.7843 H   0  0  0  0  0
  -12.7453   18.0558   13.8014 H   0  0  0  0  0
  -12.5822   17.6068   12.0859 H   0  0  0  0  0
  -13.7531   18.8575   12.5714 H   0  0  0  0  0
  -15.0260   17.4308   11.0837 H   0  0  0  0  0
  -16.0808   16.3166   11.9483 H   0  0  0  0  0
  -14.4571   15.2261   10.1343 H   0  0  0  0  0
  1  2  1  0  0  0
  2  3  1  0  0  0
  2  4  1  0  0  0
  2  5  1  0  0  0
  5  6  1  0  0  0
  6  7  4  0  0  0
  6  8  4  0  0  0
  7 10  4  0  0  0
  8  9  4  0  0  0
  9 10  4  0  0  0
  9 14  4  0  0  0
 10 11  4  0  0  0
 11 12  4  0  0  0
 12 13  4  0  0  0
 13 14  4  0  0  0
 14 15  1  0  0  0
 15 16  1  0  0  0
 15 18  1  0  0  0
 16 17  1  0  0  0
 17 20  1  0  0  0
 18 19  1  0  0  0
 19 20  1  0  0  0
 20 21  2  0  0  0
 21 22  1  0  0  0
 21 27  1  0  0  0
 22 23  1  0  0  0
 23 24  1  0  0  0
 23 25  1  0  0  0
 23 26  1  0  0  0
 26 27  1  0  0  0
  5 28  1  0  0  0
  5 29  1  0  0  0
  8 30  1  0  0  0
 12 31  1  0  0  0
 16 32  1  0  0  0
 16 33  1  0  0  0
 17 34  1  0  0  0
 17 35  1  0  0  0
 18 36  1  0  0  0
 18 37  1  0  0  0
 19 38  1  0  0  0
 19 39  1  0  0  0
 24 40  1  0  0  0
 24 41  1  0  0  0
 24 42  1  0  0  0
 25 43  1  0  0  0
 25 44  1  0  0  0
 25 45  1  0  0  0
 26 46  1  0  0  0
 26 47  1  0  0  0
 27 48  1  0  0  0
M  END
$$$$
