4c6z_ligand
  -I-interpret- 

 31 31  0  0  0  0  0  0  0  0999 V2000
   -8.5150  -17.5250    9.1190 C   0  0  0  0  0
   -3.8350  -23.9010    8.5220 O   0  0  0  0  0
   -4.6970  -21.5000    8.1490 S   0  0  0  0  0
   -8.3810  -18.6940    8.4730 C   0  0  0  0  0
   -7.4960  -22.8200    5.6340 O   0  0  0  0  0
   -7.1720  -19.3510    7.9860 C   0  0  0  0  0
   -5.8480  -18.6950    8.2780 C   0  0  0  0  0
   -7.1730  -20.4750    7.2700 C   0  0  0  0  0
   -5.9840  -21.2470    6.7940 C   0  0  0  0  0
   -5.2450  -20.5480    5.6590 C   0  0  0  0  0
   -4.6730  -23.2870    7.9330 C   0  0  0  0  0
   -5.6520  -23.6940    6.8940 C   0  0  0  0  0
   -5.8600  -25.1290    6.4920 C   0  0  0  0  0
   -6.1240  -26.0560    7.6940 C   0  0  0  0  0
   -6.3570  -22.6760    6.3910 C   0  0  0  0  0
   -7.6345  -16.9243    9.3471 H   0  0  0  0  0
   -9.5043  -17.1764    9.4154 H   0  0  0  0  0
   -9.3107  -19.2310    8.2846 H   0  0  0  0  0
   -7.8260  -21.9532    5.3864 H   0  0  0  0  0
   -5.2169  -19.3861    8.8368 H   0  0  0  0  0
   -5.3593  -18.4323    7.3397 H   0  0  0  0  0
   -6.0129  -17.7935    8.8680 H   0  0  0  0  0
   -8.1500  -20.8766    7.0012 H   0  0  0  0  0
   -5.9201  -20.4182    4.8132 H   0  0  0  0  0
   -4.8963  -19.5732    6.0001 H   0  0  0  0  0
   -4.3919  -21.1544    5.3548 H   0  0  0  0  0
   -4.9498  -25.4723    6.0003 H   0  0  0  0  0
   -6.7341  -25.1694    5.8421 H   0  0  0  0  0
   -5.2716  -26.0208    8.3725 H   0  0  0  0  0
   -7.0206  -25.7238    8.2174 H   0  0  0  0  0
   -6.2659  -27.0769    7.3395 H   0  0  0  0  0
  4  1  2  0  0  0
 11  2  2  0  0  0
  9  3  1  0  0  0
  3 11  1  0  0  0
  6  4  1  0  0  0
 15  5  1  0  0  0
  6  7  1  0  0  0
  8  6  2  0  0  0
  9  8  1  0  0  0
  9 10  1  0  0  0
  9 15  1  0  0  0
 11 12  1  0  0  0
 12 13  1  0  0  0
 12 15  2  0  0  0
 13 14  1  0  0  0
  1 16  1  0  0  0
  1 17  1  0  0  0
  4 18  1  0  0  0
  5 19  1  0  0  0
  7 20  1  0  0  0
  7 21  1  0  0  0
  7 22  1  0  0  0
  8 23  1  0  0  0
 10 24  1  0  0  0
 10 25  1  0  0  0
 10 26  1  0  0  0
 13 27  1  0  0  0
 13 28  1  0  0  0
 14 29  1  0  0  0
 14 30  1  0  0  0
 14 31  1  0  0  0
M  END
$$$$
