3f6g_ligand
  -I-interpret- 

 23 22  0  0  0  0  0  0  0  0999 V2000
   14.6010  -38.2120   -4.8270 N   0  3  0  0  0
   14.3260  -37.0100   -4.0310 C   0  0  0  0  0
   15.6440  -36.3860   -3.5690 C   0  0  0  0  0
   16.5720  -37.1700   -3.2700 O   0  0  0  0  0
   13.4780  -37.3910   -2.8140 C   0  0  0  0  0
   12.1620  -38.0270   -3.2660 C   0  0  0  0  0
   13.2170  -36.1640   -1.9390 C   0  0  0  0  0
   11.2880  -38.3980   -2.0660 C   0  0  0  0  0
   15.6980  -35.1390   -3.5250 O   0  0  0  0  0
   15.1658  -37.9594   -5.6379 H   0  0  0  0  0
   15.1076  -38.8882   -4.2556 H   0  0  0  0  0
   13.7200  -38.6208   -5.1387 H   0  0  0  0  0
   13.7829  -36.2864   -4.6389 H   0  0  0  0  0
   16.2755  -38.0753   -3.3893 H   0  0  0  0  0
   14.0263  -38.1211   -2.2187 H   0  0  0  0  0
   12.3877  -38.9341   -3.8266 H   0  0  0  0  0
   11.6213  -37.3087   -3.8822 H   0  0  0  0  0
   12.6479  -35.4284   -2.5074 H   0  0  0  0  0
   12.6495  -36.4621   -1.0574 H   0  0  0  0  0
   14.1682  -35.7302   -1.6307 H   0  0  0  0  0
   11.8213  -39.1098   -1.4359 H   0  0  0  0  0
   11.0623  -37.4999   -1.4911 H   0  0  0  0  0
   10.3600  -38.8477   -2.4192 H   0  0  0  0  0
  1  2  1  0  0  0
  2  3  1  0  0  0
  2  5  1  0  0  0
  3  4  1  0  0  0
  3  9  2  0  0  0
  5  6  1  0  0  0
  5  7  1  0  0  0
  6  8  1  0  0  0
  1 10  1  0  0  0
  1 11  1  0  0  0
  1 12  1  0  0  0
  2 13  1  0  0  0
  4 14  1  0  0  0
  5 15  1  0  0  0
  6 16  1  0  0  0
  6 17  1  0  0  0
  7 18  1  0  0  0
  7 19  1  0  0  0
  7 20  1  0  0  0
  8 21  1  0  0  0
  8 22  1  0  0  0
  8 23  1  0  0  0
M  END
$$$$
