3wdd_ligand
  -I-interpret- 

159162  0  0  0  0  0  0  0  0999 V2000
  -27.1580   12.5840   -5.5370 O   0  0  0  0  0
  -26.0520   12.4210   -6.0560 C   0  0  0  0  0
  -25.0460   11.5660   -5.3010 C   0  0  0  0  0
  -25.6600   10.1640   -5.1110 C   0  0  0  0  0
  -25.7440    9.4230   -6.4150 C   0  0  0  0  0
  -26.8560    9.3680   -7.2220 C   0  0  0  0  0
  -26.5490    8.6100   -8.3170 N   0  0  0  0  0
  -27.5570    8.2670   -9.3850 C   0  0  0  0  0
  -28.8430    9.0360   -9.1180 C   0  0  0  0  0
  -27.8160    6.7390   -9.3420 C   0  0  0  0  0
  -28.5110    6.2550   -8.0840 C   0  0  0  0  0
  -28.6550    6.3580  -10.4120 O   0  0  0  0  0
  -27.0020    8.6800  -10.7460 C   0  0  0  0  0
  -25.2590    8.1630   -8.2390 C   0  0  0  0  0
  -24.4590    7.3530   -9.0520 C   0  0  0  0  0
  -23.1650    7.0690   -8.6700 C   0  0  0  0  0
  -22.6190    7.5930   -7.5160 C   0  0  0  0  0
  -23.3670    8.3730   -6.6530 C   0  0  0  0  0
  -24.6970    8.6620   -7.0270 C   0  0  0  0  0
  -24.8700    9.4140   -4.1960 O   0  0  0  0  0
  -24.8190   12.1780   -3.9830 N   0  0  0  0  0
  -25.7650   12.9800   -7.2410 N   0  0  0  0  0
  -26.8600   13.6980   -7.9090 C   0  0  0  0  0
  -24.4970   12.8310   -7.9700 C   0  0  0  0  0
  -24.6850   11.9060   -9.1600 C   0  0  0  0  0
  -23.4150   11.6390   -9.9610 C   0  0  0  0  0
  -23.7580   10.8170  -11.2170 C   0  0  0  0  0
  -24.6630   11.5820  -12.0050 O   0  0  0  0  0
  -22.3580   10.9350   -9.1260 C   0  0  0  0  0
  -24.0400   14.2310   -8.4020 C   0  0  0  0  0
  -24.0770   14.5840   -9.5830 O   0  0  0  0  0
  -23.6210   15.0200   -7.4990 N   0  0  0  0  0
  -23.1410   16.3830   -7.8310 C   0  0  0  0  0
  -21.8550   16.7160   -7.1210 C   0  0  0  0  0
  -21.0630   17.4740   -7.7190 O   0  0  0  0  0
  -24.2170   17.4390   -7.5140 C   0  0  0  0  0
  -21.6240   16.2390   -5.8870 N   0  0  0  0  0
  -20.4640   16.6150   -5.0770 C   0  0  0  0  0
  -19.9640   15.3960   -4.3030 C   0  0  0  0  0
  -20.7890   17.7380   -4.0670 C   0  0  0  0  0
  -21.6710   17.1180   -3.1050 O   0  0  0  0  0
  -21.6370   17.8360   -1.8670 C   0  0  0  0  0
  -21.3770   18.9770   -4.7180 C   0  0  0  0  0
  -20.4940   19.9190   -5.2240 C   0  0  0  0  0
  -20.9420   21.1110   -5.7890 C   0  0  0  0  0
  -22.2950   21.3220   -5.9670 C   0  0  0  0  0
  -23.2070   20.3810   -5.4840 C   0  0  0  0  0
  -22.7340   19.1990   -4.8620 C   0  0  0  0  0
  -20.6210   14.3300   -4.2970 O   0  0  0  0  0
  -18.8850   15.5900   -3.5970 N   0  0  0  0  0
  -18.3730   14.6050   -2.6540 C   0  0  0  0  0
  -19.0480   14.8570   -1.2980 C   0  0  0  0  0
  -18.7470   15.9100   -0.7390 O   0  0  0  0  0
  -16.8520   14.8220   -2.5620 C   0  0  0  0  0
  -16.2280   13.9720   -1.4790 C   0  0  0  0  0
  -16.2300   14.5470   -3.9070 C   0  0  0  0  0
  -19.9420   14.0430   -0.7310 N   0  0  0  0  0
  -20.4650   14.3860    0.6370 C   0  0  0  0  0
  -20.4360   12.7520   -1.2900 C   0  0  0  0  0
  -19.9960   11.5360   -0.4510 C   0  0  0  0  0
  -18.5080   11.2030   -0.5520 C   0  0  0  0  0
  -18.1670   10.1710    0.5310 C   0  0  0  0  0
  -18.1300   10.6990   -1.9450 C   0  0  0  0  0
  -21.9710   12.8240   -1.3320 C   0  0  0  0  0
  -22.6700   12.0820   -0.6340 O   0  0  0  0  0
  -24.1660   13.3200   -3.8520 C   0  0  0  0  0
  -23.9700   13.8030   -2.4170 C   0  0  0  0  0
  -23.6850   13.9560   -4.7880 O   0  0  0  0  0
  -24.5600   15.1760   -2.1680 C   0  0  0  0  0
  -24.3820   15.6330   -0.7210 C   0  0  0  0  0
  -25.9930   15.1160   -2.5660 C   0  0  0  0  0
  -26.6480   15.6790   -3.5780 C   0  0  0  0  0
  -28.1260   15.4850   -3.7930 C   0  0  0  0  0
  -25.9300   16.4640   -4.6280 C   0  0  0  0  0
  -22.5190   13.7440   -2.1150 N   0  0  0  0  0
  -24.1042   11.4940   -5.8450 H   0  0  0  0  0
  -26.6695   10.2894   -4.7195 H   0  0  0  0  0
  -27.8153    9.8458   -7.0230 H   0  0  0  0  0
  -29.2345    8.7581   -8.1394 H   0  0  0  0  0
  -28.6357   10.1059   -9.1374 H   0  0  0  0  0
  -29.5766    8.7927   -9.8866 H   0  0  0  0  0
  -26.8223    6.2939   -9.3914 H   0  0  0  0  0
  -29.4909    6.7263   -8.0076 H   0  0  0  0  0
  -28.6296    5.1724   -8.1296 H   0  0  0  0  0
  -27.9103    6.5196   -7.2138 H   0  0  0  0  0
  -28.8084    5.4110  -10.3754 H   0  0  0  0  0
  -26.8137    9.7536  -10.7496 H   0  0  0  0  0
  -26.0707    8.1459  -10.9345 H   0  0  0  0  0
  -27.7267    8.4344  -11.5222 H   0  0  0  0  0
  -24.8567    6.9484   -9.9828 H   0  0  0  0  0
  -22.5580    6.4142   -9.2952 H   0  0  0  0  0
  -21.5750    7.3876   -7.2794 H   0  0  0  0  0
  -22.9461    8.7497   -5.7208 H   0  0  0  0  0
  -24.8147    9.8854   -3.3616 H   0  0  0  0  0
  -25.1742   11.7097   -3.1494 H   0  0  0  0  0
  -26.5403   14.7148   -8.1369 H   0  0  0  0  0
  -27.1206   13.1820   -8.8331 H   0  0  0  0  0
  -27.7282   13.7277   -7.2506 H   0  0  0  0  0
  -23.7317   12.3813   -7.3374 H   0  0  0  0  0
  -25.3904   12.3925   -9.8336 H   0  0  0  0  0
  -25.0222   10.9465   -8.7678 H   0  0  0  0  0
  -22.9948   12.5983  -10.2631 H   0  0  0  0  0
  -24.2122    9.8672  -10.9348 H   0  0  0  0  0
  -22.8535   10.5990  -11.7848 H   0  0  0  0  0
  -24.8924   11.0889  -12.7961 H   0  0  0  0  0
  -22.0986   11.5580   -8.2700 H   0  0  0  0  0
  -22.7498    9.9798   -8.7764 H   0  0  0  0  0
  -21.4702   10.7641   -9.7349 H   0  0  0  0  0
  -23.6146   14.7101   -6.5272 H   0  0  0  0  0
  -22.9408   16.3981   -8.9023 H   0  0  0  0  0
  -25.1125   17.2306   -8.0995 H   0  0  0  0  0
  -24.4590   17.4018   -6.4519 H   0  0  0  0  0
  -23.8382   18.4292   -7.7671 H   0  0  0  0  0
  -22.2936   15.5784   -5.4925 H   0  0  0  0  0
  -19.7013   16.9850   -5.7622 H   0  0  0  0  0
  -19.8889   18.1265   -3.5906 H   0  0  0  0  0
  -20.6204   17.8318   -1.4738 H   0  0  0  0  0
  -21.9585   18.8638   -2.0356 H   0  0  0  0  0
  -22.3063   17.3572   -1.1523 H   0  0  0  0  0
  -19.4229   19.7219   -5.1785 H   0  0  0  0  0
  -20.2259   21.8756   -6.0900 H   0  0  0  0  0
  -22.6485   22.2161   -6.4805 H   0  0  0  0  0
  -24.2782   20.5551   -5.5851 H   0  0  0  0  0
  -23.4452   18.4593   -4.4944 H   0  0  0  0  0
  -18.3784   16.4681   -3.7098 H   0  0  0  0  0
  -18.5789   13.5801   -2.9626 H   0  0  0  0  0
  -16.6615   15.8591   -2.2860 H   0  0  0  0  0
  -16.6699   14.2300   -0.5166 H   0  0  0  0  0
  -16.4117   12.9193   -1.6941 H   0  0  0  0  0
  -15.1541   14.1559   -1.4482 H   0  0  0  0  0
  -16.4363   13.5169   -4.1975 H   0  0  0  0  0
  -16.6530   15.2262   -4.6472 H   0  0  0  0  0
  -15.1525   14.6997   -3.8456 H   0  0  0  0  0
  -19.6355   14.4218    1.3433 H   0  0  0  0  0
  -20.9573   15.3579    0.6032 H   0  0  0  0  0
  -21.1799   13.6260    0.9524 H   0  0  0  0  0
  -20.0105   12.6140   -2.2840 H   0  0  0  0  0
  -20.5430   10.6723   -0.8290 H   0  0  0  0  0
  -20.1992   11.7774    0.5923 H   0  0  0  0  0
  -17.9250   12.1098   -0.3910 H   0  0  0  0  0
  -18.3900   10.5891    1.5126 H   0  0  0  0  0
  -18.7622    9.2714    0.3741 H   0  0  0  0  0
  -17.1074    9.9219    0.4729 H   0  0  0  0  0
  -18.6985    9.7966   -2.1701 H   0  0  0  0  0
  -18.3592   11.4679   -2.6828 H   0  0  0  0  0
  -17.0637   10.4744   -1.9718 H   0  0  0  0  0
  -24.5170   13.1494   -1.7375 H   0  0  0  0  0
  -24.0332   15.9226   -2.7623 H   0  0  0  0  0
  -24.8779   14.9271   -0.0548 H   0  0  0  0  0
  -23.3192   15.6745   -0.4825 H   0  0  0  0  0
  -24.8224   16.6224   -0.5970 H   0  0  0  0  0
  -26.6151   14.5031   -1.9137 H   0  0  0  0  0
  -28.3354   14.4245   -3.9331 H   0  0  0  0  0
  -28.6697   15.8521   -2.9225 H   0  0  0  0  0
  -28.4388   16.0385   -4.6784 H   0  0  0  0  0
  -25.4160   17.3052   -4.1630 H   0  0  0  0  0
  -25.2029   15.8225   -5.1258 H   0  0  0  0  0
  -26.6494   16.8347   -5.3582 H   0  0  0  0  0
  -21.9101   14.4483   -2.5316 H   0  0  0  0  0
  1  2  2  0  0  0
  2  3  1  0  0  0
  2 22  1  0  0  0
  3  4  1  0  0  0
  3 21  1  0  0  0
  4  5  1  0  0  0
  4 20  1  0  0  0
  5  6  4  0  0  0
  5 19  4  0  0  0
  6  7  4  0  0  0
  7  8  1  0  0  0
  7 14  4  0  0  0
  8  9  1  0  0  0
  8 10  1  0  0  0
  8 13  1  0  0  0
 10 11  1  0  0  0
 10 12  1  0  0  0
 14 15  4  0  0  0
 14 19  4  0  0  0
 15 16  4  0  0  0
 16 17  4  0  0  0
 17 18  4  0  0  0
 18 19  4  0  0  0
 21 66  1  0  0  0
 22 23  1  0  0  0
 22 24  1  0  0  0
 24 25  1  0  0  0
 24 30  1  0  0  0
 25 26  1  0  0  0
 26 27  1  0  0  0
 26 29  1  0  0  0
 27 28  1  0  0  0
 30 31  2  0  0  0
 30 32  1  0  0  0
 32 33  1  0  0  0
 33 34  1  0  0  0
 33 36  1  0  0  0
 34 35  2  0  0  0
 34 37  1  0  0  0
 37 38  1  0  0  0
 38 39  1  0  0  0
 38 40  1  0  0  0
 39 49  2  0  0  0
 39 50  1  0  0  0
 40 41  1  0  0  0
 40 43  1  0  0  0
 41 42  1  0  0  0
 43 44  4  0  0  0
 43 48  4  0  0  0
 44 45  4  0  0  0
 45 46  4  0  0  0
 46 47  4  0  0  0
 47 48  4  0  0  0
 50 51  1  0  0  0
 51 52  1  0  0  0
 51 54  1  0  0  0
 52 53  2  0  0  0
 52 57  1  0  0  0
 54 55  1  0  0  0
 54 56  1  0  0  0
 57 58  1  0  0  0
 57 59  1  0  0  0
 59 60  1  0  0  0
 59 64  1  0  0  0
 60 61  1  0  0  0
 61 62  1  0  0  0
 61 63  1  0  0  0
 64 65  2  0  0  0
 64 75  1  0  0  0
 66 67  1  0  0  0
 66 68  2  0  0  0
 67 69  1  0  0  0
 67 75  1  0  0  0
 69 70  1  0  0  0
 69 71  1  0  0  0
 71 72  2  0  0  0
 72 73  1  0  0  0
 72 74  1  0  0  0
  3 76  1  0  0  0
  4 77  1  0  0  0
  6 78  1  0  0  0
  9 79  1  0  0  0
  9 80  1  0  0  0
  9 81  1  0  0  0
 10 82  1  0  0  0
 11 83  1  0  0  0
 11 84  1  0  0  0
 11 85  1  0  0  0
 12 86  1  0  0  0
 13 87  1  0  0  0
 13 88  1  0  0  0
 13 89  1  0  0  0
 15 90  1  0  0  0
 16 91  1  0  0  0
 17 92  1  0  0  0
 18 93  1  0  0  0
 20 94  1  0  0  0
 21 95  1  0  0  0
 23 96  1  0  0  0
 23 97  1  0  0  0
 23 98  1  0  0  0
 24 99  1  0  0  0
 25100  1  0  0  0
 25101  1  0  0  0
 26102  1  0  0  0
 27103  1  0  0  0
 27104  1  0  0  0
 28105  1  0  0  0
 29106  1  0  0  0
 29107  1  0  0  0
 29108  1  0  0  0
 32109  1  0  0  0
 33110  1  0  0  0
 36111  1  0  0  0
 36112  1  0  0  0
 36113  1  0  0  0
 37114  1  0  0  0
 38115  1  0  0  0
 40116  1  0  0  0
 42117  1  0  0  0
 42118  1  0  0  0
 42119  1  0  0  0
 44120  1  0  0  0
 45121  1  0  0  0
 46122  1  0  0  0
 47123  1  0  0  0
 48124  1  0  0  0
 50125  1  0  0  0
 51126  1  0  0  0
 54127  1  0  0  0
 55128  1  0  0  0
 55129  1  0  0  0
 55130  1  0  0  0
 56131  1  0  0  0
 56132  1  0  0  0
 56133  1  0  0  0
 58134  1  0  0  0
 58135  1  0  0  0
 58136  1  0  0  0
 59137  1  0  0  0
 60138  1  0  0  0
 60139  1  0  0  0
 61140  1  0  0  0
 62141  1  0  0  0
 62142  1  0  0  0
 62143  1  0  0  0
 63144  1  0  0  0
 63145  1  0  0  0
 63146  1  0  0  0
 67147  1  0  0  0
 69148  1  0  0  0
 70149  1  0  0  0
 70150  1  0  0  0
 70151  1  0  0  0
 71152  1  0  0  0
 73153  1  0  0  0
 73154  1  0  0  0
 73155  1  0  0  0
 74156  1  0  0  0
 74157  1  0  0  0
 74158  1  0  0  0
 75159  1  0  0  0
M  END
$$$$
