### 
### Created by X-TOOL on Mon Sep 10 21:13:12 2018
### 

@<TRIPOS>MOLECULE
3wdd_ligand
  159   162     1     0     0
SMALL
GAST_HUCK


@<TRIPOS>ATOM
      1 O         -27.1580   12.5840   -5.5370 O.2       1 WRP        -0.3940
      2 C         -26.0520   12.4210   -6.0560 C.2       1 WRP         0.2100
      3 CA        -25.0460   11.5660   -5.3010 C.3       1 WRP         0.1613
      4 CB        -25.6600   10.1640   -5.1110 C.3       1 WRP         0.1126
      5 CG        -25.7440    9.4230   -6.4150 C.2       1 WRP        -0.0135
      6 CD1       -26.8560    9.3680   -7.2220 C.2       1 WRP         0.0225
      7 NE1       -26.5490    8.6100   -8.3170 N.pl3     1 WRP        -0.2674
      8 C1        -27.5570    8.2670   -9.3850 C.3       1 WRP         0.0905
      9 C3        -28.8430    9.0360   -9.1180 C.3       1 WRP        -0.0310
     10 C4        -27.8160    6.7390   -9.3420 C.3       1 WRP         0.0834
     11 C5        -28.5110    6.2550   -8.0840 C.3       1 WRP        -0.0359
     12 O6        -28.6550    6.3580  -10.4120 O.3       1 WRP        -0.3889
     13 C2        -27.0020    8.6800  -10.7460 C.3       1 WRP        -0.0310
     14 CE2       -25.2590    8.1630   -8.2390 C.ar      1 WRP         0.0633
     15 CZ2       -24.4590    7.3530   -9.0520 C.ar      1 WRP        -0.0441
     16 CH2       -23.1650    7.0690   -8.6700 C.ar      1 WRP        -0.0768
     17 CZ3       -22.6190    7.5930   -7.5160 C.ar      1 WRP        -0.0792
     18 CE3       -23.3670    8.3730   -6.6530 C.ar      1 WRP        -0.0746
     19 CD2       -24.6970    8.6620   -7.0270 C.ar      1 WRP        -0.0188
     20 OB        -24.8700    9.4140   -4.1960 O.3       1 WRP        -0.3811
     21 N         -24.8190   12.1780   -3.9830 N.am      1 WRP        -0.2602
     22 N         -25.7650   12.9800   -7.2410 N.am      1 WLU        -0.2527
     23 CN        -26.8600   13.6980   -7.9090 C.3       1 WLU         0.0254
     24 CA        -24.4970   12.8310   -7.9700 C.3       1 WLU         0.1337
     25 CB        -24.6850   11.9060   -9.1600 C.3       1 WLU        -0.0076
     26 CG        -23.4150   11.6390   -9.9610 C.3       1 WLU        -0.0164
     27 CG1       -23.7580   10.8170  -11.2170 C.3       1 WLU         0.0470
     28 O4        -24.6630   11.5820  -12.0050 O.3       1 WLU        -0.3947
     29 CG2       -22.3580   10.9350   -9.1260 C.3       1 WLU        -0.0601
     30 C         -24.0400   14.2310   -8.4020 C.2       1 WLU         0.2041
     31 O         -24.0770   14.5840   -9.5830 O.2       1 WLU        -0.3944
     32 N         -23.6210   15.0200   -7.4990 N.am      1 ALA        -0.2640
     33 CA        -23.1410   16.3830   -7.8310 C.3       1 ALA         0.1282
     34 C         -21.8550   16.7160   -7.1210 C.2       1 ALA         0.2038
     35 O         -21.0630   17.4740   -7.7190 O.2       1 ALA        -0.3944
     36 CB        -24.2170   17.4390   -7.5140 C.3       1 ALA        -0.0244
     37 N         -21.6240   16.2390   -5.8870 N.am      1 WPA        -0.2597
     38 CA        -20.4640   16.6150   -5.0770 C.3       1 WPA         0.1669
     39 C         -19.9640   15.3960   -4.3030 C.2       1 WPA         0.2086
     40 CB        -20.7890   17.7380   -4.0670 C.3       1 WPA         0.1321
     41 OB        -21.6710   17.1180   -3.1050 O.3       1 WPA        -0.3626
     42 CB1       -21.6370   17.8360   -1.8670 C.3       1 WPA         0.0397
     43 CG        -21.3770   18.9770   -4.7180 C.ar      1 WPA        -0.0100
     44 CD1       -20.4940   19.9190   -5.2240 C.ar      1 WPA        -0.0576
     45 CE1       -20.9420   21.1110   -5.7890 C.ar      1 WPA        -0.0685
     46 CZ        -22.2950   21.3220   -5.9670 C.ar      1 WPA        -0.0687
     47 CE2       -23.2070   20.3810   -5.4840 C.ar      1 WPA        -0.0685
     48 CD2       -22.7340   19.1990   -4.8620 C.ar      1 WPA        -0.0576
     49 O         -20.6210   14.3300   -4.2970 O.2       1 WPA        -0.3941
     50 N         -18.8850   15.5900   -3.5970 N.am      1 VAL        -0.2632
     51 CA        -18.3730   14.6050   -2.6540 C.3       1 VAL         0.1334
     52 C         -19.0480   14.8570   -1.2980 C.2       1 VAL         0.2064
     53 O         -18.7470   15.9100   -0.7390 O.2       1 VAL        -0.3942
     54 CB        -16.8520   14.8220   -2.5620 C.3       1 VAL        -0.0062
     55 CG1       -16.2280   13.9720   -1.4790 C.3       1 VAL        -0.0584
     56 CG2       -16.2300   14.5470   -3.9070 C.3       1 VAL        -0.0584
     57 N         -19.9420   14.0430   -0.7310 N.am      1 MLE        -0.2529
     58 CN        -20.4650   14.3860    0.6370 C.3       1 MLE         0.0254
     59 CA        -20.4360   12.7520   -1.2900 C.3       1 MLE         0.1336
     60 CB        -19.9960   11.5360   -0.4510 C.3       1 MLE        -0.0099
     61 CG        -18.5080   11.2030   -0.5520 C.3       1 MLE        -0.0425
     62 CD1       -18.1670   10.1710    0.5310 C.3       1 MLE        -0.0625
     63 CD2       -18.1300   10.6990   -1.9450 C.3       1 MLE        -0.0625
     64 C         -21.9710   12.8240   -1.3320 C.2       1 MLE         0.2042
     65 O         -22.6700   12.0820   -0.6340 O.2       1 MLE        -0.3944
     66 C         -24.1660   13.3200   -3.8520 C.2       1 WVL         0.2056
     67 CA        -23.9700   13.8030   -2.4170 C.3       1 WVL         0.1365
     68 O         -23.6850   13.9560   -4.7880 O.2       1 WVL        -0.3942
     69 CB        -24.5600   15.1760   -2.1680 C.3       1 WVL         0.0026
     70 CG2       -24.3820   15.6330   -0.7210 C.3       1 WVL        -0.0549
     71 CG1       -25.9930   15.1160   -2.5660 C.2       1 WVL        -0.1020
     72 CD        -26.6480   15.6790   -3.5780 C.2       1 WVL        -0.0866
     73 CE1       -28.1260   15.4850   -3.7930 C.3       1 WVL        -0.0406
     74 CE2       -25.9300   16.4640   -4.6280 C.3       1 WVL        -0.0406
     75 N         -22.5190   13.7440   -2.1150 N.am      1 WVL        -0.2624
     76 H1        -24.1004   11.4979   -5.8588 H         1 WRP         0.0841
     77 H2        -26.6748   10.2765   -4.7018 H         1 WRP         0.0728
     78 H3        -27.8144    9.8453   -7.0232 H         1 WRP         0.0798
     79 H4        -29.5842    8.7913   -9.8931 H         1 WRP         0.0262
     80 H5        -28.6352   10.1160   -9.1373 H         1 WRP         0.0262
     81 H6        -29.2392    8.7564   -8.1306 H         1 WRP         0.0262
     82 H7        -26.8461    6.2278   -9.4308 H         1 WRP         0.0623
     83 H8        -28.6531    5.1656   -8.1397 H         1 WRP         0.0255
     84 H9        -29.4900    6.7483   -7.9930 H         1 WRP         0.0255
     85 H10       -27.8940    6.4999   -7.2069 H         1 WRP         0.0255
     86 H11       -29.5057    6.7675  -10.3072 H         1 WRP         0.2099
     87 H12       -27.7326    8.4326  -11.5303 H         1 WRP         0.0262
     88 H13       -26.0621    8.1416  -10.9375 H         1 WRP         0.0262
     89 H14       -26.8116    9.7634  -10.7509 H         1 WRP         0.0262
     90 H15       -24.8545    6.9507   -9.9776 H         1 WRP         0.0541
     91 H16       -22.5614    6.4178   -9.2918 H         1 WRP         0.0530
     92 H17       -21.5807    7.3887   -7.2807 H         1 WRP         0.0510
     93 H18       -22.9484    8.7476   -5.7259 H         1 WRP         0.0540
     94 H19       -24.8153    9.8805   -3.3703 H         1 WRP         0.2121
     95 H20       -25.1672   11.7189   -3.1657 H         1 WRP         0.1885
     96 H21       -27.7368   13.7286   -7.2455 H         1 WLU         0.0488
     97 H22       -27.1241   13.1782   -8.8418 H         1 WLU         0.0488
     98 H23       -26.5386   14.7244   -8.1395 H         1 WLU         0.0488
     99 H24       -23.7394   12.3951   -7.3022 H         1 WLU         0.0802
    100 H25       -25.4269   12.3595   -9.8337 H         1 WLU         0.0316
    101 H26       -25.0662   10.9430   -8.7896 H         1 WLU         0.0316
    102 H27       -23.0029   12.6068  -10.2825 H         1 WLU         0.0322
    103 H28       -24.2279    9.8663  -10.9250 H         1 WLU         0.0560
    104 H29       -22.8426   10.6124  -11.7916 H         1 WLU         0.0560
    105 H30       -24.8900   11.0941  -12.7879 H         1 WLU         0.2094
    106 H31       -22.1304   11.5405   -8.2363 H         1 WLU         0.0233
    107 H32       -21.4443   10.8051   -9.7246 H         1 WLU         0.0233
    108 H33       -22.7343    9.9500   -8.8127 H         1 WLU         0.0233
    109 H34       -23.6148   14.7162   -6.5463 H         1 ALA         0.1883
    110 H35       -22.9446   16.4130   -8.9129 H         1 ALA         0.0797
    111 H36       -23.8358   18.4388   -7.7691 H         1 ALA         0.0277
    112 H37       -24.4621   17.4025   -6.4423 H         1 ALA         0.0277
    113 H38       -25.1213   17.2298   -8.1043 H         1 ALA         0.0277
    114 H39       -22.2805   15.5914   -5.5002 H         1 WPA         0.1886
    115 H40       -19.6689   16.9674   -5.7505 H         1 WPA         0.0851
    116 H41       -19.8625   18.0434   -3.5588 H         1 WPA         0.0810
    117 H42       -22.3121   17.3537   -1.1448 H         1 WPA         0.0526
    118 H43       -21.9613   18.8735   -2.0358 H         1 WPA         0.0526
    119 H44       -20.6115   17.8325   -1.4691 H         1 WPA         0.0526
    120 H45       -19.4288   19.7230   -5.1788 H         1 WPA         0.0557
    121 H46       -20.2298   21.8714   -6.0883 H         1 WPA         0.0599
    122 H47       -22.6466   22.2112   -6.4777 H         1 WPA         0.0559
    123 H48       -24.2723   20.5542   -5.5845 H         1 WPA         0.0599
    124 H49       -23.4413   18.4634   -4.4964 H         1 WPA         0.0557
    125 H50       -18.3883   16.4509   -3.7076 H         1 VAL         0.1883
    126 H51       -18.5905   13.5833   -2.9986 H         1 VAL         0.0803
    127 H52       -16.6701   15.8765   -2.3072 H         1 VAL         0.0343
    128 H53       -15.1441   14.1567   -1.4469 H         1 VAL         0.0234
    129 H54       -16.4126   12.9093   -1.6949 H         1 VAL         0.0234
    130 H55       -16.6731   14.2315   -0.5071 H         1 VAL         0.0234
    131 H56       -16.7074   15.1814   -4.6683 H         1 VAL         0.0234
    132 H57       -16.3750   13.4884   -4.1685 H         1 VAL         0.0234
    133 H58       -15.1537   14.7705   -3.8659 H         1 VAL         0.0234
    134 H59       -20.0448   15.3502    0.9590 H         1 MLE         0.0488
    135 H60       -20.1705   13.6014    1.3495 H         1 MLE         0.0488
    136 H61       -21.5621   14.4573    0.6029 H         1 MLE         0.0488
    137 H62       -20.0452   12.6319   -2.3112 H         1 MLE         0.0802
    138 H63       -20.5681   10.6596   -0.7894 H         1 MLE         0.0315
    139 H64       -20.2312   11.7426    0.6035 H         1 MLE         0.0315
    140 H65       -17.9316   12.1192   -0.3565 H         1 MLE         0.0298
    141 H66       -17.0979    9.9188    0.4734 H         1 MLE         0.0232
    142 H67       -18.7670    9.2626    0.3738 H         1 MLE         0.0232
    143 H68       -18.3916   10.5918    1.5222 H         1 MLE         0.0232
    144 H69       -18.3881   11.4625   -2.6937 H         1 MLE         0.0232
    145 H70       -18.6812    9.7721   -2.1616 H         1 MLE         0.0232
    146 H71       -17.0488   10.4999   -1.9820 H         1 MLE         0.0232
    147 H72       -24.4884   13.1013   -1.7470 H         1 WVL         0.0818
    148 H73       -24.0448   15.9027   -2.8134 H         1 WVL         0.0419
    149 H74       -24.8260   16.6314   -0.5946 H         1 WVL         0.0249
    150 H75       -23.3098   15.6753   -0.4791 H         1 WVL         0.0249
    151 H76       -24.8821   14.9214   -0.0476 H         1 WVL         0.0249
    152 H77       -26.6145   14.5037   -1.9143 H         1 WVL         0.0247
    153 H78       -28.4429   16.0432   -4.6863 H         1 WVL         0.0375
    154 H79       -28.6759   15.8551   -2.9152 H         1 WVL         0.0375
    155 H80       -28.3386   14.4151   -3.9346 H         1 WVL         0.0375
    156 H81       -24.8645   16.5393   -4.3651 H         1 WVL         0.0375
    157 H82       -26.3639   17.4728   -4.6925 H         1 WVL         0.0375
    158 H83       -26.0331   15.9577   -5.5991 H         1 WVL         0.0375
    159 H84       -21.9220   14.4345   -2.5234 H         1 WVL         0.1885
@<TRIPOS>BOND
     1    1    2 2  
     2    2    3 1  
     3    2   22 am 
     4    3    4 1  
     5    3   21 1  
     6    4    5 1  
     7    4   20 1  
     8    5    6 2  
     9    5   19 1  
    10    6    7 1  
    11    7    8 1  
    12    7   14 1  
    13    8    9 1  
    14    8   10 1  
    15    8   13 1  
    16   10   11 1  
    17   10   12 1  
    18   14   15 ar 
    19   14   19 ar 
    20   15   16 ar 
    21   16   17 ar 
    22   17   18 ar 
    23   18   19 ar 
    24   21   66 am 
    25   22   23 1  
    26   22   24 1  
    27   24   25 1  
    28   24   30 1  
    29   25   26 1  
    30   26   27 1  
    31   26   29 1  
    32   27   28 1  
    33   30   31 2  
    34   30   32 am 
    35   32   33 1  
    36   33   34 1  
    37   33   36 1  
    38   34   35 2  
    39   34   37 am 
    40   37   38 1  
    41   38   39 1  
    42   38   40 1  
    43   39   49 2  
    44   39   50 am 
    45   40   41 1  
    46   40   43 1  
    47   41   42 1  
    48   43   44 ar 
    49   43   48 ar 
    50   44   45 ar 
    51   45   46 ar 
    52   46   47 ar 
    53   47   48 ar 
    54   50   51 1  
    55   51   52 1  
    56   51   54 1  
    57   52   53 2  
    58   52   57 am 
    59   54   55 1  
    60   54   56 1  
    61   57   58 1  
    62   57   59 1  
    63   59   60 1  
    64   59   64 1  
    65   60   61 1  
    66   61   62 1  
    67   61   63 1  
    68   64   65 2  
    69   64   75 am 
    70   66   67 1  
    71   66   68 2  
    72   67   69 1  
    73   67   75 1  
    74   69   70 1  
    75   69   71 1  
    76   71   72 2  
    77   72   73 1  
    78   72   74 1  
    79    3   76 1  
    80    4   77 1  
    81    6   78 1  
    82    9   79 1  
    83    9   80 1  
    84    9   81 1  
    85   10   82 1  
    86   11   83 1  
    87   11   84 1  
    88   11   85 1  
    89   12   86 1  
    90   13   87 1  
    91   13   88 1  
    92   13   89 1  
    93   15   90 1  
    94   16   91 1  
    95   17   92 1  
    96   18   93 1  
    97   20   94 1  
    98   21   95 1  
    99   23   96 1  
   100   23   97 1  
   101   23   98 1  
   102   24   99 1  
   103   25  100 1  
   104   25  101 1  
   105   26  102 1  
   106   27  103 1  
   107   27  104 1  
   108   28  105 1  
   109   29  106 1  
   110   29  107 1  
   111   29  108 1  
   112   32  109 1  
   113   33  110 1  
   114   36  111 1  
   115   36  112 1  
   116   36  113 1  
   117   37  114 1  
   118   38  115 1  
   119   40  116 1  
   120   42  117 1  
   121   42  118 1  
   122   42  119 1  
   123   44  120 1  
   124   45  121 1  
   125   46  122 1  
   126   47  123 1  
   127   48  124 1  
   128   50  125 1  
   129   51  126 1  
   130   54  127 1  
   131   55  128 1  
   132   55  129 1  
   133   55  130 1  
   134   56  131 1  
   135   56  132 1  
   136   56  133 1  
   137   58  134 1  
   138   58  135 1  
   139   58  136 1  
   140   59  137 1  
   141   60  138 1  
   142   60  139 1  
   143   61  140 1  
   144   62  141 1  
   145   62  142 1  
   146   62  143 1  
   147   63  144 1  
   148   63  145 1  
   149   63  146 1  
   150   67  147 1  
   151   69  148 1  
   152   70  149 1  
   153   70  150 1  
   154   70  151 1  
   155   71  152 1  
   156   73  153 1  
   157   73  154 1  
   158   73  155 1  
   159   74  156 1  
   160   74  157 1  
   161   74  158 1  
   162   75  159 1  
@<TRIPOS>SUBSTRUCTURE
     1 WRP         1

