6am8_ligand
  -I-interpret- 

 27 28  0  0  0  0  0  0  0  0999 V2000
    7.5710  -39.0940   12.3930 N   0  3  0  0  0
    6.4210  -39.1180   13.3600 C   0  0  0  0  0
    6.3500  -40.3690   14.2310 C   0  0  0  0  0
    6.9320  -41.3960   13.9040 O   0  0  0  0  0
    5.0980  -38.9600   12.6190 C   0  0  0  0  0
    4.9250  -39.8310   11.4480 C   0  0  0  0  0
    4.7520  -41.1790   11.4480 C   0  0  0  0  0
    4.8740  -39.4130   10.0850 C   0  0  0  0  0
    4.6100  -41.6330   10.1620 N   0  0  0  0  0
    4.6780  -40.5670    9.3040 C   0  0  0  0  0
    4.9830  -38.1720    9.4460 C   0  0  0  0  0
    4.5870  -40.5220    7.9120 C   0  0  0  0  0
    4.8930  -38.1260    8.0610 C   0  0  0  0  0
    4.6970  -39.2950    7.3100 C   0  0  0  0  0
    5.6920  -40.3820   15.2720 O   0  0  0  0  0
    8.4466  -39.2007   12.9052 H   0  0  0  0  0
    7.4697  -39.8599   11.7270 H   0  0  0  0  0
    7.5745  -38.2051   11.8927 H   0  0  0  0  0
    6.5999  -38.2776   14.0307 H   0  0  0  0  0
    5.0669  -37.9342   12.2518 H   0  0  0  0  0
    4.3115  -39.2269   13.3249 H   0  0  0  0  0
    4.7295  -41.8066   12.3389 H   0  0  0  0  0
    5.1354  -37.2605   10.0239 H   0  0  0  0  0
    4.4343  -41.4280    7.3256 H   0  0  0  0  0
    4.9759  -37.1671    7.5494 H   0  0  0  0  0
    4.6307  -39.2261    6.2242 H   0  0  0  0  0
    5.2921  -39.5198   15.4072 H   0  0  0  0  0
  1  2  1  0  0  0
  2  3  1  0  0  0
  2  5  1  0  0  0
  3  4  2  0  0  0
  3 15  1  0  0  0
  5  6  1  0  0  0
  6  7  4  0  0  0
  6  8  4  0  0  0
  7  9  4  0  0  0
  8 10  4  0  0  0
  8 11  4  0  0  0
  9 10  4  0  0  0
 10 12  4  0  0  0
 11 13  4  0  0  0
 12 14  4  0  0  0
 13 14  4  0  0  0
  1 16  1  0  0  0
  1 17  1  0  0  0
  1 18  1  0  0  0
  2 19  1  0  0  0
  5 20  1  0  0  0
  5 21  1  0  0  0
  7 22  1  0  0  0
 11 23  1  0  0  0
 12 24  1  0  0  0
 13 25  1  0  0  0
 14 26  1  0  0  0
 15 27  1  0  0  0
M  END
$$$$
