5zhj_ligand
  -I-interpret- 

 47 49  0  0  0  0  0  0  0  0999 V2000
    6.0140  -21.2320  -15.7950 N   0  3  0  0  0
    6.2270  -20.8580  -14.3830 C   0  0  0  0  0
    4.9360  -20.3390  -13.7510 C   0  0  0  0  0
    4.7940  -18.8490  -14.0210 C   0  0  0  0  0
    3.7110  -17.9820  -12.8240 S   0  0  0  0  0
    6.7920  -22.0420  -13.5680 C   0  0  0  0  0
    6.3740  -23.1950  -13.8400 O   0  0  0  0  0
    7.6170  -21.7630  -12.6720 O   0  0  0  0  0
    4.7210  -16.4640  -12.5940 C   0  0  0  0  0
    5.4090  -16.3680  -11.2180 C   0  0  0  0  0
    4.4310  -16.4810  -10.2320 O   0  0  0  0  0
    6.3480  -17.5320  -10.9330 C   0  0  0  0  0
    7.6070  -17.2540  -11.5570 O   0  0  0  0  0
    6.4610  -17.4530   -9.4100 C   0  0  0  0  0
    7.4000  -16.3700   -8.9720 O   0  0  0  0  0
    5.0210  -17.0980   -9.0450 C   0  0  0  0  0
    4.1480  -18.2400   -8.5920 N   0  0  0  0  0
    3.0290  -18.6680   -9.1980 C   0  0  0  0  0
    2.5000  -19.6630   -8.4620 N   0  0  0  0  0
    3.2620  -19.8230   -7.3700 C   0  0  0  0  0
    3.1700  -20.6670   -6.3240 C   0  0  0  0  0
    2.1750  -21.5680   -6.3380 N   0  0  0  0  0
    4.0670  -20.6840   -5.3370 N   0  0  0  0  0
    5.1420  -19.7800   -5.3780 C   0  0  0  0  0
    5.2140  -18.9210   -6.4990 N   0  0  0  0  0
    4.2910  -18.9660   -7.4670 C   0  0  0  0  0
    5.6415  -20.4311  -16.3051 H   0  0  0  0  0
    6.9023  -21.5163  -16.2079 H   0  0  0  0  0
    5.3516  -22.0060  -15.8442 H   0  0  0  0  0
    6.9632  -20.0544  -14.3649 H   0  0  0  0  0
    4.9674  -20.5092  -12.6748 H   0  0  0  0  0
    4.0855  -20.8665  -14.1829 H   0  0  0  0  0
    4.3432  -18.7384  -15.0072 H   0  0  0  0  0
    5.7873  -18.4075  -13.9403 H   0  0  0  0  0
    5.7485  -23.1443  -14.5665 H   0  0  0  0  0
    4.0461  -15.6121  -12.6771 H   0  0  0  0  0
    5.5084  -16.4834  -13.3475 H   0  0  0  0  0
    5.9596  -15.4273  -11.2202 H   0  0  0  0  0
    6.0233  -18.5081  -11.2935 H   0  0  0  0  0
    8.2136  -17.9786  -11.3879 H   0  0  0  0  0
    6.8518  -18.3578   -8.9445 H   0  0  0  0  0
    7.4427  -16.3535   -8.0131 H   0  0  0  0  0
    5.0672  -16.4405   -8.1768 H   0  0  0  0  0
    2.6184  -18.2760  -10.1285 H   0  0  0  0  0
    1.5230  -21.5957   -7.1219 H   0  0  0  0  0
    2.0710  -22.2250   -5.5647 H   0  0  0  0  0
    5.8861  -19.7426   -4.5824 H   0  0  0  0  0
  1  2  1  0  0  0
  2  3  1  0  0  0
  2  6  1  0  0  0
  3  4  1  0  0  0
  4  5  1  0  0  0
  5  9  1  0  0  0
  6  7  1  0  0  0
  6  8  2  0  0  0
  9 10  1  0  0  0
 10 11  1  0  0  0
 10 12  1  0  0  0
 11 16  1  0  0  0
 12 13  1  0  0  0
 12 14  1  0  0  0
 14 15  1  0  0  0
 14 16  1  0  0  0
 16 17  1  0  0  0
 17 18  4  0  0  0
 17 26  4  0  0  0
 18 19  4  0  0  0
 19 20  4  0  0  0
 20 21  4  0  0  0
 20 26  4  0  0  0
 21 22  1  0  0  0
 21 23  4  0  0  0
 23 24  4  0  0  0
 24 25  4  0  0  0
 25 26  4  0  0  0
  1 27  1  0  0  0
  1 28  1  0  0  0
  1 29  1  0  0  0
  2 30  1  0  0  0
  3 31  1  0  0  0
  3 32  1  0  0  0
  4 33  1  0  0  0
  4 34  1  0  0  0
  7 35  1  0  0  0
  9 36  1  0  0  0
  9 37  1  0  0  0
 10 38  1  0  0  0
 12 39  1  0  0  0
 13 40  1  0  0  0
 14 41  1  0  0  0
 15 42  1  0  0  0
 16 43  1  0  0  0
 18 44  1  0  0  0
 22 45  1  0  0  0
 22 46  1  0  0  0
 24 47  1  0  0  0
M  END
$$$$
