5v3x_ligand
  -I-interpret- 

 57 60  0  0  0  0  0  0  0  0999 V2000
    6.0010   27.2720    6.5550 O   0  0  0  0  0
    5.4310   26.2070    6.4820 C   0  0  0  0  0
    4.3030   25.9100    7.3740 C   0  0  0  0  0
    3.9760   24.6550    7.8730 C   0  0  0  0  0
    4.6330   23.3490    7.6620 C   0  0  0  0  0
    5.9900   23.2080    7.3260 C   0  0  0  0  0
    6.5380   21.9500    7.1390 C   0  0  0  0  0
    5.7390   20.8300    7.3050 C   0  0  0  0  0
    4.4040   20.9470    7.6590 C   0  0  0  0  0
    3.8440   22.2010    7.8340 C   0  0  0  0  0
    2.8880   24.7600    8.6340 O   0  0  0  0  0
    2.4290   26.0170    8.6920 C   0  0  0  0  0
    1.3430   26.5270    9.3790 C   0  0  0  0  0
    1.0520   27.8670    9.3090 C   0  0  0  0  0
    1.8600   28.6880    8.5470 C   0  0  0  0  0
    1.5630   30.0050    8.4650 O   0  0  0  0  0
    2.9620   28.2060    7.8580 C   0  0  0  0  0
    3.7500   29.2340    7.0840 C   0  0  0  0  0
    4.8700   29.7490    7.9090 N   0  3  0  0  0
    5.8070   30.5200    7.0720 C   0  0  0  0  0
    6.9930   31.0770    7.8620 C   0  0  0  0  0
    6.4440   31.9810    8.9580 C   0  0  0  0  0
    7.6120   32.6120    9.7410 C   0  0  0  0  0
    5.6080   31.1290    9.9210 C   0  0  0  0  0
    4.4740   30.3900    9.1860 C   0  0  0  0  0
    3.2670   26.8390    7.9180 C   0  0  0  0  0
    5.6650   25.4120    5.4100 O   0  0  0  0  0
    6.6000   25.8850    4.4020 C   0  0  0  0  0
    8.0270   25.4930    4.7800 C   0  0  0  0  0
    6.6149   24.0938    7.2119 H   0  0  0  0  0
    7.5872   21.8419    6.8640 H   0  0  0  0  0
    6.1680   19.8393    7.1545 H   0  0  0  0  0
    3.7961   20.0532    7.7994 H   0  0  0  0  0
    2.7925   22.2966    8.1048 H   0  0  0  0  0
    0.7171   25.8645    9.9769 H   0  0  0  0  0
    0.1967   28.2765    9.8464 H   0  0  0  0  0
    2.2082   30.4431    7.9052 H   0  0  0  0  0
    3.0924   30.0618    6.8187 H   0  0  0  0  0
    4.1538   28.7703    6.1840 H   0  0  0  0  0
    5.3840   28.9402    8.2584 H   0  0  0  0  0
    5.2605   31.3648    6.6529 H   0  0  0  0  0
    6.2014   29.8484    6.3094 H   0  0  0  0  0
    7.6531   31.6413    7.2033 H   0  0  0  0  0
    7.5707   30.2626    8.2992 H   0  0  0  0  0
    5.8340   32.7682    8.5149 H   0  0  0  0  0
    8.2152   31.8228   10.1898 H   0  0  0  0  0
    8.2283   33.1997    9.0607 H   0  0  0  0  0
    7.2156   33.2581   10.5243 H   0  0  0  0  0
    5.1630   31.7882   10.6663 H   0  0  0  0  0
    6.2614   30.3872   10.3803 H   0  0  0  0  0
    4.1369   29.5922    9.8478 H   0  0  0  0  0
    3.7174   31.1360    8.9428 H   0  0  0  0  0
    6.5341   26.9710    4.3362 H   0  0  0  0  0
    6.3485   25.4333    3.4424 H   0  0  0  0  0
    8.2824   25.9389    5.7413 H   0  0  0  0  0
    8.0975   24.4076    4.8513 H   0  0  0  0  0
    8.7159   25.8537    4.0162 H   0  0  0  0  0
  1  2  2  0  0  0
  2  3  1  0  0  0
  2 27  1  0  0  0
  3  4  4  0  0  0
  3 26  4  0  0  0
  4  5  1  0  0  0
  4 11  4  0  0  0
  5  6  4  0  0  0
  5 10  4  0  0  0
  6  7  4  0  0  0
  7  8  4  0  0  0
  8  9  4  0  0  0
  9 10  4  0  0  0
 11 12  4  0  0  0
 12 13  4  0  0  0
 12 26  4  0  0  0
 13 14  4  0  0  0
 14 15  4  0  0  0
 15 16  1  0  0  0
 15 17  4  0  0  0
 17 18  1  0  0  0
 17 26  4  0  0  0
 18 19  1  0  0  0
 19 20  1  0  0  0
 19 25  1  0  0  0
 20 21  1  0  0  0
 21 22  1  0  0  0
 22 23  1  0  0  0
 22 24  1  0  0  0
 24 25  1  0  0  0
 27 28  1  0  0  0
 28 29  1  0  0  0
  6 30  1  0  0  0
  7 31  1  0  0  0
  8 32  1  0  0  0
  9 33  1  0  0  0
 10 34  1  0  0  0
 13 35  1  0  0  0
 14 36  1  0  0  0
 16 37  1  0  0  0
 18 38  1  0  0  0
 18 39  1  0  0  0
 19 40  1  0  0  0
 20 41  1  0  0  0
 20 42  1  0  0  0
 21 43  1  0  0  0
 21 44  1  0  0  0
 22 45  1  0  0  0
 23 46  1  0  0  0
 23 47  1  0  0  0
 23 48  1  0  0  0
 24 49  1  0  0  0
 24 50  1  0  0  0
 25 51  1  0  0  0
 25 52  1  0  0  0
 28 53  1  0  0  0
 28 54  1  0  0  0
 29 55  1  0  0  0
 29 56  1  0  0  0
 29 57  1  0  0  0
M  END
$$$$
