### 
### Created by X-TOOL on Mon Sep 10 21:13:30 2018
### 

@<TRIPOS>MOLECULE
5eoc_ligand
  198   201     1     0     0
SMALL
GAST_HUCK


@<TRIPOS>ATOM
      1 N          75.5390   61.9410   54.9260 N.4       1 CYS         0.2385
      2 CA         74.0730   62.1670   54.7500 C.3       1 CYS         0.0749
      3 C          73.8400   63.2510   53.7410 C.2       1 CYS         0.2275
      4 O          74.6260   64.1890   53.6520 O.2       1 CYS        -0.3907
      5 CB         73.3900   62.6000   56.0510 C.3       1 CYS         0.0643
      6 SG         73.7240   61.5810   57.4620 S.3       1 CYS        -0.0848
      7 N          72.7510   63.1310   52.9790 N.am      1 GLN        -0.2608
      8 CA         72.3590   64.1910   52.0360 C.3       1 GLN         0.1331
      9 C          70.8520   64.2550   51.6860 C.2       1 GLN         0.2040
     10 O          70.1360   63.2520   51.7530 O.2       1 GLN        -0.3944
     11 CB         73.2600   64.1760   50.7820 C.3       1 GLN         0.0045
     12 CG         74.1300   62.8970   50.5880 C.3       1 GLN         0.0412
     13 CD         73.9230   62.2190   49.2570 C.2       1 GLN         0.1737
     14 OE1        73.2500   62.7460   48.3780 O.2       1 GLN        -0.3973
     15 NE2        74.5210   61.0470   49.0920 N.am      1 GLN        -0.3009
     16 N          70.3830   65.4630   51.3630 N.am      1 LEU        -0.2637
     17 CA         68.9840   65.7040   50.9940 C.3       1 LEU         0.1312
     18 C          68.7660   65.3130   49.5450 C.2       1 LEU         0.2039
     19 O          69.4260   65.8530   48.6540 O.2       1 LEU        -0.3944
     20 CB         68.6150   67.1890   51.1520 C.3       1 LEU        -0.0101
     21 CG         67.1770   67.6050   50.7760 C.3       1 LEU        -0.0425
     22 CD1        66.2470   67.4190   51.9550 C.3       1 LEU        -0.0625
     23 CD2        67.0900   69.0420   50.2820 C.3       1 LEU        -0.0625
     24 N          67.8280   64.4000   49.2990 N.am      1 ILE        -0.2635
     25 CA         67.5040   64.0260   47.9310 C.3       1 ILE         0.1335
     26 C          66.0640   64.4230   47.5930 C.2       1 ILE         0.2043
     27 O          65.1330   64.0640   48.3120 O.2       1 ILE        -0.3944
     28 CB         67.7970   62.5240   47.6870 C.3       1 ILE        -0.0037
     29 CG1        68.6310   62.3620   46.4240 C.3       1 ILE        -0.0491
     30 CG2        66.5410   61.7130   47.5780 C.3       1 ILE        -0.0582
     31 CD1        70.0730   62.8310   46.5700 C.3       1 ILE        -0.0648
     32 N          65.8990   65.2040   46.5230 N.am      1 ASN        -0.2616
     33 CA         64.5810   65.6590   46.0800 C.3       1 ASN         0.1476
     34 C          64.0060   64.6950   45.0400 C.2       1 ASN         0.2063
     35 O          64.5000   64.6230   43.9190 O.2       1 ASN        -0.3942
     36 CB         64.6460   67.0750   45.4740 C.3       1 ASN         0.0773
     37 CG         64.9680   68.1550   46.4990 C.2       1 ASN         0.1780
     38 OD1        65.8700   68.9620   46.2900 O.2       1 ASN        -0.3970
     39 ND2        64.2270   68.1850   47.5960 N.am      1 ASN        -0.3007
     40 N          62.9810   63.9440   45.4330 N.am      1 THR        -0.2612
     41 CA         62.2230   63.0930   44.5160 C.3       1 THR         0.1565
     42 C          60.9980   63.9060   44.1040 C.2       1 THR         0.2066
     43 O          60.5820   63.8800   42.9580 O.2       1 THR        -0.3943
     44 CB         61.9020   61.7050   45.1480 C.3       1 THR         0.0924
     45 OG1        61.3440   61.8550   46.4650 O.3       1 THR        -0.3874
     46 CG2        63.1630   60.8620   45.2470 C.3       1 THR        -0.0346
     47 N          60.4010   64.5550   45.0970 N.am      1 ASN        -0.2615
     48 CA         59.6300   65.8160   44.9520 C.3       1 ASN         0.1476
     49 C          58.8320   66.1300   46.2220 C.2       1 ASN         0.2061
     50 O          58.4650   67.2610   46.4620 O.2       1 ASN        -0.3942
     51 CB         58.9870   66.0800   43.5850 C.3       1 ASN         0.0773
     52 CG         59.2860   67.4890   43.0930 C.2       1 ASN         0.1780
     53 OD1        60.2400   68.0990   43.5460 O.2       1 ASN        -0.3970
     54 ND2        58.4860   68.0020   42.1670 N.am      1 ASN        -0.3007
     55 N          58.5630   65.0910   47.0020 N.am      1 GLY        -0.2663
     56 CA         58.6670   65.3760   48.4180 C.3       1 GLY         0.1201
     57 C          60.1750   65.4520   48.6550 C.2       1 GLY         0.2008
     58 O          60.9060   65.9770   47.8150 O.2       1 GLY        -0.3947
     59 N          60.6570   64.9240   49.7750 N.am      1 SER        -0.2618
     60 CA         62.0990   64.9010   50.0490 C.3       1 SER         0.1539
     61 C          62.5060   63.8270   51.0510 C.2       1 SER         0.2063
     62 O          61.6870   63.3750   51.8590 O.2       1 SER        -0.3943
     63 CB         62.5690   66.2620   50.5590 C.3       1 SER         0.0843
     64 OG         62.0570   66.5140   51.8510 O.3       1 SER        -0.3903
     65 N          63.7840   63.4410   50.9850 N.am      1 TRP        -0.2626
     66 CA         64.3420   62.3680   51.8060 C.3       1 TRP         0.1352
     67 C          65.7440   62.7300   52.3410 C.2       1 TRP         0.2053
     68 O          66.5790   63.2810   51.6200 O.2       1 TRP        -0.3942
     69 CB         64.4340   61.0660   50.9900 C.3       1 TRP         0.0042
     70 CG         63.1430   60.6050   50.3330 C.2       1 TRP        -0.0418
     71 CD1        62.5680   61.1190   49.2080 C.2       1 TRP         0.0167
     72 CD2        62.3040   59.5210   50.7530 C.ar      1 TRP        -0.0214
     73 NE1        61.4170   60.4380   48.9130 N.pl3     1 TRP        -0.2890
     74 CE2        61.2310   59.4490   49.8440 C.ar      1 TRP         0.0603
     75 CE3        62.3540   58.6100   51.8120 C.ar      1 TRP        -0.0747
     76 CZ2        60.2170   58.5000   49.9580 C.ar      1 TRP        -0.0443
     77 CZ3        61.3450   57.6680   51.9260 C.ar      1 TRP        -0.0792
     78 CH2        60.2900   57.6220   51.0030 C.ar      1 TRP        -0.0768
     79 N          65.9980   62.3950   53.6050 N.am      1 HIS        -0.2624
     80 CA         67.3310   62.5170   54.1840 C.3       1 HIS         0.1369
     81 C          67.9560   61.1410   54.3190 C.2       1 HIS         0.2054
     82 O          67.5090   60.3360   55.1390 O.2       1 HIS        -0.3942
     83 CB         67.2710   63.1860   55.5530 C.3       1 HIS         0.0145
     84 CG         66.8270   64.6110   55.5030 C.2       1 HIS        -0.0027
     85 ND1        65.5630   65.0070   55.8800 N.2       1 HIS        -0.3252
     86 CD2        67.4690   65.7320   55.0970 C.2       1 HIS         0.0291
     87 CE1        65.4470   66.3120   55.7120 C.2       1 HIS         0.0907
     88 NE2        66.5900   66.7760   55.2390 N.pl3     1 HIS        -0.2752
     89 N          68.9960   60.8870   53.5220 N.am      1 ILE        -0.2634
     90 CA         69.6130   59.5660   53.4270 C.3       1 ILE         0.1335
     91 C          71.0670   59.6270   53.8540 C.2       1 ILE         0.2036
     92 O          71.8460   60.3890   53.2940 O.2       1 ILE        -0.3944
     93 CB         69.5800   59.0170   51.9870 C.3       1 ILE        -0.0037
     94 CG1        68.2340   59.3120   51.3110 C.3       1 ILE        -0.0491
     95 CG2        69.8780   57.5120   51.9880 C.3       1 ILE        -0.0582
     96 CD1        67.0440   58.7240   52.0570 C.3       1 ILE        -0.0648
     97 N          71.4230   58.7940   54.8250 N.am      1 CYS        -0.2686
     98 CA         72.7750   58.7590   55.3800 C.3       1 CYS         0.1041
     99 C          73.5190   57.5160   54.8990 C.2       1 CYS         0.0609
    100 O          72.9680   56.4160   54.9080 O.co2     1 CYS        -0.5666
    101 CB         72.7130   58.7930   56.9150 C.3       1 CYS         0.0388
    102 SG         72.1120   60.3660   57.5990 S.3       1 CYS        -0.0887
    103 OXT        74.6790   57.5990   54.4970 O.co2     1 CYS        -0.5666
    104 H1         75.6873   61.2113   55.6054 H         1 CYS         0.2015
    105 H2         75.9741   62.7919   55.2465 H         1 CYS         0.2015
    106 H3         75.9450   61.6672   54.0449 H         1 CYS         0.2015
    107 H4         73.6144   61.2313   54.3977 H         1 CYS         0.1107
    108 H5         72.3033   62.5977   55.8806 H         1 CYS         0.0466
    109 H6         73.7224   63.6222   56.2846 H         1 CYS         0.0466
    110 H7         72.1909   62.3056   53.0500 H         1 GLN         0.1885
    111 H8         72.5739   65.1376   52.5535 H         1 GLN         0.0801
    112 H9         73.9384   65.0397   50.8433 H         1 GLN         0.0337
    113 H10        72.6120   64.2806   49.8993 H         1 GLN         0.0337
    114 H11        73.8784   62.1817   51.3849 H         1 GLN         0.0504
    115 H12        75.1892   63.1815   50.6717 H         1 GLN         0.0504
    116 H13        74.4195   60.5509   48.2297 H         1 GLN         0.1814
    117 H14        75.0735   60.6593   49.8299 H         1 GLN         0.1814
    118 H15        71.0143   66.2385   51.3732 H         1 LEU         0.1883
    119 H16        68.3335   65.0977   51.6414 H         1 LEU         0.0800
    120 H17        69.3029   67.7695   50.5197 H         1 LEU         0.0315
    121 H18        68.7715   67.4579   52.2071 H         1 LEU         0.0315
    122 H19        66.8402   66.9466   49.9617 H         1 LEU         0.0298
    123 H20        65.2282   67.7199   51.6694 H         1 LEU         0.0232
    124 H21        66.5909   68.0405   52.7949 H         1 LEU         0.0232
    125 H22        66.2457   66.3615   52.2577 H         1 LEU         0.0232
    126 H23        67.7663   69.1766   49.4249 H         1 LEU         0.0232
    127 H24        67.3834   69.7265   51.0916 H         1 LEU         0.0232
    128 H25        66.0576   69.2614   49.9724 H         1 LEU         0.0232
    129 H26        67.3432   63.9687   50.0598 H         1 ILE         0.1883
    130 H27        68.1646   64.5979   47.2628 H         1 ILE         0.0803
    131 H28        68.3764   62.1443   48.5415 H         1 ILE         0.0345
    132 H29        68.1576   62.9442   45.6197 H         1 ILE         0.0267
    133 H30        68.6398   61.2969   46.1494 H         1 ILE         0.0267
    134 H31        65.9447   61.8357   48.4942 H         1 ILE         0.0235
    135 H32        66.7998   60.6518   47.4484 H         1 ILE         0.0235
    136 H33        65.9568   62.0564   46.7116 H         1 ILE         0.0235
    137 H34        70.6054   62.6811   45.6191 H         1 ILE         0.0230
    138 H35        70.5685   62.2516   47.3629 H         1 ILE         0.0230
    139 H36        70.0864   63.8989   46.8332 H         1 ILE         0.0230
    140 H37        66.7059   65.4885   46.0053 H         1 ASN         0.1885
    141 H38        63.9111   65.6811   46.9522 H         1 ASN         0.0826
    142 H39        63.6713   67.3051   45.0189 H         1 ASN         0.0551
    143 H40        65.4252   67.0871   44.6977 H         1 ASN         0.0551
    144 H41        64.4005   68.8758   48.2979 H         1 ASN         0.1814
    145 H42        63.4939   67.5168   47.7226 H         1 ASN         0.1814
    146 H43        62.7171   63.9619   46.3974 H         1 THR         0.1884
    147 H44        62.8311   62.9074   43.6184 H         1 THR         0.0826
    148 H45        61.1728   61.1875   44.5074 H         1 THR         0.0639
    149 H46        60.5406   62.3593   46.4118 H         1 THR         0.2101
    150 H47        62.9183   59.8874   45.6945 H         1 THR         0.0257
    151 H48        63.9016   61.3796   45.8768 H         1 THR         0.0257
    152 H49        63.5816   60.7089   44.2414 H         1 THR         0.0257
    153 H50        60.4765   64.1639   46.0143 H         1 ASN         0.1885
    154 H51        60.4160   66.5852   44.9723 H         1 ASN         0.0826
    155 H52        57.8976   65.9550   43.6719 H         1 ASN         0.0551
    156 H53        59.3824   65.3557   42.8577 H         1 ASN         0.0551
    157 H54        58.6510   68.9250   41.8193 H         1 ASN         0.1814
    158 H55        57.7181   67.4656   41.8168 H         1 ASN         0.1814
    159 H56        58.3111   64.1918   46.6442 H         1 GLY         0.1881
    160 H57        58.2149   64.5708   49.0157 H         1 GLY         0.0763
    161 H58        58.1815   66.3320   48.6637 H         1 GLY         0.0763
    162 H59        60.0247   64.5345   50.4447 H         1 SER         0.1884
    163 H60        62.6136   64.6891   49.1002 H         1 SER         0.0823
    164 H61        62.2179   67.0461   49.8721 H         1 SER         0.0606
    165 H62        63.6683   66.2734   50.5975 H         1 SER         0.0606
    166 H63        62.3598   67.3633   52.1503 H         1 SER         0.2097
    167 H64        64.3889   63.9100   50.3415 H         1 TRP         0.1884
    168 H65        63.6720   62.2036   52.6628 H         1 TRP         0.0815
    169 H66        64.7727   60.2671   51.6660 H         1 TRP         0.0397
    170 H67        65.1812   61.2167   50.1970 H         1 TRP         0.0397
    171 H68        62.9664   61.9504   48.6284 H         1 TRP         0.0795
    172 H69        60.7916   60.6369   48.1192 H         1 TRP         0.2216
    173 H70        63.1660   58.6402   52.5295 H         1 TRP         0.0540
    174 H71        59.4014   58.4596   49.2451 H         1 TRP         0.0541
    175 H72        61.3712   56.9547   52.7419 H         1 TRP         0.0510
    176 H73        59.5151   56.8733   51.1210 H         1 TRP         0.0530
    177 H74        65.2520   62.0493   54.1742 H         1 HIS         0.1885
    178 H75        67.9531   63.1307   53.5159 H         1 HIS         0.0817
    179 H76        68.2745   63.1500   56.0020 H         1 HIS         0.0420
    180 H77        66.5666   62.6242   56.1840 H         1 HIS         0.0420
    181 H78        68.4914   65.7934   54.7271 H         1 HIS         0.0729
    182 H79        64.5594   66.9051   55.9270 H         1 HIS         0.1199
    183 H80        66.7889   67.7611   55.0135 H         1 HIS         0.2361
    184 H81        69.3681   61.6312   52.9672 H         1 ILE         0.1883
    185 H82        69.0664   58.8771   54.0878 H         1 ILE         0.0803
    186 H83        70.3679   59.5225   51.4094 H         1 ILE         0.0345
    187 H84        68.2531   58.8893   50.2957 H         1 ILE         0.0267
    188 H85        68.1046   60.4027   51.2517 H         1 ILE         0.0267
    189 H86        70.8462   57.3303   52.4774 H         1 ILE         0.0235
    190 H87        69.9164   57.1451   50.9517 H         1 ILE         0.0235
    191 H88        69.0851   56.9815   52.5356 H         1 ILE         0.0235
    192 H89        66.1162   58.9718   51.5206 H         1 ILE         0.0230
    193 H90        67.0038   59.1444   53.0727 H         1 ILE         0.0230
    194 H91        67.1522   57.6310   52.1166 H         1 ILE         0.0230
    195 H92        70.7379   58.1646   55.1917 H         1 CYS         0.1876
    196 H93        73.3205   59.6483   55.0315 H         1 CYS         0.0734
    197 H94        73.7250   58.6107   57.3057 H         1 CYS         0.0425
    198 H95        72.0400   57.9906   57.2514 H         1 CYS         0.0425
@<TRIPOS>BOND
     1    1    2 1  
     2    2    3 1  
     3    2    5 1  
     4    3    4 2  
     5    3    7 am 
     6    5    6 1  
     7    6  102 1  
     8    7    8 1  
     9    8    9 1  
    10    8   11 1  
    11    9   10 2  
    12    9   16 am 
    13   11   12 1  
    14   12   13 1  
    15   13   14 2  
    16   13   15 am 
    17   16   17 1  
    18   17   18 1  
    19   17   20 1  
    20   18   19 2  
    21   18   24 am 
    22   20   21 1  
    23   21   22 1  
    24   21   23 1  
    25   24   25 1  
    26   25   26 1  
    27   25   28 1  
    28   26   27 2  
    29   26   32 am 
    30   28   29 1  
    31   28   30 1  
    32   29   31 1  
    33   32   33 1  
    34   33   34 1  
    35   33   36 1  
    36   34   35 2  
    37   34   40 am 
    38   36   37 1  
    39   37   38 2  
    40   37   39 am 
    41   40   41 1  
    42   41   42 1  
    43   41   44 1  
    44   42   43 2  
    45   42   47 am 
    46   44   45 1  
    47   44   46 1  
    48   47   48 1  
    49   48   49 1  
    50   48   51 1  
    51   49   50 2  
    52   49   55 am 
    53   51   52 1  
    54   52   53 2  
    55   52   54 am 
    56   55   56 1  
    57   56   57 1  
    58   57   58 2  
    59   57   59 am 
    60   59   60 1  
    61   60   61 1  
    62   60   63 1  
    63   61   62 2  
    64   61   65 am 
    65   63   64 1  
    66   65   66 1  
    67   66   67 1  
    68   66   69 1  
    69   67   68 2  
    70   67   79 am 
    71   69   70 1  
    72   70   71 2  
    73   70   72 1  
    74   71   73 1  
    75   72   74 ar 
    76   72   75 ar 
    77   73   74 1  
    78   74   76 ar 
    79   75   77 ar 
    80   76   78 ar 
    81   77   78 ar 
    82   79   80 1  
    83   80   81 1  
    84   80   83 1  
    85   81   82 2  
    86   81   89 am 
    87   83   84 1  
    88   84   85 1  
    89   84   86 2  
    90   85   87 2  
    91   86   88 1  
    92   87   88 1  
    93   89   90 1  
    94   90   91 1  
    95   90   93 1  
    96   91   92 2  
    97   91   97 am 
    98   93   94 1  
    99   93   95 1  
   100   94   96 1  
   101   97   98 1  
   102   98   99 1  
   103   98  101 1  
   104   99  100 ar 
   105   99  103 ar 
   106  101  102 1  
   107    1  104 1  
   108    1  105 1  
   109    1  106 1  
   110    2  107 1  
   111    5  108 1  
   112    5  109 1  
   113    7  110 1  
   114    8  111 1  
   115   11  112 1  
   116   11  113 1  
   117   12  114 1  
   118   12  115 1  
   119   15  116 1  
   120   15  117 1  
   121   16  118 1  
   122   17  119 1  
   123   20  120 1  
   124   20  121 1  
   125   21  122 1  
   126   22  123 1  
   127   22  124 1  
   128   22  125 1  
   129   23  126 1  
   130   23  127 1  
   131   23  128 1  
   132   24  129 1  
   133   25  130 1  
   134   28  131 1  
   135   29  132 1  
   136   29  133 1  
   137   30  134 1  
   138   30  135 1  
   139   30  136 1  
   140   31  137 1  
   141   31  138 1  
   142   31  139 1  
   143   32  140 1  
   144   33  141 1  
   145   36  142 1  
   146   36  143 1  
   147   39  144 1  
   148   39  145 1  
   149   40  146 1  
   150   41  147 1  
   151   44  148 1  
   152   45  149 1  
   153   46  150 1  
   154   46  151 1  
   155   46  152 1  
   156   47  153 1  
   157   48  154 1  
   158   51  155 1  
   159   51  156 1  
   160   54  157 1  
   161   54  158 1  
   162   55  159 1  
   163   56  160 1  
   164   56  161 1  
   165   59  162 1  
   166   60  163 1  
   167   63  164 1  
   168   63  165 1  
   169   64  166 1  
   170   65  167 1  
   171   66  168 1  
   172   69  169 1  
   173   69  170 1  
   174   71  171 1  
   175   73  172 1  
   176   75  173 1  
   177   76  174 1  
   178   77  175 1  
   179   78  176 1  
   180   79  177 1  
   181   80  178 1  
   182   83  179 1  
   183   83  180 1  
   184   86  181 1  
   185   87  182 1  
   186   88  183 1  
   187   89  184 1  
   188   90  185 1  
   189   93  186 1  
   190   94  187 1  
   191   94  188 1  
   192   95  189 1  
   193   95  190 1  
   194   95  191 1  
   195   96  192 1  
   196   96  193 1  
   197   96  194 1  
   198   97  195 1  
   199   98  196 1  
   200  101  197 1  
   201  101  198 1  
@<TRIPOS>SUBSTRUCTURE
     1 CYS         1

