5eoc_ligand
  -I-interpret- 

197200  0  0  0  0  0  0  0  0999 V2000
   75.5390   61.9410   54.9260 N   0  3  0  0  0
   74.0730   62.1670   54.7500 C   0  0  0  0  0
   73.8400   63.2510   53.7410 C   0  0  0  0  0
   74.6260   64.1890   53.6520 O   0  0  0  0  0
   73.3900   62.6000   56.0510 C   0  0  0  0  0
   73.7240   61.5810   57.4620 S   0  0  0  0  0
   72.7510   63.1310   52.9790 N   0  0  0  0  0
   72.3590   64.1910   52.0360 C   0  0  0  0  0
   70.8520   64.2550   51.6860 C   0  0  0  0  0
   70.1360   63.2520   51.7530 O   0  0  0  0  0
   73.2600   64.1760   50.7820 C   0  0  0  0  0
   74.1300   62.8970   50.5880 C   0  0  0  0  0
   73.9230   62.2190   49.2570 C   0  0  0  0  0
   73.2500   62.7460   48.3780 O   0  0  0  0  0
   74.5210   61.0470   49.0920 N   0  0  0  0  0
   70.3830   65.4630   51.3630 N   0  0  0  0  0
   68.9840   65.7040   50.9940 C   0  0  0  0  0
   68.7660   65.3130   49.5450 C   0  0  0  0  0
   69.4260   65.8530   48.6540 O   0  0  0  0  0
   68.6150   67.1890   51.1520 C   0  0  0  0  0
   67.1770   67.6050   50.7760 C   0  0  0  0  0
   66.2470   67.4190   51.9550 C   0  0  0  0  0
   67.0900   69.0420   50.2820 C   0  0  0  0  0
   67.8280   64.4000   49.2990 N   0  0  0  0  0
   67.5040   64.0260   47.9310 C   0  0  0  0  0
   66.0640   64.4230   47.5930 C   0  0  0  0  0
   65.1330   64.0640   48.3120 O   0  0  0  0  0
   67.7970   62.5240   47.6870 C   0  0  0  0  0
   68.6310   62.3620   46.4240 C   0  0  0  0  0
   66.5410   61.7130   47.5780 C   0  0  0  0  0
   70.0730   62.8310   46.5700 C   0  0  0  0  0
   65.8990   65.2040   46.5230 N   0  0  0  0  0
   64.5810   65.6590   46.0800 C   0  0  0  0  0
   64.0060   64.6950   45.0400 C   0  0  0  0  0
   64.5000   64.6230   43.9190 O   0  0  0  0  0
   64.6460   67.0750   45.4740 C   0  0  0  0  0
   64.9680   68.1550   46.4990 C   0  0  0  0  0
   65.8700   68.9620   46.2900 O   0  0  0  0  0
   64.2270   68.1850   47.5960 N   0  0  0  0  0
   62.9810   63.9440   45.4330 N   0  0  0  0  0
   62.2230   63.0930   44.5160 C   0  0  0  0  0
   60.9980   63.9060   44.1040 C   0  0  0  0  0
   60.5820   63.8800   42.9580 O   0  0  0  0  0
   61.9020   61.7050   45.1480 C   0  0  0  0  0
   61.3440   61.8550   46.4650 O   0  0  0  0  0
   63.1630   60.8620   45.2470 C   0  0  0  0  0
   60.4010   64.5550   45.0970 N   0  0  0  0  0
   59.6300   65.8160   44.9520 C   0  0  0  0  0
   58.8320   66.1300   46.2220 C   0  0  0  0  0
   58.4650   67.2610   46.4620 O   0  0  0  0  0
   58.9870   66.0800   43.5850 C   0  0  0  0  0
   59.2860   67.4890   43.0930 C   0  0  0  0  0
   60.2400   68.0990   43.5460 O   0  0  0  0  0
   58.4860   68.0020   42.1670 N   0  0  0  0  0
   58.5630   65.0910   47.0020 N   0  0  0  0  0
   58.6670   65.3760   48.4180 C   0  0  0  0  0
   60.1750   65.4520   48.6550 C   0  0  0  0  0
   60.9060   65.9770   47.8150 O   0  0  0  0  0
   60.6570   64.9240   49.7750 N   0  0  0  0  0
   62.0990   64.9010   50.0490 C   0  0  0  0  0
   62.5060   63.8270   51.0510 C   0  0  0  0  0
   61.6870   63.3750   51.8590 O   0  0  0  0  0
   62.5690   66.2620   50.5590 C   0  0  0  0  0
   62.0570   66.5140   51.8510 O   0  0  0  0  0
   63.7840   63.4410   50.9850 N   0  0  0  0  0
   64.3420   62.3680   51.8060 C   0  0  0  0  0
   65.7440   62.7300   52.3410 C   0  0  0  0  0
   66.5790   63.2810   51.6200 O   0  0  0  0  0
   64.4340   61.0660   50.9900 C   0  0  0  0  0
   63.1430   60.6050   50.3330 C   0  0  0  0  0
   62.5680   61.1190   49.2080 C   0  0  0  0  0
   62.3040   59.5210   50.7530 C   0  0  0  0  0
   61.4170   60.4380   48.9130 N   0  0  0  0  0
   61.2310   59.4490   49.8440 C   0  0  0  0  0
   62.3540   58.6100   51.8120 C   0  0  0  0  0
   60.2170   58.5000   49.9580 C   0  0  0  0  0
   61.3450   57.6680   51.9260 C   0  0  0  0  0
   60.2900   57.6220   51.0030 C   0  0  0  0  0
   65.9980   62.3950   53.6050 N   0  0  0  0  0
   67.3310   62.5170   54.1840 C   0  0  0  0  0
   67.9560   61.1410   54.3190 C   0  0  0  0  0
   67.5090   60.3360   55.1390 O   0  0  0  0  0
   67.2710   63.1860   55.5530 C   0  0  0  0  0
   66.8270   64.6110   55.5030 C   0  0  0  0  0
   65.5630   65.0070   55.8800 N   0  0  0  0  0
   67.4690   65.7320   55.0970 C   0  0  0  0  0
   65.4470   66.3120   55.7120 C   0  0  0  0  0
   66.5900   66.7760   55.2390 N   0  0  0  0  0
   68.9960   60.8870   53.5220 N   0  0  0  0  0
   69.6130   59.5660   53.4270 C   0  0  0  0  0
   71.0670   59.6270   53.8540 C   0  0  0  0  0
   71.8460   60.3890   53.2940 O   0  0  0  0  0
   69.5800   59.0170   51.9870 C   0  0  0  0  0
   68.2340   59.3120   51.3110 C   0  0  0  0  0
   69.8780   57.5120   51.9880 C   0  0  0  0  0
   67.0440   58.7240   52.0570 C   0  0  0  0  0
   71.4230   58.7940   54.8250 N   0  0  0  0  0
   72.7750   58.7590   55.3800 C   0  0  0  0  0
   73.5190   57.5160   54.8990 C   0  0  0  0  0
   72.9680   56.4160   54.9080 O   0  0  0  0  0
   72.7130   58.7930   56.9150 C   0  0  0  0  0
   72.1120   60.3660   57.5990 S   0  0  0  0  0
   74.6790   57.5990   54.4970 O   0  0  0  0  0
   75.9471   61.6556   54.0358 H   0  0  0  0  0
   75.9795   62.8051   55.2418 H   0  0  0  0  0
   75.6880   61.2086   55.6201 H   0  0  0  0  0
   73.6503   61.2170   54.4230 H   0  0  0  0  0
   72.3163   62.5418   55.8727 H   0  0  0  0  0
   73.7723   63.5930   56.2872 H   0  0  0  0  0
   72.1797   62.2891   53.0514 H   0  0  0  0  0
   72.5262   65.1238   52.5745 H   0  0  0  0  0
   73.9555   65.0079   50.8924 H   0  0  0  0  0
   72.5922   64.2277   49.9221 H   0  0  0  0  0
   73.8429   62.1869   51.3636 H   0  0  0  0  0
   75.1750   63.2029   50.6389 H   0  0  0  0  0
   74.4301   60.5482   48.2070 H   0  0  0  0  0
   75.0719   60.6443   49.8501 H   0  0  0  0  0
   71.0269   66.2540   51.3734 H   0  0  0  0  0
   68.3567   65.1063   51.6554 H   0  0  0  0  0
   69.2674   67.7297   50.4663 H   0  0  0  0  0
   68.7167   67.4068   52.2152 H   0  0  0  0  0
   66.8714   66.9563   49.9550 H   0  0  0  0  0
   66.2466   66.3708   52.2540 H   0  0  0  0  0
   66.5889   68.0352   52.7866 H   0  0  0  0  0
   65.2379   67.7174   51.6708 H   0  0  0  0  0
   67.4387   69.7157   51.0647 H   0  0  0  0  0
   67.7139   69.1586   49.3959 H   0  0  0  0  0
   66.0552   69.2772   50.0329 H   0  0  0  0  0
   67.3335   63.9600   50.0751 H   0  0  0  0  0
   68.1478   64.5778   47.2461 H   0  0  0  0  0
   68.3511   62.1518   48.5487 H   0  0  0  0  0
   68.1684   62.9744   45.6500 H   0  0  0  0  0
   68.6591   61.2980   46.1891 H   0  0  0  0  0
   65.9713   61.8018   48.5030 H   0  0  0  0  0
   65.9430   62.0819   46.7447 H   0  0  0  0  0
   66.7986   60.6677   47.4073 H   0  0  0  0  0
   70.0849   63.8893   46.8309 H   0  0  0  0  0
   70.5629   62.2562   47.3560 H   0  0  0  0  0
   70.5994   62.6819   45.6273 H   0  0  0  0  0
   66.7220   65.4942   45.9949 H   0  0  0  0  0
   63.9346   65.6846   46.9573 H   0  0  0  0  0
   63.6648   67.2997   45.0559 H   0  0  0  0  0
   65.4428   67.0787   44.7302 H   0  0  0  0  0
   64.3959   68.8973   48.3062 H   0  0  0  0  0
   63.4873   67.4958   47.7308 H   0  0  0  0  0
   62.7118   63.9623   46.4167 H   0  0  0  0  0
   62.7951   62.8319   43.6257 H   0  0  0  0  0
   61.1756   61.2111   44.5026 H   0  0  0  0  0
   61.1554   60.9882   46.8320 H   0  0  0  0  0
   63.5768   60.7111   44.2500 H   0  0  0  0  0
   63.8940   61.3759   45.8712 H   0  0  0  0  0
   62.9192   59.8966   45.6906 H   0  0  0  0  0
   60.4780   64.1561   46.0326 H   0  0  0  0  0
   60.3543   66.6283   44.8918 H   0  0  0  0  0
   57.9071   65.9698   43.6835 H   0  0  0  0  0
   59.3958   65.3688   42.8672 H   0  0  0  0  0
   58.6585   68.9408   41.8073 H   0  0  0  0  0
   57.6986   67.4576   41.8149 H   0  0  0  0  0
   58.3060   64.1738   46.6371 H   0  0  0  0  0
   58.1843   64.6173   49.0341 H   0  0  0  0  0
   58.1525   66.2950   48.6987 H   0  0  0  0  0
   60.0121   64.5267   50.4581 H   0  0  0  0  0
   62.5796   64.6628   49.1001 H   0  0  0  0  0
   62.2105   67.0360   49.8804 H   0  0  0  0  0
   63.6580   66.2647   50.6045 H   0  0  0  0  0
   62.3629   67.3722   52.1534 H   0  0  0  0  0
   64.4010   63.9193   50.3286 H   0  0  0  0  0
   63.6736   62.2281   52.6556 H   0  0  0  0  0
   64.7194   60.2823   51.6917 H   0  0  0  0  0
   65.1394   61.2583   50.1816 H   0  0  0  0  0
   62.9668   61.9512   48.6278 H   0  0  0  0  0
   63.1705   58.6403   52.5335 H   0  0  0  0  0
   59.3969   58.4594   49.2412 H   0  0  0  0  0
   61.3713   56.9508   52.7464 H   0  0  0  0  0
   59.5108   56.8691   51.1217 H   0  0  0  0  0
   65.2371   62.0424   54.1856 H   0  0  0  0  0
   67.9380   63.1356   53.5229 H   0  0  0  0  0
   68.2788   63.1720   55.9681 H   0  0  0  0  0
   66.5444   62.6381   56.1530 H   0  0  0  0  0
   68.4923   65.7935   54.7267 H   0  0  0  0  0
   64.5585   66.9057   55.9272 H   0  0  0  0  0
   69.3755   61.6460   52.9561 H   0  0  0  0  0
   69.0390   58.9105   54.0819 H   0  0  0  0  0
   70.3533   59.5228   51.4089 H   0  0  0  0  0
   68.2572   58.8601   50.3194 H   0  0  0  0  0
   68.1067   60.3943   51.2885 H   0  0  0  0  0
   70.8661   57.3388   52.4144 H   0  0  0  0  0
   69.1273   56.9947   52.5854 H   0  0  0  0  0
   69.8516   57.1370   50.9649 H   0  0  0  0  0
   67.1525   57.6410   52.1154 H   0  0  0  0  0
   67.0053   59.1413   53.0632 H   0  0  0  0  0
   66.1253   58.9702   51.5246 H   0  0  0  0  0
   70.7242   58.1520   55.1991 H   0  0  0  0  0
   73.3206   59.6364   55.0326 H   0  0  0  0  0
   73.7292   58.6492   57.2820 H   0  0  0  0  0
   72.0132   58.0176   57.2267 H   0  0  0  0  0
   74.9700   58.5123   54.5493 H   0  0  0  0  0
  1  2  1  0  0  0
  2  3  1  0  0  0
  2  5  1  0  0  0
  3  4  2  0  0  0
  3  7  1  0  0  0
  5  6  1  0  0  0
  6102  1  0  0  0
  7  8  1  0  0  0
  8  9  1  0  0  0
  8 11  1  0  0  0
  9 10  2  0  0  0
  9 16  1  0  0  0
 11 12  1  0  0  0
 12 13  1  0  0  0
 13 14  2  0  0  0
 13 15  1  0  0  0
 16 17  1  0  0  0
 17 18  1  0  0  0
 17 20  1  0  0  0
 18 19  2  0  0  0
 18 24  1  0  0  0
 20 21  1  0  0  0
 21 22  1  0  0  0
 21 23  1  0  0  0
 24 25  1  0  0  0
 25 26  1  0  0  0
 25 28  1  0  0  0
 26 27  2  0  0  0
 26 32  1  0  0  0
 28 29  1  0  0  0
 28 30  1  0  0  0
 29 31  1  0  0  0
 32 33  1  0  0  0
 33 34  1  0  0  0
 33 36  1  0  0  0
 34 35  2  0  0  0
 34 40  1  0  0  0
 36 37  1  0  0  0
 37 38  2  0  0  0
 37 39  1  0  0  0
 40 41  1  0  0  0
 41 42  1  0  0  0
 41 44  1  0  0  0
 42 43  2  0  0  0
 42 47  1  0  0  0
 44 45  1  0  0  0
 44 46  1  0  0  0
 47 48  1  0  0  0
 48 49  1  0  0  0
 48 51  1  0  0  0
 49 50  2  0  0  0
 49 55  1  0  0  0
 51 52  1  0  0  0
 52 53  2  0  0  0
 52 54  1  0  0  0
 55 56  1  0  0  0
 56 57  1  0  0  0
 57 58  2  0  0  0
 57 59  1  0  0  0
 59 60  1  0  0  0
 60 61  1  0  0  0
 60 63  1  0  0  0
 61 62  2  0  0  0
 61 65  1  0  0  0
 63 64  1  0  0  0
 65 66  1  0  0  0
 66 67  1  0  0  0
 66 69  1  0  0  0
 67 68  2  0  0  0
 67 79  1  0  0  0
 69 70  1  0  0  0
 70 71  4  0  0  0
 70 72  4  0  0  0
 71 73  4  0  0  0
 72 74  4  0  0  0
 72 75  4  0  0  0
 73 74  4  0  0  0
 74 76  4  0  0  0
 75 77  4  0  0  0
 76 78  4  0  0  0
 77 78  4  0  0  0
 79 80  1  0  0  0
 80 81  1  0  0  0
 80 83  1  0  0  0
 81 82  2  0  0  0
 81 89  1  0  0  0
 83 84  1  0  0  0
 84 85  4  0  0  0
 84 86  4  0  0  0
 85 87  4  0  0  0
 86 88  4  0  0  0
 87 88  4  0  0  0
 89 90  1  0  0  0
 90 91  1  0  0  0
 90 93  1  0  0  0
 91 92  2  0  0  0
 91 97  1  0  0  0
 93 94  1  0  0  0
 93 95  1  0  0  0
 94 96  1  0  0  0
 97 98  1  0  0  0
 98 99  1  0  0  0
 98101  1  0  0  0
 99100  2  0  0  0
 99103  1  0  0  0
101102  1  0  0  0
  1104  1  0  0  0
  1105  1  0  0  0
  1106  1  0  0  0
  2107  1  0  0  0
  5108  1  0  0  0
  5109  1  0  0  0
  7110  1  0  0  0
  8111  1  0  0  0
 11112  1  0  0  0
 11113  1  0  0  0
 12114  1  0  0  0
 12115  1  0  0  0
 15116  1  0  0  0
 15117  1  0  0  0
 16118  1  0  0  0
 17119  1  0  0  0
 20120  1  0  0  0
 20121  1  0  0  0
 21122  1  0  0  0
 22123  1  0  0  0
 22124  1  0  0  0
 22125  1  0  0  0
 23126  1  0  0  0
 23127  1  0  0  0
 23128  1  0  0  0
 24129  1  0  0  0
 25130  1  0  0  0
 28131  1  0  0  0
 29132  1  0  0  0
 29133  1  0  0  0
 30134  1  0  0  0
 30135  1  0  0  0
 30136  1  0  0  0
 31137  1  0  0  0
 31138  1  0  0  0
 31139  1  0  0  0
 32140  1  0  0  0
 33141  1  0  0  0
 36142  1  0  0  0
 36143  1  0  0  0
 39144  1  0  0  0
 39145  1  0  0  0
 40146  1  0  0  0
 41147  1  0  0  0
 44148  1  0  0  0
 45149  1  0  0  0
 46150  1  0  0  0
 46151  1  0  0  0
 46152  1  0  0  0
 47153  1  0  0  0
 48154  1  0  0  0
 51155  1  0  0  0
 51156  1  0  0  0
 54157  1  0  0  0
 54158  1  0  0  0
 55159  1  0  0  0
 56160  1  0  0  0
 56161  1  0  0  0
 59162  1  0  0  0
 60163  1  0  0  0
 63164  1  0  0  0
 63165  1  0  0  0
 64166  1  0  0  0
 65167  1  0  0  0
 66168  1  0  0  0
 69169  1  0  0  0
 69170  1  0  0  0
 71171  1  0  0  0
 75172  1  0  0  0
 76173  1  0  0  0
 77174  1  0  0  0
 78175  1  0  0  0
 79176  1  0  0  0
 80177  1  0  0  0
 83178  1  0  0  0
 83179  1  0  0  0
 86180  1  0  0  0
 87181  1  0  0  0
 89182  1  0  0  0
 90183  1  0  0  0
 93184  1  0  0  0
 94185  1  0  0  0
 94186  1  0  0  0
 95187  1  0  0  0
 95188  1  0  0  0
 95189  1  0  0  0
 96190  1  0  0  0
 96191  1  0  0  0
 96192  1  0  0  0
 97193  1  0  0  0
 98194  1  0  0  0
101195  1  0  0  0
101196  1  0  0  0
103197  1  0  0  0
M  END
$$$$
