5a6b_ligand
  -I-interpret- 

 44 45  0  0  0  0  0  0  0  0999 V2000
   27.8540  -18.5590   10.7930 C   0  0  0  0  0
   28.5030  -17.8000    9.6270 C   0  0  0  0  0
   29.2050  -18.3600    8.8030 O   0  0  0  0  0
   28.2800  -16.4800    9.6240 N   0  0  0  0  0
   28.8600  -15.5920    8.6100 C   0  0  0  0  0
   28.0480  -15.7600    7.2960 C   0  0  0  0  0
   26.9260  -14.8280    7.1840 O   0  0  0  0  0
   28.9490  -15.6090    6.0770 C   0  0  0  0  0
   28.2100  -15.8390    4.8720 O   0  0  0  0  0
   30.0510  -16.6220    6.1530 C   0  0  0  0  0
   30.9360  -16.6020    4.9100 C   0  0  0  0  0
   31.6960  -15.3740    4.8150 O   0  0  0  0  0
   30.9460  -16.3620    7.2450 O   0  0  0  0  0
   30.3440  -15.7810    8.4100 C   0  0  0  0  0
   31.1740  -15.4000    9.2950 N   0  0  0  0  0
   32.4190  -15.5160    9.0080 O   0  0  0  0  0
   33.4140  -14.6850    9.6470 C   0  0  0  0  0
   33.1050  -13.7490   10.3810 O   0  0  0  0  0
   34.6600  -15.0460    9.4480 N   0  0  0  0  0
   35.7120  -14.4520   10.0830 C   0  0  0  0  0
   35.5600  -13.3560   10.9420 C   0  0  0  0  0
   36.6660  -12.7920   11.5660 C   0  0  0  0  0
   37.9230  -13.3180   11.3370 C   0  0  0  0  0
   38.0800  -14.4050   10.4870 C   0  0  0  0  0
   36.9830  -14.9810    9.8760 C   0  0  0  0  0
   27.1970  -19.3345   10.3992 H   0  0  0  0  0
   28.6316  -19.0161   11.4050 H   0  0  0  0  0
   27.2742  -17.8634   11.3998 H   0  0  0  0  0
   27.6874  -16.0783   10.3505 H   0  0  0  0  0
   28.7798  -14.5636    8.9622 H   0  0  0  0  0
   27.6338  -16.7676    7.3331 H   0  0  0  0  0
   26.3564  -14.9210    7.9511 H   0  0  0  0  0
   29.3519  -14.5962    6.0667 H   0  0  0  0  0
   27.4986  -15.1977    4.8069 H   0  0  0  0  0
   29.5375  -17.5766    6.2678 H   0  0  0  0  0
   30.2960  -16.6792    4.0310 H   0  0  0  0  0
   31.6357  -17.4354    4.9727 H   0  0  0  0  0
   32.2396  -15.3958    4.0241 H   0  0  0  0  0
   34.8502  -15.8026    8.7909 H   0  0  0  0  0
   34.5675  -12.9429   11.1221 H   0  0  0  0  0
   36.5426  -11.9387   12.2329 H   0  0  0  0  0
   38.7933  -12.8788   11.8246 H   0  0  0  0  0
   39.0760  -14.8066   10.3006 H   0  0  0  0  0
   37.1127  -15.8503    9.2314 H   0  0  0  0  0
  1  2  1  0  0  0
  2  3  2  0  0  0
  2  4  1  0  0  0
  4  5  1  0  0  0
  5  6  1  0  0  0
  5 14  1  0  0  0
  6  7  1  0  0  0
  6  8  1  0  0  0
  8  9  1  0  0  0
  8 10  1  0  0  0
 10 11  1  0  0  0
 10 13  1  0  0  0
 11 12  1  0  0  0
 13 14  1  0  0  0
 14 15  2  0  0  0
 15 16  1  0  0  0
 16 17  1  0  0  0
 17 18  2  0  0  0
 17 19  1  0  0  0
 19 20  1  0  0  0
 20 21  4  0  0  0
 20 25  4  0  0  0
 21 22  4  0  0  0
 22 23  4  0  0  0
 23 24  4  0  0  0
 24 25  4  0  0  0
  1 26  1  0  0  0
  1 27  1  0  0  0
  1 28  1  0  0  0
  4 29  1  0  0  0
  5 30  1  0  0  0
  6 31  1  0  0  0
  7 32  1  0  0  0
  8 33  1  0  0  0
  9 34  1  0  0  0
 10 35  1  0  0  0
 11 36  1  0  0  0
 11 37  1  0  0  0
 12 38  1  0  0  0
 19 39  1  0  0  0
 21 40  1  0  0  0
 22 41  1  0  0  0
 23 42  1  0  0  0
 24 43  1  0  0  0
 25 44  1  0  0  0
M  END
$$$$
