5y93_ligand
  -I-interpret- 

 64 67  0  0  0  0  0  0  0  0999 V2000
  -15.5730   15.9560   -5.2890 C   0  0  0  0  0
  -15.6530   17.2320   -6.1250 C   0  0  0  0  0
  -14.2940   17.5110   -6.6300 O   0  0  0  0  0
  -13.2760   17.5280   -5.5840 C   0  0  0  0  0
  -13.2070   16.1390   -4.9190 C   0  0  0  0  0
  -14.2800   15.2500   -5.4310 N   0  3  0  0  0
  -14.3480   13.9850   -4.6840 C   0  0  0  0  0
  -13.3080   13.0740   -5.2800 C   0  0  0  0  0
  -13.3800   11.8130   -4.5050 N   0  0  0  0  0
  -14.1800   10.7770   -4.8190 C   0  0  0  0  0
  -14.9920   10.7950   -5.7530 O   0  0  0  0  0
  -14.1510    9.5760   -3.9040 C   0  0  0  0  0
  -12.8920    9.5270   -3.1630 O   0  0  0  0  0
  -12.8050    8.5420   -2.1790 C   0  0  0  0  0
  -13.8070    7.6020   -1.8520 C   0  0  0  0  0
  -13.6080    6.7180   -0.8430 C   0  0  0  0  0
  -14.4260    5.7500   -0.3730 O   0  0  0  0  0
  -13.6610    5.0610    0.7140 N   0  0  0  0  0
  -12.5130    5.7000    0.7760 C   0  0  0  0  0
  -11.4190    5.3250    1.7650 C   0  0  0  0  0
  -12.4390    6.6820   -0.1410 C   0  0  0  0  0
  -11.4490    7.5620   -0.4260 C   0  0  0  0  0
  -11.6070    8.5090   -1.4490 C   0  0  0  0  0
  -10.7100    9.4800   -1.7680 N   0  0  0  0  0
   -9.1310    9.1100   -2.2850 S   0  0  0  0  0
   -8.5100    8.1430   -1.3360 O   0  0  0  0  0
   -8.3670   10.3590   -2.5190 O   0  0  0  0  0
   -9.3080    8.2550   -3.8280 C   0  0  0  0  0
   -8.8910    6.9310   -3.9290 C   0  0  0  0  0
   -9.0150    6.2430   -5.1090 C   0  0  0  0  0
   -8.4520    4.4690   -5.1140 Br  0  0  0  0  0
   -9.5360    6.8770   -6.2430 C   0  0  0  0  0
   -9.9490    8.1980   -6.1750 C   0  0  0  0  0
   -9.8330    8.9050   -4.9500 C   0  0  0  0  0
  -10.1880   10.2160   -4.7960 O   0  0  0  0  0
  -10.5680   10.9820   -5.9490 C   0  0  0  0  0
  -16.3578   15.2833   -5.6349 H   0  0  0  0  0
  -15.6834   16.2382   -4.2420 H   0  0  0  0  0
  -16.0156   18.0637   -5.5210 H   0  0  0  0  0
  -16.3508   17.1048   -6.9527 H   0  0  0  0  0
  -13.5330   18.2785   -4.8364 H   0  0  0  0  0
  -12.3077   17.7724   -6.0207 H   0  0  0  0  0
  -13.3363   16.2595   -3.8434 H   0  0  0  0  0
  -12.2410   15.6891   -5.1484 H   0  0  0  0  0
  -14.0775   15.0284   -6.4058 H   0  0  0  0  0
  -15.3412   13.5423   -4.7595 H   0  0  0  0  0
  -14.1581   14.1496   -3.6234 H   0  0  0  0  0
  -12.3140   13.5175   -5.2223 H   0  0  0  0  0
  -13.4961   12.8985   -6.3392 H   0  0  0  0  0
  -12.7854   11.7244   -3.6810 H   0  0  0  0  0
  -14.2438    8.6711   -4.5045 H   0  0  0  0  0
  -14.9761    9.6506   -3.1956 H   0  0  0  0  0
  -14.7422    7.5870   -2.4117 H   0  0  0  0  0
  -11.8009    5.4220    2.7813 H   0  0  0  0  0
  -11.1091    4.2949    1.5887 H   0  0  0  0  0
  -10.5661    5.9904    1.6309 H   0  0  0  0  0
  -10.5209    7.5339    0.1450 H   0  0  0  0  0
  -10.9913   10.4577   -1.6954 H   0  0  0  0  0
   -8.4604    6.4346   -3.0593 H   0  0  0  0  0
   -9.6171    6.3300   -7.1823 H   0  0  0  0  0
  -10.3601    8.6906   -7.0562 H   0  0  0  0  0
   -9.7389   11.0074   -6.6562 H   0  0  0  0  0
  -11.4355   10.5203   -6.4206 H   0  0  0  0  0
  -10.8171   11.9980   -5.6427 H   0  0  0  0  0
  1  2  1  0  0  0
  1  6  1  0  0  0
  2  3  1  0  0  0
  3  4  1  0  0  0
  4  5  1  0  0  0
  5  6  1  0  0  0
  6  7  1  0  0  0
  7  8  1  0  0  0
  8  9  1  0  0  0
  9 10  1  0  0  0
 10 11  2  0  0  0
 10 12  1  0  0  0
 12 13  1  0  0  0
 13 14  1  0  0  0
 14 15  4  0  0  0
 14 23  4  0  0  0
 15 16  4  0  0  0
 16 17  4  0  0  0
 16 21  4  0  0  0
 17 18  4  0  0  0
 18 19  4  0  0  0
 19 20  1  0  0  0
 19 21  4  0  0  0
 21 22  4  0  0  0
 22 23  4  0  0  0
 23 24  1  0  0  0
 24 25  1  0  0  0
 25 26  2  0  0  0
 25 27  2  0  0  0
 25 28  1  0  0  0
 28 29  4  0  0  0
 28 34  4  0  0  0
 29 30  4  0  0  0
 30 31  1  0  0  0
 30 32  4  0  0  0
 32 33  4  0  0  0
 33 34  4  0  0  0
 34 35  1  0  0  0
 35 36  1  0  0  0
  1 37  1  0  0  0
  1 38  1  0  0  0
  2 39  1  0  0  0
  2 40  1  0  0  0
  4 41  1  0  0  0
  4 42  1  0  0  0
  5 43  1  0  0  0
  5 44  1  0  0  0
  6 45  1  0  0  0
  7 46  1  0  0  0
  7 47  1  0  0  0
  8 48  1  0  0  0
  8 49  1  0  0  0
  9 50  1  0  0  0
 12 51  1  0  0  0
 12 52  1  0  0  0
 15 53  1  0  0  0
 20 54  1  0  0  0
 20 55  1  0  0  0
 20 56  1  0  0  0
 22 57  1  0  0  0
 24 58  1  0  0  0
 29 59  1  0  0  0
 32 60  1  0  0  0
 33 61  1  0  0  0
 36 62  1  0  0  0
 36 63  1  0  0  0
 36 64  1  0  0  0
M  END
$$$$
