6n5x_ligand
  -I-interpret- 

 23 22  0  0  0  0  0  0  0  0999 V2000
   16.4070   69.8150   50.5230 O   0  0  0  0  0
   16.3170   71.1380   50.0770 C   0  0  0  0  0
   17.4160   71.9710   50.7310 C   0  0  0  0  0
   14.9550   71.7130   50.4550 C   0  0  0  0  0
   13.9610   71.1260   49.6570 O   0  0  0  0  0
   13.7690   71.7040   48.3950 C   0  0  0  0  0
   12.8280   70.8210   47.5790 C   0  0  0  0  0
   13.1540   73.0970   48.5270 C   0  0  0  0  0
   12.5110   73.4290   47.3300 O   0  0  0  0  0
   17.2645   69.4556   50.2841 H   0  0  0  0  0
   16.4348   71.1631   48.9937 H   0  0  0  0  0
   17.3451   73.0014   50.3827 H   0  0  0  0  0
   17.2955   71.9431   51.8140 H   0  0  0  0  0
   18.3895   71.5613   50.4618 H   0  0  0  0  0
   14.9591   72.7912   50.2954 H   0  0  0  0  0
   14.7501   71.5014   51.5045 H   0  0  0  0  0
   14.7356   71.7911   47.8989 H   0  0  0  0  0
   11.8655   70.7522   48.0860 H   0  0  0  0  0
   12.6888   71.2574   46.5899 H   0  0  0  0  0
   13.2603   69.8252   47.4806 H   0  0  0  0  0
   13.9375   73.8253   48.7365 H   0  0  0  0  0
   12.4330   73.1034   49.3444 H   0  0  0  0  0
   12.1230   74.3036   47.4084 H   0  0  0  0  0
  1  2  1  0  0  0
  2  3  1  0  0  0
  2  4  1  0  0  0
  4  5  1  0  0  0
  5  6  1  0  0  0
  6  7  1  0  0  0
  6  8  1  0  0  0
  8  9  1  0  0  0
  1 10  1  0  0  0
  2 11  1  0  0  0
  3 12  1  0  0  0
  3 13  1  0  0  0
  3 14  1  0  0  0
  4 15  1  0  0  0
  4 16  1  0  0  0
  6 17  1  0  0  0
  7 18  1  0  0  0
  7 19  1  0  0  0
  7 20  1  0  0  0
  8 21  1  0  0  0
  8 22  1  0  0  0
  9 23  1  0  0  0
M  END
$$$$
