1jcx_ligand
  -I-interpret- 

 47 46  0  0  0  0  0  0  0  0999 V2000
   39.5660   55.8050   15.4410 P   0  0  0  0  0
   39.6840   57.2810   15.3430 O   0  0  0  0  0
   40.7160   55.1510   16.1060 O   0  0  0  0  0
   38.3500   55.6480   16.4610 O   0  0  0  0  0
   39.2660   55.1660   14.1350 O   0  0  0  0  0
   37.1970   54.8200   16.3180 C   0  0  0  0  0
   37.1550   53.5930   17.2280 C   0  0  0  0  0
   38.3220   53.4570   18.0460 O   0  0  0  0  0
   35.8850   53.7040   18.0840 C   0  0  0  0  0
   34.6770   54.0020   17.3690 O   0  0  0  0  0
   35.7660   52.4250   18.9310 C   0  0  0  0  0
   35.5920   51.2360   18.1490 O   0  0  0  0  0
   34.6120   52.6640   19.9040 C   0  0  0  0  0
   34.7960   53.7340   20.8260 O   0  0  0  0  0
   34.3920   51.4260   20.7650 C   0  0  0  0  0
   33.0570   51.3440   21.0400 N   0  3  0  0  0
   32.7280   51.5570   22.3570 C   0  0  0  0  0
   31.4380   52.1820   22.8710 C   0  0  0  0  0
   30.4040   51.4870   22.6190 O   0  0  0  0  0
   31.4790   53.2550   23.3760 O   0  0  0  0  0
   32.4540   50.2480   20.4700 C   0  0  0  0  0
   32.3140   49.4290   19.1640 P   0  0  0  0  0
   32.9370   48.2010   19.6490 O   0  0  0  0  0
   33.0370   50.0450   18.0160 O   0  0  0  0  0
   30.7870   49.4420   18.8480 O   0  0  0  0  0
   38.9073   57.6345   14.9033 H   0  0  0  0  0
   38.5182   55.6091   13.7275 H   0  0  0  0  0
   37.2059   54.4478   15.2935 H   0  0  0  0  0
   36.3371   55.4347   16.5841 H   0  0  0  0  0
   37.1370   52.6933   16.6129 H   0  0  0  0  0
   39.0984   53.3899   17.4853 H   0  0  0  0  0
   36.0011   54.5810   18.7207 H   0  0  0  0  0
   33.9442   54.0504   17.9873 H   0  0  0  0  0
   36.6974   52.2405   19.4663 H   0  0  0  0  0
   35.5247   50.4772   18.7331 H   0  0  0  0  0
   33.7739   52.9104   19.2520 H   0  0  0  0  0
   34.0230   53.8047   21.3909 H   0  0  0  0  0
   34.9659   51.4993   21.6888 H   0  0  0  0  0
   34.7264   50.5326   20.2376 H   0  0  0  0  0
   32.6434   52.1477   20.5673 H   0  0  0  0  0
   33.4697   52.2978   22.6556 H   0  0  0  0  0
   32.6487   50.5378   22.7352 H   0  0  0  0  0
   30.6677   50.6605   22.2080 H   0  0  0  0  0
   31.4598   50.6921   20.4199 H   0  0  0  0  0
   33.0686   49.5116   20.9877 H   0  0  0  0  0
   32.5809   50.8448   17.7441 H   0  0  0  0  0
   30.5322   50.3154   18.5416 H   0  0  0  0  0
  1  5  1  0  0  0
  1  4  1  0  0  0
  1  3  2  0  0  0
  1  2  1  0  0  0
  4  6  1  0  0  0
  6  7  1  0  0  0
  7  9  1  0  0  0
  7  8  1  0  0  0
  9 11  1  0  0  0
  9 10  1  0  0  0
 11 13  1  0  0  0
 11 12  1  0  0  0
 13 15  1  0  0  0
 13 14  1  0  0  0
 15 16  1  0  0  0
 16 21  1  0  0  0
 16 17  1  0  0  0
 17 18  1  0  0  0
 18 20  2  0  0  0
 18 19  1  0  0  0
 21 22  1  0  0  0
 22 25  1  0  0  0
 22 24  1  0  0  0
 22 23  2  0  0  0
  2 26  1  0  0  0
  5 27  1  0  0  0
  6 28  1  0  0  0
  6 29  1  0  0  0
  7 30  1  0  0  0
  8 31  1  0  0  0
  9 32  1  0  0  0
 10 33  1  0  0  0
 11 34  1  0  0  0
 12 35  1  0  0  0
 13 36  1  0  0  0
 14 37  1  0  0  0
 15 38  1  0  0  0
 15 39  1  0  0  0
 16 40  1  0  0  0
 17 41  1  0  0  0
 17 42  1  0  0  0
 19 43  1  0  0  0
 21 44  1  0  0  0
 21 45  1  0  0  0
 24 46  1  0  0  0
 25 47  1  0  0  0
M  END
$$$$
