5fnt_ligand
  -I-interpret- 

 57 60  0  0  0  0  0  0  0  0999 V2000
   13.0950   63.9680   30.4570 C   0  0  0  0  0
   13.7240   64.8880   31.4160 N   0  0  0  0  0
   14.7130   65.7930   30.8150 C   0  0  0  0  0
   15.8840   65.0510   30.2140 C   0  0  0  0  0
   15.9400   64.8340   28.8410 C   0  0  0  0  0
   17.0020   64.1550   28.2530 C   0  0  0  0  0
   18.0260   63.6880   29.0720 C   0  0  0  0  0
   17.9870   63.8940   30.4380 C   0  0  0  0  0
   16.9230   64.5710   31.0030 C   0  0  0  0  0
   16.9000   64.8150   32.7190 Cl  0  0  0  0  0
   17.0620   63.9170   26.7520 C   0  0  0  0  0
   17.6820   65.0990   26.0100 C   0  0  0  0  0
   17.9700   64.8140   24.5420 C   0  0  0  0  0
   17.6580   65.7030   23.7170 O   0  0  0  0  0
   18.4970   63.7190   24.2410 O   0  0  0  0  0
   15.7050   63.4690   26.2210 C   0  0  0  0  0
   14.9420   64.2370   25.3340 C   0  0  0  0  0
   13.7060   63.7910   24.8700 C   0  0  0  0  0
   13.2070   62.5530   25.2950 C   0  0  0  0  0
   12.0740   61.8460   25.0420 N   0  0  0  0  0
   10.9420   62.1820   24.1890 C   0  0  0  0  0
   12.0920   60.6720   25.7300 N   0  0  0  0  0
   13.2260   60.6360   26.4110 N   0  0  0  0  0
   13.9460   61.7700   26.1760 C   0  0  0  0  0
   15.2000   62.2300   26.6420 C   0  0  0  0  0
   12.7640   65.4800   32.5930 S   0  0  0  0  0
   12.1110   64.3600   33.1970 O   0  0  0  0  0
   13.5560   66.3650   33.3910 O   0  0  0  0  0
   11.5540   66.4360   31.7390 C   0  0  0  0  0
   11.7410   67.7970   31.5720 C   0  0  0  0  0
   10.7880   68.5410   30.9010 C   0  0  0  0  0
    9.6580   67.9270   30.4010 C   0  0  0  0  0
    9.4740   66.5700   30.5690 C   0  0  0  0  0
   10.4200   65.8200   31.2370 C   0  0  0  0  0
   12.7060   63.1002   30.9896 H   0  0  0  0  0
   12.2783   64.4791   29.9472 H   0  0  0  0  0
   13.8360   63.6450   29.7257 H   0  0  0  0  0
   15.0947   66.4447   31.6010 H   0  0  0  0  0
   14.2203   66.3481   30.0167 H   0  0  0  0  0
   15.1319   65.2051   28.2106 H   0  0  0  0  0
   18.8678   63.1540   28.6312 H   0  0  0  0  0
   18.7946   63.5229   31.0690 H   0  0  0  0  0
   17.7428   63.0892   26.5535 H   0  0  0  0  0
   18.6333   65.3248   26.4919 H   0  0  0  0  0
   16.9671   65.9209   26.0492 H   0  0  0  0  0
   17.2711   66.4482   24.1823 H   0  0  0  0  0
   15.3218   65.2025   24.9997 H   0  0  0  0  0
   13.1288   64.4041   24.1779 H   0  0  0  0  0
   10.4852   63.1068   24.5413 H   0  0  0  0  0
   11.2878   62.3136   23.1637 H   0  0  0  0  0
   10.2090   61.3761   24.2260 H   0  0  0  0  0
   15.7781   61.6170   27.3334 H   0  0  0  0  0
   12.6347   68.2799   31.9673 H   0  0  0  0  0
   10.9295   69.6134   30.7669 H   0  0  0  0  0
    8.9086   68.5157   29.8718 H   0  0  0  0  0
    8.5793   66.0894   30.1731 H   0  0  0  0  0
   10.2754   64.7477   31.3689 H   0  0  0  0  0
  1  2  1  0  0  0
  2  3  1  0  0  0
  2 26  1  0  0  0
  3  4  1  0  0  0
  4  5  4  0  0  0
  4  9  4  0  0  0
  5  6  4  0  0  0
  6  7  4  0  0  0
  6 11  1  0  0  0
  7  8  4  0  0  0
  8  9  4  0  0  0
  9 10  1  0  0  0
 11 12  1  0  0  0
 11 16  1  0  0  0
 12 13  1  0  0  0
 13 14  1  0  0  0
 13 15  2  0  0  0
 16 17  4  0  0  0
 16 25  4  0  0  0
 17 18  4  0  0  0
 18 19  4  0  0  0
 19 20  4  0  0  0
 19 24  4  0  0  0
 20 21  1  0  0  0
 20 22  4  0  0  0
 22 23  4  0  0  0
 23 24  4  0  0  0
 24 25  4  0  0  0
 26 27  2  0  0  0
 26 28  2  0  0  0
 26 29  1  0  0  0
 29 30  4  0  0  0
 29 34  4  0  0  0
 30 31  4  0  0  0
 31 32  4  0  0  0
 32 33  4  0  0  0
 33 34  4  0  0  0
  1 35  1  0  0  0
  1 36  1  0  0  0
  1 37  1  0  0  0
  3 38  1  0  0  0
  3 39  1  0  0  0
  5 40  1  0  0  0
  7 41  1  0  0  0
  8 42  1  0  0  0
 11 43  1  0  0  0
 12 44  1  0  0  0
 12 45  1  0  0  0
 14 46  1  0  0  0
 17 47  1  0  0  0
 18 48  1  0  0  0
 21 49  1  0  0  0
 21 50  1  0  0  0
 21 51  1  0  0  0
 25 52  1  0  0  0
 30 53  1  0  0  0
 31 54  1  0  0  0
 32 55  1  0  0  0
 33 56  1  0  0  0
 34 57  1  0  0  0
M  END
$$$$
