3pdq_ligand
  -I-interpret- 

 36 37  0  0  0  0  0  0  0  0999 V2000
  -24.6260  -22.4220  -25.7740 O   0  0  0  0  0
  -24.4650  -21.9260  -24.6570 C   0  0  0  0  0
  -25.7250  -21.8030  -23.7840 C   0  0  0  0  0
  -26.7090  -22.7490  -24.0090 C   0  0  0  0  0
  -27.8650  -22.6870  -23.2270 C   0  0  0  0  0
  -28.0640  -21.7880  -22.2550 N   0  0  0  0  0
  -27.0930  -20.8510  -22.0180 C   0  0  0  0  0
  -27.3790  -19.7870  -20.9640 C   0  0  0  0  0
  -26.3720  -18.8780  -20.5220 C   0  0  0  0  0
  -26.6450  -17.8550  -19.6080 C   0  0  0  0  0
  -25.5860  -16.8910  -19.1330 C   0  0  0  0  0
  -25.8430  -15.5150  -18.9860 N   0  0  0  0  0
  -24.8000  -14.4740  -18.9910 C   0  0  0  0  0
  -23.6690  -14.6320  -17.9320 C   0  0  0  0  0
  -22.5610  -15.5000  -18.3580 N   0  3  0  0  0
  -24.4410  -17.3340  -18.9550 O   0  0  0  0  0
  -27.9670  -17.6800  -19.1920 C   0  0  0  0  0
  -28.9290  -18.5670  -19.7100 C   0  0  0  0  0
  -28.6790  -19.5650  -20.6050 N   0  0  0  0  0
  -25.9010  -20.8490  -22.7800 C   0  0  0  0  0
  -23.4070  -21.5240  -24.1130 O   0  0  0  0  0
  -26.5863  -23.5179  -24.7718 H   0  0  0  0  0
  -28.6530  -23.4149  -23.4200 H   0  0  0  0  0
  -25.3584  -18.9841  -20.9086 H   0  0  0  0  0
  -26.8123  -15.2198  -18.8686 H   0  0  0  0  0
  -25.3044  -13.5355  -18.7611 H   0  0  0  0  0
  -24.3157  -14.5319  -19.9658 H   0  0  0  0  0
  -24.1161  -15.0908  -17.0501 H   0  0  0  0  0
  -23.2516  -13.6404  -17.7570 H   0  0  0  0  0
  -21.8656  -15.5517  -17.6136 H   0  0  0  0  0
  -22.9193  -16.4343  -18.5557 H   0  0  0  0  0
  -22.1323  -15.1139  -19.1992 H   0  0  0  0  0
  -28.2422  -16.8887  -18.4947 H   0  0  0  0  0
  -29.9570  -18.4465  -19.3682 H   0  0  0  0  0
  -25.1258  -20.1081  -22.5847 H   0  0  0  0  0
  -23.6070  -21.1881  -23.2362 H   0  0  0  0  0
  1  2  2  0  0  0
  2  3  1  0  0  0
  2 21  1  0  0  0
  3  4  4  0  0  0
  3 20  4  0  0  0
  4  5  4  0  0  0
  5  6  4  0  0  0
  6  7  4  0  0  0
  7  8  1  0  0  0
  7 20  4  0  0  0
  8  9  4  0  0  0
  8 19  4  0  0  0
  9 10  4  0  0  0
 10 11  1  0  0  0
 10 17  4  0  0  0
 11 12  1  0  0  0
 11 16  2  0  0  0
 12 13  1  0  0  0
 13 14  1  0  0  0
 14 15  1  0  0  0
 17 18  4  0  0  0
 18 19  4  0  0  0
  4 22  1  0  0  0
  5 23  1  0  0  0
  9 24  1  0  0  0
 12 25  1  0  0  0
 13 26  1  0  0  0
 13 27  1  0  0  0
 14 28  1  0  0  0
 14 29  1  0  0  0
 15 30  1  0  0  0
 15 31  1  0  0  0
 15 32  1  0  0  0
 17 33  1  0  0  0
 18 34  1  0  0  0
 20 35  1  0  0  0
 21 36  1  0  0  0
M  END
$$$$
