3el0_ligand
  -I-interpret- 

 86 89  0  0  0  0  0  0  0  0999 V2000
   22.3500   -3.8350   14.2510 C   0  0  0  0  0
   21.4630   -5.0690   14.1250 C   0  0  0  0  0
   22.2370   -6.3670   14.3270 C   0  0  0  0  0
   23.0710   -6.3540   15.6040 C   0  0  0  0  0
   23.9900   -5.1340   15.6430 C   0  0  0  0  0
   23.1830   -3.8420   15.5340 C   0  0  0  0  0
   20.4810   -2.5260   15.1700 N   0  3  0  0  0
   19.5540   -3.6540   15.0820 C   0  0  0  0  0
   20.3040   -4.9760   15.1110 C   0  0  0  0  0
   21.4990   -2.5730   14.1220 C   0  0  0  0  0
   18.6090   -3.6280   16.2580 C   0  0  0  0  0
   17.4150   -4.1570   16.0610 N   0  0  0  0  0
   16.2170   -3.8130   16.8120 C   0  0  0  0  0
   15.4360   -2.8140   15.9470 C   0  0  0  0  0
   16.4780   -3.1940   18.1960 C   0  0  0  0  0
   15.4420   -5.1140   16.9990 C   0  0  0  0  0
   18.9580   -3.1520   17.3260 O   0  0  0  0  0
   19.7050   -1.2940   14.9450 C   0  0  0  0  0
   20.3960   -0.0510   15.5030 C   0  0  0  0  0
   19.9330    0.3250   16.9140 C   0  0  0  0  0
   20.1350    1.0010   14.5710 O   0  0  0  0  0
   20.8440    1.3070   17.4830 N   0  0  0  0  0
   18.5140    0.8800   16.9640 C   0  0  0  0  0
   21.6050    1.0700   18.5430 C   0  0  0  0  0
   21.7150   -0.0320   19.0590 O   0  0  0  0  0
   22.3860    2.1920   19.1440 C   0  0  0  0  0
   21.7460    3.3340   19.6190 C   0  0  0  0  0
   22.4610    4.3820   20.2020 C   0  0  0  0  0
   23.8490    4.3330   20.3410 C   0  0  0  0  0
   24.5600    3.2340   19.8800 C   0  0  0  0  0
   23.8580    2.1000   19.2510 C   0  0  0  0  0
   25.8670    3.1390   19.9780 O   0  0  0  0  0
   24.6900    0.9360   18.7840 C   0  0  0  0  0
   17.7210    0.4150   18.4730 S   0  0  0  0  0
   18.1400    1.6220   19.5820 C   0  0  0  0  0
   17.7710    2.9420   19.3510 C   0  0  0  0  0
   18.0900    3.9330   20.2850 C   0  0  0  0  0
   18.8010    3.5950   21.4370 C   0  0  0  0  0
   19.1860    2.2690   21.6580 C   0  0  0  0  0
   18.8510    1.2830   20.7350 C   0  0  0  0  0
   23.0722   -3.8500   13.4347 H   0  0  0  0  0
   21.0743   -5.0913   13.1069 H   0  0  0  0  0
   22.9151   -6.4902   13.4826 H   0  0  0  0  0
   21.5162   -7.1811   14.4033 H   0  0  0  0  0
   23.6836   -7.2552   15.6316 H   0  0  0  0  0
   22.3988   -6.3139   16.4611 H   0  0  0  0  0
   24.6813   -5.1882   14.8020 H   0  0  0  0  0
   24.5303   -5.1316   16.5896 H   0  0  0  0  0
   22.5130   -3.7704   16.3908 H   0  0  0  0  0
   23.8706   -2.9965   15.5136 H   0  0  0  0  0
   20.9363   -2.5583   16.0822 H   0  0  0  0  0
   19.0066   -3.5652   14.1436 H   0  0  0  0  0
   20.7269   -5.0803   16.1102 H   0  0  0  0  0
   19.5902   -5.7531   14.8376 H   0  0  0  0  0
   21.0044   -2.5797   13.1507 H   0  0  0  0  0
   22.1455   -1.7009   14.2198 H   0  0  0  0  0
   17.3259   -4.8597   15.3271 H   0  0  0  0  0
   16.0514   -1.9325   15.7670 H   0  0  0  0  0
   15.1807   -3.2809   14.9957 H   0  0  0  0  0
   14.5233   -2.5216   16.4662 H   0  0  0  0  0
   17.0411   -3.8990   18.8076 H   0  0  0  0  0
   17.0509   -2.2741   18.0790 H   0  0  0  0  0
   15.5262   -2.9718   18.6786 H   0  0  0  0  0
   15.1878   -5.5275   16.0230 H   0  0  0  0  0
   16.0578   -5.8266   17.5478 H   0  0  0  0  0
   14.5287   -4.9140   17.5593 H   0  0  0  0  0
   18.7487   -1.4030   15.4565 H   0  0  0  0  0
   19.5942   -1.1604   13.8689 H   0  0  0  0  0
   21.4635   -0.2421   15.6125 H   0  0  0  0  0
   19.9360   -0.5985   17.4929 H   0  0  0  0  0
   20.5510    1.8098   14.8783 H   0  0  0  0  0
   20.9002    2.2257   17.0435 H   0  0  0  0  0
   17.9458    0.4760   16.1261 H   0  0  0  0  0
   18.5568    1.9677   16.9068 H   0  0  0  0  0
   20.6621    3.4115   19.5337 H   0  0  0  0  0
   21.9219    5.2602   20.5574 H   0  0  0  0  0
   24.3767    5.1614   20.8136 H   0  0  0  0  0
   23.4023    1.3113   18.6523 H   0  0  0  0  0
   24.3824    0.0350   19.3148 H   0  0  0  0  0
   24.5464    0.7950   17.7127 H   0  0  0  0  0
   25.7416    1.1379   18.9874 H   0  0  0  0  0
   17.2323    3.2052   18.4407 H   0  0  0  0  0
   17.7844    4.9652   20.1137 H   0  0  0  0  0
   19.0564    4.3650   22.1650 H   0  0  0  0  0
   19.7490    2.0075   22.5540 H   0  0  0  0  0
   19.1431    0.2478   20.9117 H   0  0  0  0  0
  1  2  1  0  0  0
  1  6  1  0  0  0
 10  1  1  0  0  0
  2  3  1  0  0  0
  2  9  1  0  0  0
  3  4  1  0  0  0
  5  4  1  0  0  0
  6  5  1  0  0  0
  7  8  1  0  0  0
  7 10  1  0  0  0
  7 18  1  0  0  0
  8  9  1  0  0  0
  8 11  1  0  0  0
 11 12  1  0  0  0
 11 17  2  0  0  0
 12 13  1  0  0  0
 13 14  1  0  0  0
 13 15  1  0  0  0
 13 16  1  0  0  0
 18 19  1  0  0  0
 19 20  1  0  0  0
 19 21  1  0  0  0
 20 22  1  0  0  0
 20 23  1  0  0  0
 22 24  1  0  0  0
 23 34  1  0  0  0
 24 25  2  0  0  0
 24 26  1  0  0  0
 26 27  2  0  0  0
 26 31  1  0  0  0
 27 28  1  0  0  0
 28 29  2  0  0  0
 29 30  1  0  0  0
 30 31  1  0  0  0
 30 32  2  0  0  0
 31 33  1  0  0  0
 34 35  1  0  0  0
 35 36  4  0  0  0
 35 40  4  0  0  0
 36 37  4  0  0  0
 37 38  4  0  0  0
 38 39  4  0  0  0
 39 40  4  0  0  0
  1 41  1  0  0  0
  2 42  1  0  0  0
  3 43  1  0  0  0
  3 44  1  0  0  0
  4 45  1  0  0  0
  4 46  1  0  0  0
  5 47  1  0  0  0
  5 48  1  0  0  0
  6 49  1  0  0  0
  6 50  1  0  0  0
  7 51  1  0  0  0
  8 52  1  0  0  0
  9 53  1  0  0  0
  9 54  1  0  0  0
 10 55  1  0  0  0
 10 56  1  0  0  0
 12 57  1  0  0  0
 14 58  1  0  0  0
 14 59  1  0  0  0
 14 60  1  0  0  0
 15 61  1  0  0  0
 15 62  1  0  0  0
 15 63  1  0  0  0
 16 64  1  0  0  0
 16 65  1  0  0  0
 16 66  1  0  0  0
 18 67  1  0  0  0
 18 68  1  0  0  0
 19 69  1  0  0  0
 20 70  1  0  0  0
 21 71  1  0  0  0
 22 72  1  0  0  0
 23 73  1  0  0  0
 23 74  1  0  0  0
 27 75  1  0  0  0
 28 76  1  0  0  0
 29 77  1  0  0  0
 31 78  1  0  0  0
 33 79  1  0  0  0
 33 80  1  0  0  0
 33 81  1  0  0  0
 36 82  1  0  0  0
 37 83  1  0  0  0
 38 84  1  0  0  0
 39 85  1  0  0  0
 40 86  1  0  0  0
M  END
$$$$
