### 
### Created by X-TOOL on Mon Sep 10 21:13:00 2018
### 

@<TRIPOS>MOLECULE
3el0_ligand
   85    88     1     0     0
SMALL
GAST_HUCK


@<TRIPOS>ATOM
      1 C1         22.3500   -3.8350   14.2510 C.3       1 1UN        -0.0565
      2 C2         21.4630   -5.0690   14.1250 C.3       1 1UN        -0.0396
      3 C3         22.2370   -6.3670   14.3270 C.3       1 1UN        -0.0499
      4 C4         23.0710   -6.3540   15.6040 C.3       1 1UN        -0.0528
      5 C5         23.9900   -5.1340   15.6430 C.3       1 1UN        -0.0529
      6 C6         23.1830   -3.8420   15.5340 C.3       1 1UN        -0.0518
      7 N7         20.4810   -2.5260   15.1700 N.4       1 1UN         0.4179
      8 C8         19.5540   -3.6540   15.0820 C.3       1 1UN        -0.0052
      9 C9         20.3040   -4.9760   15.1110 C.3       1 1UN        -0.0489
     10 C10        21.4990   -2.5730   14.1220 C.3       1 1UN        -0.1061
     11 C11        18.6090   -3.6280   16.2580 C.2       1 1UN         0.1590
     12 N12        17.4150   -4.1570   16.0610 N.am      1 1UN        -0.2831
     13 C13        16.2170   -3.8130   16.8120 C.3       1 1UN         0.0446
     14 C14        15.4360   -2.8140   15.9470 C.3       1 1UN        -0.0396
     15 C15        16.4780   -3.1940   18.1960 C.3       1 1UN        -0.0396
     16 C16        15.4420   -5.1140   16.9990 C.3       1 1UN        -0.0396
     17 O17        18.9580   -3.1520   17.3260 O.2       1 1UN        -0.3990
     18 C18        19.7050   -1.2940   14.9450 C.3       1 1UN        -0.0805
     19 C19        20.3960   -0.0510   15.5030 C.3       1 1UN         0.0609
     20 C20        19.9330    0.3250   16.9140 C.3       1 1UN         0.0765
     21 O21        20.1350    1.0010   14.5710 O.3       1 1UN        -0.3915
     22 N22        20.8440    1.3070   17.4830 N.am      1 1UN        -0.2777
     23 C23        18.5140    0.8800   16.9640 C.3       1 1UN         0.0323
     24 C24        21.6050    1.0700   18.5430 C.2       1 1UN         0.2191
     25 O25        21.7150   -0.0320   19.0590 O.2       1 1UN        -0.3778
     26 C29        22.3860    2.1920   19.1440 C.2       1 1UN         0.0672
     27 C30        21.7460    3.3340   19.6190 C.2       1 1UN        -0.0313
     28 C31        22.4610    4.3820   20.2020 C.2       1 1UN        -0.0493
     29 C32        23.8490    4.3330   20.3410 C.2       1 1UN        -0.0109
     30 C33        24.5600    3.2340   19.8800 C.2       1 1UN         0.1239
     31 C34        23.8580    2.1000   19.2510 C.3       1 1UN         0.0769
     32 O38        25.8670    3.1390   19.9780 O.2       1 1UN        -0.4025
     33 C39        24.6900    0.9360   18.7840 C.3       1 1UN        -0.0332
     34 S74        17.7210    0.4150   18.4730 S.3       1 1UN        -0.0993
     35 C77        18.1400    1.6220   19.5820 C.ar      1 1UN         0.0154
     36 C78        17.7710    2.9420   19.3510 C.ar      1 1UN        -0.0498
     37 C79        18.0900    3.9330   20.2850 C.ar      1 1UN        -0.0678
     38 C80        18.8010    3.5950   21.4370 C.ar      1 1UN        -0.0687
     39 C81        19.1860    2.2690   21.6580 C.ar      1 1UN        -0.0678
     40 C82        18.8510    1.2830   20.7350 C.ar      1 1UN        -0.0498
     41 H          23.0722   -3.8500   13.4347 H         1 1UN         0.0284
     42 H          21.0743   -5.0913   13.1069 H         1 1UN         0.0304
     43 H          22.9151   -6.4902   13.4826 H         1 1UN         0.0268
     44 H          21.5162   -7.1811   14.4033 H         1 1UN         0.0268
     45 H          23.6836   -7.2552   15.6316 H         1 1UN         0.0265
     46 H          22.3988   -6.3139   16.4611 H         1 1UN         0.0265
     47 H          24.6813   -5.1882   14.8020 H         1 1UN         0.0265
     48 H          24.5303   -5.1316   16.5896 H         1 1UN         0.0265
     49 H          22.5130   -3.7704   16.3908 H         1 1UN         0.0267
     50 H          23.8706   -2.9965   15.5136 H         1 1UN         0.0267
     51 H          19.0066   -3.5652   14.1436 H         1 1UN         0.0293
     52 H          20.7269   -5.0803   16.1102 H         1 1UN         0.0275
     53 H          19.5902   -5.7531   14.8376 H         1 1UN         0.0275
     54 H          21.0044   -2.5797   13.1507 H         1 1UN         0.0023
     55 H          22.1455   -1.7009   14.2198 H         1 1UN         0.0023
     56 H          17.3259   -4.8597   15.3271 H         1 1UN         0.1856
     57 H          16.0514   -1.9325   15.7670 H         1 1UN         0.0254
     58 H          15.1807   -3.2809   14.9957 H         1 1UN         0.0254
     59 H          14.5233   -2.5216   16.4662 H         1 1UN         0.0254
     60 H          17.0411   -3.8990   18.8076 H         1 1UN         0.0254
     61 H          17.0509   -2.2741   18.0790 H         1 1UN         0.0254
     62 H          15.5262   -2.9718   18.6786 H         1 1UN         0.0254
     63 H          15.1878   -5.5275   16.0230 H         1 1UN         0.0254
     64 H          16.0578   -5.8266   17.5478 H         1 1UN         0.0254
     65 H          14.5287   -4.9140   17.5593 H         1 1UN         0.0254
     66 H          18.7487   -1.4030   15.4565 H         1 1UN         0.0046
     67 H          19.5942   -1.1604   13.8689 H         1 1UN         0.0046
     68 H          21.4635   -0.2421   15.6125 H         1 1UN         0.0596
     69 H          19.9360   -0.5985   17.4929 H         1 1UN         0.0590
     70 H          19.1918    1.1779   14.5458 H         1 1UN         0.2098
     71 H          20.9002    2.2257   17.0435 H         1 1UN         0.1848
     72 H          17.9458    0.4760   16.1261 H         1 1UN         0.0425
     73 H          18.5568    1.9677   16.9068 H         1 1UN         0.0425
     74 H          20.6621    3.4115   19.5337 H         1 1UN         0.0614
     75 H          21.9219    5.2602   20.5574 H         1 1UN         0.0734
     76 H          24.3767    5.1614   20.8136 H         1 1UN         0.0609
     77 H          23.4023    1.3113   18.6523 H         1 1UN         0.0750
     78 H          24.3824    0.0350   19.3148 H         1 1UN         0.0289
     79 H          24.5464    0.7950   17.7127 H         1 1UN         0.0289
     80 H          25.7416    1.1379   18.9874 H         1 1UN         0.0289
     81 H          17.2323    3.2052   18.4407 H         1 1UN         0.0565
     82 H          17.7844    4.9652   20.1137 H         1 1UN         0.0600
     83 H          19.0564    4.3650   22.1650 H         1 1UN         0.0559
     84 H          19.7490    2.0075   22.5540 H         1 1UN         0.0600
     85 H          19.1431    0.2478   20.9117 H         1 1UN         0.0565
@<TRIPOS>BOND
     1    1    2 1  
     2    1    6 1  
     3   10    1 1  
     4    2    3 1  
     5    2    9 1  
     6    3    4 1  
     7    5    4 1  
     8    6    5 1  
     9    7    8 1  
    10    7   10 1  
    11    7   18 1  
    12    8    9 1  
    13    8   11 1  
    14   11   12 am 
    15   11   17 2  
    16   12   13 1  
    17   13   14 1  
    18   13   15 1  
    19   13   16 1  
    20   18   19 1  
    21   19   20 1  
    22   19   21 1  
    23   20   22 1  
    24   20   23 1  
    25   22   24 am 
    26   23   34 1  
    27   24   25 2  
    28   24   26 1  
    29   26   27 2  
    30   26   31 1  
    31   27   28 1  
    32   28   29 2  
    33   29   30 1  
    34   30   31 1  
    35   30   32 2  
    36   31   33 1  
    37   34   35 1  
    38   35   36 ar 
    39   35   40 ar 
    40   36   37 ar 
    41   37   38 ar 
    42   38   39 ar 
    43   39   40 ar 
    44    1   41 1  
    45    2   42 1  
    46    3   43 1  
    47    3   44 1  
    48    4   45 1  
    49    4   46 1  
    50    5   47 1  
    51    5   48 1  
    52    6   49 1  
    53    6   50 1  
    54    8   51 1  
    55    9   52 1  
    56    9   53 1  
    57   10   54 1  
    58   10   55 1  
    59   12   56 1  
    60   14   57 1  
    61   14   58 1  
    62   14   59 1  
    63   15   60 1  
    64   15   61 1  
    65   15   62 1  
    66   16   63 1  
    67   16   64 1  
    68   16   65 1  
    69   18   66 1  
    70   18   67 1  
    71   19   68 1  
    72   20   69 1  
    73   21   70 1  
    74   22   71 1  
    75   23   72 1  
    76   23   73 1  
    77   27   74 1  
    78   28   75 1  
    79   29   76 1  
    80   31   77 1  
    81   33   78 1  
    82   33   79 1  
    83   33   80 1  
    84   36   81 1  
    85   37   82 1  
    86   38   83 1  
    87   39   84 1  
    88   40   85 1  
@<TRIPOS>SUBSTRUCTURE
     1 1UN         1

