1vwl_ligand
  -I-interpret- 

131135  0  0  0  0  0  0  0  0999 V2000
   32.8650   14.1820  -13.2150 N   0  0  0  0  0
   32.1150   14.4180  -11.9520 C   0  0  0  0  0
   33.2130   14.8690  -11.0020 C   0  0  0  0  0
   34.2130   14.1640  -10.9210 O   0  0  0  0  0
   31.4320   13.1080  -11.3810 C   0  0  0  0  0
   30.5270   13.5520  -10.1980 C   0  0  0  0  0
   31.0300   13.8560   -9.0070 N   0  0  0  0  0
   29.1370   13.7330  -10.2150 C   0  0  0  0  0
   29.9780   14.2200   -8.3150 C   0  0  0  0  0
   28.8720   14.1480   -9.0090 N   0  0  0  0  0
   33.0150   16.0000  -10.3280 N   0  0  0  0  0
   33.9450   16.5280   -9.2710 C   0  0  0  0  0
   34.3510   15.5430   -8.1420 C   0  0  0  0  0
   35.1280   15.8900   -7.2660 O   0  0  0  0  0
   33.2360   17.7980   -8.7120 C   0  0  0  0  0
   31.7490   17.5950   -9.0920 C   0  0  0  0  0
   31.8460   16.9520  -10.4880 C   0  0  0  0  0
   33.8230   14.3510   -8.1620 N   0  0  0  0  0
   34.2210   13.4000   -7.0780 C   0  0  0  0  0
   35.2410   12.4280   -7.6620 C   0  0  0  0  0
   35.8770   11.7160   -6.9050 O   0  0  0  0  0
   33.0210   12.5790   -6.5760 C   0  0  0  0  0
   33.4550   11.8980   -5.2410 C   0  0  0  0  0
   32.2400   11.2030   -4.7060 C   0  0  0  0  0
   31.1580   11.7480   -4.7710 O   0  0  0  0  0
   32.3700   10.0230   -4.1800 N   0  0  0  0  0
   35.3650   12.4310   -8.9600 N   0  0  0  0  0
   36.3240   11.5150   -9.6010 C   0  0  0  0  0
   37.5950   12.2700   -9.9190 C   0  0  0  0  0
   37.6670   13.4830   -9.7270 O   0  0  0  0  0
   38.5600   11.4940  -10.3990 N   0  0  0  0  0
   39.9210   12.0080  -10.7110 C   0  0  0  0  0
   39.8400   13.0960  -11.8160 C   0  0  0  0  0
   38.7760   13.3920  -12.3360 O   0  0  0  0  0
   40.7500   10.7110  -11.1170 C   0  0  0  0  0
   39.6790    9.7110  -11.6510 C   0  0  0  0  0
   38.4480   10.0110  -10.7190 C   0  0  0  0  0
   40.9830   13.6490  -12.1440 N   0  0  0  0  0
   41.0970   14.5530  -13.3130 C   0  0  0  0  0
   40.6770   13.7210  -14.5380 C   0  0  0  0  0
   40.5740   12.5090  -14.4700 O   0  0  0  0  0
   42.5740   14.9830  -13.3180 C   0  0  0  0  0
   43.0030   14.7810  -11.8150 C   0  0  0  0  0
   42.2900   13.4780  -11.4370 C   0  0  0  0  0
   40.4630   14.3760  -15.6360 N   0  0  0  0  0
   40.0480   13.6080  -16.8470 C   0  0  0  0  0
   41.2940   12.9800  -17.4950 C   0  0  0  0  0
   42.3430   12.9030  -16.8820 O   0  0  0  0  0
   39.3540   14.5890  -17.7930 C   0  0  0  0  0
   38.0800   15.6060  -17.0000 S   0  0  0  0  0
   41.1060   12.5540  -18.7160 N   0  0  0  0  0
   42.2020   11.9200  -19.4990 C   0  0  0  0  0
   43.3270   12.9430  -19.6290 C   0  0  0  0  0
   43.1040   14.1350  -19.6150 O   0  0  0  0  0
   41.6610   11.5360  -20.8990 C   0  0  0  0  0
   42.7830   10.9910  -21.8130 C   0  0  0  0  0
   42.2100   10.7190  -23.2290 C   0  0  0  0  0
   43.3650   10.3680  -24.1860 C   0  0  0  0  0
   42.8330   10.1080  -25.5540 N   0  3  0  0  0
   44.5450   12.5250  -19.7620 N   0  0  0  0  0
   33.0430   15.1960  -14.0310 C   0  0  0  0  0
   32.6020   16.3040  -13.7610 O   0  0  0  0  0
   33.8290   14.9530  -15.3590 C   0  0  0  0  0
   35.3690   14.8180  -15.0790 C   0  0  0  0  0
   36.0580   13.8120  -16.0810 C   0  0  0  0  0
   36.6410   14.5410  -17.3100 C   0  0  0  0  0
   33.2313   13.2573  -13.4413 H   0  0  0  0  0
   31.2981   15.1259  -12.0922 H   0  0  0  0  0
   32.1840   12.3934  -11.0464 H   0  0  0  0  0
   30.8446   12.6097  -12.1522 H   0  0  0  0  0
   28.4440   13.5664  -11.0397 H   0  0  0  0  0
   30.0204   14.5466   -7.2759 H   0  0  0  0  0
   34.9135   16.7315   -9.7279 H   0  0  0  0  0
   33.6470   18.7176   -9.1286 H   0  0  0  0  0
   33.3760   17.9097   -7.6368 H   0  0  0  0  0
   31.2055   16.9794   -8.3753 H   0  0  0  0  0
   31.1769   18.5228   -9.0882 H   0  0  0  0  0
   30.9266   16.4528  -10.7939 H   0  0  0  0  0
   31.9936   17.6805  -11.2852 H   0  0  0  0  0
   33.1630   14.0771   -8.8898 H   0  0  0  0  0
   34.6246   13.9724   -6.2428 H   0  0  0  0  0
   32.7327   11.8298   -7.3134 H   0  0  0  0  0
   32.1557   13.2222   -6.4155 H   0  0  0  0  0
   33.8292   12.6345   -4.5299 H   0  0  0  0  0
   34.2678   11.1913   -5.4086 H   0  0  0  0  0
   31.5530    9.5361   -3.8114 H   0  0  0  0  0
   33.2891    9.5829   -4.1354 H   0  0  0  0  0
   34.8015   13.0637   -9.5279 H   0  0  0  0  0
   35.8934   11.1192  -10.5208 H   0  0  0  0  0
   36.5481   10.6887   -8.9263 H   0  0  0  0  0
   40.4114   12.5132   -9.8789 H   0  0  0  0  0
   41.3052   10.3014  -10.2731 H   0  0  0  0  0
   41.5110   10.9314  -11.8656 H   0  0  0  0  0
   39.4580    9.8437  -12.7101 H   0  0  0  0  0
   40.0045    8.6715  -11.6110 H   0  0  0  0  0
   37.5020    9.7694  -11.2036 H   0  0  0  0  0
   38.4607    9.3979   -9.8178 H   0  0  0  0  0
   40.4715   15.4456  -13.3024 H   0  0  0  0  0
   42.7163   16.0063  -13.6655 H   0  0  0  0  0
   43.1816   14.4041  -14.0136 H   0  0  0  0  0
   44.0838   14.7294  -11.6833 H   0  0  0  0  0
   42.7260   15.6195  -11.1761 H   0  0  0  0  0
   42.8332   12.5789  -11.7279 H   0  0  0  0  0
   42.1922   13.3259  -10.3621 H   0  0  0  0  0
   40.5752   15.3892  -15.6716 H   0  0  0  0  0
   39.3614   12.7984  -16.5995 H   0  0  0  0  0
   38.8609   13.9984  -18.5651 H   0  0  0  0  0
   40.1185   15.2673  -18.1719 H   0  0  0  0  0
   40.1856   12.6585  -19.1431 H   0  0  0  0  0
   42.5715   11.0198  -19.0078 H   0  0  0  0  0
   41.2420   12.4288  -21.3631 H   0  0  0  0  0
   40.9085   10.7571  -20.7757 H   0  0  0  0  0
   43.1739   10.0634  -21.3948 H   0  0  0  0  0
   43.5855   11.7255  -21.8807 H   0  0  0  0  0
   41.6934   11.6080  -23.5908 H   0  0  0  0  0
   41.5069    9.8873  -23.1848 H   0  0  0  0  0
   43.8724    9.4743  -23.8229 H   0  0  0  0  0
   44.0639   11.2035  -24.2260 H   0  0  0  0  0
   43.6049    9.8767  -26.1794 H   0  0  0  0  0
   42.1764    9.3282  -25.5196 H   0  0  0  0  0
   42.3550   10.9417  -25.8958 H   0  0  0  0  0
   45.3074   13.1963  -19.8539 H   0  0  0  0  0
   44.7422   11.5243  -19.7749 H   0  0  0  0  0
   33.6657   15.8008  -16.0243 H   0  0  0  0  0
   33.4723   14.0293  -15.8146 H   0  0  0  0  0
   35.5021   14.4389  -14.0657 H   0  0  0  0  0
   35.8285   15.7982  -15.2060 H   0  0  0  0  0
   35.3063   13.1025  -16.4269 H   0  0  0  0  0
   36.8738   13.3118  -15.5591 H   0  0  0  0  0
   35.8513   15.1951  -17.6797 H   0  0  0  0  0
   36.9791   13.7628  -17.9943 H   0  0  0  0  0
  2  1  1  0  0  0
  2  5  1  0  0  0
  3  2  1  0  0  0
  3  4  2  0  0  0
  5  6  1  0  0  0
  6  7  4  0  0  0
  6  8  4  0  0  0
  8 10  4  0  0  0
 10  9  4  0  0  0
  7  9  4  0  0  0
 13 12  1  0  0  0
 12 15  1  0  0  0
 12 11  1  0  0  0
 11 17  1  0  0  0
 17 16  1  0  0  0
 15 16  1  0  0  0
 13 14  2  0  0  0
 11  3  1  0  0  0
 19 18  1  0  0  0
 19 22  1  0  0  0
 20 19  1  0  0  0
 20 21  2  0  0  0
 22 23  1  0  0  0
 23 24  1  0  0  0
 24 26  1  0  0  0
 24 25  2  0  0  0
 18 13  1  0  0  0
 28 27  1  0  0  0
 29 28  1  0  0  0
 29 30  2  0  0  0
 27 20  1  0  0  0
 33 32  1  0  0  0
 32 35  1  0  0  0
 32 31  1  0  0  0
 31 37  1  0  0  0
 37 36  1  0  0  0
 35 36  1  0  0  0
 33 34  2  0  0  0
 31 29  1  0  0  0
 40 39  1  0  0  0
 39 42  1  0  0  0
 39 38  1  0  0  0
 38 44  1  0  0  0
 44 43  1  0  0  0
 42 43  1  0  0  0
 40 41  2  0  0  0
 38 33  1  0  0  0
 46 45  1  0  0  0
 46 49  1  0  0  0
 47 46  1  0  0  0
 47 48  2  0  0  0
 49 50  1  0  0  0
 45 40  1  0  0  0
 51 52  1  0  0  0
 52 55  1  0  0  0
 52 53  1  0  0  0
 53 54  2  0  0  0
 55 56  1  0  0  0
 56 57  1  0  0  0
 57 58  1  0  0  0
 58 59  1  0  0  0
 47 51  1  0  0  0
  1 61  1  0  0  0
 53 60  1  0  0  0
 61 62  2  0  0  0
 61 63  1  0  0  0
 63 64  1  0  0  0
 64 65  1  0  0  0
 65 66  1  0  0  0
 66 50  1  0  0  0
  1 67  1  0  0  0
  2 68  1  0  0  0
  5 69  1  0  0  0
  5 70  1  0  0  0
  8 71  1  0  0  0
  9 72  1  0  0  0
 12 73  1  0  0  0
 15 74  1  0  0  0
 15 75  1  0  0  0
 16 76  1  0  0  0
 16 77  1  0  0  0
 17 78  1  0  0  0
 17 79  1  0  0  0
 18 80  1  0  0  0
 19 81  1  0  0  0
 22 82  1  0  0  0
 22 83  1  0  0  0
 23 84  1  0  0  0
 23 85  1  0  0  0
 26 86  1  0  0  0
 26 87  1  0  0  0
 27 88  1  0  0  0
 28 89  1  0  0  0
 28 90  1  0  0  0
 32 91  1  0  0  0
 35 92  1  0  0  0
 35 93  1  0  0  0
 36 94  1  0  0  0
 36 95  1  0  0  0
 37 96  1  0  0  0
 37 97  1  0  0  0
 39 98  1  0  0  0
 42 99  1  0  0  0
 42100  1  0  0  0
 43101  1  0  0  0
 43102  1  0  0  0
 44103  1  0  0  0
 44104  1  0  0  0
 45105  1  0  0  0
 46106  1  0  0  0
 49107  1  0  0  0
 49108  1  0  0  0
 51109  1  0  0  0
 52110  1  0  0  0
 55111  1  0  0  0
 55112  1  0  0  0
 56113  1  0  0  0
 56114  1  0  0  0
 57115  1  0  0  0
 57116  1  0  0  0
 58117  1  0  0  0
 58118  1  0  0  0
 59119  1  0  0  0
 59120  1  0  0  0
 59121  1  0  0  0
 60122  1  0  0  0
 60123  1  0  0  0
 63124  1  0  0  0
 63125  1  0  0  0
 64126  1  0  0  0
 64127  1  0  0  0
 65128  1  0  0  0
 65129  1  0  0  0
 66130  1  0  0  0
 66131  1  0  0  0
M  END
$$$$
