5fl6_ligand
  -I-interpret- 

 33 35  0  0  0  0  0  0  0  0999 V2000
  -27.3540   -5.2740   -1.6650 S   0  0  0  0  0
  -27.3980   -6.5030   -0.6130 N   0  0  0  0  0
  -27.5290   -5.7810   -3.0210 O   0  0  0  0  0
  -26.0730   -4.6350   -1.6180 O   0  0  0  0  0
  -28.6490   -4.2380   -1.4650 C   0  0  0  0  0
  -28.4520   -2.5230   -1.5250 S   0  0  0  0  0
  -30.1610   -2.2740   -1.3630 C   0  0  0  0  0
  -30.8760   -3.4780   -1.2960 C   0  0  0  0  0
  -30.0070   -4.6090   -1.3760 C   0  0  0  0  0
  -30.6780   -0.8670   -1.3500 C   0  0  0  0  0
  -31.9960   -0.4810   -1.5590 C   0  0  0  0  0
  -31.9000    0.8630   -1.4920 N   0  0  0  0  0
  -30.5810    1.3270   -1.2870 N   0  0  0  0  0
  -29.8010    0.1690   -1.2190 N   0  0  0  0  0
  -36.0340    4.8250   -1.9380 C   0  0  0  0  0
  -32.9150    1.7540   -1.6170 C   0  0  0  0  0
  -34.0460    1.5740   -2.4310 C   0  0  0  0  0
  -35.0580    2.5390   -2.5490 C   0  0  0  0  0
  -34.9690    3.7550   -1.8570 C   0  0  0  0  0
  -33.8560    3.9600   -1.0430 C   0  0  0  0  0
  -32.8650    2.9830   -0.9350 C   0  0  0  0  0
  -27.5331   -7.4568   -0.9483 H   0  0  0  0  0
  -27.2907   -6.3238    0.3854 H   0  0  0  0  0
  -31.9594   -3.5430   -1.1954 H   0  0  0  0  0
  -30.3542   -5.6422   -1.3691 H   0  0  0  0  0
  -32.8759   -1.1007   -1.7316 H   0  0  0  0  0
  -36.1423    5.1505   -2.9726 H   0  0  0  0  0
  -36.9815    4.4205   -1.5820 H   0  0  0  0  0
  -35.7434    5.6728   -1.3176 H   0  0  0  0  0
  -34.1414    0.6458   -2.9945 H   0  0  0  0  0
  -35.9212    2.3413   -3.1845 H   0  0  0  0  0
  -33.7587    4.8917   -0.4858 H   0  0  0  0  0
  -32.0095    3.1825   -0.2898 H   0  0  0  0  0
  1  2  1  0  0  0
  1  3  2  0  0  0
  1  4  2  0  0  0
  5  1  1  0  0  0
  6  5  4  0  0  0
  9  5  4  0  0  0
  7  6  4  0  0  0
  7  8  4  0  0  0
 10  7  1  0  0  0
  8  9  4  0  0  0
 11 10  4  0  0  0
 14 10  4  0  0  0
 12 11  4  0  0  0
 12 13  4  0  0  0
 16 12  1  0  0  0
 13 14  4  0  0  0
 19 15  1  0  0  0
 17 16  4  0  0  0
 16 21  4  0  0  0
 18 17  4  0  0  0
 18 19  4  0  0  0
 19 20  4  0  0  0
 20 21  4  0  0  0
  2 22  1  0  0  0
  2 23  1  0  0  0
  8 24  1  0  0  0
  9 25  1  0  0  0
 11 26  1  0  0  0
 15 27  1  0  0  0
 15 28  1  0  0  0
 15 29  1  0  0  0
 17 30  1  0  0  0
 18 31  1  0  0  0
 20 32  1  0  0  0
 21 33  1  0  0  0
M  END
$$$$
