2z8e_ligand
  -I-interpret- 

 30 30  0  0  0  0  0  0  0  0999 V2000
   20.5770   -8.9020   41.9390 C   0  0  0  0  0
   21.4150   -7.6430   41.5540 C   0  0  0  0  0
   22.8740   -7.9000   41.9190 C   0  0  0  0  0
   23.0580   -8.4560   43.3580 C   0  0  0  0  0
   22.1050   -9.6270   43.6340 C   0  0  0  0  0
   22.1700  -10.0760   45.0810 C   0  0  0  0  0
   21.1360   -6.1140   39.6680 C   0  0  0  0  0
   21.0130   -5.9860   38.1810 C   0  0  0  0  0
   21.2830   -7.3630   40.1110 N   0  0  0  0  0
   19.2370   -8.5420   41.7980 O   0  0  0  0  0
   23.6710   -6.7220   41.6700 O   0  0  0  0  0
   22.9120   -7.3800   44.3240 O   0  0  0  0  0
   20.7690   -9.2350   43.3020 O   0  0  0  0  0
   23.4510  -10.6940   45.3830 O   0  0  0  0  0
   21.1000   -5.1340   40.4260 O   0  0  0  0  0
   20.8701   -9.7456   41.3141 H   0  0  0  0  0
   21.0495   -6.7727   42.0990 H   0  0  0  0  0
   23.2365   -8.6943   41.2665 H   0  0  0  0  0
   24.0662   -8.8585   43.4561 H   0  0  0  0  0
   22.4121  -10.4708   43.0161 H   0  0  0  0  0
   21.3812  -10.8082   45.2537 H   0  0  0  0  0
   22.0452   -9.2032   45.7219 H   0  0  0  0  0
   20.0547   -5.5286   37.9350 H   0  0  0  0  0
   21.8227   -5.3617   37.8031 H   0  0  0  0  0
   21.0725   -6.9749   37.7263 H   0  0  0  0  0
   21.3045   -8.1346   39.4442 H   0  0  0  0  0
   19.0643   -8.3077   40.8832 H   0  0  0  0  0
   23.5214   -6.4199   40.7711 H   0  0  0  0  0
   23.5263   -6.6740   44.1102 H   0  0  0  0  0
   23.4640  -10.9678   46.3030 H   0  0  0  0  0
  2  1  1  0  0  0
  1 10  1  0  0  0
  1 13  1  0  0  0
  2  3  1  0  0  0
  9  2  1  0  0  0
  3  4  1  0  0  0
  3 11  1  0  0  0
  4  5  1  0  0  0
  4 12  1  0  0  0
  5  6  1  0  0  0
 13  5  1  0  0  0
  6 14  1  0  0  0
  7  8  1  0  0  0
  7  9  1  0  0  0
  7 15  2  0  0  0
  1 16  1  0  0  0
  2 17  1  0  0  0
  3 18  1  0  0  0
  4 19  1  0  0  0
  5 20  1  0  0  0
  6 21  1  0  0  0
  6 22  1  0  0  0
  8 23  1  0  0  0
  8 24  1  0  0  0
  8 25  1  0  0  0
  9 26  1  0  0  0
 10 27  1  0  0  0
 11 28  1  0  0  0
 12 29  1  0  0  0
 14 30  1  0  0  0
M  END
$$$$
