1yfz_ligand
  -I-interpret- 

 36 38  0  0  0  0  0  0  0  0999 V2000
   42.2720   35.8040   66.6010 P   0  0  0  0  0
   41.0280   36.6050   66.4070 O   0  0  0  0  0
   43.3340   36.6840   67.1810 O   0  0  0  0  0
   42.0260   34.5820   67.5020 O   0  0  0  0  0
   42.8330   35.1990   65.2090 O   0  0  0  0  0
   42.8680   36.1300   64.0900 C   0  0  0  0  0
   43.3950   35.5960   62.7700 C   0  0  0  0  0
   43.8470   36.8230   62.0610 O   0  0  0  0  0
   44.6330   34.6540   62.7660 C   0  0  0  0  0
   44.3640   33.3810   62.1790 O   0  0  0  0  0
   45.7210   35.3900   62.0070 C   0  0  0  0  0
   46.5460   34.5480   61.2290 O   0  0  0  0  0
   44.8940   36.3870   61.2120 C   0  0  0  0  0
   45.7140   37.5800   60.7710 N   0  0  0  0  0
   46.0520   37.9690   59.4990 C   0  0  0  0  0
   46.7730   39.0490   59.4640 N   0  0  0  0  0
   46.9440   39.4260   60.7630 C   0  0  0  0  0
   47.6490   40.5440   61.3390 C   0  0  0  0  0
   48.2740   41.4230   60.7380 O   0  0  0  0  0
   47.5880   40.5840   62.7740 N   0  0  0  0  0
   46.9020   39.6250   63.5300 C   0  0  0  0  0
   46.2400   38.5750   62.9670 N   0  0  0  0  0
   46.2940   38.5340   61.6150 C   0  0  0  0  0
   44.1370   36.1734   67.3079 H   0  0  0  0  0
   42.8448   34.0915   67.6047 H   0  0  0  0  0
   43.5518   36.9260   64.3848 H   0  0  0  0  0
   41.8321   36.4143   63.9052 H   0  0  0  0  0
   42.5924   34.9870   62.3539 H   0  0  0  0  0
   44.9337   34.4301   63.7895 H   0  0  0  0  0
   45.1594   32.8440   62.2036 H   0  0  0  0  0
   46.4710   35.8611   62.6423 H   0  0  0  0  0
   47.2081   35.0777   60.7789 H   0  0  0  0  0
   44.5167   35.9084   60.3083 H   0  0  0  0  0
   45.7455   37.4250   58.6056 H   0  0  0  0  0
   48.0641   41.3424   63.2625 H   0  0  0  0  0
   46.8974   39.7226   64.6156 H   0  0  0  0  0
  1  2  2  0  0  0
  1  3  1  0  0  0
  1  4  1  0  0  0
  1  5  1  0  0  0
  5  6  1  0  0  0
  6  7  1  0  0  0
  7  8  1  0  0  0
  7  9  1  0  0  0
  8 13  1  0  0  0
  9 10  1  0  0  0
  9 11  1  0  0  0
 11 12  1  0  0  0
 11 13  1  0  0  0
 13 14  1  0  0  0
 14 15  4  0  0  0
 14 23  4  0  0  0
 15 16  4  0  0  0
 16 17  4  0  0  0
 17 18  1  0  0  0
 17 23  4  0  0  0
 18 19  2  0  0  0
 18 20  1  0  0  0
 20 21  1  0  0  0
 21 22  2  0  0  0
 22 23  1  0  0  0
  3 24  1  0  0  0
  4 25  1  0  0  0
  6 26  1  0  0  0
  6 27  1  0  0  0
  7 28  1  0  0  0
  9 29  1  0  0  0
 10 30  1  0  0  0
 11 31  1  0  0  0
 12 32  1  0  0  0
 13 33  1  0  0  0
 15 34  1  0  0  0
 20 35  1  0  0  0
 21 36  1  0  0  0
M  END
$$$$
