1mem_ligand
  -I-interpret- 

 78 80  0  0  0  0  0  0  0  0999 V2000
   23.6840    1.6270    5.3330 N   0  0  0  0  0
   22.4670    2.1540    5.1760 C   0  0  0  0  0
   22.3150    3.0940    4.3950 O   0  0  0  0  0
   24.8890    2.1860    4.6360 C   0  0  0  0  0
   26.1040    2.1900    5.4880 C   0  0  0  0  0
   26.3450    0.8490    6.0180 N   0  3  0  0  0
   25.2370    0.3570    6.8330 C   0  0  0  0  0
   23.9420    0.3540    6.0600 C   0  0  0  0  0
   21.4080    1.5970    5.7630 N   0  0  0  0  0
   20.0850    2.1820    5.5900 C   0  0  0  0  0
   20.1040    3.5740    6.1630 C   0  0  0  0  0
   20.6030    3.7770    7.2670 O   0  0  0  0  0
   19.0200    1.3660    6.3080 C   0  0  0  0  0
   18.3400    0.1740    5.6370 C   0  0  0  0  0
   18.8800   -0.1710    4.2600 C   0  0  0  0  0
   18.4170   -0.9850    6.5850 C   0  0  0  0  0
   17.4370    6.5670    4.6120 C   0  0  0  0  0
   18.1650    6.4090    5.9740 C   0  0  0  0  0
   19.6200    5.9220    5.8090 C   0  0  0  0  0
   19.6760    4.5440    5.3680 N   0  0  0  0  0
   20.4600    6.8050    4.8830 C   0  0  0  0  0
   21.9480    6.4830    4.9610 C   0  0  0  0  0
   22.7650    7.2850    3.9790 C   0  0  0  0  0
   23.2480    6.6840    2.8010 C   0  0  0  0  0
   23.9220    7.4640    1.8470 C   0  0  0  0  0
   24.1170    8.8370    2.0710 C   0  0  0  0  0
   23.6500    9.4360    3.2370 C   0  0  0  0  0
   22.9810    8.6660    4.1890 C   0  0  0  0  0
   15.8660    8.7930   -0.0300 C   0  0  0  0  0
   16.2720    9.9140    0.6950 C   0  0  0  0  0
   16.7900    9.7750    1.9940 C   0  0  0  0  0
   16.9310    8.5020    2.5930 C   0  0  0  0  0
   17.0930    8.3390    4.3490 S   0  0  0  0  0
   15.8070    8.9740    4.9660 O   0  0  0  0  0
   18.3230    9.2170    4.6770 O   0  0  0  0  0
   16.5100    7.3790    1.8190 C   0  0  0  0  0
   15.9830    7.5300    0.5270 C   0  0  0  0  0
   24.6679    3.2195    4.3693 H   0  0  0  0  0
   25.0933    1.5558    3.7704 H   0  0  0  0  0
   25.9596    2.8833    6.3166 H   0  0  0  0  0
   26.9612    2.4995    4.8900 H   0  0  0  0  0
   27.1746    0.8908    6.6099 H   0  0  0  0  0
   26.4572    0.2152    5.2268 H   0  0  0  0  0
   25.1234    1.0146    7.6949 H   0  0  0  0  0
   25.4598   -0.6655    7.1379 H   0  0  0  0  0
   24.0047   -0.4414    5.3174 H   0  0  0  0  0
   23.1323    0.2150    6.7763 H   0  0  0  0  0
   21.5240    0.7599    6.3342 H   0  0  0  0  0
   19.8433    2.1964    4.5272 H   0  0  0  0  0
   18.2076    2.0763    6.4616 H   0  0  0  0  0
   19.5547    0.9217    7.1475 H   0  0  0  0  0
   17.3026    0.4417    5.4362 H   0  0  0  0  0
   18.7491    0.6829    3.5954 H   0  0  0  0  0
   19.9398   -0.4139    4.3371 H   0  0  0  0  0
   18.3373   -1.0288    3.8628 H   0  0  0  0  0
   19.4622   -1.2120    6.7951 H   0  0  0  0  0
   17.9060   -0.7283    7.5129 H   0  0  0  0  0
   17.9387   -1.8543    6.1337 H   0  0  0  0  0
   16.5049    6.0020    4.6184 H   0  0  0  0  0
   18.0635    6.1841    3.8064 H   0  0  0  0  0
   17.6249    5.6664    6.5614 H   0  0  0  0  0
   18.1885    7.3846    6.4595 H   0  0  0  0  0
   20.0603    5.9954    6.8034 H   0  0  0  0  0
   19.3780    4.3137    4.4201 H   0  0  0  0  0
   20.3235    7.8415    5.1916 H   0  0  0  0  0
   20.1307    6.6276    3.8592 H   0  0  0  0  0
   22.0765    5.4273    4.7221 H   0  0  0  0  0
   22.2930    6.7289    5.9653 H   0  0  0  0  0
   23.0995    5.6178    2.6300 H   0  0  0  0  0
   24.2941    7.0035    0.9319 H   0  0  0  0  0
   24.6382    9.4378    1.3257 H   0  0  0  0  0
   23.8061   10.5015    3.4058 H   0  0  0  0  0
   22.6209    9.1346    5.1049 H   0  0  0  0  0
   15.4572    8.9110   -1.0335 H   0  0  0  0  0
   16.1867   10.9055    0.2502 H   0  0  0  0  0
   17.0883   10.6641    2.5495 H   0  0  0  0  0
   16.6001    6.3786    2.2422 H   0  0  0  0  0
   15.6658    6.6536   -0.0381 H   0  0  0  0  0
  2  1  1  0  0  0
  1  4  1  0  0  0
  1  8  1  0  0  0
  2  3  2  0  0  0
  9  2  1  0  0  0
  4  5  1  0  0  0
  5  6  1  0  0  0
  7  6  1  0  0  0
  8  7  1  0  0  0
 10  9  1  0  0  0
 11 10  1  0  0  0
 10 13  1  0  0  0
 11 12  2  0  0  0
 20 11  1  0  0  0
 13 14  1  0  0  0
 14 15  1  0  0  0
 14 16  1  0  0  0
 17 18  1  0  0  0
 33 17  1  0  0  0
 18 19  1  0  0  0
 19 20  1  0  0  0
 19 21  1  0  0  0
 21 22  1  0  0  0
 22 23  1  0  0  0
 23 24  4  0  0  0
 23 28  4  0  0  0
 24 25  4  0  0  0
 25 26  4  0  0  0
 27 26  4  0  0  0
 28 27  4  0  0  0
 30 29  4  0  0  0
 29 37  4  0  0  0
 31 30  4  0  0  0
 32 31  4  0  0  0
 32 33  1  0  0  0
 32 36  4  0  0  0
 33 34  2  0  0  0
 33 35  2  0  0  0
 36 37  4  0  0  0
  4 38  1  0  0  0
  4 39  1  0  0  0
  5 40  1  0  0  0
  5 41  1  0  0  0
  6 42  1  0  0  0
  6 43  1  0  0  0
  7 44  1  0  0  0
  7 45  1  0  0  0
  8 46  1  0  0  0
  8 47  1  0  0  0
  9 48  1  0  0  0
 10 49  1  0  0  0
 13 50  1  0  0  0
 13 51  1  0  0  0
 14 52  1  0  0  0
 15 53  1  0  0  0
 15 54  1  0  0  0
 15 55  1  0  0  0
 16 56  1  0  0  0
 16 57  1  0  0  0
 16 58  1  0  0  0
 17 59  1  0  0  0
 17 60  1  0  0  0
 18 61  1  0  0  0
 18 62  1  0  0  0
 19 63  1  0  0  0
 20 64  1  0  0  0
 21 65  1  0  0  0
 21 66  1  0  0  0
 22 67  1  0  0  0
 22 68  1  0  0  0
 24 69  1  0  0  0
 25 70  1  0  0  0
 26 71  1  0  0  0
 27 72  1  0  0  0
 28 73  1  0  0  0
 29 74  1  0  0  0
 30 75  1  0  0  0
 31 76  1  0  0  0
 36 77  1  0  0  0
 37 78  1  0  0  0
M  END
$$$$
