3n5u_ligand
  -I-interpret- 

142142  0  0  0  0  0  0  0  0999 V2000
   10.7310   23.3040    7.9400 N   0  3  0  0  0
   10.8360   22.2450    8.9270 C   0  0  0  0  0
   11.7360   21.0630    8.5220 C   0  0  0  0  0
   11.5330   19.9420    8.9720 O   0  0  0  0  0
    9.4430   21.7570    9.2800 C   0  0  0  0  0
    8.3910   22.8620    9.3620 C   0  0  0  0  0
    7.0610   22.3100    9.8900 C   0  0  0  0  0
    5.9900   23.3670    9.9660 C   0  0  0  0  0
    5.1140   23.1910   11.1540 N   0  3  0  0  0
   12.7240   21.3260    7.6760 N   0  0  0  0  0
   13.6880   20.3220    7.2740 C   0  0  0  0  0
   15.0290   20.9130    6.9580 C   0  0  0  0  0
   15.2500   22.0970    7.0790 O   0  0  0  0  0
   13.2590   19.5140    6.0650 C   0  0  0  0  0
   14.4170   18.6520    5.5360 C   0  0  0  0  0
   14.1450   18.0730    4.1560 C   0  0  0  0  0
   13.0420   16.9960    4.1800 C   0  0  0  0  0
   12.9770   16.1350    2.9540 N   0  3  0  0  0
   15.9270   20.0510    6.5220 N   0  0  0  0  0
   17.3570   20.3520    6.6130 C   0  0  0  0  0
   17.8960   21.3710    5.6120 C   0  0  0  0  0
   17.7870   21.1810    4.4010 O   0  0  0  0  0
   18.1800   19.0600    6.5290 C   0  0  0  0  0
   19.4360   19.0310    7.4100 C   0  0  0  0  0
   19.9690   17.6120    7.5550 C   0  0  0  0  0
   20.5220   19.9710    6.8950 C   0  0  0  0  0
   18.4970   22.4380    6.1390 N   0  0  0  0  0
   19.2120   23.4330    5.3310 C   0  0  0  0  0
   20.2070   24.2270    6.1740 C   0  0  0  0  0
   20.1860   24.1380    7.3980 O   0  0  0  0  0
   18.2450   24.3710    4.5980 C   0  0  0  0  0
   16.8090   24.3410    5.1060 C   0  0  0  0  0
   16.5420   25.3780    6.1750 C   0  0  0  0  0
   15.1810   25.2480    6.6800 N   0  0  0  0  0
   14.6140   26.0930    7.5310 C   0  0  0  0  0
   15.2910   27.1440    7.9770 N   0  0  0  0  0
   13.3660   25.8850    7.9320 N   0  0  0  0  0
   21.0670   25.0070    5.5200 N   0  0  0  0  0
   22.1900   25.6550    6.2070 C   0  0  0  0  0
   22.4980   27.1380    5.9930 C   0  0  0  0  0
   22.3210   27.6630    4.8990 O   0  0  0  0  0
   23.5210   25.2250    5.5790 C   0  0  0  0  0
   23.9190   23.8170    5.9220 C   0  0  0  0  0
   24.4060   23.5080    7.1870 C   0  0  0  0  0
   23.7960   22.7990    4.9910 C   0  0  0  0  0
   24.7680   22.2160    7.5120 C   0  0  0  0  0
   24.1570   21.5020    5.3120 C   0  0  0  0  0
   24.6420   21.2120    6.5750 C   0  0  0  0  0
   22.9630   27.8000    7.0530 N   0  0  0  0  0
   23.2120   29.2430    7.0400 C   0  0  0  0  0
   24.5560   29.8380    6.6020 C   0  0  0  0  0
   25.4840   29.1090    6.2460 O   0  0  0  0  0
   22.9480   29.5350    8.5210 C   0  0  0  0  0
   22.5970   30.9910    8.7860 C   0  0  0  0  0
   23.4820   31.8550    8.6170 O   0  0  0  0  0
   21.4470   31.2730    9.1940 O   0  0  0  0  0
   24.6440   31.1640    6.6160 N   0  0  0  0  0
   25.8600   31.8820    6.2290 C   0  0  0  0  0
   25.9260   33.2530    6.9070 C   0  0  0  0  0
   27.0010   33.7350    7.2690 O   0  0  0  0  0
   25.9510   32.0740    4.6920 C   0  0  0  0  0
   26.4270   30.7850    4.0100 C   0  0  0  0  0
   26.8820   33.2410    4.3460 C   0  0  0  0  0
   26.5790   30.9020    2.4860 C   0  0  0  0  0
   24.9060   33.9140    7.1100 O   0  0  0  0  0
   11.6648   23.6361    7.6988 H   0  0  0  0  0
   10.2705   22.9437    7.1042 H   0  0  0  0  0
   10.1842   24.0738    8.3259 H   0  0  0  0  0
   11.3309   22.6835    9.7935 H   0  0  0  0  0
    9.5044   21.2991   10.2672 H   0  0  0  0  0
    9.1316   21.0761    8.4878 H   0  0  0  0  0
    8.2308   23.2695    8.3638 H   0  0  0  0  0
    8.7459   23.6351   10.0435 H   0  0  0  0  0
    7.2302   21.9284   10.8969 H   0  0  0  0  0
    6.7214   21.5346    9.2033 H   0  0  0  0  0
    5.3708   23.2885    9.0724 H   0  0  0  0  0
    6.4767   24.3392   10.0435 H   0  0  0  0  0
    4.4064   23.9256   11.1650 H   0  0  0  0  0
    4.6588   22.2794   11.1072 H   0  0  0  0  0
    5.6778   23.2477   12.0021 H   0  0  0  0  0
   12.8077   22.2686    7.2952 H   0  0  0  0  0
   13.7519   19.6644    8.1409 H   0  0  0  0  0
   12.9484   20.2016    5.2783 H   0  0  0  0  0
   12.4402   18.8566    6.3575 H   0  0  0  0  0
   14.5519   17.8183    6.2251 H   0  0  0  0  0
   15.2979   19.2895    5.4608 H   0  0  0  0  0
   15.0634   17.6083    3.7973 H   0  0  0  0  0
   13.8114   18.8842    3.5088 H   0  0  0  0  0
   12.0890   17.5205    4.2492 H   0  0  0  0  0
   13.2624   16.3359    5.0189 H   0  0  0  0  0
   12.2234   15.4554    3.0569 H   0  0  0  0  0
   12.7994   16.7205    2.1379 H   0  0  0  0  0
   13.8641   15.6456    2.8363 H   0  0  0  0  0
   15.6222   19.1657    6.1173 H   0  0  0  0  0
   17.4668   20.8309    7.5860 H   0  0  0  0  0
   18.5182   18.9695    5.4967 H   0  0  0  0  0
   17.5344   18.2532    6.8758 H   0  0  0  0  0
   19.1421   19.3898    8.3964 H   0  0  0  0  0
   19.2055   16.9835    8.0134 H   0  0  0  0  0
   20.2228   17.2182    6.5708 H   0  0  0  0  0
   20.8590   17.6221    8.1842 H   0  0  0  0  0
   20.8083   19.6750    5.8858 H   0  0  0  0  0
   20.1404   20.9919    6.8812 H   0  0  0  0  0
   21.3904   19.9151    7.5515 H   0  0  0  0  0
   18.4581   22.5688    7.1498 H   0  0  0  0  0
   19.7752   22.8846    4.5759 H   0  0  0  0  0
   18.2177   24.0447    3.5583 H   0  0  0  0  0
   18.6124   25.3854    4.7533 H   0  0  0  0  0
   16.6304   23.3584    5.5428 H   0  0  0  0  0
   16.1525   24.5551    4.2626 H   0  0  0  0  0
   16.6678   26.3717    5.7451 H   0  0  0  0  0
   17.2417   25.2286    6.9973 H   0  0  0  0  0
   14.6275   24.4542    6.3575 H   0  0  0  0  0
   14.8523   27.7939    8.6293 H   0  0  0  0  0
   16.2500   27.3018    7.6674 H   0  0  0  0  0
   12.8469   25.0780    7.5859 H   0  0  0  0  0
   20.9418   25.1570    4.5189 H   0  0  0  0  0
   21.8861   25.4077    7.2241 H   0  0  0  0  0
   24.2950   25.8876    5.9662 H   0  0  0  0  0
   23.4046   25.2779    4.4965 H   0  0  0  0  0
   24.5034   24.2970    7.9327 H   0  0  0  0  0
   23.4111   23.0215    3.9958 H   0  0  0  0  0
   25.1524   21.9900    8.5066 H   0  0  0  0  0
   24.0593   20.7094    4.5702 H   0  0  0  0  0
   24.9244   20.1904    6.8293 H   0  0  0  0  0
   23.1533   27.2792    7.9091 H   0  0  0  0  0
   22.6073   29.7038    6.2589 H   0  0  0  0  0
   23.8605   29.3077    9.0722 H   0  0  0  0  0
   22.0993   28.9266    8.8334 H   0  0  0  0  0
   20.9243   30.4700    9.2546 H   0  0  0  0  0
   23.8300   31.7044    6.9087 H   0  0  0  0  0
   26.7014   31.2713    6.5562 H   0  0  0  0  0
   27.7117   33.1261    7.0551 H   0  0  0  0  0
   24.9537   32.3090    4.3203 H   0  0  0  0  0
   25.6733   30.0213    4.2015 H   0  0  0  0  0
   27.4111   30.5498    4.4154 H   0  0  0  0  0
   26.4963   34.1569    4.7938 H   0  0  0  0  0
   27.8792   33.0364    4.7357 H   0  0  0  0  0
   26.9304   33.3568    3.2633 H   0  0  0  0  0
   25.6169   31.1628    2.0452 H   0  0  0  0  0
   27.3088   31.6775    2.2534 H   0  0  0  0  0
   26.9188   29.9485    2.0818 H   0  0  0  0  0
  1  2  1  0  0  0
  2  3  1  0  0  0
  2  5  1  0  0  0
  3  4  2  0  0  0
  3 10  1  0  0  0
  5  6  1  0  0  0
  6  7  1  0  0  0
  7  8  1  0  0  0
  8  9  1  0  0  0
 10 11  1  0  0  0
 11 12  1  0  0  0
 11 14  1  0  0  0
 12 13  2  0  0  0
 12 19  1  0  0  0
 14 15  1  0  0  0
 15 16  1  0  0  0
 16 17  1  0  0  0
 17 18  1  0  0  0
 19 20  1  0  0  0
 20 21  1  0  0  0
 20 23  1  0  0  0
 21 22  2  0  0  0
 21 27  1  0  0  0
 23 24  1  0  0  0
 24 25  1  0  0  0
 24 26  1  0  0  0
 27 28  1  0  0  0
 28 29  1  0  0  0
 28 31  1  0  0  0
 29 30  2  0  0  0
 29 38  1  0  0  0
 31 32  1  0  0  0
 32 33  1  0  0  0
 33 34  1  0  0  0
 34 35  1  0  0  0
 35 36  1  0  0  0
 35 37  2  0  0  0
 38 39  1  0  0  0
 39 40  1  0  0  0
 39 42  1  0  0  0
 40 41  2  0  0  0
 40 49  1  0  0  0
 42 43  1  0  0  0
 43 44  4  0  0  0
 43 45  4  0  0  0
 44 46  4  0  0  0
 45 47  4  0  0  0
 46 48  4  0  0  0
 47 48  4  0  0  0
 49 50  1  0  0  0
 50 51  1  0  0  0
 50 53  1  0  0  0
 51 52  2  0  0  0
 51 57  1  0  0  0
 53 54  1  0  0  0
 54 55  2  0  0  0
 54 56  1  0  0  0
 57 58  1  0  0  0
 58 59  1  0  0  0
 58 61  1  0  0  0
 59 60  1  0  0  0
 59 65  2  0  0  0
 61 62  1  0  0  0
 61 63  1  0  0  0
 62 64  1  0  0  0
  1 66  1  0  0  0
  1 67  1  0  0  0
  1 68  1  0  0  0
  2 69  1  0  0  0
  5 70  1  0  0  0
  5 71  1  0  0  0
  6 72  1  0  0  0
  6 73  1  0  0  0
  7 74  1  0  0  0
  7 75  1  0  0  0
  8 76  1  0  0  0
  8 77  1  0  0  0
  9 78  1  0  0  0
  9 79  1  0  0  0
  9 80  1  0  0  0
 10 81  1  0  0  0
 11 82  1  0  0  0
 14 83  1  0  0  0
 14 84  1  0  0  0
 15 85  1  0  0  0
 15 86  1  0  0  0
 16 87  1  0  0  0
 16 88  1  0  0  0
 17 89  1  0  0  0
 17 90  1  0  0  0
 18 91  1  0  0  0
 18 92  1  0  0  0
 18 93  1  0  0  0
 19 94  1  0  0  0
 20 95  1  0  0  0
 23 96  1  0  0  0
 23 97  1  0  0  0
 24 98  1  0  0  0
 25 99  1  0  0  0
 25100  1  0  0  0
 25101  1  0  0  0
 26102  1  0  0  0
 26103  1  0  0  0
 26104  1  0  0  0
 27105  1  0  0  0
 28106  1  0  0  0
 31107  1  0  0  0
 31108  1  0  0  0
 32109  1  0  0  0
 32110  1  0  0  0
 33111  1  0  0  0
 33112  1  0  0  0
 34113  1  0  0  0
 36114  1  0  0  0
 36115  1  0  0  0
 37116  1  0  0  0
 38117  1  0  0  0
 39118  1  0  0  0
 42119  1  0  0  0
 42120  1  0  0  0
 44121  1  0  0  0
 45122  1  0  0  0
 46123  1  0  0  0
 47124  1  0  0  0
 48125  1  0  0  0
 49126  1  0  0  0
 50127  1  0  0  0
 53128  1  0  0  0
 53129  1  0  0  0
 56130  1  0  0  0
 57131  1  0  0  0
 58132  1  0  0  0
 60133  1  0  0  0
 61134  1  0  0  0
 62135  1  0  0  0
 62136  1  0  0  0
 63137  1  0  0  0
 63138  1  0  0  0
 63139  1  0  0  0
 64140  1  0  0  0
 64141  1  0  0  0
 64142  1  0  0  0
M  END
$$$$
