### 
### Created by X-TOOL on Mon Sep 10 21:13:04 2018
### 

@<TRIPOS>MOLECULE
3n5u_ligand
  141   141     1     0     0
SMALL
GAST_HUCK


@<TRIPOS>ATOM
      1 N          10.7310   23.3040    7.9400 N.4       1 LYS         0.2379
      2 CA         10.8360   22.2450    8.9270 C.3       1 LYS         0.0650
      3 C          11.7360   21.0630    8.5220 C.2       1 LYS         0.2267
      4 O          11.5330   19.9420    8.9720 O.2       1 LYS        -0.3907
      5 CB          9.4430   21.7570    9.2800 C.3       1 LYS         0.0080
      6 CG          8.3910   22.8620    9.3620 C.3       1 LYS        -0.0410
      7 CD          7.0610   22.3100    9.8900 C.3       1 LYS        -0.0123
      8 CE          5.9900   23.3670    9.9660 C.3       1 LYS        -0.0354
      9 NZ          5.1140   23.1910   11.1540 N.4       1 LYS         0.2185
     10 N          12.7240   21.3260    7.6760 N.am      1 LYS        -0.2610
     11 CA         13.6880   20.3220    7.2740 C.3       1 LYS         0.1311
     12 C          15.0290   20.9130    6.9580 C.2       1 LYS         0.2039
     13 O          15.2500   22.0970    7.0790 O.2       1 LYS        -0.3944
     14 CB         13.2590   19.5140    6.0650 C.3       1 LYS        -0.0122
     15 CG         14.4170   18.6520    5.5360 C.3       1 LYS        -0.0440
     16 CD         14.1450   18.0730    4.1560 C.3       1 LYS        -0.0124
     17 CE         13.0420   16.9960    4.1800 C.3       1 LYS        -0.0354
     18 NZ         12.9770   16.1350    2.9540 N.4       1 LYS         0.2185
     19 N          15.9270   20.0510    6.5220 N.am      1 LEU        -0.2637
     20 CA         17.3570   20.3520    6.6130 C.3       1 LEU         0.1312
     21 C          17.8960   21.3710    5.6120 C.2       1 LEU         0.2039
     22 O          17.7870   21.1810    4.4010 O.2       1 LEU        -0.3944
     23 CB         18.1800   19.0600    6.5290 C.3       1 LEU        -0.0101
     24 CG         19.4360   19.0310    7.4100 C.3       1 LEU        -0.0425
     25 CD1        19.9690   17.6120    7.5550 C.3       1 LEU        -0.0625
     26 CD2        20.5220   19.9710    6.8950 C.3       1 LEU        -0.0625
     27 N          18.4970   22.4380    6.1390 N.am      1 ARG        -0.2637
     28 CA         19.2120   23.4330    5.3310 C.3       1 ARG         0.1311
     29 C          20.2070   24.2270    6.1740 C.2       1 ARG         0.2040
     30 O          20.1860   24.1380    7.3980 O.2       1 ARG        -0.3944
     31 CB         18.2450   24.3710    4.5980 C.3       1 ARG        -0.0092
     32 CG         16.8090   24.3410    5.1060 C.3       1 ARG        -0.0156
     33 CD         16.5420   25.3780    6.1750 C.3       1 ARG         0.0627
     34 NE         15.1810   25.2480    6.6800 N.pl3     1 ARG        -0.2723
     35 CZ         14.6140   26.0930    7.5310 C.cat     1 ARG         0.2882
     36 NH1        15.2910   27.1440    7.9770 N.pl3     1 ARG        -0.2849
     37 NH2        13.3660   25.8850    7.9320 N.pl3     1 ARG        -0.2849
     38 N          21.0670   25.0070    5.5200 N.am      1 PHE        -0.2619
     39 CA         22.1900   25.6550    6.2070 C.3       1 PHE         0.1404
     40 C          22.4980   27.1380    5.9930 C.2       1 PHE         0.2060
     41 O          22.3210   27.6630    4.8990 O.2       1 PHE        -0.3942
     42 CB         23.5210   25.2250    5.5790 C.3       1 PHE         0.0214
     43 CG         23.9190   23.8170    5.9220 C.ar      1 PHE        -0.0386
     44 CD1        24.4060   23.5080    7.1870 C.ar      1 PHE        -0.0601
     45 CD2        23.7960   22.7990    4.9910 C.ar      1 PHE        -0.0601
     46 CE1        24.7680   22.2160    7.5120 C.ar      1 PHE        -0.0686
     47 CE2        24.1570   21.5020    5.3120 C.ar      1 PHE        -0.0686
     48 CZ         24.6420   21.2120    6.5750 C.ar      1 PHE        -0.0687
     49 N          22.9630   27.8000    7.0530 N.am      1 ASP        -0.2620
     50 CA         23.2120   29.2430    7.0400 C.3       1 ASP         0.1423
     51 C          24.5560   29.8380    6.6020 C.2       1 ASP         0.2051
     52 O          25.4840   29.1090    6.2460 O.2       1 ASP        -0.3943
     53 CB         22.9480   29.5350    8.5210 C.3       1 ASP         0.0406
     54 CG         22.5970   30.9910    8.7860 C.2       1 ASP         0.0393
     55 OD1        23.4820   31.8550    8.6170 O.co2     1 ASP        -0.5688
     56 OD2        21.4470   31.2730    9.1940 O.co2     1 ASP        -0.5688
     57 N          24.6440   31.1640    6.6160 N.am      1 ILE        -0.2691
     58 CA         25.8600   31.8820    6.2290 C.3       1 ILE         0.0969
     59 C          25.9260   33.2530    6.9070 C.2       1 ILE         0.0604
     60 O          27.0010   33.7350    7.2690 O.co2     1 ILE        -0.5666
     61 CB         25.9510   32.0740    4.6920 C.3       1 ILE        -0.0092
     62 CG1        26.4270   30.7850    4.0100 C.3       1 ILE        -0.0497
     63 CG2        26.8820   33.2410    4.3460 C.3       1 ILE        -0.0588
     64 CD1        26.5790   30.9020    2.4860 C.3       1 ILE        -0.0649
     65 OXT        24.9060   33.9140    7.1100 O.co2     1 ILE        -0.5666
     66 H1         10.1257   24.0303    8.2896 H         1 LYS         0.2015
     67 H2         10.3486   22.9303    7.0855 H         1 LYS         0.2015
     68 H3         11.6457   23.6870    7.7595 H         1 LYS         0.2015
     69 H4         11.2801   22.6880    9.8306 H         1 LYS         0.1098
     70 H5          9.4915   21.2545   10.2573 H         1 LYS         0.0346
     71 H6          9.1258   21.0359    8.5123 H         1 LYS         0.0346
     72 H7          8.2331   23.2847    8.3588 H         1 LYS         0.0270
     73 H8          8.7486   23.6508   10.0402 H         1 LYS         0.0270
     74 H9          7.2240   21.8993   10.8973 H         1 LYS         0.0317
     75 H10         6.7194   21.5088    9.2182 H         1 LYS         0.0317
     76 H11         5.3716   23.3113    9.0580 H         1 LYS         0.0813
     77 H12         6.4701   24.3550   10.0227 H         1 LYS         0.0813
     78 H13         4.4143   23.9165   11.1659 H         1 LYS         0.1994
     79 H14         5.6701   23.2468   11.9928 H         1 LYS         0.1994
     80 H15         4.6635   22.2904   11.1088 H         1 LYS         0.1994
     81 H16        12.8060   22.2501    7.3027 H         1 LYS         0.1884
     82 H17        13.8058   19.6307    8.1215 H         1 LYS         0.0800
     83 H18        12.9313   20.2015    5.2713 H         1 LYS         0.0312
     84 H19        12.4235   18.8576    6.3496 H         1 LYS         0.0312
     85 H20        14.5847   17.8216    6.2376 H         1 LYS         0.0269
     86 H21        15.3218   19.2752    5.4824 H         1 LYS         0.0269
     87 H22        15.0720   17.6214    3.7729 H         1 LYS         0.0317
     88 H23        13.8299   18.8871    3.4867 H         1 LYS         0.0317
     89 H24        12.0720   17.5020    4.2945 H         1 LYS         0.0813
     90 H25        13.2198   16.3433    5.0474 H         1 LYS         0.0813
     91 H26        12.2325   15.4629    3.0545 H         1 LYS         0.1994
     92 H27        13.8532   15.6507    2.8366 H         1 LYS         0.1994
     93 H28        12.8015   16.7125    2.1467 H         1 LYS         0.1994
     94 H29        15.6282   19.1831    6.1253 H         1 LEU         0.1883
     95 H30        17.5180   20.7834    7.6120 H         1 LEU         0.0800
     96 H31        18.4936   18.9229    5.4836 H         1 LEU         0.0315
     97 H32        17.5328   18.2232    6.8305 H         1 LEU         0.0315
     98 H33        19.1442   19.3817    8.4109 H         1 LEU         0.0298
     99 H34        20.8673   17.6208    8.1899 H         1 LEU         0.0232
    100 H35        20.2255   17.2134    6.5624 H         1 LEU         0.0232
    101 H36        19.1993   16.9767    8.0176 H         1 LEU         0.0232
    102 H37        20.1121   20.9873    6.7993 H         1 LEU         0.0232
    103 H38        20.8723   19.6230    5.9121 H         1 LEU         0.0232
    104 H39        21.3644   19.9805    7.6023 H         1 LEU         0.0232
    105 H40        18.4589   22.5662    7.1300 H         1 ARG         0.1883
    106 H41        19.7853   22.8865    4.5677 H         1 ARG         0.0800
    107 H42        18.2366   24.0893    3.5347 H         1 ARG         0.0313
    108 H43        18.6222   25.3990    4.7020 H         1 ARG         0.0313
    109 H44        16.6054   23.3445    5.5248 H         1 ARG         0.0301
    110 H45        16.1328   24.5279    4.2588 H         1 ARG         0.0301
    111 H46        16.6754   26.3825    5.7470 H         1 ARG         0.0689
    112 H47        17.2512   25.2353    7.0036 H         1 ARG         0.0689
    113 H48        14.6221   24.4465    6.3544 H         1 ARG         0.2642
    114 H49        14.8488   27.7988    8.6377 H         1 ARG         0.2615
    115 H50        16.2585   27.3047    7.6624 H         1 ARG         0.2615
    116 H51        12.8427   25.0687    7.5845 H         1 ARG         0.2615
    117 H52        12.9208   26.5399    8.5907 H         1 ARG         0.2615
    118 H53        20.9442   25.1541    4.5385 H         1 PHE         0.1885
    119 H54        22.1121   25.4169    7.2781 H         1 PHE         0.0823
    120 H55        24.3091   25.9056    5.9334 H         1 PHE         0.0474
    121 H56        23.4319   25.3049    4.4855 H         1 PHE         0.0474
    122 H57        24.5028   24.2926    7.9286 H         1 PHE         0.0557
    123 H58        23.4132   23.0202    4.0012 H         1 PHE         0.0557
    124 H59        25.1503   21.9913    8.5012 H         1 PHE         0.0599
    125 H60        24.0598   20.7137    4.5743 H         1 PHE         0.0599
    126 H61        24.9228   20.1960    6.8279 H         1 PHE         0.0559
    127 H62        23.1496   27.2894    7.8924 H         1 ASP         0.1884
    128 H63        22.4482   29.7185    6.4071 H         1 ASP         0.0819
    129 H64        23.8519   29.2823    9.0947 H         1 ASP         0.0478
    130 H65        22.1114   28.9057    8.8587 H         1 ASP         0.0478
    131 H66        23.8459   31.6938    6.9030 H         1 ILE         0.1875
    132 H67        26.7253   31.2871    6.5566 H         1 ILE         0.0729
    133 H68        24.9454   32.3120    4.3150 H         1 ILE         0.0338
    134 H69        25.6969   29.9906    4.2245 H         1 ILE         0.0267
    135 H70        27.4037   30.5098    4.4345 H         1 ILE         0.0267
    136 H71        26.5249   34.1548    4.8434 H         1 ILE         0.0234
    137 H72        26.8880   33.3949    3.2568 H         1 ILE         0.0234
    138 H73        27.9014   33.0111    4.6895 H         1 ILE         0.0234
    139 H74        26.9219   29.9402    2.0768 H         1 ILE         0.0230
    140 H75        27.3154   31.6843    2.2499 H         1 ILE         0.0230
    141 H76        25.6086   31.1652    2.0398 H         1 ILE         0.0230
@<TRIPOS>BOND
     1    1    2 1  
     2    2    3 1  
     3    2    5 1  
     4    3    4 2  
     5    3   10 am 
     6    5    6 1  
     7    6    7 1  
     8    7    8 1  
     9    8    9 1  
    10   10   11 1  
    11   11   12 1  
    12   11   14 1  
    13   12   13 2  
    14   12   19 am 
    15   14   15 1  
    16   15   16 1  
    17   16   17 1  
    18   17   18 1  
    19   19   20 1  
    20   20   21 1  
    21   20   23 1  
    22   21   22 2  
    23   21   27 am 
    24   23   24 1  
    25   24   25 1  
    26   24   26 1  
    27   27   28 1  
    28   28   29 1  
    29   28   31 1  
    30   29   30 2  
    31   29   38 am 
    32   31   32 1  
    33   32   33 1  
    34   33   34 1  
    35   34   35 ar 
    36   35   36 ar 
    37   35   37 ar 
    38   38   39 1  
    39   39   40 1  
    40   39   42 1  
    41   40   41 2  
    42   40   49 am 
    43   42   43 1  
    44   43   44 ar 
    45   43   45 ar 
    46   44   46 ar 
    47   45   47 ar 
    48   46   48 ar 
    49   47   48 ar 
    50   49   50 1  
    51   50   51 1  
    52   50   53 1  
    53   51   52 2  
    54   51   57 am 
    55   53   54 1  
    56   54   55 ar 
    57   54   56 ar 
    58   57   58 1  
    59   58   59 1  
    60   58   61 1  
    61   59   60 ar 
    62   59   65 ar 
    63   61   62 1  
    64   61   63 1  
    65   62   64 1  
    66    1   66 1  
    67    1   67 1  
    68    1   68 1  
    69    2   69 1  
    70    5   70 1  
    71    5   71 1  
    72    6   72 1  
    73    6   73 1  
    74    7   74 1  
    75    7   75 1  
    76    8   76 1  
    77    8   77 1  
    78    9   78 1  
    79    9   79 1  
    80    9   80 1  
    81   10   81 1  
    82   11   82 1  
    83   14   83 1  
    84   14   84 1  
    85   15   85 1  
    86   15   86 1  
    87   16   87 1  
    88   16   88 1  
    89   17   89 1  
    90   17   90 1  
    91   18   91 1  
    92   18   92 1  
    93   18   93 1  
    94   19   94 1  
    95   20   95 1  
    96   23   96 1  
    97   23   97 1  
    98   24   98 1  
    99   25   99 1  
   100   25  100 1  
   101   25  101 1  
   102   26  102 1  
   103   26  103 1  
   104   26  104 1  
   105   27  105 1  
   106   28  106 1  
   107   31  107 1  
   108   31  108 1  
   109   32  109 1  
   110   32  110 1  
   111   33  111 1  
   112   33  112 1  
   113   34  113 1  
   114   36  114 1  
   115   36  115 1  
   116   37  116 1  
   117   37  117 1  
   118   38  118 1  
   119   39  119 1  
   120   42  120 1  
   121   42  121 1  
   122   44  122 1  
   123   45  123 1  
   124   46  124 1  
   125   47  125 1  
   126   48  126 1  
   127   49  127 1  
   128   50  128 1  
   129   53  129 1  
   130   53  130 1  
   131   57  131 1  
   132   58  132 1  
   133   61  133 1  
   134   62  134 1  
   135   62  135 1  
   136   63  136 1  
   137   63  137 1  
   138   63  138 1  
   139   64  139 1  
   140   64  140 1  
   141   64  141 1  
@<TRIPOS>SUBSTRUCTURE
     1 LYS         1

