2ha2_ligand
  -I-interpret- 

 50 49  0  0  0  0  0  0  0  0999 V2000
   30.8670   23.0330   11.8530 O   0  0  0  0  0
   29.8630   22.3520   11.7430 C   0  0  0  0  0
   28.9800   22.2070   12.8820 O   0  0  0  0  0
   28.6210   20.9060   13.3250 C   0  0  0  0  0
   27.3260   20.9930   14.1140 C   0  0  0  0  0
   26.8500   19.6300   14.3600 N   0  3  0  0  0
   27.6200   19.0250   15.4500 C   0  0  0  0  0
   25.4310   19.6670   14.7190 C   0  0  0  0  0
   27.0310   18.8390   13.1410 C   0  0  0  0  0
   29.5360   21.6720   10.4400 C   0  0  0  0  0
   30.4120   22.2660    9.3520 C   0  0  0  0  0
   31.7770   21.6440    9.4390 C   0  0  0  0  0
   31.8980   20.4420    9.5730 O   0  0  0  0  0
   32.9620   22.4730    9.3660 O   0  0  0  0  0
   34.1550   21.9430    8.8010 C   0  0  0  0  0
   34.9900   23.0740    8.2180 C   0  0  0  0  0
   35.7940   23.6760    9.2800 N   0  3  0  0  0
   36.4640   22.6120   10.0320 C   0  0  0  0  0
   36.7930   24.5730    8.6970 C   0  0  0  0  0
   34.9250   24.4430   10.1730 C   0  0  0  0  0
   29.4110   20.5019   13.9580 H   0  0  0  0  0
   28.4848   20.2493   12.4657 H   0  0  0  0  0
   26.5806   21.5552   13.5515 H   0  0  0  0  0
   27.4963   21.5076   15.0596 H   0  0  0  0  0
   27.4914   19.6170   16.3562 H   0  0  0  0  0
   27.2643   18.0095   15.6243 H   0  0  0  0  0
   28.6751   19.0000   15.1775 H   0  0  0  0  0
   25.0750   18.6516   14.8932 H   0  0  0  0  0
   25.3021   20.2591   15.6251 H   0  0  0  0  0
   24.8632   20.1178   13.9050 H   0  0  0  0  0
   28.0879   18.8206   12.8750 H   0  0  0  0  0
   26.6808   17.8214   13.3144 H   0  0  0  0  0
   26.4585   19.2883   12.3295 H   0  0  0  0  0
   28.4848   21.8241   10.1951 H   0  0  0  0  0
   29.7214   20.6011   10.5230 H   0  0  0  0  0
   30.4877   23.3451    9.4857 H   0  0  0  0  0
   29.9751   22.0647    8.3739 H   0  0  0  0  0
   33.8991   21.2372    8.0108 H   0  0  0  0  0
   34.7271   21.4326    9.5758 H   0  0  0  0  0
   34.3325   23.8281    7.7853 H   0  0  0  0  0
   35.6459   22.6810    7.4412 H   0  0  0  0  0
   35.7156   21.9497   10.4671 H   0  0  0  0  0
   37.1073   22.0437    9.3602 H   0  0  0  0  0
   37.0658   23.0537   10.8262 H   0  0  0  0  0
   37.4423   24.0067    8.0293 H   0  0  0  0  0
   36.2893   25.3597    8.1352 H   0  0  0  0  0
   37.3887   25.0183    9.4939 H   0  0  0  0  0
   34.4247   25.2277    9.6054 H   0  0  0  0  0
   34.1802   23.7790   10.6117 H   0  0  0  0  0
   35.5250   24.8917   10.9647 H   0  0  0  0  0
  1  2  2  0  0  0
  2  3  1  0  0  0
  2 10  1  0  0  0
  3  4  1  0  0  0
  4  5  1  0  0  0
  5  6  1  0  0  0
  6  7  1  0  0  0
  6  8  1  0  0  0
  6  9  1  0  0  0
 10 11  1  0  0  0
 11 12  1  0  0  0
 12 13  2  0  0  0
 12 14  1  0  0  0
 14 15  1  0  0  0
 15 16  1  0  0  0
 16 17  1  0  0  0
 17 18  1  0  0  0
 17 19  1  0  0  0
 17 20  1  0  0  0
  4 21  1  0  0  0
  4 22  1  0  0  0
  5 23  1  0  0  0
  5 24  1  0  0  0
  7 25  1  0  0  0
  7 26  1  0  0  0
  7 27  1  0  0  0
  8 28  1  0  0  0
  8 29  1  0  0  0
  8 30  1  0  0  0
  9 31  1  0  0  0
  9 32  1  0  0  0
  9 33  1  0  0  0
 10 34  1  0  0  0
 10 35  1  0  0  0
 11 36  1  0  0  0
 11 37  1  0  0  0
 15 38  1  0  0  0
 15 39  1  0  0  0
 16 40  1  0  0  0
 16 41  1  0  0  0
 18 42  1  0  0  0
 18 43  1  0  0  0
 18 44  1  0  0  0
 19 45  1  0  0  0
 19 46  1  0  0  0
 19 47  1  0  0  0
 20 48  1  0  0  0
 20 49  1  0  0  0
 20 50  1  0  0  0
M  END
$$$$
