5nz4_ligand
  -I-interpret- 

 45 45  0  0  0  0  0  0  0  0999 V2000
  -29.4780  -56.2810   23.8240 C   0  0  0  0  0
  -28.2650  -56.3420   24.1290 O   0  0  0  0  0
  -30.3300  -56.7450   24.5930 O   0  0  0  0  0
  -29.8930  -55.5610   22.6340 C   0  0  0  0  0
  -31.3810  -55.3650   22.3920 C   0  0  0  0  0
  -31.6150  -54.2300   21.3880 C   0  0  0  0  0
  -30.7110  -54.3390   20.1800 C   0  0  0  0  0
  -31.0160  -53.2340   19.2720 N   0  0  0  0  0
  -31.5700  -53.3750   18.0680 C   0  0  0  0  0
  -31.7720  -54.4610   17.5740 O   0  0  0  0  0
  -31.8540  -52.0960   17.3160 C   0  0  0  0  0
  -29.2960  -54.1270   20.6600 C   0  0  0  0  0
  -28.9730  -55.0440   21.8100 C   0  0  0  0  0
  -28.3470  -54.3920   19.6140 O   0  0  0  0  0
  -27.7030  -53.2070   19.0990 C   0  0  0  0  0
  -26.7400  -52.5560   20.1350 C   0  0  0  0  0
  -27.0970  -53.6420   17.7740 C   0  0  0  0  0
  -28.2260  -53.8990   16.7750 C   0  0  0  0  0
  -25.5890  -53.4410   20.4850 C   0  0  0  0  0
  -33.0670  -54.2840   20.9930 N   0  3  0  0  0
  -27.7404  -55.9411   23.4321 H   0  0  0  0  0
  -31.8632  -55.1091   23.3355 H   0  0  0  0  0
  -31.7993  -56.2872   21.9888 H   0  0  0  0  0
  -31.3730  -53.2714   21.8470 H   0  0  0  0  0
  -30.8418  -55.3022   19.6868 H   0  0  0  0  0
  -30.7888  -52.2891   19.5818 H   0  0  0  0  0
  -31.2534  -52.0696   16.4068 H   0  0  0  0  0
  -32.9117  -52.0563   17.0556 H   0  0  0  0  0
  -31.6011  -51.2424   17.9449 H   0  0  0  0  0
  -29.2261  -53.0858   20.9748 H   0  0  0  0  0
  -27.9281  -55.3022   21.9818 H   0  0  0  0  0
  -28.3889  -52.3794   18.9180 H   0  0  0  0  0
  -27.3067  -52.3666   21.0467 H   0  0  0  0  0
  -26.3392  -51.6437   19.6931 H   0  0  0  0  0
  -26.5153  -54.5529   17.9157 H   0  0  0  0  0
  -26.4396  -52.8598   17.3945 H   0  0  0  0  0
  -28.8774  -54.6841   17.1589 H   0  0  0  0  0
  -28.8013  -52.9838   16.6355 H   0  0  0  0  0
  -27.8012  -54.2116   15.8211 H   0  0  0  0  0
  -25.9641  -54.3702   20.9139 H   0  0  0  0  0
  -25.0144  -53.6606   19.5851 H   0  0  0  0  0
  -24.9514  -52.9358   21.2105 H   0  0  0  0  0
  -33.6482  -54.2082   21.8278 H   0  0  0  0  0
  -33.2752  -53.5109   20.3610 H   0  0  0  0  0
  -33.2577  -55.1693   20.5236 H   0  0  0  0  0
  1  2  1  0  0  0
  1  3  2  0  0  0
  1  4  1  0  0  0
  4  5  1  0  0  0
  4 13  2  0  0  0
  5  6  1  0  0  0
  6  7  1  0  0  0
  6 20  1  0  0  0
  7  8  1  0  0  0
  7 12  1  0  0  0
  8  9  1  0  0  0
  9 10  2  0  0  0
  9 11  1  0  0  0
 12 13  1  0  0  0
 12 14  1  0  0  0
 14 15  1  0  0  0
 15 16  1  0  0  0
 15 17  1  0  0  0
 16 19  1  0  0  0
 17 18  1  0  0  0
  2 21  1  0  0  0
  5 22  1  0  0  0
  5 23  1  0  0  0
  6 24  1  0  0  0
  7 25  1  0  0  0
  8 26  1  0  0  0
 11 27  1  0  0  0
 11 28  1  0  0  0
 11 29  1  0  0  0
 12 30  1  0  0  0
 13 31  1  0  0  0
 15 32  1  0  0  0
 16 33  1  0  0  0
 16 34  1  0  0  0
 17 35  1  0  0  0
 17 36  1  0  0  0
 18 37  1  0  0  0
 18 38  1  0  0  0
 18 39  1  0  0  0
 19 40  1  0  0  0
 19 41  1  0  0  0
 19 42  1  0  0  0
 20 43  1  0  0  0
 20 44  1  0  0  0
 20 45  1  0  0  0
M  END
$$$$
