1bra_ligand
  -I-interpret- 

 17 17  0  0  0  0  0  0  0  0999 V2000
    7.7880   49.7690   56.0970 C   0  0  0  0  0
    7.8850   48.6980   56.9630 C   0  0  0  0  0
    8.0550   47.3800   56.4870 C   0  0  0  0  0
    8.2440   47.1990   55.1090 C   0  0  0  0  0
    8.2130   48.3080   54.2510 C   0  0  0  0  0
    8.0090   49.5910   54.7610 C   0  0  0  0  0
    7.6200   51.0570   56.5970 C   0  0  0  0  0
    7.6870   51.1530   57.9300 N   0  0  0  0  0
    7.4310   52.0900   55.8010 N   0  0  0  0  0
    7.8291   48.8740   58.0372 H   0  0  0  0  0
    8.0399   46.5297   57.1688 H   0  0  0  0  0
    8.4143   46.2004   54.7066 H   0  0  0  0  0
    8.3491   48.1669   53.1788 H   0  0  0  0  0
    8.0261   50.4518   54.0925 H   0  0  0  0  0
    7.5898   52.0625   58.3813 H   0  0  0  0  0
    7.8352   50.3166   58.4947 H   0  0  0  0  0
    7.3269   53.0251   56.1949 H   0  0  0  0  0
  1  2  4  0  0  0
  1  6  4  0  0  0
  1  7  1  0  0  0
  2  3  4  0  0  0
  3  4  4  0  0  0
  4  5  4  0  0  0
  6  5  4  0  0  0
  7  8  1  0  0  0
  7  9  2  0  0  0
  2 10  1  0  0  0
  3 11  1  0  0  0
  4 12  1  0  0  0
  5 13  1  0  0  0
  6 14  1  0  0  0
  8 15  1  0  0  0
  8 16  1  0  0  0
  9 17  1  0  0  0
M  END
$$$$
