4xmr_ligand
  -I-interpret- 

 23 22  0  0  0  0  0  0  0  0999 V2000
  -13.3440  -29.2240  -40.4810 N   0  3  0  0  0
  -13.0980  -30.6610  -40.4570 C   0  0  0  0  0
  -12.6380  -31.0790  -41.8380 C   0  0  0  0  0
  -12.8580  -30.3520  -42.8190 O   0  0  0  0  0
  -14.3610  -31.4490  -40.0220 C   0  0  0  0  0
  -13.9980  -32.8780  -39.6240 C   0  0  0  0  0
  -15.4200  -31.4500  -41.1130 C   0  0  0  0  0
  -15.1390  -33.6040  -38.9750 C   0  0  0  0  0
  -12.0300  -32.1310  -41.9800 O   0  0  0  0  0
  -12.4943  -28.7396  -40.7705 H   0  0  0  0  0
  -14.0948  -29.0198  -41.1406 H   0  0  0  0  0
  -13.6144  -28.9109  -39.5486 H   0  0  0  0  0
  -12.3268  -30.8897  -39.7215 H   0  0  0  0  0
  -13.3415  -29.5724  -42.5361 H   0  0  0  0  0
  -14.7805  -30.9437  -39.1520 H   0  0  0  0  0
  -13.1800  -32.8283  -38.9053 H   0  0  0  0  0
  -13.7278  -33.4201  -40.5302 H   0  0  0  0  0
  -15.0374  -31.9747  -41.9885 H   0  0  0  0  0
  -16.3151  -31.9538  -40.7483 H   0  0  0  0  0
  -15.6640  -30.4222  -41.3817 H   0  0  0  0  0
  -15.4409  -33.0714  -38.0732 H   0  0  0  0  0
  -15.9787  -33.6522  -39.6683 H   0  0  0  0  0
  -14.8236  -34.6141  -38.7135 H   0  0  0  0  0
  1  2  1  0  0  0
  2  3  1  0  0  0
  2  5  1  0  0  0
  3  4  1  0  0  0
  3  9  2  0  0  0
  5  6  1  0  0  0
  5  7  1  0  0  0
  6  8  1  0  0  0
  1 10  1  0  0  0
  1 11  1  0  0  0
  1 12  1  0  0  0
  2 13  1  0  0  0
  4 14  1  0  0  0
  5 15  1  0  0  0
  6 16  1  0  0  0
  6 17  1  0  0  0
  7 18  1  0  0  0
  7 19  1  0  0  0
  7 20  1  0  0  0
  8 21  1  0  0  0
  8 22  1  0  0  0
  8 23  1  0  0  0
M  END
$$$$
