5ml3_ligand
  -I-interpret- 

 83 87  0  0  0  0  0  0  0  0999 V2000
  -36.5010    0.0670   -2.5780 C   0  0  0  0  0
  -36.6670    0.2420   -1.2090 C   0  0  0  0  0
  -36.9780   -0.8610   -0.4130 C   0  0  0  0  0
  -37.0960   -2.1240   -0.9480 N   0  0  0  0  0
  -36.6170   -1.1910   -3.0380 N   0  0  0  0  0
  -37.4730   -4.6380   -2.0600 C   0  0  0  0  0
  -37.0150   -3.4620   -2.8210 N   0  0  0  0  0
  -36.9050   -2.2650   -2.2710 C   0  0  0  0  0
  -36.1810    1.1730   -3.4390 C   0  0  0  0  0
  -37.2770    2.2050   -3.5650 N   0  0  0  0  0
  -37.8970    2.5130   -4.8620 C   0  0  0  0  0
  -39.1610    1.7280   -5.2100 C   0  0  0  0  0
  -40.0110    2.5390   -6.1040 C   0  0  0  0  0
  -41.0360    1.6000   -6.6900 C   0  0  0  0  0
  -41.7450    0.8120   -5.6480 N   0  3  0  0  0
  -41.4680    1.2580   -4.2600 C   0  0  0  0  0
  -39.9800    1.4520   -3.9540 C   0  0  0  0  0
  -36.9300    3.8100   -2.9440 S   0  0  0  0  0
  -36.2210    3.5410   -1.6430 O   0  0  0  0  0
  -38.1940    4.5890   -2.9640 O   0  0  0  0  0
  -35.8150    4.6750   -4.0000 C   0  0  0  0  0
  -36.2470    5.6070   -4.9430 C   0  0  0  0  0
  -35.3140    6.2510   -5.7570 C   0  0  0  0  0
  -34.4750    4.4020   -3.8570 C   0  0  0  0  0
  -33.5390    5.0350   -4.6510 C   0  0  0  0  0
  -33.9580    5.9650   -5.6040 C   0  0  0  0  0
  -32.7500    6.7690   -6.5410 S   0  0  0  0  0
  -33.4940    7.4300   -7.6630 O   0  0  0  0  0
  -31.7000    5.7940   -6.9410 O   0  0  0  0  0
  -31.9280    7.9850   -5.6680 N   0  0  0  0  0
  -32.3460    8.8980   -4.5560 C   0  0  0  0  0
  -33.4720    8.5910   -3.6360 C   0  0  0  0  0
  -33.2230    9.8200   -2.7280 C   0  0  0  0  0
  -32.4200   10.8690   -3.5320 C   0  0  0  0  0
  -32.4180   10.3080   -4.9500 C   0  0  0  0  0
  -30.5330    7.6560   -5.2260 C   0  0  0  0  0
  -29.5890    8.1480   -6.1690 C   0  0  0  0  0
  -29.9530    8.6010   -7.4450 C   0  0  0  0  0
  -28.9970    9.0360   -8.3580 C   0  0  0  0  0
  -27.6680    9.0240   -7.9760 C   0  0  0  0  0
  -26.4640    9.5380   -9.0780 Cl  0  0  0  0  0
  -27.2940    8.5730   -6.7170 C   0  0  0  0  0
  -28.2550    8.1370   -5.8210 C   0  0  0  0  0
  -36.5554    1.2300   -0.7623 H   0  0  0  0  0
  -37.1310   -0.7194    0.6569 H   0  0  0  0  0
  -36.7939   -4.8167   -1.2263 H   0  0  0  0  0
  -38.4775   -4.4540   -1.6790 H   0  0  0  0  0
  -37.4851   -5.5101   -2.7138 H   0  0  0  0  0
  -36.7747   -3.5756   -3.8058 H   0  0  0  0  0
  -36.0116    0.7638   -4.4350 H   0  0  0  0  0
  -35.3170    1.6761   -3.0049 H   0  0  0  0  0
  -37.1591    2.2532   -5.6211 H   0  0  0  0  0
  -38.1929    3.5611   -4.8163 H   0  0  0  0  0
  -38.8583    0.7935   -5.6825 H   0  0  0  0  0
  -39.4166    3.0065   -6.8890 H   0  0  0  0  0
  -40.4924    3.3488   -5.5557 H   0  0  0  0  0
  -40.5167    0.9012   -7.3458 H   0  0  0  0  0
  -41.7759    2.1982   -7.2217 H   0  0  0  0  0
  -41.4215   -0.1522   -5.7259 H   0  0  0  0  0
  -42.7454    0.9289   -5.8091 H   0  0  0  0  0
  -41.8373    0.4810   -3.5907 H   0  0  0  0  0
  -41.9542    2.2245   -4.1276 H   0  0  0  0  0
  -39.8808    2.3111   -3.2905 H   0  0  0  0  0
  -39.6057    0.5336   -3.5017 H   0  0  0  0  0
  -37.3088    5.8316   -5.0439 H   0  0  0  0  0
  -35.6426    6.9715   -6.5060 H   0  0  0  0  0
  -34.1483    3.6789   -3.1097 H   0  0  0  0  0
  -32.4790    4.8097   -4.5342 H   0  0  0  0  0
  -31.4917    8.6617   -3.9216 H   0  0  0  0  0
  -33.4811    7.6093   -3.1623 H   0  0  0  0  0
  -34.4641    8.4822   -4.0742 H   0  0  0  0  0
  -32.6624    9.5210   -1.8423 H   0  0  0  0  0
  -34.1743   10.2450   -2.4077 H   0  0  0  0  0
  -31.4136   11.0144   -3.1395 H   0  0  0  0  0
  -32.8619   11.8639   -3.4776 H   0  0  0  0  0
  -33.2529   10.5943   -5.5896 H   0  0  0  0  0
  -31.6352   10.6692   -5.6170 H   0  0  0  0  0
  -30.4293    6.5736   -5.1495 H   0  0  0  0  0
  -30.3464    8.1222   -4.2585 H   0  0  0  0  0
  -31.0057    8.6127   -7.7275 H   0  0  0  0  0
  -29.2889    9.3781   -9.3509 H   0  0  0  0  0
  -26.2415    8.5623   -6.4337 H   0  0  0  0  0
  -27.9553    7.7829   -4.8346 H   0  0  0  0  0
  1  2  4  0  0  0
  5  1  4  0  0  0
  1  9  1  0  0  0
  3  2  4  0  0  0
  4  3  4  0  0  0
  8  4  4  0  0  0
  8  5  4  0  0  0
  7  6  1  0  0  0
  7  8  1  0  0  0
  9 10  1  0  0  0
 10 11  1  0  0  0
 10 18  1  0  0  0
 11 12  1  0  0  0
 12 13  1  0  0  0
 12 17  1  0  0  0
 13 14  1  0  0  0
 14 15  1  0  0  0
 15 16  1  0  0  0
 16 17  1  0  0  0
 18 19  2  0  0  0
 18 20  2  0  0  0
 18 21  1  0  0  0
 21 22  4  0  0  0
 21 24  4  0  0  0
 22 23  4  0  0  0
 23 26  4  0  0  0
 24 25  4  0  0  0
 25 26  4  0  0  0
 26 27  1  0  0  0
 27 28  2  0  0  0
 27 29  2  0  0  0
 27 30  1  0  0  0
 30 31  1  0  0  0
 30 36  1  0  0  0
 31 32  1  0  0  0
 31 35  1  0  0  0
 32 33  1  0  0  0
 33 34  1  0  0  0
 34 35  1  0  0  0
 36 37  1  0  0  0
 37 38  4  0  0  0
 37 43  4  0  0  0
 38 39  4  0  0  0
 39 40  4  0  0  0
 40 41  1  0  0  0
 40 42  4  0  0  0
 42 43  4  0  0  0
  2 44  1  0  0  0
  3 45  1  0  0  0
  6 46  1  0  0  0
  6 47  1  0  0  0
  6 48  1  0  0  0
  7 49  1  0  0  0
  9 50  1  0  0  0
  9 51  1  0  0  0
 11 52  1  0  0  0
 11 53  1  0  0  0
 12 54  1  0  0  0
 13 55  1  0  0  0
 13 56  1  0  0  0
 14 57  1  0  0  0
 14 58  1  0  0  0
 15 59  1  0  0  0
 15 60  1  0  0  0
 16 61  1  0  0  0
 16 62  1  0  0  0
 17 63  1  0  0  0
 17 64  1  0  0  0
 22 65  1  0  0  0
 23 66  1  0  0  0
 24 67  1  0  0  0
 25 68  1  0  0  0
 31 69  1  0  0  0
 32 70  1  0  0  0
 32 71  1  0  0  0
 33 72  1  0  0  0
 33 73  1  0  0  0
 34 74  1  0  0  0
 34 75  1  0  0  0
 35 76  1  0  0  0
 35 77  1  0  0  0
 36 78  1  0  0  0
 36 79  1  0  0  0
 38 80  1  0  0  0
 39 81  1  0  0  0
 42 82  1  0  0  0
 43 83  1  0  0  0
M  END
$$$$
