1qbs_ligand
  -I-interpret- 

 80 84  0  0  0  0  0  0  0  0999 V2000
   -8.8240   15.2890   27.7960 C   0  0  0  0  0
   -8.7650   17.6120   26.8940 C   0  0  0  0  0
  -10.1510   18.1420   27.1200 C   0  0  0  0  0
  -10.6110   17.8660   28.5290 C   0  0  0  0  0
  -10.8730   16.3920   28.7780 C   0  0  0  0  0
   -7.8950   15.6060   25.6580 C   0  0  0  0  0
   -8.3940   16.0040   24.3140 C   0  0  0  0  0
   -9.7620   16.0350   23.9810 C   0  0  0  0  0
  -10.1750   16.3420   22.6670 C   0  0  0  0  0
   -9.1890   16.6000   21.7020 C   0  0  0  0  0
   -7.8260   16.5690   22.0380 C   0  0  0  0  0
   -7.4240   16.2810   23.3540 C   0  0  0  0  0
   -9.5830   16.8780   20.2990 C   0  0  0  0  0
   -7.6750   18.1900   27.7820 C   0  0  0  0  0
   -6.3090   18.0780   27.1330 C   0  0  0  0  0
   -5.3710   17.1390   27.6170 C   0  0  0  0  0
   -4.1150   17.0170   27.0020 C   0  0  0  0  0
   -3.7920   17.8380   25.9060 C   0  0  0  0  0
   -4.7220   18.7820   25.4150 C   0  0  0  0  0
   -5.9870   18.8970   26.0350 C   0  0  0  0  0
  -11.9890   15.7360   27.9350 C   0  0  0  0  0
  -12.5340   14.4820   28.5860 C   0  0  0  0  0
  -13.2610   14.5870   29.8040 C   0  0  0  0  0
  -13.6010   13.4140   30.5130 C   0  0  0  0  0
  -13.2390   12.1520   29.9960 C   0  0  0  0  0
  -12.5480   12.0500   28.7750 C   0  0  0  0  0
  -12.1950   13.2160   28.0670 C   0  0  0  0  0
   -9.5160   14.6730   30.0030 C   0  0  0  0  0
   -9.6180   15.2850   31.3760 C   0  0  0  0  0
  -10.2970   14.5400   32.3750 C   0  0  0  0  0
  -10.3520   15.0360   33.6820 C   0  0  0  0  0
   -9.7350   16.2670   33.9880 C   0  0  0  0  0
   -9.0700   17.0220   32.9890 C   0  0  0  0  0
   -9.0140   16.5230   31.6810 C   0  0  0  0  0
   -9.7360   16.7740   35.4100 C   0  0  0  0  0
   -8.6000   16.1560   26.8220 N   0  0  0  0  0
   -9.6940   15.5050   28.8070 N   0  0  0  0  0
   -8.1740   14.2590   27.7580 O   0  0  0  0  0
  -10.0250   19.4970   26.8340 O   0  0  0  0  0
  -11.8020   18.5230   28.8520 O   0  0  0  0  0
   -9.0170   18.1250   19.9200 O   0  0  0  0  0
  -11.0720   16.7380   35.8800 O   0  0  0  0  0
   -8.6265   17.9942   25.8826 H   0  0  0  0  0
  -10.9127   17.6711   26.4986 H   0  0  0  0  0
   -9.7889   18.2296   29.1454 H   0  0  0  0  0
  -11.2421   16.4727   29.8004 H   0  0  0  0  0
   -8.0253   14.5253   25.7152 H   0  0  0  0  0
   -6.8756   15.9867   25.7210 H   0  0  0  0  0
  -10.5088   15.8199   24.7453 H   0  0  0  0  0
  -11.2332   16.3779   22.4080 H   0  0  0  0  0
   -7.0750   16.7695   21.2738 H   0  0  0  0  0
   -6.3668   16.2746   23.6195 H   0  0  0  0  0
  -10.6690   16.9174   20.2147 H   0  0  0  0  0
   -9.2206   16.0863   19.6433 H   0  0  0  0  0
   -7.6592   17.6299   28.7170 H   0  0  0  0  0
   -7.8910   19.2450   27.9503 H   0  0  0  0  0
   -5.6230   16.5081   28.4694 H   0  0  0  0  0
   -3.3929   16.2892   27.3721 H   0  0  0  0  0
   -2.8153   17.7451   25.4312 H   0  0  0  0  0
   -4.4661   19.4157   24.5659 H   0  0  0  0  0
   -6.7129   19.6199   25.6627 H   0  0  0  0  0
  -11.5671   15.4608   26.9684 H   0  0  0  0  0
  -12.8061   16.4509   27.8382 H   0  0  0  0  0
  -13.5533   15.5648   30.1870 H   0  0  0  0  0
  -14.1416   13.4833   31.4570 H   0  0  0  0  0
  -13.4971   11.2481   30.5477 H   0  0  0  0  0
  -12.2858   11.0698   28.3769 H   0  0  0  0  0
  -11.6609   13.1392   27.1199 H   0  0  0  0  0
   -8.4854   14.3240   29.9385 H   0  0  0  0  0
  -10.3406   13.9614   29.9624 H   0  0  0  0  0
  -10.7711   13.5905   32.1264 H   0  0  0  0  0
  -10.8690   14.4741   34.4599 H   0  0  0  0  0
   -8.6083   17.9782   33.2354 H   0  0  0  0  0
   -8.5052   17.0897   30.9012 H   0  0  0  0  0
   -9.3475   17.7916   35.4498 H   0  0  0  0  0
   -9.0973   16.1501   36.0353 H   0  0  0  0  0
   -9.7305   19.6054   25.9267 H   0  0  0  0  0
  -11.6937   19.4666   28.7123 H   0  0  0  0  0
   -9.2610   18.3234   19.0130 H   0  0  0  0  0
  -11.1003   17.0565   36.7852 H   0  0  0  0  0
  1 38  2  0  0  0
  1 37  1  0  0  0
  1 36  1  0  0  0
 36  6  1  0  0  0
 36  2  1  0  0  0
  2 14  1  0  0  0
  2  3  1  0  0  0
  3 39  1  0  0  0
  3  4  1  0  0  0
  4 40  1  0  0  0
  4  5  1  0  0  0
  5 37  1  0  0  0
  5 21  1  0  0  0
 21 22  1  0  0  0
 22 27  4  0  0  0
 22 23  4  0  0  0
 23 24  4  0  0  0
 24 25  4  0  0  0
 25 26  4  0  0  0
 26 27  4  0  0  0
 37 28  1  0  0  0
 28 29  1  0  0  0
 29 34  4  0  0  0
 29 30  4  0  0  0
 30 31  4  0  0  0
 31 32  4  0  0  0
 32 35  1  0  0  0
 32 33  4  0  0  0
 33 34  4  0  0  0
 35 42  1  0  0  0
 14 15  1  0  0  0
 15 20  4  0  0  0
 15 16  4  0  0  0
 16 17  4  0  0  0
 17 18  4  0  0  0
 18 19  4  0  0  0
 19 20  4  0  0  0
  6  7  1  0  0  0
  7 12  4  0  0  0
  7  8  4  0  0  0
  8  9  4  0  0  0
  9 10  4  0  0  0
 10 13  1  0  0  0
 10 11  4  0  0  0
 11 12  4  0  0  0
 13 41  1  0  0  0
  2 43  1  0  0  0
  3 44  1  0  0  0
  4 45  1  0  0  0
  5 46  1  0  0  0
  6 47  1  0  0  0
  6 48  1  0  0  0
  8 49  1  0  0  0
  9 50  1  0  0  0
 11 51  1  0  0  0
 12 52  1  0  0  0
 13 53  1  0  0  0
 13 54  1  0  0  0
 14 55  1  0  0  0
 14 56  1  0  0  0
 16 57  1  0  0  0
 17 58  1  0  0  0
 18 59  1  0  0  0
 19 60  1  0  0  0
 20 61  1  0  0  0
 21 62  1  0  0  0
 21 63  1  0  0  0
 23 64  1  0  0  0
 24 65  1  0  0  0
 25 66  1  0  0  0
 26 67  1  0  0  0
 27 68  1  0  0  0
 28 69  1  0  0  0
 28 70  1  0  0  0
 30 71  1  0  0  0
 31 72  1  0  0  0
 33 73  1  0  0  0
 34 74  1  0  0  0
 35 75  1  0  0  0
 35 76  1  0  0  0
 39 77  1  0  0  0
 40 78  1  0  0  0
 41 79  1  0  0  0
 42 80  1  0  0  0
M  END
$$$$
