3cd5_ligand
  -I-interpret- 

 76 79  0  0  0  0  0  0  0  0999 V2000
   14.1290    6.7820   45.3590 N   0  0  0  0  0
   13.8900    3.2290   46.7850 C   0  0  0  0  0
   14.3900    5.5980   45.9650 C   0  0  0  0  0
   15.2240    9.0900   45.1170 C   0  0  0  0  0
   12.9440    7.0450   44.5330 C   0  0  0  0  0
   13.2580    6.5620   43.1140 C   0  0  0  0  0
   12.5090    6.3030   40.7300 C   0  0  0  0  0
   16.0580    9.2280   43.8610 C   0  0  0  0  0
   22.6390    9.8600   51.5330 C   0  0  0  0  0
   19.8810    8.0990   48.4850 C   0  0  0  0  0
   20.8860    8.8230   49.1320 C   0  0  0  0  0
   23.5920   11.9810   52.1980 C   0  0  0  0  0
   21.6210   10.5220   50.8440 C   0  0  0  0  0
   22.5730   12.6470   51.5220 C   0  0  0  0  0
   18.2230    9.1940   49.8380 C   0  0  0  0  0
   18.0330    8.1570   46.1220 O   0  0  0  0  0
   17.3130    7.5790   46.9200 C   0  0  0  0  0
   17.5250    7.5920   48.2400 N   0  0  0  0  0
   18.5400    8.2820   48.8320 C   0  0  0  0  0
   19.2270    9.9190   50.4810 C   0  0  0  0  0
   20.5640    9.7420   50.1310 C   0  0  0  0  0
   21.5900   11.9170   50.8490 C   0  0  0  0  0
   23.6230   10.5870   52.2040 C   0  0  0  0  0
   16.0400    6.9930   46.4020 C   0  0  0  0  0
   15.1250    7.6550   45.5970 C   0  0  0  0  0
   13.4750    4.3890   45.8840 C   0  0  0  0  0
   15.2480    2.6960   46.4000 C   0  0  0  0  0
   16.3640    3.3450   46.7270 C   0  0  0  0  0
   16.3200    4.6530   47.4700 C   0  0  0  0  0
   15.6070    5.7020   46.6420 C   0  0  0  0  0
   12.1220    6.7900   42.1210 C   0  0  0  0  0
   11.8610    8.1820   42.0210 O   0  0  0  0  0
   12.6280    4.7900   40.5960 C   0  0  0  0  0
   11.3650    4.1980   40.8150 O   0  0  0  0  0
   13.0840    4.4350   39.1910 C   0  0  0  0  0
   13.6440    3.0340   39.1850 C   0  0  0  0  0
   12.9530    2.1020   38.8010 O   0  0  0  0  0
   14.8920    2.8200   39.6080 O   0  0  0  0  0
   13.1591    2.4274   46.6782 H   0  0  0  0  0
   13.9362    3.5872   47.8134 H   0  0  0  0  0
   14.2162    9.4379   44.8902 H   0  0  0  0  0
   15.7025    9.6742   45.9030 H   0  0  0  0  0
   12.7086    8.1093   44.5308 H   0  0  0  0  0
   12.0762    6.5197   44.9319 H   0  0  0  0  0
   13.4326    5.4874   43.1674 H   0  0  0  0  0
   14.1183    7.1300   42.7600 H   0  0  0  0  0
   13.4920    6.7195   40.5099 H   0  0  0  0  0
   11.7177    6.6206   40.0509 H   0  0  0  0  0
   17.0686    8.8694   44.0563 H   0  0  0  0  0
   15.6096    8.6375   43.0620 H   0  0  0  0  0
   16.0940   10.2760   43.5637 H   0  0  0  0  0
   22.6652    8.7704   51.5468 H   0  0  0  0  0
   20.1452    7.3862   47.7038 H   0  0  0  0  0
   21.9286    8.6686   48.8542 H   0  0  0  0  0
   24.3628   12.5474   52.7207 H   0  0  0  0  0
   22.5422   13.7366   51.5179 H   0  0  0  0  0
   17.1818    9.3419   50.1246 H   0  0  0  0  0
   16.8932    7.0568   48.8357 H   0  0  0  0  0
   18.9630   10.6300   51.2639 H   0  0  0  0  0
   20.7921   12.4417   50.3234 H   0  0  0  0  0
   24.4184   10.0635   52.7345 H   0  0  0  0  0
   12.4861    4.7116   46.2099 H   0  0  0  0  0
   13.5106    4.0269   44.8565 H   0  0  0  0  0
   15.2400    2.7213   45.3103 H   0  0  0  0  0
   15.3236    1.7544   46.9439 H   0  0  0  0  0
   16.8064    3.6053   45.7654 H   0  0  0  0  0
   16.8669    2.6685   47.4181 H   0  0  0  0  0
   17.3392    4.9859   47.6664 H   0  0  0  0  0
   15.7821    4.5126   48.4075 H   0  0  0  0  0
   11.2495    6.2423   42.4772 H   0  0  0  0  0
   11.6132    8.5227   42.8836 H   0  0  0  0  0
   13.3493    4.4252   41.3273 H   0  0  0  0  0
   11.4407    3.2447   40.7304 H   0  0  0  0  0
   13.8543    5.1363   38.8702 H   0  0  0  0  0
   12.2363    4.4911   38.5081 H   0  0  0  0  0
   15.2872    3.6545   39.8706 H   0  0  0  0  0
  1  3  4  0  0  0
  1  5  1  0  0  0
 25  1  4  0  0  0
 26  2  1  0  0  0
  2 27  1  0  0  0
  3 26  1  0  0  0
  3 30  4  0  0  0
  4  8  1  0  0  0
 25  4  1  0  0  0
  5  6  1  0  0  0
  6 31  1  0  0  0
 31  7  1  0  0  0
  7 33  1  0  0  0
 13  9  4  0  0  0
  9 23  4  0  0  0
 10 11  4  0  0  0
 19 10  4  0  0  0
 11 21  4  0  0  0
 14 12  4  0  0  0
 23 12  4  0  0  0
 21 13  1  0  0  0
 13 22  4  0  0  0
 22 14  4  0  0  0
 19 15  4  0  0  0
 15 20  4  0  0  0
 17 16  2  0  0  0
 17 18  1  0  0  0
 24 17  1  0  0  0
 18 19  1  0  0  0
 20 21  4  0  0  0
 24 25  4  0  0  0
 24 30  4  0  0  0
 27 28  1  0  0  0
 28 29  1  0  0  0
 29 30  1  0  0  0
 31 32  1  0  0  0
 33 34  1  0  0  0
 33 35  1  0  0  0
 35 36  1  0  0  0
 36 37  2  0  0  0
 36 38  1  0  0  0
  2 39  1  0  0  0
  2 40  1  0  0  0
  4 41  1  0  0  0
  4 42  1  0  0  0
  5 43  1  0  0  0
  5 44  1  0  0  0
  6 45  1  0  0  0
  6 46  1  0  0  0
  7 47  1  0  0  0
  7 48  1  0  0  0
  8 49  1  0  0  0
  8 50  1  0  0  0
  8 51  1  0  0  0
  9 52  1  0  0  0
 10 53  1  0  0  0
 11 54  1  0  0  0
 12 55  1  0  0  0
 14 56  1  0  0  0
 15 57  1  0  0  0
 18 58  1  0  0  0
 20 59  1  0  0  0
 22 60  1  0  0  0
 23 61  1  0  0  0
 26 62  1  0  0  0
 26 63  1  0  0  0
 27 64  1  0  0  0
 27 65  1  0  0  0
 28 66  1  0  0  0
 28 67  1  0  0  0
 29 68  1  0  0  0
 29 69  1  0  0  0
 31 70  1  0  0  0
 32 71  1  0  0  0
 33 72  1  0  0  0
 34 73  1  0  0  0
 35 74  1  0  0  0
 35 75  1  0  0  0
 38 76  1  0  0  0
M  END
$$$$
