1bhx_ligand
  -I-interpret- 

 59 61  0  0  0  0  0  0  0  0999 V2000
   22.1690  -14.5920   25.7200 C   0  0  0  0  0
   22.1450  -15.9400   25.3790 C   0  0  0  0  0
   20.9710  -16.7030   25.6290 C   0  0  0  0  0
   19.8390  -16.0960   26.2060 C   0  0  0  0  0
   19.8790  -14.7540   26.5500 C   0  0  0  0  0
   21.0250  -14.0020   26.3100 C   0  0  0  0  0
   18.5670  -16.9220   26.4870 C   0  0  0  0  0
   17.8430  -17.3940   24.8500 S   0  0  0  0  0
   18.8810  -18.1230   24.0360 O   0  0  0  0  0
   16.5900  -17.9970   25.0660 O   0  0  0  0  0
   17.6520  -15.8550   24.1860 N   0  0  0  0  0
   18.0550  -15.5820   22.8040 C   0  0  0  0  0
   17.3480  -14.3450   22.3100 C   0  0  0  0  0
   16.3540  -13.9150   22.9140 O   0  0  0  0  0
   17.8480  -13.7720   21.1870 N   0  0  0  0  0
   19.0090  -14.3360   20.5480 C   0  0  0  0  0
   20.1060  -14.6080   21.5470 C   0  0  0  0  0
   19.5960  -15.4160   22.7580 C   0  0  0  0  0
   19.5770  -13.0300   19.5260 S   0  0  0  0  0
   17.9100  -12.3660   19.2870 C   0  0  0  0  0
   17.2240  -12.5620   20.5980 C   0  0  0  0  0
   15.6820  -12.7390   20.3790 C   0  0  0  0  0
   15.2270  -13.7840   19.9280 O   0  0  0  0  0
   14.8940  -11.6530   20.6710 N   0  0  0  0  0
   13.4600  -11.7790   20.4810 C   0  0  0  0  0
   12.7470  -10.6020   21.1150 C   0  0  0  0  0
   12.8600  -10.7240   22.6160 C   0  0  0  0  0
   12.0620  -11.8660   23.1110 N   0  0  0  0  0
   11.1950  -11.7100   24.0880 C   0  0  0  0  0
   11.0320  -10.5560   24.6390 N   0  0  0  0  0
   10.5070  -12.7250   24.5240 N   0  0  0  0  0
   23.0615  -13.9943   25.5345 H   0  0  0  0  0
   23.0182  -16.4077   24.9241 H   0  0  0  0  0
   20.9474  -17.7622   25.3728 H   0  0  0  0  0
   19.0091  -14.2856   27.0105 H   0  0  0  0  0
   21.0422  -12.9460   26.5795 H   0  0  0  0  0
   17.8524  -16.3385   27.0675 H   0  0  0  0  0
   18.8091  -17.8113   27.0690 H   0  0  0  0  0
   17.2519  -15.1069   24.7523 H   0  0  0  0  0
   17.7762  -16.4086   22.1504 H   0  0  0  0  0
   18.7698  -15.2691   20.0378 H   0  0  0  0  0
   20.4825  -13.6514   21.9092 H   0  0  0  0  0
   20.8826  -15.1902   21.0509 H   0  0  0  0  0
   20.0261  -16.4148   22.6837 H   0  0  0  0  0
   19.8888  -14.8714   23.6557 H   0  0  0  0  0
   17.3856  -12.8731   18.4771 H   0  0  0  0  0
   17.9316  -11.3159   18.9956 H   0  0  0  0  0
   17.3350  -11.7065   21.2643 H   0  0  0  0  0
   15.3040  -10.7833   21.0114 H   0  0  0  0  0
   13.1161  -12.7010   20.9497 H   0  0  0  0  0
   13.2403  -11.7983   19.4135 H   0  0  0  0  0
   11.6976  -10.6003   20.8201 H   0  0  0  0  0
   13.2019   -9.6689   20.7826 H   0  0  0  0  0
   12.4843   -9.8083   23.0725 H   0  0  0  0  0
   13.9056  -10.8858   22.8779 H   0  0  0  0  0
   12.1853  -12.7866   22.6895 H   0  0  0  0  0
   11.5772   -9.7560   24.3179 H   0  0  0  0  0
    9.8482  -12.6021   25.2930 H   0  0  0  0  0
   10.6265  -13.6435   24.0968 H   0  0  0  0  0
  1  6  4  0  0  0
  1  2  4  0  0  0
  2  3  4  0  0  0
  3  4  4  0  0  0
  4  7  1  0  0  0
  4  5  4  0  0  0
  5  6  4  0  0  0
  7  8  1  0  0  0
  8 11  1  0  0  0
  8 10  2  0  0  0
  8  9  2  0  0  0
 11 12  1  0  0  0
 12 18  1  0  0  0
 12 13  1  0  0  0
 13 15  1  0  0  0
 13 14  2  0  0  0
 15 21  1  0  0  0
 15 16  1  0  0  0
 16 19  1  0  0  0
 16 17  1  0  0  0
 17 18  1  0  0  0
 19 20  1  0  0  0
 20 21  1  0  0  0
 21 22  1  0  0  0
 22 24  1  0  0  0
 22 23  2  0  0  0
 24 25  1  0  0  0
 25 26  1  0  0  0
 26 27  1  0  0  0
 27 28  1  0  0  0
 28 29  1  0  0  0
 29 31  1  0  0  0
 29 30  2  0  0  0
  1 32  1  0  0  0
  2 33  1  0  0  0
  3 34  1  0  0  0
  5 35  1  0  0  0
  6 36  1  0  0  0
  7 37  1  0  0  0
  7 38  1  0  0  0
 11 39  1  0  0  0
 12 40  1  0  0  0
 16 41  1  0  0  0
 17 42  1  0  0  0
 17 43  1  0  0  0
 18 44  1  0  0  0
 18 45  1  0  0  0
 20 46  1  0  0  0
 20 47  1  0  0  0
 21 48  1  0  0  0
 24 49  1  0  0  0
 25 50  1  0  0  0
 25 51  1  0  0  0
 26 52  1  0  0  0
 26 53  1  0  0  0
 27 54  1  0  0  0
 27 55  1  0  0  0
 28 56  1  0  0  0
 30 57  1  0  0  0
 31 58  1  0  0  0
 31 59  1  0  0  0
M  END
$$$$
