4r4c_ligand
  -I-interpret- 

 59 63  0  0  0  0  0  0  0  0999 V2000
    4.4690    9.3950   22.7120 C   0  0  0  0  0
    3.9000   11.1190   24.2780 C   0  0  0  0  0
    7.0910   13.3490   24.9900 C   0  0  0  0  0
    9.4650   13.5730   25.3010 C   0  0  0  0  0
   12.3030   10.9670   24.2680 C   0  0  0  0  0
   13.4310   11.2630   23.3200 C   0  0  0  0  0
   15.5840   10.6890   22.4100 C   0  0  0  0  0
   16.5910   12.1280   20.6110 C   0  0  0  0  0
   18.4450   12.2060   19.3390 C   0  0  0  0  0
    3.6680   17.7180   24.7280 O   0  0  0  0  0
    3.2420   16.6410   24.2390 C   0  0  0  0  0
    4.0960   15.4260   24.2680 C   0  0  0  0  0
    3.7630   14.2380   23.7870 N   0  0  0  0  0
    4.7420   13.3790   23.9730 N   0  0  0  0  0
    4.6570   12.0200   23.5460 C   0  0  0  0  0
    5.3160   11.6140   22.3940 C   0  0  0  0  0
    5.2250   10.2990   21.9770 C   0  0  0  0  0
    6.0510    9.8050   20.5370 Cl  0  0  0  0  0
    4.3380    7.7470   22.2090 Cl  0  0  0  0  0
    3.8080    9.8030   23.8610 C   0  0  0  0  0
    5.7750   13.9620   24.5820 C   0  0  0  0  0
    8.2450   14.1150   24.9160 C   0  0  0  0  0
    9.5290   12.2650   25.7670 C   0  0  0  0  0
   10.8610   11.6960   26.1850 C   0  0  0  0  0
   11.9570   11.9390   25.2730 N   0  0  0  0  0
   14.5380   10.4280   23.2850 C   0  0  0  0  0
   15.5080   11.7920   21.5730 C   0  0  0  0  0
   17.7830   11.4390   20.3590 C   0  0  0  0  0
   17.5840   13.2790   19.0780 C   0  0  0  0  0
   17.7620   14.3910   18.1070 C   0  0  0  0  0
   18.7560   14.4200   17.3310 O   0  0  0  0  0
   16.8860   15.2920   18.0840 O   0  0  0  0  0
   16.5330   13.1800   19.8390 O   0  0  0  0  0
   14.4050   12.6260   21.6020 C   0  0  0  0  0
   13.3600   12.3700   22.4720 C   0  0  0  0  0
   12.0030   13.4510   22.4660 Cl  0  0  0  0  0
   11.6700    9.9240   24.1820 O   0  0  0  0  0
    8.3770   11.4970   25.8460 C   0  0  0  0  0
    7.1550   12.0420   25.4650 C   0  0  0  0  0
    5.4060   15.3170   24.8100 C   0  0  0  0  0
    2.1010   16.5800   23.7150 O   0  0  0  0  0
    3.3794   11.4457   25.1782 H   0  0  0  0  0
   10.3723   14.1737   25.2376 H   0  0  0  0  0
   16.4550   10.0343   22.3813 H   0  0  0  0  0
   19.4071   11.9977   18.8710 H   0  0  0  0  0
    4.5499   17.5808   25.0817 H   0  0  0  0  0
    5.9037   12.3300   21.8195 H   0  0  0  0  0
    3.2173    9.0884   24.4342 H   0  0  0  0  0
    8.1947   15.1425   24.5557 H   0  0  0  0  0
   10.7339   10.6146   26.2357 H   0  0  0  0  0
   11.1252   12.1829   27.1238 H   0  0  0  0  0
   12.4895   12.8062   25.3422 H   0  0  0  0  0
   14.5870    9.5635   23.9470 H   0  0  0  0  0
   18.1328   10.5216   20.8325 H   0  0  0  0  0
   19.3108   13.6539   17.4947 H   0  0  0  0  0
   14.3588   13.4883   20.9369 H   0  0  0  0  0
    8.4288   10.4693   26.2056 H   0  0  0  0  0
    6.2462   11.4447   25.5385 H   0  0  0  0  0
    5.9955   16.0968   25.2922 H   0  0  0  0  0
 17  1  4  0  0  0
  1 19  1  0  0  0
 20  1  4  0  0  0
 15  2  4  0  0  0
  2 20  4  0  0  0
  3 21  1  0  0  0
 22  3  4  0  0  0
  3 39  4  0  0  0
  4 22  4  0  0  0
 23  4  4  0  0  0
  5  6  1  0  0  0
 25  5  1  0  0  0
  5 37  2  0  0  0
  6 26  4  0  0  0
  6 35  4  0  0  0
 26  7  4  0  0  0
  7 27  4  0  0  0
 27  8  1  0  0  0
  8 28  4  0  0  0
  8 33  4  0  0  0
 28  9  4  0  0  0
  9 29  4  0  0  0
 11 10  1  0  0  0
 12 11  1  0  0  0
 11 41  2  0  0  0
 12 13  4  0  0  0
 40 12  4  0  0  0
 14 13  4  0  0  0
 14 15  1  0  0  0
 21 14  4  0  0  0
 15 16  4  0  0  0
 16 17  4  0  0  0
 17 18  1  0  0  0
 21 40  4  0  0  0
 24 23  1  0  0  0
 23 38  4  0  0  0
 24 25  1  0  0  0
 27 34  4  0  0  0
 29 30  1  0  0  0
 29 33  4  0  0  0
 30 31  1  0  0  0
 30 32  2  0  0  0
 34 35  4  0  0  0
 35 36  1  0  0  0
 38 39  4  0  0  0
  2 42  1  0  0  0
  4 43  1  0  0  0
  7 44  1  0  0  0
  9 45  1  0  0  0
 10 46  1  0  0  0
 16 47  1  0  0  0
 20 48  1  0  0  0
 22 49  1  0  0  0
 24 50  1  0  0  0
 24 51  1  0  0  0
 25 52  1  0  0  0
 26 53  1  0  0  0
 28 54  1  0  0  0
 31 55  1  0  0  0
 34 56  1  0  0  0
 38 57  1  0  0  0
 39 58  1  0  0  0
 40 59  1  0  0  0
M  END
$$$$
