2ha6_ligand
  -I-interpret- 

 50 49  0  0  0  0  0  0  0  0999 V2000
   29.8800   22.7060   11.9510 O   0  0  0  0  0
   29.0470   21.7970   11.9270 C   0  0  0  0  0
   28.4480   21.3820   13.1960 O   0  0  0  0  0
   27.1210   20.8690   13.3510 C   0  0  0  0  0
   27.1330   19.3310   13.2960 C   0  0  0  0  0
   26.6560   18.7150   14.5420 N   0  3  0  0  0
   26.7300   17.2370   14.4320 C   0  0  0  0  0
   27.5340   19.1400   15.6510 C   0  0  0  0  0
   25.2510   19.1210   14.7480 C   0  0  0  0  0
   28.6840   21.1190   10.6200 C   0  0  0  0  0
   29.4930   21.6940    9.4390 C   0  0  0  0  0
   30.9080   21.1880    9.5120 C   0  0  0  0  0
   31.0890   20.0260    9.8600 O   0  0  0  0  0
   32.0310   22.0710    9.2110 O   0  0  0  0  0
   33.3940   21.6170    9.3760 C   0  0  0  0  0
   34.4310   22.4140    8.5670 C   0  0  0  0  0
   35.2390   23.3440    9.3830 N   0  3  0  0  0
   34.3670   24.4050    9.8950 C   0  0  0  0  0
   35.8800   22.6350   10.4990 C   0  0  0  0  0
   36.2890   23.9380    8.5470 C   0  0  0  0  0
   26.4959   21.2491   12.5430 H   0  0  0  0  0
   26.7269   21.1875   14.3161 H   0  0  0  0  0
   28.1624   19.0099   13.1367 H   0  0  0  0  0
   26.4659   19.0197   12.4921 H   0  0  0  0  0
   27.7592   16.9400   14.2305 H   0  0  0  0  0
   26.3972   16.7872   15.3674 H   0  0  0  0  0
   26.0878   16.9020   13.6175 H   0  0  0  0  0
   27.1958   18.6774   16.5782 H   0  0  0  0  0
   28.5578   18.8303   15.4413 H   0  0  0  0  0
   27.4941   20.2249   15.7490 H   0  0  0  0  0
   24.6500   18.7875   13.9020 H   0  0  0  0  0
   24.8738   18.6675   15.6646 H   0  0  0  0  0
   25.1960   20.2066   14.8289 H   0  0  0  0  0
   27.6246   21.2879   10.4267 H   0  0  0  0  0
   28.9108   20.0565   10.7083 H   0  0  0  0  0
   29.4918   22.7827    9.4917 H   0  0  0  0  0
   29.0407   21.3781    8.4989 H   0  0  0  0  0
   33.4336   20.5873    9.0206 H   0  0  0  0  0
   33.6468   21.7396   10.4292 H   0  0  0  0  0
   33.8841   23.0126    7.8385 H   0  0  0  0  0
   35.1169   21.6943    8.1202 H   0  0  0  0  0
   33.9194   24.9411    9.0581 H   0  0  0  0  0
   33.5809   23.9635   10.5075 H   0  0  0  0  0
   34.9545   25.0967   10.4988 H   0  0  0  0  0
   35.1135   22.1864   11.1310 H   0  0  0  0  0
   36.5311   21.8543   10.1057 H   0  0  0  0  0
   36.4692   23.3402   11.0853 H   0  0  0  0  0
   36.9284   23.1480    8.1531 H   0  0  0  0  0
   35.8301   24.4814    7.7210 H   0  0  0  0  0
   36.8855   24.6242    9.1482 H   0  0  0  0  0
  1  2  2  0  0  0
  2  3  1  0  0  0
  2 10  1  0  0  0
  3  4  1  0  0  0
  4  5  1  0  0  0
  5  6  1  0  0  0
  6  7  1  0  0  0
  6  8  1  0  0  0
  6  9  1  0  0  0
 10 11  1  0  0  0
 11 12  1  0  0  0
 12 13  2  0  0  0
 12 14  1  0  0  0
 14 15  1  0  0  0
 15 16  1  0  0  0
 16 17  1  0  0  0
 17 18  1  0  0  0
 17 19  1  0  0  0
 17 20  1  0  0  0
  4 21  1  0  0  0
  4 22  1  0  0  0
  5 23  1  0  0  0
  5 24  1  0  0  0
  7 25  1  0  0  0
  7 26  1  0  0  0
  7 27  1  0  0  0
  8 28  1  0  0  0
  8 29  1  0  0  0
  8 30  1  0  0  0
  9 31  1  0  0  0
  9 32  1  0  0  0
  9 33  1  0  0  0
 10 34  1  0  0  0
 10 35  1  0  0  0
 11 36  1  0  0  0
 11 37  1  0  0  0
 15 38  1  0  0  0
 15 39  1  0  0  0
 16 40  1  0  0  0
 16 41  1  0  0  0
 18 42  1  0  0  0
 18 43  1  0  0  0
 18 44  1  0  0  0
 19 45  1  0  0  0
 19 46  1  0  0  0
 19 47  1  0  0  0
 20 48  1  0  0  0
 20 49  1  0  0  0
 20 50  1  0  0  0
M  END
$$$$
