6h5x_ligand
  -I-interpret- 

 51 53  0  0  0  0  0  0  0  0999 V2000
  -54.0320   96.4740   22.5470 C   0  0  0  0  0
  -51.4480   95.4850   20.3170 C   0  0  0  0  0
  -51.8110   94.1280   25.9270 C   0  0  0  0  0
  -51.1840   93.4040   27.0930 C   0  0  0  0  0
  -50.8400   91.9740   26.6970 C   0  0  0  0  0
  -49.8040   91.3180   27.6140 C   0  0  0  0  0
  -48.5070   91.8050   27.6900 C   0  0  0  0  0
  -47.5880   91.1870   28.5270 C   0  0  0  0  0
  -47.9620   90.0850   29.2760 C   0  0  0  0  0
  -49.2570   89.5980   29.1930 C   0  0  0  0  0
  -50.1760   90.2140   28.3600 C   0  0  0  0  0
  -51.7880   95.4210   23.2410 C   0  0  0  0  0
  -51.9490   96.1700   24.5570 C   0  0  0  0  0
  -51.4150   97.6020   24.5460 C   0  0  0  0  0
  -51.7950   98.3830   23.2910 C   0  0  0  0  0
  -55.1340   96.4340   21.4840 C   0  0  0  0  0
  -54.6040   96.2380   20.1300 C   0  0  0  0  0
  -53.8660   94.9690   19.9880 C   0  0  0  0  0
  -52.6800   94.8820   20.9460 C   0  0  0  0  0
  -52.8310   95.5870   22.2650 N   0  0  0  0  0
  -51.3130   95.4400   25.6430 N   0  0  0  0  0
  -51.1200   96.6860   20.5510 O   0  0  0  0  0
  -50.7220   94.7840   19.5640 O   0  0  0  0  0
  -50.8690   94.7230   23.0010 O   0  0  0  0  0
  -52.7030   93.6460   25.3140 O   0  0  0  0  0
  -53.5480   98.2350   22.8280 S   0  0  0  0  0
  -52.5140   93.5480   28.3230 S   0  0  0  0  0
  -54.4488   96.0444   23.4579 H   0  0  0  0  0
  -50.2349   93.7951   27.4595 H   0  0  0  0  0
  -50.4158   92.0053   25.6934 H   0  0  0  0  0
  -51.7556   91.3864   26.7644 H   0  0  0  0  0
  -48.2110   92.6690   27.0951 H   0  0  0  0  0
  -46.5699   91.5704   28.5944 H   0  0  0  0  0
  -47.2382   89.6001   29.9311 H   0  0  0  0  0
  -49.5520   88.7304   29.7832 H   0  0  0  0  0
  -51.1933   89.8286   28.2921 H   0  0  0  0  0
  -53.0263   96.2384   24.7079 H   0  0  0  0  0
  -50.3270   97.5465   24.5808 H   0  0  0  0  0
  -51.8508   98.1210   25.3997 H   0  0  0  0  0
  -51.2081   97.9762   22.4675 H   0  0  0  0  0
  -51.6029   99.4362   23.4956 H   0  0  0  0  0
  -55.6556   97.3909   21.5051 H   0  0  0  0  0
  -55.7904   95.5943   21.7124 H   0  0  0  0  0
  -53.9123   97.0536   19.9192 H   0  0  0  0  0
  -55.4473   96.2146   19.4398 H   0  0  0  0  0
  -53.4840   94.9107   18.9688 H   0  0  0  0  0
  -54.5491   94.1515   20.2185 H   0  0  0  0  0
  -52.6098   93.8115   21.1388 H   0  0  0  0  0
  -50.5456   95.8453   26.1788 H   0  0  0  0  0
  -51.7674   97.0850   21.1369 H   0  0  0  0  0
  -52.7293   94.8325   28.5926 H   0  0  0  0  0
 16  1  1  0  0  0
  1 20  1  0  0  0
  1 26  1  0  0  0
 19  2  1  0  0  0
  2 22  1  0  0  0
  2 23  2  0  0  0
  3  4  1  0  0  0
 21  3  1  0  0  0
  3 25  2  0  0  0
  4  5  1  0  0  0
  4 27  1  0  0  0
  5  6  1  0  0  0
  6  7  4  0  0  0
  6 11  4  0  0  0
  7  8  4  0  0  0
  8  9  4  0  0  0
 10  9  4  0  0  0
 11 10  4  0  0  0
 12 13  1  0  0  0
 20 12  1  0  0  0
 12 24  2  0  0  0
 14 13  1  0  0  0
 13 21  1  0  0  0
 15 14  1  0  0  0
 26 15  1  0  0  0
 17 16  1  0  0  0
 18 17  1  0  0  0
 18 19  1  0  0  0
 19 20  1  0  0  0
  1 28  1  0  0  0
  4 29  1  0  0  0
  5 30  1  0  0  0
  5 31  1  0  0  0
  7 32  1  0  0  0
  8 33  1  0  0  0
  9 34  1  0  0  0
 10 35  1  0  0  0
 11 36  1  0  0  0
 13 37  1  0  0  0
 14 38  1  0  0  0
 14 39  1  0  0  0
 15 40  1  0  0  0
 15 41  1  0  0  0
 16 42  1  0  0  0
 16 43  1  0  0  0
 17 44  1  0  0  0
 17 45  1  0  0  0
 18 46  1  0  0  0
 18 47  1  0  0  0
 19 48  1  0  0  0
 21 49  1  0  0  0
 22 50  1  0  0  0
 27 51  1  0  0  0
M  END
$$$$
