6mjw_ligand
  -I-interpret- 

 41 44  0  0  0  0  0  0  0  0999 V2000
   37.8040   13.7910   11.4750 C   0  0  0  0  0
   33.4160   10.1500   10.8030 C   0  0  0  0  0
   32.4160    9.7920   11.6630 C   0  0  0  0  0
   33.1830   11.1220    9.8510 C   0  0  0  0  0
   36.4020   17.6110   10.3250 O   0  0  0  0  0
   37.1300   16.4280   10.1250 C   0  0  0  0  0
   36.2110   15.2010   10.0990 C   0  0  0  0  0
   35.1870   15.2410    9.5290 O   0  0  0  0  0
   36.5720   13.9670   10.7650 N   0  0  0  0  0
   35.6770   12.7860   10.7330 C   0  0  0  0  0
   36.4260   11.4200   10.8660 C   0  0  0  0  0
   35.9960   10.0490   10.9450 C   0  0  0  0  0
   37.1250    9.2930   11.0620 C   0  0  0  0  0
   38.1900   10.1340   11.0630 N   0  0  0  0  0
   37.7640   11.4080   10.9340 C   0  0  0  0  0
   38.5720   12.6640   10.8970 C   0  0  0  0  0
   37.0120    7.8950   11.1590 C   0  0  0  0  0
   38.3780    6.7830   11.2900 Cl  0  0  0  0  0
   35.7850    7.2980   11.1450 C   0  0  0  0  0
   35.6990    5.5340   11.2570 Cl  0  0  0  0  0
   34.6320    8.0480   11.0260 C   0  0  0  0  0
   34.7350    9.4130   10.9220 C   0  0  0  0  0
   31.2480   10.3740   11.6230 N   0  0  0  0  0
   30.9820   11.3060   10.7450 C   0  0  0  0  0
   29.6590   11.9060   10.7630 N   0  0  0  0  0
   31.9350   11.7130    9.8310 C   0  0  0  0  0
   37.5851   13.5741   12.5205 H   0  0  0  0  0
   38.3950   14.7033   11.3949 H   0  0  0  0  0
   32.5970    9.0059   12.3960 H   0  0  0  0  0
   33.9566   11.4128    9.1403 H   0  0  0  0  0
   37.0046   18.3582   10.3362 H   0  0  0  0  0
   37.8360   16.3135   10.9476 H   0  0  0  0  0
   37.6428   16.4959    9.1656 H   0  0  0  0  0
   35.1734   12.7869    9.7663 H   0  0  0  0  0
   35.0003   12.8689   11.5834 H   0  0  0  0  0
   39.4809   12.5181   11.4807 H   0  0  0  0  0
   38.8178   12.8970    9.8609 H   0  0  0  0  0
   33.6554    7.5640   11.0148 H   0  0  0  0  0
   28.9685   11.5978   11.4476 H   0  0  0  0  0
   29.4206   12.6355   10.0911 H   0  0  0  0  0
   31.7046   12.4910    9.1031 H   0  0  0  0  0
  9  1  1  0  0  0
  1 16  1  0  0  0
  2  3  4  0  0  0
  2  4  4  0  0  0
 22  2  1  0  0  0
  3 23  4  0  0  0
  4 26  4  0  0  0
  6  5  1  0  0  0
  7  6  1  0  0  0
  7  8  2  0  0  0
  9  7  1  0  0  0
 10  9  1  0  0  0
 11 10  1  0  0  0
 12 11  4  0  0  0
 11 15  4  0  0  0
 12 13  4  0  0  0
 12 22  4  0  0  0
 13 14  4  0  0  0
 13 17  4  0  0  0
 14 15  4  0  0  0
 15 16  1  0  0  0
 17 18  1  0  0  0
 17 19  4  0  0  0
 19 20  1  0  0  0
 19 21  4  0  0  0
 21 22  4  0  0  0
 23 24  4  0  0  0
 24 25  1  0  0  0
 24 26  4  0  0  0
  1 27  1  0  0  0
  1 28  1  0  0  0
  3 29  1  0  0  0
  4 30  1  0  0  0
  5 31  1  0  0  0
  6 32  1  0  0  0
  6 33  1  0  0  0
 10 34  1  0  0  0
 10 35  1  0  0  0
 16 36  1  0  0  0
 16 37  1  0  0  0
 21 38  1  0  0  0
 25 39  1  0  0  0
 25 40  1  0  0  0
 26 41  1  0  0  0
M  END
$$$$
