2y68_ligand
  -I-interpret- 

 51 53  0  0  0  0  0  0  0  0999 V2000
   27.4390    0.4830   47.2550 O   0  0  0  0  0
   27.5810    1.3050   46.3040 C   0  0  0  0  0
   28.3870    1.2190   45.3770 O   0  0  0  0  0
   26.6450    2.4370   46.1720 C   0  0  0  0  0
   25.9700    2.7970   47.2260 C   0  0  0  0  0
   25.3620    5.2240   46.6410 C   0  0  0  0  0
   25.5620    5.5180   45.4200 O   0  0  0  0  0
   25.4980    6.0320   47.5570 O   0  0  0  0  0
   23.8710    3.6220   47.6500 N   0  0  0  0  0
   22.8030    4.4020   47.7330 C   0  0  0  0  0
   22.5100    5.2200   46.8780 O   0  0  0  0  0
   21.9340    4.1000   48.9240 C   0  0  0  0  0
   21.6210    2.7490   49.1150 C   0  0  0  0  0
   21.4720    5.0620   49.8350 C   0  0  0  0  0
   20.6950    4.6680   50.9160 C   0  0  0  0  0
   20.3720    3.3310   51.1060 C   0  0  0  0  0
   20.8290    2.3750   50.2100 C   0  0  0  0  0
   20.5060    0.9640   50.4760 C   0  0  0  0  0
   19.1690    0.5770   50.5740 N   0  0  0  0  0
   18.5450    0.1670   49.4100 C   0  0  0  0  0
   19.1190    0.4500   48.1690 C   0  0  0  0  0
   18.4670    0.0400   47.0080 C   0  0  0  0  0
   17.3350   -0.5030   49.5070 C   0  0  0  0  0
   16.6860   -0.9210   48.3600 C   0  0  0  0  0
   17.2660   -0.6720   47.1160 C   0  0  0  0  0
   16.6120   -0.9870   45.8400 C   0  0  0  0  0
   15.1550   -1.1180   45.6180 C   0  0  0  0  0
   13.9460   -1.0220   46.8700 S   0  0  0  0  0
   12.7710   -1.2870   45.6280 C   0  0  0  0  0
   11.0800   -1.3960   46.0230 S   0  0  0  0  0
   13.1920   -1.4390   44.3610 N   0  0  0  0  0
   14.5460   -1.3430   44.3860 C   0  0  0  0  0
   21.7460    6.3860   49.7190 F   0  0  0  0  0
   15.2150   -1.4260   43.2820 O   0  0  0  0  0
   24.9920    3.8940   47.1200 C   0  0  0  0  0
   26.7415    0.7889   47.8394 H   0  0  0  0  0
   26.5219    2.9563   45.2216 H   0  0  0  0  0
   26.1272    2.2910   48.1786 H   0  0  0  0  0
   25.3997    4.7445   44.8750 H   0  0  0  0  0
   21.9894    1.9951   48.4193 H   0  0  0  0  0
   20.3349    5.4157   51.6226 H   0  0  0  0  0
   19.7604    3.0329   51.9576 H   0  0  0  0  0
   20.9272    0.7627   51.4610 H   0  0  0  0  0
   20.8901    0.4226   49.6115 H   0  0  0  0  0
   18.6735    0.5957   51.4654 H   0  0  0  0  0
   20.0664    0.9856   48.1092 H   0  0  0  0  0
   18.8862    0.2704   46.0286 H   0  0  0  0  0
   16.8964   -0.6997   50.4853 H   0  0  0  0  0
   15.7300   -1.4403   48.4271 H   0  0  0  0  0
   17.2595   -1.1384   44.9764 H   0  0  0  0  0
   12.6077   -1.5960   43.5398 H   0  0  0  0  0
  2  1  1  0  0  0
  2  3  2  0  0  0
  4  2  1  0  0  0
  5  4  2  0  0  0
 35  5  1  0  0  0
  6  7  1  0  0  0
  6  8  2  0  0  0
 35  6  1  0  0  0
  9 10  1  0  0  0
  9 35  2  0  0  0
 10 11  2  0  0  0
 10 12  1  0  0  0
 12 13  4  0  0  0
 12 14  4  0  0  0
 13 17  4  0  0  0
 14 15  4  0  0  0
 14 33  1  0  0  0
 15 16  4  0  0  0
 16 17  4  0  0  0
 17 18  1  0  0  0
 18 19  1  0  0  0
 19 20  1  0  0  0
 20 21  4  0  0  0
 20 23  4  0  0  0
 21 22  4  0  0  0
 22 25  4  0  0  0
 23 24  4  0  0  0
 24 25  4  0  0  0
 25 26  1  0  0  0
 26 27  2  0  0  0
 27 28  1  0  0  0
 27 32  1  0  0  0
 28 29  1  0  0  0
 29 30  2  0  0  0
 29 31  1  0  0  0
 31 32  1  0  0  0
 32 34  2  0  0  0
  1 36  1  0  0  0
  4 37  1  0  0  0
  5 38  1  0  0  0
  7 39  1  0  0  0
 13 40  1  0  0  0
 15 41  1  0  0  0
 16 42  1  0  0  0
 18 43  1  0  0  0
 18 44  1  0  0  0
 19 45  1  0  0  0
 21 46  1  0  0  0
 22 47  1  0  0  0
 23 48  1  0  0  0
 24 49  1  0  0  0
 26 50  1  0  0  0
 31 51  1  0  0  0
M  END
$$$$
