7gch_ligand
  -I-interpret- 

 51 51  0  0  0  0  0  0  0  0999 V2000
   34.9640   76.3580   85.4680 C   0  0  0  0  0
   35.0840   74.8140   85.4240 F   0  0  0  0  0
   34.4980   76.8280   83.9880 F   0  0  0  0  0
   33.7480   76.8190   86.3780 F   0  0  0  0  0
   36.1510   77.0760   86.0450 C   0  0  0  0  0
   35.8950   78.5660   86.0070 O   0  0  0  0  0
   36.1890   76.7310   87.4500 C   0  0  0  0  0
   37.2740   77.6330   88.1070 C   0  0  0  0  0
   37.7160   77.5960   89.5630 C   0  0  0  0  0
   36.9550   77.1780   90.5620 C   0  0  0  0  0
   37.3930   77.2180   91.8660 C   0  0  0  0  0
   38.6340   77.6800   92.1230 C   0  0  0  0  0
   39.4260   78.1040   91.1030 C   0  0  0  0  0
   38.9260   78.0580   89.8530 C   0  0  0  0  0
   36.6690   75.3320   87.5100 N   0  0  0  0  0
   35.9430   74.2590   88.0850 C   0  0  0  0  0
   34.8830   74.4890   88.6240 O   0  0  0  0  0
   36.8270   73.0220   87.9090 C   0  0  0  0  0
   36.9780   72.3140   89.1660 N   0  0  0  0  0
   37.0850   72.9250   90.2730 C   0  0  0  0  0
   37.9670   74.0270   90.6440 O   0  0  0  0  0
   36.3980   72.5650   91.2850 C   0  0  0  0  0
   36.5740   72.0190   86.7960 C   0  0  0  0  0
   37.6070   70.8850   86.5800 C   0  0  0  0  0
   38.0190   70.1860   87.9080 C   0  0  0  0  0
   38.9330   71.4000   85.9270 C   0  0  0  0  0
   37.0576   76.8146   85.4993 H   0  0  0  0  0
   35.8583   78.8601   85.0939 H   0  0  0  0  0
   35.2245   76.8543   87.9425 H   0  0  0  0  0
   36.8142   78.6190   88.0393 H   0  0  0  0  0
   38.1771   77.3052   87.5921 H   0  0  0  0  0
   35.9582   76.7931   90.3469 H   0  0  0  0  0
   36.7478   76.8819   92.6777 H   0  0  0  0  0
   39.0016   77.7133   93.1486 H   0  0  0  0  0
   40.4353   78.4702   91.2908 H   0  0  0  0  0
   39.5491   78.4199   89.0351 H   0  0  0  0  0
   37.5846   75.1261   87.1103 H   0  0  0  0  0
   37.7373   73.5056   87.5547 H   0  0  0  0  0
   36.9988   71.2942   89.1599 H   0  0  0  0  0
   37.0684   72.2399   92.0806 H   0  0  0  0  0
   35.7991   73.4063   91.6338 H   0  0  0  0  0
   35.7413   71.7421   91.0026 H   0  0  0  0  0
   36.5920   72.6021   85.8753 H   0  0  0  0  0
   35.6477   71.5143   87.0703 H   0  0  0  0  0
   37.0967   70.1834   85.9201 H   0  0  0  0  0
   38.4637   70.9196   88.5805 H   0  0  0  0  0
   37.1367   69.7497   88.3764 H   0  0  0  0  0
   38.7441   69.4008   87.6940 H   0  0  0  0  0
   38.7104   71.8421   84.9559 H   0  0  0  0  0
   39.3874   72.1506   86.5738 H   0  0  0  0  0
   39.6214   70.5647   85.7982 H   0  0  0  0  0
  1  2  1  0  0  0
  1  3  1  0  0  0
  1  4  1  0  0  0
  1  5  1  0  0  0
  5  6  1  0  0  0
  5  7  1  0  0  0
  7  8  1  0  0  0
  7 15  1  0  0  0
  8  9  1  0  0  0
  9 10  4  0  0  0
  9 14  4  0  0  0
 10 11  4  0  0  0
 11 12  4  0  0  0
 12 13  4  0  0  0
 13 14  4  0  0  0
 15 16  1  0  0  0
 16 17  2  0  0  0
 16 18  1  0  0  0
 18 19  1  0  0  0
 18 23  1  0  0  0
 19 20  1  0  0  0
 20 21  2  0  0  0
 20 22  1  0  0  0
 23 24  1  0  0  0
 24 25  1  0  0  0
 24 26  1  0  0  0
  5 27  1  0  0  0
  6 28  1  0  0  0
  7 29  1  0  0  0
  8 30  1  0  0  0
  8 31  1  0  0  0
 10 32  1  0  0  0
 11 33  1  0  0  0
 12 34  1  0  0  0
 13 35  1  0  0  0
 14 36  1  0  0  0
 15 37  1  0  0  0
 18 38  1  0  0  0
 19 39  1  0  0  0
 22 40  1  0  0  0
 22 41  1  0  0  0
 22 42  1  0  0  0
 23 43  1  0  0  0
 23 44  1  0  0  0
 24 45  1  0  0  0
 25 46  1  0  0  0
 25 47  1  0  0  0
 25 48  1  0  0  0
 26 49  1  0  0  0
 26 50  1  0  0  0
 26 51  1  0  0  0
M  END
$$$$
