2cfg_ligand
  -I-interpret- 

 94104  0  0  0  0  0  0  0  0999 V2000
   24.5790   -1.6960    8.2970 C   0  0  0  0  0
   23.1910   -1.2380    8.2160 N   0  0  0  0  0
   22.2030   -1.9070    9.0460 C   0  0  0  0  0
   22.8440   -0.1880    7.3450 C   0  0  0  0  0
   23.8480    0.3480    6.5610 C   0  0  0  0  0
   23.5880    1.3810    5.6750 C   0  0  0  0  0
   22.3090    1.9030    5.5510 C   0  0  0  0  0
   21.2910    1.3710    6.3210 C   0  0  0  0  0
   21.5520    0.3370    7.2250 C   0  0  0  0  0
   24.6060    1.8760    4.9250 O   0  0  0  0  0
   25.9210    1.8330    5.4800 C   0  0  0  0  0
   26.1320    3.0940    6.2870 C   0  0  0  0  0
   27.3640    3.7920    5.7690 C   0  0  0  0  0
   27.1560    4.1200    4.2990 C   0  0  0  0  0
   26.7600    5.5540    4.1140 C   0  0  0  0  0
   25.5330    5.9790    3.4020 C   0  0  0  0  0
   24.5370    5.1770    2.8100 C   0  0  0  0  0
   25.3950    7.4290    3.3500 C   0  0  0  0  0
   24.2500    8.0080    2.6890 C   0  0  0  0  0
   23.2380    7.1360    2.0830 C   0  0  0  0  0
   23.4140    5.7440    2.1650 C   0  0  0  0  0
   22.1720    7.7870    1.4760 C   0  0  0  0  0
   22.1390    9.1940    1.4810 C   0  0  0  0  0
   23.1440    9.9800    2.0790 C   0  0  0  0  0
   24.1910    9.3960    2.6870 N   0  0  0  0  0
   26.3090    8.3230    3.8980 N   0  0  0  0  0
   27.3960    7.8940    4.5240 C   0  0  0  0  0
   27.6160    6.5230    4.6260 C   0  0  0  0  0
   25.2070   12.2390    3.2380 N   0  0  0  0  0
   25.5540   12.9340    2.1470 C   0  0  0  0  0
   25.0880   14.2380    2.0060 C   0  0  0  0  0
   24.2720   14.8070    2.9880 C   0  0  0  0  0
   24.3940   12.7740    4.2380 C   0  0  0  0  0
   23.9170   14.0760    4.1200 C   0  0  0  0  0
   24.1230   11.8280    5.3710 C   0  0  0  0  0
   23.3050   12.1850    6.5490 C   0  0  0  0  0
   23.1790   11.2800    7.5080 C   0  0  0  0  0
   23.8350    9.9890    7.3150 C   0  0  0  0  0
   24.5280    9.7670    6.1910 C   0  0  0  0  0
   24.6520   10.6640    5.2900 N   0  0  0  0  0
   27.0570   10.1310    1.9830 N   0  0  0  0  0
   26.7290    9.6000    0.7970 C   0  0  0  0  0
   27.6830    9.5500   -0.2240 C   0  0  0  0  0
   28.9670   10.0510   -0.0130 C   0  0  0  0  0
   28.3370   10.6450    2.2240 C   0  0  0  0  0
   29.3070   10.6070    1.2220 C   0  0  0  0  0
   28.5260   11.2030    3.6080 C   0  0  0  0  0
   29.8060   11.7900    4.0710 C   0  0  0  0  0
   29.8660   12.2530    5.3100 C   0  0  0  0  0
   28.6580   12.1420    6.1170 C   0  0  0  0  0
   27.5580   11.5950    5.5880 C   0  0  0  0  0
   27.5170   11.1570    4.3920 N   0  0  0  0  0
   25.8040   10.3030    3.6120 Ru  0  0  0  0  0
   24.9015   -2.0490    7.3175 H   0  0  0  0  0
   25.2150   -0.8696    8.6143 H   0  0  0  0  0
   24.6504   -2.5092    9.0193 H   0  0  0  0  0
   21.7378   -1.1803    9.7120 H   0  0  0  0  0
   21.4416   -2.3583    8.4099 H   0  0  0  0  0
   22.6913   -2.6823    9.6364 H   0  0  0  0  0
   24.8603   -0.0481    6.6409 H   0  0  0  0  0
   22.1094    2.7198    4.8574 H   0  0  0  0  0
   20.2778    1.7606    6.2224 H   0  0  0  0  0
   20.7452   -0.0624    7.8396 H   0  0  0  0  0
   26.6627    1.7680    4.6839 H   0  0  0  0  0
   26.0309    0.9560    6.1179 H   0  0  0  0  0
   26.2603    2.8449    7.3404 H   0  0  0  0  0
   25.2651    3.7476    6.1899 H   0  0  0  0  0
   28.2330    3.1443    5.8847 H   0  0  0  0  0
   27.5348    4.7092    6.3327 H   0  0  0  0  0
   26.3588    3.4861    3.9106 H   0  0  0  0  0
   28.0920    3.9464    3.7681 H   0  0  0  0  0
   24.6349    4.0922    2.8504 H   0  0  0  0  0
   22.6670    5.0861    1.7208 H   0  0  0  0  0
   21.3727    7.2167    1.0027 H   0  0  0  0  0
   21.2996    9.6975    1.0015 H   0  0  0  0  0
   23.0721   11.0672    2.0484 H   0  0  0  0  0
   28.1054    8.6025    4.9516 H   0  0  0  0  0
   28.5168    6.1877    5.1401 H   0  0  0  0  0
   26.1899   12.4865    1.3832 H   0  0  0  0  0
   25.3609   14.8187    1.1249 H   0  0  0  0  0
   23.9113   15.8285    2.8676 H   0  0  0  0  0
   23.2830   14.5121    4.8920 H   0  0  0  0  0
   22.8222   13.1592    6.6260 H   0  0  0  0  0
   22.6054   11.4913    8.4104 H   0  0  0  0  0
   23.7611    9.2143    8.0782 H   0  0  0  0  0
   24.9987    8.7954    6.0409 H   0  0  0  0  0
   25.7252    9.2097    0.6294 H   0  0  0  0  0
   27.4217    9.1172   -1.1897 H   0  0  0  0  0
   29.7062   10.0086   -0.8130 H   0  0  0  0  0
   30.3073   11.0022    1.3991 H   0  0  0  0  0
   30.6721   11.8390    3.4110 H   0  0  0  0  0
   30.7782   12.6973    5.7084 H   0  0  0  0  0
   28.6507   12.5025    7.1456 H   0  0  0  0  0
   26.6617   11.5210    6.2039 H   0  0  0  0  0
  2  1  1  0  0  0
  2  3  1  0  0  0
  4  2  1  0  0  0
  5  4  4  0  0  0
  4  9  4  0  0  0
  6  5  4  0  0  0
  6  7  4  0  0  0
 10  6  1  0  0  0
  7  8  4  0  0  0
  8  9  4  0  0  0
 11 10  1  0  0  0
 12 11  1  0  0  0
 13 12  1  0  0  0
 14 13  1  0  0  0
 15 14  1  0  0  0
 16 15  4  0  0  0
 28 15  4  0  0  0
 16 17  4  0  0  0
 18 16  4  0  0  0
 17 21  4  0  0  0
 18 19  4  0  0  0
 26 18  4  0  0  0
 19 20  4  0  0  0
 25 19  4  0  0  0
 20 21  4  0  0  0
 20 22  4  0  0  0
 23 22  4  0  0  0
 24 23  4  0  0  0
 25 24  4  0  0  0
 26 27  4  0  0  0
 27 28  4  0  0  0
 29 30  4  0  0  0
 29 33  4  0  0  0
 30 31  4  0  0  0
 31 32  4  0  0  0
 34 32  4  0  0  0
 33 34  4  0  0  0
 35 33  1  0  0  0
 35 36  4  0  0  0
 40 35  4  0  0  0
 36 37  4  0  0  0
 38 37  4  0  0  0
 39 38  4  0  0  0
 40 39  4  0  0  0
 41 42  4  0  0  0
 41 45  4  0  0  0
 42 43  4  0  0  0
 43 44  4  0  0  0
 46 44  4  0  0  0
 45 46  4  0  0  0
 45 47  1  0  0  0
 47 48  4  0  0  0
 47 52  4  0  0  0
 48 49  4  0  0  0
 49 50  4  0  0  0
 51 50  4  0  0  0
 52 51  4  0  0  0
 53 25  1  0  0  0
 53 26  1  0  0  0
 53 29  1  0  0  0
 53 40  1  0  0  0
 53 41  1  0  0  0
 53 52  1  0  0  0
  1 54  1  0  0  0
  1 55  1  0  0  0
  1 56  1  0  0  0
  3 57  1  0  0  0
  3 58  1  0  0  0
  3 59  1  0  0  0
  5 60  1  0  0  0
  7 61  1  0  0  0
  8 62  1  0  0  0
  9 63  1  0  0  0
 11 64  1  0  0  0
 11 65  1  0  0  0
 12 66  1  0  0  0
 12 67  1  0  0  0
 13 68  1  0  0  0
 13 69  1  0  0  0
 14 70  1  0  0  0
 14 71  1  0  0  0
 17 72  1  0  0  0
 21 73  1  0  0  0
 22 74  1  0  0  0
 23 75  1  0  0  0
 24 76  1  0  0  0
 27 77  1  0  0  0
 28 78  1  0  0  0
 30 79  1  0  0  0
 31 80  1  0  0  0
 32 81  1  0  0  0
 34 82  1  0  0  0
 36 83  1  0  0  0
 37 84  1  0  0  0
 38 85  1  0  0  0
 39 86  1  0  0  0
 42 87  1  0  0  0
 43 88  1  0  0  0
 44 89  1  0  0  0
 46 90  1  0  0  0
 48 91  1  0  0  0
 49 92  1  0  0  0
 50 93  1  0  0  0
 51 94  1  0  0  0
M  END
$$$$
