### 
### Created by X-TOOL on Mon Sep 10 21:12:56 2018
### 

@<TRIPOS>MOLECULE
2cfg_ligand
   94   104     1     0     0
SMALL
GAST_HUCK


@<TRIPOS>ATOM
      1 CM2        24.5790   -1.6960    8.2970 C.3       1 R4A         0.0149
      2 NNG        23.1910   -1.2380    8.2160 N.pl3     1 R4A        -0.3171
      3 CM1        22.2030   -1.9070    9.0460 C.3       1 R4A         0.0149
      4 CNE        22.8440   -0.1880    7.3450 C.ar      1 R4A         0.0303
      5 CNF        23.8480    0.3480    6.5610 C.ar      1 R4A        -0.0169
      6 CNA        23.5880    1.3810    5.6750 C.ar      1 R4A         0.0794
      7 CNB        22.3090    1.9030    5.5510 C.ar      1 R4A        -0.0464
      8 CNC        21.2910    1.3710    6.3210 C.ar      1 R4A        -0.0821
      9 CND        21.5520    0.3370    7.2250 C.ar      1 R4A        -0.0554
     10 OL5        24.6060    1.8760    4.9250 O.3       1 R4A        -0.3214
     11 CL4        25.9210    1.8330    5.4800 C.3       1 R4A         0.0703
     12 CL3        26.1320    3.0940    6.2870 C.3       1 R4A        -0.0229
     13 CL2        27.3640    3.7920    5.7690 C.3       1 R4A        -0.0380
     14 CL1        27.1560    4.1200    4.2990 C.3       1 R4A        -0.0086
     15 CAL        26.7600    5.5540    4.1140 C.ar      1 R4A        -0.0115
     16 CAK        25.5330    5.9790    3.4020 C.ar      1 R4A         0.0167
     17 CAJ        24.5370    5.1770    2.8100 C.ar      1 R4A        -0.0444
     18 CAB        25.3950    7.4290    3.3500 C.ar      1 R4A         0.0646
     19 CAC        24.2500    8.0080    2.6890 C.ar      1 R4A         0.0694
     20 CAH        23.2380    7.1360    2.0830 C.ar      1 R4A         0.0099
     21 CAI        23.4140    5.7440    2.1650 C.ar      1 R4A        -0.0448
     22 CAG        22.1720    7.7870    1.4760 C.ar      1 R4A        -0.0339
     23 CAF        22.1390    9.1940    1.4810 C.ar      1 R4A        -0.0318
     24 CAE        23.1440    9.9800    2.0790 C.ar      1 R4A         0.0117
     25 NAD        24.1910    9.3960    2.6870 N.ar      1 R4A        -0.2906
     26 NAA        26.3090    8.3230    3.8980 N.ar      1 R4A        -0.3013
     27 CAN        27.3960    7.8940    4.5240 C.ar      1 R4A         0.0023
     28 CAM        27.6160    6.5230    4.6260 C.ar      1 R4A        -0.0302
     29 NCL        25.2070   12.2390    3.2380 N.ar      1 R4A        -0.2878
     30 CCK        25.5540   12.9340    2.1470 C.ar      1 R4A         0.0122
     31 CCJ        25.0880   14.2380    2.0060 C.ar      1 R4A        -0.0328
     32 CCI        24.2720   14.8070    2.9880 C.ar      1 R4A        -0.0403
     33 CCG        24.3940   12.7740    4.2380 C.ar      1 R4A         0.0702
     34 CCH        23.9170   14.0760    4.1200 C.ar      1 R4A        -0.0236
     35 CCF        24.1230   11.8280    5.3710 C.ar      1 R4A         0.0702
     36 CCE        23.3050   12.1850    6.5490 C.ar      1 R4A        -0.0236
     37 CCD        23.1790   11.2800    7.5080 C.ar      1 R4A        -0.0403
     38 CCC        23.8350    9.9890    7.3150 C.ar      1 R4A        -0.0328
     39 CCB        24.5280    9.7670    6.1910 C.ar      1 R4A         0.0122
     40 NCA        24.6520   10.6640    5.2900 N.ar      1 R4A        -0.2878
     41 NBL        27.0570   10.1310    1.9830 N.ar      1 R4A        -0.2878
     42 CBK        26.7290    9.6000    0.7970 C.ar      1 R4A         0.0122
     43 CBJ        27.6830    9.5500   -0.2240 C.ar      1 R4A        -0.0328
     44 CBI        28.9670   10.0510   -0.0130 C.ar      1 R4A        -0.0403
     45 CBG        28.3370   10.6450    2.2240 C.ar      1 R4A         0.0702
     46 CBH        29.3070   10.6070    1.2220 C.ar      1 R4A        -0.0236
     47 CBF        28.5260   11.2030    3.6080 C.ar      1 R4A         0.0702
     48 CBE        29.8060   11.7900    4.0710 C.ar      1 R4A        -0.0236
     49 CBD        29.8660   12.2530    5.3100 C.ar      1 R4A        -0.0403
     50 CBC        28.6580   12.1420    6.1170 C.ar      1 R4A        -0.0328
     51 CBB        27.5580   11.5950    5.5880 C.ar      1 R4A         0.0122
     52 NBA        27.5170   11.1570    4.3920 N.ar      1 R4A        -0.2878
     53 RU         25.8040   10.3030    3.6120 Ru        1 R4A         6.0000
     54 H          24.9015   -2.0490    7.3175 H         1 R4A         0.0477
     55 H          25.2150   -0.8696    8.6143 H         1 R4A         0.0477
     56 H          24.6504   -2.5092    9.0193 H         1 R4A         0.0477
     57 H          21.7378   -1.1803    9.7120 H         1 R4A         0.0477
     58 H          21.4416   -2.3583    8.4099 H         1 R4A         0.0477
     59 H          22.6913   -2.6823    9.6364 H         1 R4A         0.0477
     60 H          24.8603   -0.0481    6.6409 H         1 R4A         0.0433
     61 H          22.1094    2.7198    4.8574 H         1 R4A         0.0434
     62 H          20.2778    1.7606    6.2224 H         1 R4A         0.0556
     63 H          20.7452   -0.0624    7.8396 H         1 R4A         0.0425
     64 H          26.6627    1.7680    4.6839 H         1 R4A         0.0614
     65 H          26.0309    0.9560    6.1179 H         1 R4A         0.0614
     66 H          26.2603    2.8449    7.3404 H         1 R4A         0.0293
     67 H          25.2651    3.7476    6.1899 H         1 R4A         0.0293
     68 H          28.2330    3.1443    5.8847 H         1 R4A         0.0293
     69 H          27.5348    4.7092    6.3327 H         1 R4A         0.0293
     70 H          26.3588    3.4861    3.9106 H         1 R4A         0.0469
     71 H          28.0920    3.9464    3.7681 H         1 R4A         0.0469
     72 H          24.6349    4.0922    2.8504 H         1 R4A         0.0664
     73 H          22.6670    5.0861    1.7208 H         1 R4A         0.0640
     74 H          21.3727    7.2167    1.0027 H         1 R4A         0.0760
     75 H          21.2996    9.6975    1.0015 H         1 R4A         0.0707
     76 H          23.0721   11.0672    2.0484 H         1 R4A         0.0849
     77 H          28.1054    8.6025    4.9516 H         1 R4A         0.0827
     78 H          28.5168    6.1877    5.1401 H         1 R4A         0.0632
     79 H          26.1899   12.4865    1.3832 H         1 R4A         0.0832
     80 H          25.3609   14.8187    1.1249 H         1 R4A         0.0719
     81 H          23.9113   15.8285    2.8676 H         1 R4A         0.0739
     82 H          23.2830   14.5121    4.8920 H         1 R4A         0.0731
     83 H          22.8222   13.1592    6.6260 H         1 R4A         0.0731
     84 H          22.6054   11.4913    8.4104 H         1 R4A         0.0739
     85 H          23.7611    9.2143    8.0782 H         1 R4A         0.0719
     86 H          24.9987    8.7954    6.0409 H         1 R4A         0.0832
     87 H          25.7252    9.2097    0.6294 H         1 R4A         0.0832
     88 H          27.4217    9.1172   -1.1897 H         1 R4A         0.0719
     89 H          29.7062   10.0086   -0.8130 H         1 R4A         0.0739
     90 H          30.3073   11.0022    1.3991 H         1 R4A         0.0731
     91 H          30.6721   11.8390    3.4110 H         1 R4A         0.0731
     92 H          30.7782   12.6973    5.7084 H         1 R4A         0.0739
     93 H          28.6507   12.5025    7.1456 H         1 R4A         0.0719
     94 H          26.6617   11.5210    6.2039 H         1 R4A         0.0832
@<TRIPOS>BOND
     1    2    1 1  
     2    2    3 1  
     3    4    2 1  
     4    5    4 ar 
     5    4    9 ar 
     6    6    5 ar 
     7    6    7 ar 
     8   10    6 1  
     9    7    8 ar 
    10    8    9 ar 
    11   11   10 1  
    12   12   11 1  
    13   13   12 1  
    14   14   13 1  
    15   15   14 1  
    16   16   15 ar 
    17   28   15 ar 
    18   16   17 ar 
    19   18   16 ar 
    20   17   21 ar 
    21   18   19 ar 
    22   26   18 ar 
    23   19   20 ar 
    24   25   19 ar 
    25   20   21 ar 
    26   20   22 ar 
    27   23   22 ar 
    28   24   23 ar 
    29   25   24 ar 
    30   26   27 ar 
    31   27   28 ar 
    32   29   30 ar 
    33   29   33 ar 
    34   30   31 ar 
    35   31   32 ar 
    36   34   32 ar 
    37   33   34 ar 
    38   35   33 1  
    39   35   36 ar 
    40   40   35 ar 
    41   36   37 ar 
    42   38   37 ar 
    43   39   38 ar 
    44   40   39 ar 
    45   41   42 ar 
    46   41   45 ar 
    47   42   43 ar 
    48   43   44 ar 
    49   46   44 ar 
    50   45   46 ar 
    51   45   47 1  
    52   47   48 ar 
    53   47   52 ar 
    54   48   49 ar 
    55   49   50 ar 
    56   51   50 ar 
    57   52   51 ar 
    58   53   25 1  
    59   53   26 1  
    60   53   29 1  
    61   53   40 1  
    62   53   41 1  
    63   53   52 1  
    64    1   54 1  
    65    1   55 1  
    66    1   56 1  
    67    3   57 1  
    68    3   58 1  
    69    3   59 1  
    70    5   60 1  
    71    7   61 1  
    72    8   62 1  
    73    9   63 1  
    74   11   64 1  
    75   11   65 1  
    76   12   66 1  
    77   12   67 1  
    78   13   68 1  
    79   13   69 1  
    80   14   70 1  
    81   14   71 1  
    82   17   72 1  
    83   21   73 1  
    84   22   74 1  
    85   23   75 1  
    86   24   76 1  
    87   27   77 1  
    88   28   78 1  
    89   30   79 1  
    90   31   80 1  
    91   32   81 1  
    92   34   82 1  
    93   36   83 1  
    94   37   84 1  
    95   38   85 1  
    96   39   86 1  
    97   42   87 1  
    98   43   88 1  
    99   44   89 1  
   100   46   90 1  
   101   48   91 1  
   102   49   92 1  
   103   50   93 1  
   104   51   94 1  
@<TRIPOS>SUBSTRUCTURE
     1 R4A         1

