4gjb_ligand
  -I-interpret- 

 47 50  0  0  0  0  0  0  0  0999 V2000
    9.1400   22.3740   47.7350 C   0  0  0  0  0
    9.4200   20.9800   47.8780 C   0  0  0  0  0
   10.5090   20.3730   47.2350 O   0  0  0  0  0
    9.9960   23.2340   46.7910 C   0  0  0  0  0
    7.2860   22.1470   49.2660 C   0  0  0  0  0
    7.5350   20.7700   49.3760 C   0  0  0  0  0
    8.6290   20.1850   48.7110 C   0  0  0  0  0
    8.0770   22.9650   48.4400 C   0  0  0  0  0
   11.4050   22.6210   46.7270 C   0  0  0  0  0
   11.5910   21.2200   46.9560 C   0  0  0  0  0
   12.8760   20.6570   46.9120 C   0  0  0  0  0
   13.9760   21.4940   46.6500 C   0  0  0  0  0
   13.7980   22.8750   46.4130 C   0  0  0  0  0
   12.5160   23.4470   46.4630 C   0  0  0  0  0
    9.3610   23.1950   45.3620 C   0  0  0  0  0
    7.9050   23.4540   45.3530 N   0  0  0  0  0
    6.9120   22.5350   45.1120 C   0  0  0  0  0
    7.1360   21.3570   44.8450 O   0  0  0  0  0
    5.4690   23.0120   45.1660 C   0  0  0  0  0
    4.4500   21.9050   44.7630 C   0  0  0  0  0
    2.9520   22.3190   44.9210 C   0  0  0  0  0
    2.6540   22.8670   46.3450 C   0  0  0  0  0
    3.6410   23.9100   46.6820 N   0  3  0  0  0
    5.0680   23.5070   46.5820 C   0  0  0  0  0
   10.0447   24.2627   47.1480 H   0  0  0  0  0
    6.4654   22.5898   49.8305 H   0  0  0  0  0
    6.8755   20.1484   49.9816 H   0  0  0  0  0
    8.8557   19.1272   48.8440 H   0  0  0  0  0
    7.8710   24.0314   48.3485 H   0  0  0  0  0
   13.0192   19.5893   47.0780 H   0  0  0  0  0
   14.9802   21.0706   46.6296 H   0  0  0  0  0
   14.6616   23.5014   46.1897 H   0  0  0  0  0
   12.3821   24.5163   46.2997 H   0  0  0  0  0
    9.5169   22.1928   44.9627 H   0  0  0  0  0
    9.8358   23.9791   44.7722 H   0  0  0  0  0
    7.6080   24.4107   45.5449 H   0  0  0  0  0
    5.4267   23.8315   44.4485 H   0  0  0  0  0
    4.6194   21.0571   45.4267 H   0  0  0  0  0
    4.6127   21.6893   43.7070 H   0  0  0  0  0
    2.3328   21.4373   44.7558 H   0  0  0  0  0
    2.7349   23.1053   44.1980 H   0  0  0  0  0
    2.7190   22.0552   47.0695 H   0  0  0  0  0
    1.6507   23.2922   46.3699 H   0  0  0  0  0
    3.4788   24.1551   47.6587 H   0  0  0  0  0
    3.5064   24.6627   46.0070 H   0  0  0  0  0
    5.6745   24.3840   46.8083 H   0  0  0  0  0
    5.2266   22.6819   47.2764 H   0  0  0  0  0
  1  2  4  0  0  0
  1  4  1  0  0  0
  8  1  4  0  0  0
  2  3  1  0  0  0
  2  7  4  0  0  0
  3 10  1  0  0  0
  4  9  1  0  0  0
  4 15  1  0  0  0
  5  6  4  0  0  0
  5  8  4  0  0  0
  6  7  4  0  0  0
  9 10  4  0  0  0
  9 14  4  0  0  0
 10 11  4  0  0  0
 11 12  4  0  0  0
 12 13  4  0  0  0
 13 14  4  0  0  0
 15 16  1  0  0  0
 16 17  1  0  0  0
 17 18  2  0  0  0
 17 19  1  0  0  0
 19 20  1  0  0  0
 19 24  1  0  0  0
 20 21  1  0  0  0
 21 22  1  0  0  0
 22 23  1  0  0  0
 23 24  1  0  0  0
  4 25  1  0  0  0
  5 26  1  0  0  0
  6 27  1  0  0  0
  7 28  1  0  0  0
  8 29  1  0  0  0
 11 30  1  0  0  0
 12 31  1  0  0  0
 13 32  1  0  0  0
 14 33  1  0  0  0
 15 34  1  0  0  0
 15 35  1  0  0  0
 16 36  1  0  0  0
 19 37  1  0  0  0
 20 38  1  0  0  0
 20 39  1  0  0  0
 21 40  1  0  0  0
 21 41  1  0  0  0
 22 42  1  0  0  0
 22 43  1  0  0  0
 23 44  1  0  0  0
 23 45  1  0  0  0
 24 46  1  0  0  0
 24 47  1  0  0  0
M  END
$$$$
