6nad_ligand
  -I-interpret- 

 72 76  0  0  0  0  0  0  0  0999 V2000
  115.5620  -24.4160    2.9120 C   0  0  0  0  0
  118.0440  -24.3680    2.8070 C   0  0  0  0  0
  121.6260  -27.1940    4.4480 C   0  0  0  0  0
  119.9440  -26.4550    2.3610 C   0  0  0  0  0
  122.0390  -29.3350    3.3720 C   0  0  0  0  0
  111.7370  -22.1850    3.9860 C   0  0  0  0  0
  118.9080  -23.2520   -0.5810 C   0  0  0  0  0
  117.9200  -23.9560    1.4760 C   0  0  0  0  0
  115.5120  -24.0100    1.6040 C   0  0  0  0  0
  114.2300  -23.8130    0.9290 C   0  0  0  0  0
  113.0670  -24.0340    1.6150 C   0  0  0  0  0
  113.1100  -24.4530    2.9900 C   0  0  0  0  0
  114.3430  -24.6490    3.6340 C   0  0  0  0  0
  116.8550  -24.6040    3.5590 C   0  0  0  0  0
  119.4490  -24.5510    3.4260 C   0  0  0  0  0
  121.0360  -25.7900    4.2540 C   0  0  0  0  0
  120.9980  -28.2640    3.7580 C   0  0  0  0  0
  120.1890  -27.9380    2.6060 C   0  0  0  0  0
  111.7880  -24.7090    3.7320 C   0  0  0  0  0
  111.1920  -23.4260    4.1660 C   0  0  0  0  0
  109.8460  -21.9600    5.0340 C   0  0  0  0  0
  108.6360  -21.3270    5.7480 C   0  0  0  0  0
  109.0820  -24.2670    5.2380 C   0  0  0  0  0
  110.9100  -25.4680    2.7410 C   0  0  0  0  0
  109.9530  -24.8130    1.9560 C   0  0  0  0  0
  109.2000  -25.5620    1.0670 C   0  0  0  0  0
  110.2900  -27.5390    1.6910 C   0  0  0  0  0
  111.0800  -26.8500    2.5970 C   0  0  0  0  0
  110.4740  -29.0530    1.5360 C   0  0  0  0  0
  122.7440  -29.6610    4.4350 F   0  0  0  0  0
  122.8930  -28.8700    2.3940 F   0  0  0  0  0
  121.3890  -30.4310    2.9090 F   0  0  0  0  0
  111.7510  -29.3130    1.1210 F   0  0  0  0  0
  109.6080  -29.5180    0.6280 F   0  0  0  0  0
  110.2670  -29.6740    2.7370 F   0  0  0  0  0
  116.6860  -23.7800    0.8810 N   0  0  0  0  0
  119.7870  -25.7410    3.5680 N   0  3  0  0  0
  110.8970  -21.2960    4.5230 N   0  0  0  0  0
  110.0150  -23.2450    4.8250 N   0  0  0  0  0
  109.3690  -26.8980    0.9400 N   0  0  0  0  0
  119.0970  -23.7160    0.7220 O   0  0  0  0  0
  112.0410  -25.5300    4.8640 O   0  0  0  0  0
  116.9460  -25.1200    5.2210 Cl  0  0  0  0  0
  121.5116  -27.4186    5.5084 H   0  0  0  0  0
  122.6415  -27.1446    4.0551 H   0  0  0  0  0
  119.0270  -26.3514    1.7809 H   0  0  0  0  0
  120.8069  -26.0487    1.8334 H   0  0  0  0  0
  112.6838  -21.9619    3.4942 H   0  0  0  0  0
  118.3312  -23.9842   -1.1460 H   0  0  0  0  0
  118.3684  -22.3054   -0.5535 H   0  0  0  0  0
  119.8774  -23.1054   -1.0573 H   0  0  0  0  0
  114.2011  -23.4926   -0.1125 H   0  0  0  0  0
  112.1069  -23.8923    1.1188 H   0  0  0  0  0
  114.3740  -24.9754    4.6735 H   0  0  0  0  0
  119.4274  -24.0997    4.4179 H   0  0  0  0  0
  120.1652  -24.0896    2.7461 H   0  0  0  0  0
  121.7483  -25.2346    3.6438 H   0  0  0  0  0
  120.8597  -25.3860    5.2509 H   0  0  0  0  0
  120.2756  -28.6335    4.4858 H   0  0  0  0  0
  120.7324  -28.3065    1.7359 H   0  0  0  0  0
  119.2107  -28.3850    2.7824 H   0  0  0  0  0
  108.9790  -20.7815    6.6271 H   0  0  0  0  0
  108.1319  -20.6412    5.0671 H   0  0  0  0  0
  107.9442  -22.1121    6.0531 H   0  0  0  0  0
  108.7294  -24.8108    4.3616 H   0  0  0  0  0
  109.5792  -24.9571    5.9197 H   0  0  0  0  0
  108.2357  -23.8018    5.7433 H   0  0  0  0  0
  109.8039  -23.7367    2.0428 H   0  0  0  0  0
  108.4511  -25.0614    0.4532 H   0  0  0  0  0
  111.8257  -27.3783    3.1911 H   0  0  0  0  0
  119.0272  -26.1819    4.0863 H   0  0  0  0  0
  111.2178  -25.6924    5.3305 H   0  0  0  0  0
  1  9  4  0  0  0
 13  1  4  0  0  0
  1 14  4  0  0  0
  2  8  4  0  0  0
 14  2  4  0  0  0
  2 15  1  0  0  0
 16  3  1  0  0  0
  3 17  1  0  0  0
  4 18  1  0  0  0
 37  4  1  0  0  0
 17  5  1  0  0  0
  5 30  1  0  0  0
  5 31  1  0  0  0
  5 32  1  0  0  0
  6 20  4  0  0  0
 38  6  4  0  0  0
 41  7  1  0  0  0
 36  8  4  0  0  0
  8 41  1  0  0  0
 10  9  4  0  0  0
  9 36  4  0  0  0
 11 10  4  0  0  0
 12 11  4  0  0  0
 12 13  4  0  0  0
 19 12  1  0  0  0
 14 43  1  0  0  0
 15 37  1  0  0  0
 37 16  1  0  0  0
 18 17  1  0  0  0
 20 19  1  0  0  0
 19 24  1  0  0  0
 19 42  1  0  0  0
 20 39  4  0  0  0
 21 22  1  0  0  0
 21 38  4  0  0  0
 21 39  4  0  0  0
 39 23  1  0  0  0
 24 25  4  0  0  0
 24 28  4  0  0  0
 25 26  4  0  0  0
 26 40  4  0  0  0
 28 27  4  0  0  0
 27 29  1  0  0  0
 27 40  4  0  0  0
 29 33  1  0  0  0
 29 34  1  0  0  0
 29 35  1  0  0  0
  3 44  1  0  0  0
  3 45  1  0  0  0
  4 46  1  0  0  0
  4 47  1  0  0  0
  6 48  1  0  0  0
  7 49  1  0  0  0
  7 50  1  0  0  0
  7 51  1  0  0  0
 10 52  1  0  0  0
 11 53  1  0  0  0
 13 54  1  0  0  0
 15 55  1  0  0  0
 15 56  1  0  0  0
 16 57  1  0  0  0
 16 58  1  0  0  0
 17 59  1  0  0  0
 18 60  1  0  0  0
 18 61  1  0  0  0
 22 62  1  0  0  0
 22 63  1  0  0  0
 22 64  1  0  0  0
 23 65  1  0  0  0
 23 66  1  0  0  0
 23 67  1  0  0  0
 25 68  1  0  0  0
 26 69  1  0  0  0
 28 70  1  0  0  0
 37 71  1  0  0  0
 42 72  1  0  0  0
M  END
$$$$
