5fi6_ligand
  -I-interpret- 

 60 64  0  0  0  0  0  0  0  0999 V2000
  118.6560  157.6460   42.3960 C   0  0  0  0  0
  119.6370  159.4470   43.3410 N   0  0  0  0  0
  118.0280  159.6090   43.3820 C   0  0  0  0  0
  121.9880  162.1150   45.0710 C   0  0  0  0  0
  124.6160  164.4760   46.6560 C   0  0  0  0  0
  124.3140  165.9510   46.5380 C   0  0  0  0  0
  123.1780  166.4880   47.1420 C   0  0  0  0  0
  123.7870  168.6640   46.2990 C   0  0  0  0  0
  125.1860  166.7590   45.8150 C   0  0  0  0  0
  112.3710  165.1420   39.8250 C   0  0  0  0  0
  113.1180  164.1410   40.6770 C   0  0  0  0  0
  113.7230  163.0340   40.0300 N   0  0  0  0  0
  114.4630  162.0540   40.7430 C   0  0  0  0  0
  114.6440  161.9110   42.0650 N   0  0  0  0  0
  115.4190  160.8800   42.4510 N   0  0  0  0  0
  115.9480  160.1170   41.4840 C   0  0  0  0  0
  116.7840  158.9720   41.5630 N   0  0  0  0  0
  117.4680  158.5390   42.7850 C   0  0  0  0  0
  119.7550  158.1400   43.4060 C   0  0  0  0  0
  120.5110  160.4530   43.8240 C   0  0  0  0  0
  121.0000  161.4690   43.1040 N   0  0  0  0  0
  121.7850  162.3440   43.7560 N   0  0  0  0  0
  122.7550  162.8860   45.9850 N   0  0  0  0  0
  123.8720  163.6830   45.6150 C   0  0  0  0  0
  122.9180  167.8500   47.0180 C   0  0  0  0  0
  124.9210  168.1190   45.7000 C   0  0  0  0  0
  124.2460  163.7410   44.4660 O   0  0  0  0  0
  121.1010  160.6770   45.4350 S   0  0  0  0  0
  115.3760  160.7980   40.0170 S   0  0  0  0  0
  113.2010  164.2880   41.8860 O   0  0  0  0  0
  110.9810  165.4370   40.3470 C   0  0  0  0  0
  109.9730  164.4770   40.2270 C   0  0  0  0  0
  108.6860  164.7400   40.6890 C   0  0  0  0  0
  108.4140  165.9670   41.2770 C   0  0  0  0  0
  109.4210  166.9260   41.3980 C   0  0  0  0  0
  110.7100  166.6680   40.9350 C   0  0  0  0  0
  118.9490  157.7368   41.3500 H   0  0  0  0  0
  118.4440  156.5791   42.4657 H   0  0  0  0  0
  117.7352  160.5191   42.8585 H   0  0  0  0  0
  117.6898  159.6738   44.4162 H   0  0  0  0  0
  124.3031  164.1347   47.6427 H   0  0  0  0  0
  125.6856  164.3270   46.5082 H   0  0  0  0  0
  122.4999  165.8475   47.7059 H   0  0  0  0  0
  123.5806  169.7300   46.2039 H   0  0  0  0  0
  126.0695  166.3294   45.3427 H   0  0  0  0  0
  112.2689  164.7188   38.8257 H   0  0  0  0  0
  112.9354  166.0745   39.8342 H   0  0  0  0  0
  113.6235  162.9384   39.0194 H   0  0  0  0  0
  116.9167  158.4168   40.7177 H   0  0  0  0  0
  116.7476  158.0320   43.4270 H   0  0  0  0  0
  120.7554  157.7893   43.1524 H   0  0  0  0  0
  119.6144  157.7490   44.4137 H   0  0  0  0  0
  122.4871  162.8663   46.9690 H   0  0  0  0  0
  122.0317  168.2793   47.4852 H   0  0  0  0  0
  125.6017  168.7603   45.1401 H   0  0  0  0  0
  110.1960  163.5139   39.7678 H   0  0  0  0  0
  107.9010  163.9903   40.5898 H   0  0  0  0  0
  107.4111  166.1826   41.6455 H   0  0  0  0  0
  109.1967  167.8875   41.8598 H   0  0  0  0  0
  111.4937  167.4194   41.0322 H   0  0  0  0  0
  1 18  1  0  0  0
 19  1  1  0  0  0
  2  3  1  0  0  0
  2 19  1  0  0  0
 20  2  1  0  0  0
  3 18  1  0  0  0
  4 22  4  0  0  0
 23  4  1  0  0  0
  4 28  4  0  0  0
  5  6  1  0  0  0
 24  5  1  0  0  0
  6  7  4  0  0  0
  6  9  4  0  0  0
  7 25  4  0  0  0
 25  8  4  0  0  0
 26  8  4  0  0  0
  9 26  4  0  0  0
 11 10  1  0  0  0
 10 31  1  0  0  0
 12 11  1  0  0  0
 11 30  2  0  0  0
 13 12  1  0  0  0
 13 14  4  0  0  0
 29 13  4  0  0  0
 15 14  4  0  0  0
 16 15  4  0  0  0
 17 16  1  0  0  0
 16 29  4  0  0  0
 18 17  1  0  0  0
 20 21  4  0  0  0
 28 20  4  0  0  0
 22 21  4  0  0  0
 23 24  1  0  0  0
 24 27  2  0  0  0
 31 32  4  0  0  0
 31 36  4  0  0  0
 32 33  4  0  0  0
 33 34  4  0  0  0
 34 35  4  0  0  0
 35 36  4  0  0  0
  1 37  1  0  0  0
  1 38  1  0  0  0
  3 39  1  0  0  0
  3 40  1  0  0  0
  5 41  1  0  0  0
  5 42  1  0  0  0
  7 43  1  0  0  0
  8 44  1  0  0  0
  9 45  1  0  0  0
 10 46  1  0  0  0
 10 47  1  0  0  0
 12 48  1  0  0  0
 17 49  1  0  0  0
 18 50  1  0  0  0
 19 51  1  0  0  0
 19 52  1  0  0  0
 23 53  1  0  0  0
 25 54  1  0  0  0
 26 55  1  0  0  0
 32 56  1  0  0  0
 33 57  1  0  0  0
 34 58  1  0  0  0
 35 59  1  0  0  0
 36 60  1  0  0  0
M  END
$$$$
