4ggl_ligand
  -I-interpret- 

 49 53  0  0  0  0  0  0  0  0999 V2000
   -6.4760   -6.4420  -20.7670 O   0  0  0  0  0
   -7.1400   -7.2710  -20.0970 C   0  0  0  0  0
   -6.8410   -8.6400  -20.1820 C   0  0  0  0  0
   -8.1340   -6.8180  -19.3050 N   0  0  0  0  0
   -8.8510   -7.6790  -18.5800 C   0  0  0  0  0
   -8.5390   -9.1330  -18.6680 C   0  0  0  0  0
   -7.5310   -9.5510  -19.4770 N   0  0  0  0  0
   -9.2620  -10.0060  -17.9350 N   0  0  0  0  0
  -10.2590   -9.5750  -17.1410 C   0  0  0  0  0
  -10.5830   -8.2210  -17.0230 C   0  0  0  0  0
   -9.8840   -7.2570  -17.7500 C   0  0  0  0  0
  -11.8680   -7.7940  -16.0010 S   0  0  0  0  0
  -11.5520   -6.4460  -15.0390 C   0  0  0  0  0
  -10.3200   -5.8840  -15.0190 N   0  0  0  0  0
  -10.0150   -4.8380  -14.2190 C   0  0  0  0  0
   -8.7250   -4.3010  -14.3340 N   0  0  0  0  0
   -7.6800   -4.9830  -15.0920 C   0  0  0  0  0
   -6.8830   -3.7900  -15.6200 C   0  0  0  0  0
   -7.4970   -2.5080  -15.0650 C   0  0  0  0  0
   -8.2850   -1.8570  -16.0950 N   0  3  0  0  0
   -8.4080   -2.9430  -13.9200 C   0  0  0  0  0
  -11.1300   -4.2890  -13.3760 C   0  0  0  0  0
  -12.4560   -4.9540  -13.4550 C   0  0  0  0  0
  -12.5810   -5.9940  -14.2990 N   0  0  0  0  0
  -13.3590   -4.3640  -12.6350 N   0  0  0  0  0
  -12.8420   -3.3380  -11.9280 C   0  0  0  0  0
  -11.4350   -3.2530  -12.3710 C   0  0  0  0  0
  -10.2490   -2.0400  -11.6710 Cl  0  0  0  0  0
  -13.5570   -2.4570  -10.9220 C   0  0  0  0  0
  -14.5800   -3.2440  -10.1170 C   0  0  0  0  0
   -6.0321   -8.9702  -20.8337 H   0  0  0  0  0
   -8.3370   -5.8194  -19.2605 H   0  0  0  0  0
  -10.8327  -10.3060  -16.5712 H   0  0  0  0  0
  -10.1408   -6.2007  -17.6696 H   0  0  0  0  0
   -8.0585   -5.6428  -15.8727 H   0  0  0  0  0
   -7.0896   -5.6829  -14.5007 H   0  0  0  0  0
   -6.9161   -3.7752  -16.7094 H   0  0  0  0  0
   -5.8430   -3.8699  -15.3035 H   0  0  0  0  0
   -6.7327   -1.8069  -14.7298 H   0  0  0  0  0
   -8.6930   -1.0010  -15.7192 H   0  0  0  0  0
   -7.6848   -1.6294  -16.8877 H   0  0  0  0  0
   -9.0292   -2.4846  -16.3996 H   0  0  0  0  0
   -7.9484   -2.8737  -12.9341 H   0  0  0  0  0
   -9.2806   -2.3054  -13.7781 H   0  0  0  0  0
  -14.0781   -1.6678  -11.4640 H   0  0  0  0  0
  -12.8168   -2.0490  -10.2337 H   0  0  0  0  0
  -15.3225   -3.6693  -10.7922 H   0  0  0  0  0
  -14.0765   -4.0458   -9.5769 H   0  0  0  0  0
  -15.0715   -2.5788   -9.4070 H   0  0  0  0  0
  1  2  2  0  0  0
  2  3  1  0  0  0
  2  4  1  0  0  0
  3  7  2  0  0  0
  4  5  1  0  0  0
  5  6  4  0  0  0
  5 11  4  0  0  0
  6  7  1  0  0  0
  6  8  4  0  0  0
  8  9  4  0  0  0
  9 10  4  0  0  0
 10 11  4  0  0  0
 10 12  1  0  0  0
 12 13  1  0  0  0
 13 14  4  0  0  0
 13 24  4  0  0  0
 14 15  4  0  0  0
 15 16  1  0  0  0
 15 22  4  0  0  0
 16 17  1  0  0  0
 16 21  1  0  0  0
 17 18  1  0  0  0
 18 19  1  0  0  0
 19 20  1  0  0  0
 19 21  1  0  0  0
 22 23  4  0  0  0
 22 27  4  0  0  0
 23 24  4  0  0  0
 23 25  4  0  0  0
 25 26  4  0  0  0
 26 27  4  0  0  0
 26 29  1  0  0  0
 27 28  1  0  0  0
 29 30  1  0  0  0
  3 31  1  0  0  0
  4 32  1  0  0  0
  9 33  1  0  0  0
 11 34  1  0  0  0
 17 35  1  0  0  0
 17 36  1  0  0  0
 18 37  1  0  0  0
 18 38  1  0  0  0
 19 39  1  0  0  0
 20 40  1  0  0  0
 20 41  1  0  0  0
 20 42  1  0  0  0
 21 43  1  0  0  0
 21 44  1  0  0  0
 29 45  1  0  0  0
 29 46  1  0  0  0
 30 47  1  0  0  0
 30 48  1  0  0  0
 30 49  1  0  0  0
M  END
$$$$
