### 
### Created by X-TOOL on Mon Sep 10 21:12:57 2018
### 

@<TRIPOS>MOLECULE
2z78_ligand
   66    67     1     0     0
SMALL
GAST_HUCK


@<TRIPOS>ATOM
      1 CAA        39.2900   53.7080   12.4160 C.3       1 H86        -0.0653
      2 CAP        38.0870   54.6400   12.2560 C.3       1 H86        -0.0559
      3 CAQ        36.7800   53.8490   12.2090 C.3       1 H86        -0.0533
      4 CAR        36.6960   53.0080   10.9350 C.3       1 H86        -0.0531
      5 CAS        35.4070   52.1850   10.9000 C.3       1 H86        -0.0531
      6 CAT        35.2350   51.5180    9.5340 C.3       1 H86        -0.0531
      7 CAU        33.9600   50.6750    9.4930 C.3       1 H86        -0.0530
      8 CAV        32.7940   51.4730   10.0800 C.3       1 H86        -0.0506
      9 CAW        31.5570   51.3660    9.1880 C.3       1 H86        -0.0244
     10 CAX        31.1460   49.9100    8.9690 C.3       1 H86         0.0732
     11 OAZ        30.9080   49.3290   10.2570 O.3       1 H86        -0.3154
     12 CBC        30.2540   48.1430   10.1330 C.2       1 H86         0.0870
     13 CAM        29.5500   47.6580   11.2270 C.2       1 H86        -0.0713
     14 CAN        30.3330   47.3940    8.9630 C.3       1 H86         0.0904
     15 NBG        29.6930   46.1500    8.8920 N.pl3     1 H86        -0.2948
     16 CAY        29.8130   45.3090    7.6790 C.3       1 H86         0.0651
     17 CBF        29.2230   45.9790    6.4350 C.3       1 H86         0.1215
     18 PBI        29.7630   45.1030    4.9110 P.3       1 H86         0.0799
     19 OAF        28.8970   45.7200    3.6980 O.co2     1 H86        -0.5611
     20 OAG        31.2850   45.5290    4.6180 O.co2     1 H86        -0.5611
     21 OAC        29.5760   43.6430    5.0640 O.co2     1 H86        -0.5611
     22 PBH        27.3870   46.0550    6.4820 P.3       1 H86         0.0799
     23 OAD        26.7940   44.5670    6.3060 O.co2     1 H86        -0.5611
     24 OAE        26.9470   46.4730    7.9720 O.co2     1 H86        -0.5611
     25 OAB        26.8860   47.0010    5.4600 O.co2     1 H86        -0.5611
     26 CAO        28.9860   45.6630    9.9980 C.2       1 H86         0.0062
     27 CBE        28.9270   46.4170   11.1640 C.2       1 H86        -0.0507
     28 CBD        28.3320   45.8850   12.3000 C.ar      1 H86        -0.0521
     29 CAK        28.3660   44.5090   12.4920 C.ar      1 H86        -0.0368
     30 CBA        27.8900   43.9650   13.6780 C.ar      1 H86         0.1232
     31 FAH        27.9690   42.6360   13.8840 F         1 H86        -0.1866
     32 CAJ        27.3710   44.7930   14.6650 C.ar      1 H86        -0.0023
     33 CBB        27.3340   46.1680   14.4650 C.ar      1 H86         0.1232
     34 FAI        26.8570   46.9660   15.4400 F         1 H86        -0.1866
     35 CAL        27.8130   46.7210   13.2830 C.ar      1 H86        -0.0368
     36 H1         40.2140   54.3040   12.4466 H         1 H86         0.0230
     37 H2         39.3306   53.0122   11.5650 H         1 H86         0.0230
     38 H3         39.1903   53.1378   13.3514 H         1 H86         0.0230
     39 H4         38.1958   55.2097   11.3214 H         1 H86         0.0263
     40 H5         38.0555   55.3353   13.1078 H         1 H86         0.0263
     41 H6         35.9333   54.5508   12.2335 H         1 H86         0.0265
     42 H7         36.7302   53.1836   13.0835 H         1 H86         0.0265
     43 H8         37.5583   52.3261   10.8976 H         1 H86         0.0265
     44 H9         36.7189   53.6763   10.0616 H         1 H86         0.0265
     45 H10        34.5494   52.8470   11.0902 H         1 H86         0.0265
     46 H11        35.4513   51.4093   11.6787 H         1 H86         0.0265
     47 H12        36.1016   50.8693    9.3386 H         1 H86         0.0265
     48 H13        35.1770   52.2959    8.7585 H         1 H86         0.0265
     49 H14        34.1088   49.7583   10.0824 H         1 H86         0.0265
     50 H15        33.7319   50.4078    8.4506 H         1 H86         0.0265
     51 H16        33.0870   52.5299   10.1644 H         1 H86         0.0266
     52 H17        32.5536   51.0783   11.0782 H         1 H86         0.0266
     53 H18        31.7789   51.8248    8.2132 H         1 H86         0.0292
     54 H19        30.7248   51.9039    9.6655 H         1 H86         0.0292
     55 H20        31.9521   49.3658    8.4552 H         1 H86         0.0622
     56 H21        30.2294   49.8661    8.3625 H         1 H86         0.0622
     57 H22        29.4857   48.2519   12.1376 H         1 H86         0.0143
     58 H23        31.4010   47.2149    8.7701 H         1 H86         0.0746
     59 H24        29.9139   48.0149    8.1575 H         1 H86         0.0746
     60 H25        29.2821   44.3616    7.8536 H         1 H86         0.0562
     61 H26        30.8783   45.1042    7.4966 H         1 H86         0.0562
     62 H27        29.6047   47.0099    6.3958 H         1 H86         0.0699
     63 H28        28.4846   44.6978    9.9449 H         1 H86         0.0888
     64 H29        28.7630   43.8620   11.7182 H         1 H86         0.0506
     65 H30        26.9958   44.3680   15.5889 H         1 H86         0.0531
     66 H31        27.7823   47.7936   13.1289 H         1 H86         0.0506
@<TRIPOS>BOND
     1    1    2 1  
     2    2    3 1  
     3    3    4 1  
     4    4    5 1  
     5    5    6 1  
     6    6    7 1  
     7    7    8 1  
     8    8    9 1  
     9    9   10 1  
    10   10   11 1  
    11   11   12 1  
    12   12   13 2  
    13   12   14 1  
    14   13   27 1  
    15   14   15 1  
    16   15   16 1  
    17   15   26 1  
    18   16   17 1  
    19   17   18 1  
    20   17   22 1  
    21   18   19 ar 
    22   18   20 ar 
    23   18   21 ar 
    24   22   23 ar 
    25   22   24 ar 
    26   22   25 ar 
    27   26   27 2  
    28   27   28 1  
    29   28   29 ar 
    30   28   35 ar 
    31   29   30 ar 
    32   30   31 1  
    33   30   32 ar 
    34   32   33 ar 
    35   33   34 1  
    36   33   35 ar 
    37    1   36 1  
    38    1   37 1  
    39    1   38 1  
    40    2   39 1  
    41    2   40 1  
    42    3   41 1  
    43    3   42 1  
    44    4   43 1  
    45    4   44 1  
    46    5   45 1  
    47    5   46 1  
    48    6   47 1  
    49    6   48 1  
    50    7   49 1  
    51    7   50 1  
    52    8   51 1  
    53    8   52 1  
    54    9   53 1  
    55    9   54 1  
    56   10   55 1  
    57   10   56 1  
    58   13   57 1  
    59   14   58 1  
    60   14   59 1  
    61   16   60 1  
    62   16   61 1  
    63   17   62 1  
    64   26   63 1  
    65   29   64 1  
    66   32   65 1  
    67   35   66 1  
@<TRIPOS>SUBSTRUCTURE
     1 H86         1

