2z78_ligand
  -I-interpret- 

 70 71  0  0  0  0  0  0  0  0999 V2000
   39.2900   53.7080   12.4160 C   0  0  0  0  0
   38.0870   54.6400   12.2560 C   0  0  0  0  0
   36.7800   53.8490   12.2090 C   0  0  0  0  0
   36.6960   53.0080   10.9350 C   0  0  0  0  0
   35.4070   52.1850   10.9000 C   0  0  0  0  0
   35.2350   51.5180    9.5340 C   0  0  0  0  0
   33.9600   50.6750    9.4930 C   0  0  0  0  0
   32.7940   51.4730   10.0800 C   0  0  0  0  0
   31.5570   51.3660    9.1880 C   0  0  0  0  0
   31.1460   49.9100    8.9690 C   0  0  0  0  0
   30.9080   49.3290   10.2570 O   0  0  0  0  0
   30.2540   48.1430   10.1330 C   0  0  0  0  0
   29.5500   47.6580   11.2270 C   0  0  0  0  0
   30.3330   47.3940    8.9630 C   0  0  0  0  0
   29.6930   46.1500    8.8920 N   0  0  0  0  0
   29.8130   45.3090    7.6790 C   0  0  0  0  0
   29.2230   45.9790    6.4350 C   0  0  0  0  0
   29.7630   45.1030    4.9110 P   0  0  0  0  0
   28.8970   45.7200    3.6980 O   0  0  0  0  0
   31.2850   45.5290    4.6180 O   0  0  0  0  0
   29.5760   43.6430    5.0640 O   0  0  0  0  0
   27.3870   46.0550    6.4820 P   0  0  0  0  0
   26.7940   44.5670    6.3060 O   0  0  0  0  0
   26.9470   46.4730    7.9720 O   0  0  0  0  0
   26.8860   47.0010    5.4600 O   0  0  0  0  0
   28.9860   45.6630    9.9980 C   0  0  0  0  0
   28.9270   46.4170   11.1640 C   0  0  0  0  0
   28.3320   45.8850   12.3000 C   0  0  0  0  0
   28.3660   44.5090   12.4920 C   0  0  0  0  0
   27.8900   43.9650   13.6780 C   0  0  0  0  0
   27.9690   42.6360   13.8840 F   0  0  0  0  0
   27.3710   44.7930   14.6650 C   0  0  0  0  0
   27.3340   46.1680   14.4650 C   0  0  0  0  0
   26.8570   46.9660   15.4400 F   0  0  0  0  0
   27.8130   46.7210   13.2830 C   0  0  0  0  0
   39.1900   53.1436   13.3431 H   0  0  0  0  0
   39.3290   53.0191   11.5722 H   0  0  0  0  0
   40.2049   54.2997   12.4462 H   0  0  0  0  0
   38.1948   55.1911   11.3218 H   0  0  0  0  0
   38.0544   55.3169   13.1098 H   0  0  0  0  0
   35.9456   54.5502   12.2215 H   0  0  0  0  0
   36.7422   53.1833   13.0713 H   0  0  0  0  0
   37.5455   52.3254   10.9118 H   0  0  0  0  0
   36.7051   53.6774   10.0748 H   0  0  0  0  0
   34.5594   52.8461   11.0808 H   0  0  0  0  0
   35.4587   51.4127   11.6675 H   0  0  0  0  0
   36.0905   50.8675    9.3521 H   0  0  0  0  0
   35.1659   52.2942    8.7719 H   0  0  0  0  0
   34.1080   49.7680   10.0791 H   0  0  0  0  0
   33.7338   50.4126    8.4595 H   0  0  0  0  0
   33.0862   52.5207   10.1504 H   0  0  0  0  0
   32.5531   51.0700   11.0637 H   0  0  0  0  0
   31.7915   51.8073    8.2193 H   0  0  0  0  0
   30.7336   51.8866    9.6769 H   0  0  0  0  0
   31.9335   49.3670    8.4464 H   0  0  0  0  0
   30.2465   49.8568    8.3556 H   0  0  0  0  0
   29.4856   48.2524   12.1384 H   0  0  0  0  0
   31.3930   47.1650    8.8537 H   0  0  0  0  0
   29.8328   48.0043    8.2110 H   0  0  0  0  0
   29.2610   44.3859    7.8557 H   0  0  0  0  0
   30.8734   45.1361    7.4950 H   0  0  0  0  0
   29.5981   47.0024    6.4241 H   0  0  0  0  0
   29.0541   46.6654    3.6427 H   0  0  0  0  0
   31.3376   46.4835    4.5298 H   0  0  0  0  0
   27.1508   43.9983    6.9922 H   0  0  0  0  0
   27.2933   45.8330    8.5981 H   0  0  0  0  0
   28.4841   44.6969    9.9448 H   0  0  0  0  0
   28.7652   43.8584   11.7139 H   0  0  0  0  0
   26.9937   44.3656   15.5940 H   0  0  0  0  0
   27.7822   47.7995   13.1280 H   0  0  0  0  0
  1  2  1  0  0  0
  2  3  1  0  0  0
  3  4  1  0  0  0
  4  5  1  0  0  0
  5  6  1  0  0  0
  6  7  1  0  0  0
  7  8  1  0  0  0
  8  9  1  0  0  0
  9 10  1  0  0  0
 10 11  1  0  0  0
 11 12  1  0  0  0
 12 13  2  0  0  0
 12 14  1  0  0  0
 13 27  1  0  0  0
 14 15  1  0  0  0
 15 16  1  0  0  0
 15 26  1  0  0  0
 16 17  1  0  0  0
 17 18  1  0  0  0
 17 22  1  0  0  0
 18 19  1  0  0  0
 18 20  1  0  0  0
 18 21  2  0  0  0
 22 23  1  0  0  0
 22 24  1  0  0  0
 22 25  2  0  0  0
 26 27  2  0  0  0
 27 28  1  0  0  0
 28 29  4  0  0  0
 28 35  4  0  0  0
 29 30  4  0  0  0
 30 31  1  0  0  0
 30 32  4  0  0  0
 32 33  4  0  0  0
 33 34  1  0  0  0
 33 35  4  0  0  0
  1 36  1  0  0  0
  1 37  1  0  0  0
  1 38  1  0  0  0
  2 39  1  0  0  0
  2 40  1  0  0  0
  3 41  1  0  0  0
  3 42  1  0  0  0
  4 43  1  0  0  0
  4 44  1  0  0  0
  5 45  1  0  0  0
  5 46  1  0  0  0
  6 47  1  0  0  0
  6 48  1  0  0  0
  7 49  1  0  0  0
  7 50  1  0  0  0
  8 51  1  0  0  0
  8 52  1  0  0  0
  9 53  1  0  0  0
  9 54  1  0  0  0
 10 55  1  0  0  0
 10 56  1  0  0  0
 13 57  1  0  0  0
 14 58  1  0  0  0
 14 59  1  0  0  0
 16 60  1  0  0  0
 16 61  1  0  0  0
 17 62  1  0  0  0
 19 63  1  0  0  0
 20 64  1  0  0  0
 23 65  1  0  0  0
 24 66  1  0  0  0
 26 67  1  0  0  0
 29 68  1  0  0  0
 32 69  1  0  0  0
 35 70  1  0  0  0
M  END
$$$$
