5t31_ligand
  -I-interpret- 

 46 49  0  0  0  0  0  0  0  0999 V2000
  -18.0610   21.7140   -6.0960 C   0  0  0  0  0
  -18.7230   26.3930   -4.1980 C   0  0  0  0  0
  -17.3290   26.9560   -4.1900 C   0  0  0  0  0
  -16.3370   26.1110   -4.9490 C   0  0  0  0  0
  -17.4210   28.2900   -4.8690 C   0  0  0  0  0
  -16.8640   27.1630   -2.7730 C   0  0  0  0  0
  -20.8790   22.5900   -2.2710 N   0  0  0  0  0
  -15.3250   24.0480   -4.4810 O   0  0  0  0  0
  -16.3560   24.6600   -4.5860 C   0  0  0  0  0
  -17.6730   23.9970   -4.4380 C   0  0  0  0  0
  -18.7040   24.9500   -3.8500 C   0  0  0  0  0
  -17.5910   22.5920   -3.7810 C   0  0  0  0  0
  -17.2480   21.5680   -4.8390 C   0  0  0  0  0
  -18.8940   22.2520   -3.1440 C   0  0  0  0  0
  -19.3300   21.0120   -2.8000 C   0  0  0  0  0
  -20.5550   21.2270   -2.2620 N   0  0  0  0  0
  -19.8280   23.1570   -2.8130 C   0  0  0  0  0
  -19.6130   24.4940   -3.0760 N   0  0  0  0  0
  -16.6250   22.5560   -2.6500 C   0  0  0  0  0
  -15.8830   21.4320   -2.3500 C   0  0  0  0  0
  -15.0050   21.4210   -1.2940 C   0  0  0  0  0
  -14.8750   22.5400   -0.5160 C   0  0  0  0  0
  -15.6160   23.6570   -0.8000 C   0  0  0  0  0
  -16.4940   23.6640   -1.8610 C   0  0  0  0  0
  -19.1186   21.5992   -5.8585 H   0  0  0  0  0
  -17.8889   22.7007   -6.5260 H   0  0  0  0  0
  -17.7626   20.9475   -6.8112 H   0  0  0  0  0
  -19.1464   26.5108   -5.1955 H   0  0  0  0  0
  -19.3242   26.9266   -3.4618 H   0  0  0  0  0
  -15.3436   26.4884   -4.7065 H   0  0  0  0  0
  -16.5995   26.1801   -6.0047 H   0  0  0  0  0
  -18.1323   28.9199   -4.3348 H   0  0  0  0  0
  -16.4401   28.7654   -4.8675 H   0  0  0  0  0
  -17.7572   28.1509   -5.8965 H   0  0  0  0  0
  -15.8853   27.6428   -2.7796 H   0  0  0  0  0
  -17.5774   27.7972   -2.2468 H   0  0  0  0  0
  -16.7938   26.1983   -2.2704 H   0  0  0  0  0
  -18.0443   23.7596   -5.4350 H   0  0  0  0  0
  -16.2008   21.7093   -5.1063 H   0  0  0  0  0
  -17.4588   20.5826   -4.4236 H   0  0  0  0  0
  -18.8125   20.0612   -2.9277 H   0  0  0  0  0
  -15.9957   20.5370   -2.9619 H   0  0  0  0  0
  -14.4169   20.5293   -1.0772 H   0  0  0  0  0
  -14.1840   22.5423    0.3270 H   0  0  0  0  0
  -15.5096   24.5477   -0.1808 H   0  0  0  0  0
  -17.0855   24.5550   -2.0718 H   0  0  0  0  0
 13  1  1  0  0  0
  2  3  1  0  0  0
 11  2  1  0  0  0
  4  3  1  0  0  0
  3  5  1  0  0  0
  3  6  1  0  0  0
  9  4  1  0  0  0
  7 16  4  0  0  0
 17  7  4  0  0  0
  9  8  2  0  0  0
 10  9  1  0  0  0
 10 11  1  0  0  0
 12 10  1  0  0  0
 11 18  2  0  0  0
 12 13  1  0  0  0
 14 12  1  0  0  0
 12 19  1  0  0  0
 14 15  4  0  0  0
 14 17  4  0  0  0
 15 16  4  0  0  0
 17 18  1  0  0  0
 19 20  4  0  0  0
 19 24  4  0  0  0
 20 21  4  0  0  0
 21 22  4  0  0  0
 22 23  4  0  0  0
 23 24  4  0  0  0
  1 25  1  0  0  0
  1 26  1  0  0  0
  1 27  1  0  0  0
  2 28  1  0  0  0
  2 29  1  0  0  0
  4 30  1  0  0  0
  4 31  1  0  0  0
  5 32  1  0  0  0
  5 33  1  0  0  0
  5 34  1  0  0  0
  6 35  1  0  0  0
  6 36  1  0  0  0
  6 37  1  0  0  0
 10 38  1  0  0  0
 13 39  1  0  0  0
 13 40  1  0  0  0
 15 41  1  0  0  0
 20 42  1  0  0  0
 21 43  1  0  0  0
 22 44  1  0  0  0
 23 45  1  0  0  0
 24 46  1  0  0  0
M  END
$$$$
