### 
### Created by X-TOOL on Mon Sep 10 21:13:03 2018
### 

@<TRIPOS>MOLECULE
2wtx_ligand
   52    53     1     0     0
SMALL
GAST_HUCK


@<TRIPOS>ATOM
      1 OAY        25.5040  -14.8200   75.7330 O.co2     1 VDO        -0.5537
      2 PBA        24.9690  -15.1990   77.2020 P.3       1 VDO         0.2007
      3 OAZ        26.2830  -15.1380   78.1700 O.co2     1 VDO        -0.5537
      4 OAX        24.3040  -16.5300   77.2180 O.co2     1 VDO        -0.5537
      5 OAW        23.9630  -14.0690   77.7280 O.3       1 VDO        -0.2757
      6 CAG        23.3760  -14.2040   79.0380 C.3       1 VDO         0.0839
      7 CAF        21.8540  -14.0800   78.9920 C.3       1 VDO         0.0205
      8 CAV        21.5000  -12.6160   78.6970 C.3       1 VDO         0.0005
      9 CAE        21.2300  -15.0100   77.9340 C.3       1 VDO         0.0891
     10 OAU        21.7560  -16.3410   78.0580 O.3       1 VDO        -0.3888
     11 CAC        19.7030  -14.9470   78.0810 C.3       1 VDO         0.1124
     12 OAP        19.0770  -15.8330   77.1470 O.3       1 VDO        -0.3864
     13 CAB        19.2130  -13.4980   77.8220 C.3       1 VDO         0.1257
     14 OAO        17.7990  -13.3830   78.0540 O.3       1 VDO        -0.3835
     15 CAA        19.9800  -12.3700   78.5990 C.3       1 VDO         0.0079
     16 NAN        19.4660  -12.0700   79.9610 N.4       1 VDO         0.2414
     17 CAM        18.0870  -11.5540   80.1130 C.3       1 VDO         0.0140
     18 CAL        17.5660  -12.1820   81.4160 C.2       1 VDO        -0.0543
     19 CAJ        18.0070   -9.9910   80.1280 C.3       1 VDO         0.1303
     20 OAT        19.0560   -9.4110   79.3340 O.3       1 VDO        -0.3821
     21 CAI        18.0820   -9.3430   81.5130 C.3       1 VDO         0.1215
     22 OAS        17.7870   -7.9640   81.3650 O.3       1 VDO        -0.3843
     23 CAH        17.0800   -9.9210   82.5110 C.3       1 VDO         0.1112
     24 OAR        17.3530   -9.3810   83.8220 O.3       1 VDO        -0.3780
     25 CAK        17.1590  -11.4520   82.5240 C.2       1 VDO        -0.0200
     26 CAD        16.6770  -12.2130   83.7510 C.3       1 VDO         0.0719
     27 OAQ        15.2720  -12.4130   83.6320 O.3       1 VDO        -0.3839
     28 H          23.7660  -13.4080   79.6723 H         1 VDO         0.0616
     29 H          23.6282  -15.1906   79.4268 H         1 VDO         0.0616
     30 H          21.4449  -14.3853   79.9551 H         1 VDO         0.0354
     31 H          21.9408  -12.3557   77.7347 H         1 VDO         0.0325
     32 H          21.8816  -12.0104   79.5190 H         1 VDO         0.0325
     33 H          21.4889  -14.6832   76.9269 H         1 VDO         0.0623
     34 H          22.7076  -16.3208   77.9328 H         1 VDO         0.2099
     35 H          19.4359  -15.2502   79.0934 H         1 VDO         0.0647
     36 H          18.1238  -15.7834   77.2500 H         1 VDO         0.2100
     37 H          19.4419  -13.3250   76.7704 H         1 VDO         0.0677
     38 H          17.3297  -13.9773   77.4640 H         1 VDO         0.2102
     39 H          19.7857  -11.4984   77.9739 H         1 VDO         0.0877
     40 H          20.0655  -11.3213   80.3080 H         1 VDO         0.2028
     41 H          19.4641  -12.9684   80.4439 H         1 VDO         0.2028
     42 H          17.4718  -11.8284   79.2561 H         1 VDO         0.0950
     43 H          17.5129  -13.2692   81.4732 H         1 VDO         0.0299
     44 H          17.0176   -9.7859   79.7192 H         1 VDO         0.0694
     45 H          18.9839   -8.4541   79.3603 H         1 VDO         0.2103
     46 H          19.0825   -9.5303   81.9030 H         1 VDO         0.0671
     47 H          18.4283   -7.5623   80.7743 H         1 VDO         0.2102
     48 H          16.0687   -9.6431   82.2141 H         1 VDO         0.0769
     49 H          17.2694   -8.4250   83.7968 H         1 VDO         0.2130
     50 H          16.8977  -11.6436   84.6538 H         1 VDO         0.0706
     51 H          17.1864  -13.1743   83.8179 H         1 VDO         0.0706
     52 H          15.0882  -12.9194   82.8374 H         1 VDO         0.2125
@<TRIPOS>BOND
     1    1    2 ar 
     2    2    3 ar 
     3    2    4 ar 
     4    2    5 1  
     5    5    6 1  
     6    6    7 1  
     7    7    8 1  
     8    7    9 1  
     9    8   15 1  
    10    9   10 1  
    11    9   11 1  
    12   11   12 1  
    13   11   13 1  
    14   13   14 1  
    15   13   15 1  
    16   15   16 1  
    17   16   17 1  
    18   17   18 1  
    19   17   19 1  
    20   18   25 2  
    21   19   20 1  
    22   19   21 1  
    23   21   22 1  
    24   21   23 1  
    25   23   24 1  
    26   23   25 1  
    27   25   26 1  
    28   26   27 1  
    29    6   28 1  
    30    6   29 1  
    31    7   30 1  
    32    8   31 1  
    33    8   32 1  
    34    9   33 1  
    35   10   34 1  
    36   11   35 1  
    37   12   36 1  
    38   13   37 1  
    39   14   38 1  
    40   15   39 1  
    41   16   40 1  
    42   16   41 1  
    43   17   42 1  
    44   18   43 1  
    45   19   44 1  
    46   20   45 1  
    47   21   46 1  
    48   22   47 1  
    49   23   48 1  
    50   24   49 1  
    51   26   50 1  
    52   26   51 1  
    53   27   52 1  
@<TRIPOS>SUBSTRUCTURE
     1 VDO         1

