2wtx_ligand
  -I-interpret- 

 54 55  0  0  0  0  0  0  0  0999 V2000
   25.5040  -14.8200   75.7330 O   0  0  0  0  0
   24.9690  -15.1990   77.2020 P   0  0  0  0  0
   26.2830  -15.1380   78.1700 O   0  0  0  0  0
   24.3040  -16.5300   77.2180 O   0  0  0  0  0
   23.9630  -14.0690   77.7280 O   0  0  0  0  0
   23.3760  -14.2040   79.0380 C   0  0  0  0  0
   21.8540  -14.0800   78.9920 C   0  0  0  0  0
   21.5000  -12.6160   78.6970 C   0  0  0  0  0
   21.2300  -15.0100   77.9340 C   0  0  0  0  0
   21.7560  -16.3410   78.0580 O   0  0  0  0  0
   19.7030  -14.9470   78.0810 C   0  0  0  0  0
   19.0770  -15.8330   77.1470 O   0  0  0  0  0
   19.2130  -13.4980   77.8220 C   0  0  0  0  0
   17.7990  -13.3830   78.0540 O   0  0  0  0  0
   19.9800  -12.3700   78.5990 C   0  0  0  0  0
   19.4660  -12.0700   79.9610 N   0  3  0  0  0
   18.0870  -11.5540   80.1130 C   0  0  0  0  0
   17.5660  -12.1820   81.4160 C   0  0  0  0  0
   18.0070   -9.9910   80.1280 C   0  0  0  0  0
   19.0560   -9.4110   79.3340 O   0  0  0  0  0
   18.0820   -9.3430   81.5130 C   0  0  0  0  0
   17.7870   -7.9640   81.3650 O   0  0  0  0  0
   17.0800   -9.9210   82.5110 C   0  0  0  0  0
   17.3530   -9.3810   83.8220 O   0  0  0  0  0
   17.1590  -11.4520   82.5240 C   0  0  0  0  0
   16.6770  -12.2130   83.7510 C   0  0  0  0  0
   15.2720  -12.4130   83.6320 O   0  0  0  0  0
   25.9259  -13.9581   75.7598 H   0  0  0  0  0
   26.6730  -14.2620   78.1235 H   0  0  0  0  0
   23.7660  -13.4080   79.6723 H   0  0  0  0  0
   23.6282  -15.1906   79.4268 H   0  0  0  0  0
   21.4449  -14.3853   79.9551 H   0  0  0  0  0
   21.9408  -12.3557   77.7347 H   0  0  0  0  0
   21.8816  -12.0104   79.5190 H   0  0  0  0  0
   21.4889  -14.6832   76.9269 H   0  0  0  0  0
   21.3564  -16.9051   77.3919 H   0  0  0  0  0
   19.4359  -15.2502   79.0934 H   0  0  0  0  0
   18.1238  -15.7833   77.2500 H   0  0  0  0  0
   19.4419  -13.3250   76.7704 H   0  0  0  0  0
   17.5210  -12.4794   77.8874 H   0  0  0  0  0
   19.7857  -11.4984   77.9739 H   0  0  0  0  0
   20.0655  -11.3213   80.3080 H   0  0  0  0  0
   19.4641  -12.9684   80.4439 H   0  0  0  0  0
   17.4718  -11.8284   79.2561 H   0  0  0  0  0
   17.5129  -13.2692   81.4732 H   0  0  0  0  0
   17.0176   -9.7859   79.7192 H   0  0  0  0  0
   18.9839   -8.4541   79.3603 H   0  0  0  0  0
   19.0825   -9.5303   81.9030 H   0  0  0  0  0
   17.8280   -7.5353   82.2230 H   0  0  0  0  0
   16.0687   -9.6431   82.2141 H   0  0  0  0  0
   16.7254   -9.7418   84.4525 H   0  0  0  0  0
   16.8977  -11.6436   84.6538 H   0  0  0  0  0
   17.1864  -13.1743   83.8179 H   0  0  0  0  0
   14.9520  -12.8926   84.3996 H   0  0  0  0  0
  1  2  1  0  0  0
  2  3  1  0  0  0
  2  4  2  0  0  0
  2  5  1  0  0  0
  5  6  1  0  0  0
  6  7  1  0  0  0
  7  8  1  0  0  0
  7  9  1  0  0  0
  8 15  1  0  0  0
  9 10  1  0  0  0
  9 11  1  0  0  0
 11 12  1  0  0  0
 11 13  1  0  0  0
 13 14  1  0  0  0
 13 15  1  0  0  0
 15 16  1  0  0  0
 16 17  1  0  0  0
 17 18  1  0  0  0
 17 19  1  0  0  0
 18 25  2  0  0  0
 19 20  1  0  0  0
 19 21  1  0  0  0
 21 22  1  0  0  0
 21 23  1  0  0  0
 23 24  1  0  0  0
 23 25  1  0  0  0
 25 26  1  0  0  0
 26 27  1  0  0  0
  1 28  1  0  0  0
  3 29  1  0  0  0
  6 30  1  0  0  0
  6 31  1  0  0  0
  7 32  1  0  0  0
  8 33  1  0  0  0
  8 34  1  0  0  0
  9 35  1  0  0  0
 10 36  1  0  0  0
 11 37  1  0  0  0
 12 38  1  0  0  0
 13 39  1  0  0  0
 14 40  1  0  0  0
 15 41  1  0  0  0
 16 42  1  0  0  0
 16 43  1  0  0  0
 17 44  1  0  0  0
 18 45  1  0  0  0
 19 46  1  0  0  0
 20 47  1  0  0  0
 21 48  1  0  0  0
 22 49  1  0  0  0
 23 50  1  0  0  0
 24 51  1  0  0  0
 26 52  1  0  0  0
 26 53  1  0  0  0
 27 54  1  0  0  0
M  END
$$$$
