4eu0_ligand
  -I-interpret- 

 70 76  0  0  0  0  0  0  0  0999 V2000
   17.2080    3.3670   13.6760 P   0  0  0  0  0
   18.5850    2.7980   13.9410 O   0  0  0  0  0
   16.7930    4.6390   14.3690 O   0  0  0  0  0
   16.1080    2.2500   13.9770 O   0  0  0  0  0
   16.2350    0.9100   13.5050 C   0  0  0  0  0
   14.9400    0.1330   13.7180 C   0  0  0  0  0
   14.7250   -0.0990   15.1200 O   0  0  0  0  0
   13.6760    0.8240   13.2180 C   0  0  0  0  0
   13.3520    0.5600   11.8480 O   0  0  0  0  0
   12.6190    0.2410   14.1200 C   0  0  0  0  0
   12.2920   -1.0720   13.6540 O   0  0  0  0  0
   13.3490    0.0990   15.4380 C   0  0  0  0  0
   13.1940    1.3330   16.2600 N   0  0  0  0  0
   14.1610    2.2180   16.5600 C   0  0  0  0  0
   13.6800    3.2230   17.3380 N   0  0  0  0  0
   12.3780    2.9550   17.5440 C   0  0  0  0  0
   11.2690    3.6010   18.2620 C   0  0  0  0  0
   11.4860    4.7490   18.9390 O   0  0  0  0  0
   10.0500    3.0160   18.2310 N   0  0  0  0  0
    9.8000    1.8680   17.5440 C   0  0  0  0  0
    8.5440    1.3710   17.5670 N   0  0  0  0  0
   10.7810    1.2200   16.8550 N   0  0  0  0  0
   12.0530    1.7120   16.8240 C   0  0  0  0  0
   12.4960    1.6370   11.0100 P   0  0  0  0  0
   12.1790    1.0560    9.6410 O   0  0  0  0  0
   11.3610    2.2150   11.8300 O   0  0  0  0  0
   13.5790    2.7950   10.7690 O   0  0  0  0  0
   14.8060    2.5130   10.0980 C   0  0  0  0  0
   15.6720    3.7560   10.1340 C   0  0  0  0  0
   14.9740    4.8680    9.5720 O   0  0  0  0  0
   15.9760    4.1940   11.5520 C   0  0  0  0  0
   17.1110    3.5440   12.0840 O   0  0  0  0  0
   16.1970    5.6790   11.4310 C   0  0  0  0  0
   17.5200    5.9490   10.9460 O   0  0  0  0  0
   15.1830    6.0390   10.3670 C   0  0  0  0  0
   13.9130    6.4780   11.0080 N   0  0  0  0  0
   12.7590    5.7890   11.0850 C   0  0  0  0  0
   11.7990    6.5020   11.7290 N   0  0  0  0  0
   12.3480    7.6810   12.0800 C   0  0  0  0  0
   11.9040    8.9110   12.7810 C   0  0  0  0  0
   10.6390    9.0340   13.2590 O   0  0  0  0  0
   12.7970    9.9140   12.9380 N   0  0  0  0  0
   14.0700    9.8260   12.4750 C   0  0  0  0  0
   14.9110   10.8730   12.6670 N   0  0  0  0  0
   14.5370    8.7310   11.8200 N   0  0  0  0  0
   13.7380    7.6560   11.6010 C   0  0  0  0  0
   18.7008    1.9927   13.4314 H   0  0  0  0  0
   17.0344    0.4176   14.0587 H   0  0  0  0  0
   16.4582    0.9337   12.4384 H   0  0  0  0  0
   15.0874   -0.7791   13.1397 H   0  0  0  0  0
   13.7805    1.9085   13.2498 H   0  0  0  0  0
   11.7076    0.8367   14.1708 H   0  0  0  0  0
   11.6186   -1.4535   14.2220 H   0  0  0  0  0
   12.9464   -0.7335   16.0150 H   0  0  0  0  0
   15.1947    2.1395   16.2234 H   0  0  0  0  0
    9.2852    3.4539   18.7445 H   0  0  0  0  0
    8.3277    0.5083   17.0677 H   0  0  0  0  0
    7.8120    1.8585   18.0837 H   0  0  0  0  0
   12.9869    0.7288    9.2386 H   0  0  0  0  0
   14.6075    2.2282    9.0648 H   0  0  0  0  0
   15.3190    1.6883   10.5927 H   0  0  0  0  0
   16.5781    3.4951    9.5872 H   0  0  0  0  0
   15.1696    3.9397   12.2398 H   0  0  0  0  0
   16.0942    6.2253   12.3686 H   0  0  0  0  0
   17.6458    6.8980   10.8742 H   0  0  0  0  0
   15.5377    6.8600    9.7439 H   0  0  0  0  0
   12.6136    4.7868   10.6819 H   0  0  0  0  0
   12.5047   10.7642   13.4199 H   0  0  0  0  0
   15.8699   10.8267   12.3225 H   0  0  0  0  0
   14.5844   11.7065   13.1559 H   0  0  0  0  0
  1  2  1  0  0  0
  1  3  2  0  0  0
  1  4  1  0  0  0
  1 32  1  0  0  0
  4  5  1  0  0  0
  5  6  1  0  0  0
  6  7  1  0  0  0
  6  8  1  0  0  0
  7 12  1  0  0  0
  8  9  1  0  0  0
  8 10  1  0  0  0
  9 24  1  0  0  0
 10 11  1  0  0  0
 10 12  1  0  0  0
 12 13  1  0  0  0
 13 14  4  0  0  0
 13 23  4  0  0  0
 14 15  4  0  0  0
 15 16  4  0  0  0
 16 17  1  0  0  0
 16 23  4  0  0  0
 17 18  2  0  0  0
 17 19  1  0  0  0
 19 20  1  0  0  0
 20 21  1  0  0  0
 20 22  2  0  0  0
 22 23  1  0  0  0
 24 25  1  0  0  0
 24 26  2  0  0  0
 24 27  1  0  0  0
 27 28  1  0  0  0
 28 29  1  0  0  0
 29 30  1  0  0  0
 29 31  1  0  0  0
 30 35  1  0  0  0
 31 32  1  0  0  0
 31 33  1  0  0  0
 33 34  1  0  0  0
 33 35  1  0  0  0
 35 36  1  0  0  0
 36 37  4  0  0  0
 36 46  4  0  0  0
 37 38  4  0  0  0
 38 39  4  0  0  0
 39 40  1  0  0  0
 39 46  4  0  0  0
 40 41  2  0  0  0
 40 42  1  0  0  0
 42 43  1  0  0  0
 43 44  1  0  0  0
 43 45  2  0  0  0
 45 46  1  0  0  0
  2 47  1  0  0  0
  5 48  1  0  0  0
  5 49  1  0  0  0
  6 50  1  0  0  0
  8 51  1  0  0  0
 10 52  1  0  0  0
 11 53  1  0  0  0
 12 54  1  0  0  0
 14 55  1  0  0  0
 19 56  1  0  0  0
 21 57  1  0  0  0
 21 58  1  0  0  0
 25 59  1  0  0  0
 28 60  1  0  0  0
 28 61  1  0  0  0
 29 62  1  0  0  0
 31 63  1  0  0  0
 33 64  1  0  0  0
 34 65  1  0  0  0
 35 66  1  0  0  0
 37 67  1  0  0  0
 42 68  1  0  0  0
 44 69  1  0  0  0
 44 70  1  0  0  0
M  END
$$$$
