3h59_ligand
  -I-interpret- 

 68 71  0  0  0  0  0  0  0  0999 V2000
   -8.3190   -9.8640    8.1780 C   0  0  0  0  0
   -7.9110   -9.9980    6.8590 C   0  0  0  0  0
   -6.6300   -9.6440    6.4340 C   0  0  0  0  0
   -5.7360   -9.1010    7.3300 C   0  0  0  0  0
   -6.1400   -8.9360    8.6540 C   0  0  0  0  0
   -7.4160   -9.3230    9.0840 C   0  0  0  0  0
  -10.5380   -7.8900   11.3480 C   0  0  0  0  0
  -10.8720   -7.0490   10.3190 C   0  0  0  0  0
  -10.7330   -7.8270    9.0240 C   0  0  0  0  0
  -10.1930   -9.1550    9.4340 N   0  0  0  0  0
  -10.1050   -9.1650   10.7940 C   0  0  0  0  0
  -10.6110   -7.6850   15.7480 C   0  0  0  0  0
   -9.8950   -8.6250   14.9920 C   0  0  0  0  0
   -9.3790   -9.7800   15.6230 C   0  0  0  0  0
   -9.5540   -9.9700   16.9880 C   0  0  0  0  0
  -10.2570   -9.0280   17.7540 C   0  0  0  0  0
  -10.7870   -7.9050   17.1100 C   0  0  0  0  0
  -10.4970   -7.6040   12.8090 C   0  0  0  0  0
   -9.7170   -8.4400   13.6160 N   0  0  0  0  0
  -11.2690   -6.1980   14.9840 S   0  0  0  0  0
  -11.2260   -6.5720   13.2670 C   0  0  0  0  0
  -12.6420   -5.9880   15.3670 O   0  0  0  0  0
  -10.3320   -5.1520   15.2840 O   0  0  0  0  0
  -10.4570   -9.2430   19.1490 N   0  0  0  0  0
  -10.7110   -8.0620   20.2800 S   0  0  0  0  0
  -12.5170   -7.9930   20.4300 C   0  0  0  0  0
  -10.1940   -8.6460   21.4620 O   0  0  0  0  0
  -10.2030   -6.8470   19.7540 O   0  0  0  0  0
  -11.2860   -5.7760   10.4480 O   0  0  0  0  0
   -9.6500  -10.0640   11.4870 O   0  0  0  0  0
   -9.7270  -10.2570    8.5780 C   0  0  0  0  0
   -4.4800   -8.7350    6.9150 F   0  0  0  0  0
   -6.2530   -9.8380    4.9800 C   0  0  0  0  0
  -12.1090   -7.8790    8.2820 C   0  0  0  0  0
  -12.4590   -6.4300    7.9340 C   0  0  0  0  0
  -13.2820   -6.3150    6.6710 C   0  0  0  0  0
  -12.0700   -8.7310    6.9920 C   0  0  0  0  0
  -13.2230   -8.4620    9.1690 C   0  0  0  0  0
   -8.6163  -10.3940    6.1284 H   0  0  0  0  0
   -5.4472   -8.4958    9.3712 H   0  0  0  0  0
   -7.6999   -9.1996   10.1291 H   0  0  0  0  0
  -10.0581   -7.3716    8.2992 H   0  0  0  0  0
   -8.8415  -10.5247   15.0360 H   0  0  0  0  0
   -9.1419  -10.8578   17.4676 H   0  0  0  0  0
  -11.3552   -7.1804   17.6933 H   0  0  0  0  0
   -8.9597   -8.9546   13.1664 H   0  0  0  0  0
  -11.7960   -5.9611   12.5670 H   0  0  0  0  0
  -10.4423  -10.2082   19.4785 H   0  0  0  0  0
  -12.9089   -9.0026   20.5535 H   0  0  0  0  0
  -12.7855   -7.3891   21.2968 H   0  0  0  0  0
  -12.9383   -7.5460   19.5295 H   0  0  0  0  0
  -11.4555   -5.4062    9.5785 H   0  0  0  0  0
   -9.7497  -11.2142    9.0988 H   0  0  0  0  0
  -10.3717  -10.3989    7.7106 H   0  0  0  0  0
   -6.3438  -10.8926    4.7200 H   0  0  0  0  0
   -6.9204   -9.2487    4.3512 H   0  0  0  0  0
   -5.2244   -9.5117    4.8260 H   0  0  0  0  0
  -11.5259   -5.8894    7.7755 H   0  0  0  0  0
  -13.0480   -6.0217    8.7553 H   0  0  0  0  0
  -12.7222   -6.7337    5.8347 H   0  0  0  0  0
  -14.2156   -6.8636    6.7960 H   0  0  0  0  0
  -13.4995   -5.2651    6.4749 H   0  0  0  0  0
  -11.3377   -8.3108    6.3026 H   0  0  0  0  0
  -11.7899   -9.7542    7.2423 H   0  0  0  0  0
  -13.0549   -8.7264    6.5251 H   0  0  0  0  0
  -12.9570   -9.4771    9.4640 H   0  0  0  0  0
  -13.3392   -7.8425   10.0583 H   0  0  0  0  0
  -14.1591   -8.4780    8.6109 H   0  0  0  0  0
  1  2  4  0  0  0
  1  6  4  0  0  0
 31  1  1  0  0  0
  2  3  4  0  0  0
  3  4  4  0  0  0
  3 33  1  0  0  0
  5  4  4  0  0  0
  4 32  1  0  0  0
  6  5  4  0  0  0
  7  8  2  0  0  0
  7 11  1  0  0  0
 18  7  1  0  0  0
  8  9  1  0  0  0
  8 29  1  0  0  0
 10  9  1  0  0  0
  9 34  1  0  0  0
 11 10  1  0  0  0
 10 31  1  0  0  0
 11 30  2  0  0  0
 13 12  4  0  0  0
 12 17  4  0  0  0
 12 20  1  0  0  0
 13 14  4  0  0  0
 19 13  1  0  0  0
 14 15  4  0  0  0
 15 16  4  0  0  0
 17 16  4  0  0  0
 16 24  1  0  0  0
 18 19  1  0  0  0
 18 21  2  0  0  0
 20 21  1  0  0  0
 20 22  2  0  0  0
 20 23  2  0  0  0
 24 25  1  0  0  0
 25 26  1  0  0  0
 25 27  2  0  0  0
 25 28  2  0  0  0
 34 35  1  0  0  0
 34 37  1  0  0  0
 34 38  1  0  0  0
 35 36  1  0  0  0
  2 39  1  0  0  0
  5 40  1  0  0  0
  6 41  1  0  0  0
  9 42  1  0  0  0
 14 43  1  0  0  0
 15 44  1  0  0  0
 17 45  1  0  0  0
 19 46  1  0  0  0
 21 47  1  0  0  0
 24 48  1  0  0  0
 26 49  1  0  0  0
 26 50  1  0  0  0
 26 51  1  0  0  0
 29 52  1  0  0  0
 31 53  1  0  0  0
 31 54  1  0  0  0
 33 55  1  0  0  0
 33 56  1  0  0  0
 33 57  1  0  0  0
 35 58  1  0  0  0
 35 59  1  0  0  0
 36 60  1  0  0  0
 36 61  1  0  0  0
 36 62  1  0  0  0
 37 63  1  0  0  0
 37 64  1  0  0  0
 37 65  1  0  0  0
 38 66  1  0  0  0
 38 67  1  0  0  0
 38 68  1  0  0  0
M  END
$$$$
