6cjj_ligand
  -I-interpret- 

 42 44  0  0  0  0  0  0  0  0999 V2000
  100.3410   42.3370  104.0140 P   0  0  0  0  0
  100.3760   41.0690  103.2030 O   0  0  0  0  0
  101.6450   43.1280  104.0510 O   0  0  0  0  0
   99.1200   43.1910  103.7150 O   0  0  0  0  0
   98.9070   41.8180  106.4760 P   0  0  0  0  0
   98.2980   43.1930  106.4900 O   0  0  0  0  0
   99.2800   41.1930  107.8000 O   0  0  0  0  0
  100.2150   41.7600  105.5240 O   0  0  0  0  0
   97.9130   40.7890  105.7450 O   0  0  0  0  0
   98.2550   39.4090  105.7570 C   0  0  0  0  0
   97.5590   38.7050  104.5980 C   0  0  0  0  0
   96.1820   38.4830  104.9400 O   0  0  0  0  0
   97.5060   39.4610  103.2710 C   0  0  0  0  0
   98.6960   39.3740  102.4680 O   0  0  0  0  0
   96.3190   38.8020  102.5900 C   0  0  0  0  0
   96.7070   37.5600  101.9620 O   0  0  0  0  0
   95.3860   38.5110  103.7520 C   0  0  0  0  0
   94.3630   39.5710  103.9240 N   0  0  0  0  0
   94.3010   40.4720  104.9400 C   0  0  0  0  0
   93.2050   41.2610  104.8020 N   0  0  0  0  0
   92.5680   40.8460  103.6790 C   0  0  0  0  0
   91.3680   41.2490  102.9440 C   0  0  0  0  0
   90.6400   42.2800  103.3960 N   0  0  0  0  0
   91.0370   40.5650  101.8310 N   0  0  0  0  0
   91.7870   39.5470  101.3580 C   0  0  0  0  0
   92.9120   39.1190  101.9720 N   0  0  0  0  0
   93.3290   39.7310  103.1130 C   0  0  0  0  0
  101.5258   43.9144  104.5885 H   0  0  0  0  0
   99.1454   43.9840  104.2555 H   0  0  0  0  0
   99.6551   40.3226  107.6473 H   0  0  0  0  0
   97.9353   38.9629  106.6987 H   0  0  0  0  0
   99.3346   39.3006  105.6533 H   0  0  0  0  0
   98.1599   37.8074  104.4523 H   0  0  0  0  0
   97.4183   40.5370  103.4215 H   0  0  0  0  0
   98.5721   39.8757  101.6590 H   0  0  0  0  0
   95.8815   39.4221  101.8076 H   0  0  0  0  0
   95.9415   37.1636  101.5395 H   0  0  0  0  0
   94.8743   37.5681  103.5593 H   0  0  0  0  0
   95.0271   40.5498  105.7493 H   0  0  0  0  0
   90.9246   42.7731  104.2423 H   0  0  0  0  0
   89.8015   42.5714  102.8936 H   0  0  0  0  0
   91.4714   39.0489  100.4413 H   0  0  0  0  0
  1  2  2  0  0  0
  1  3  1  0  0  0
  1  4  1  0  0  0
  8  1  1  0  0  0
  5  6  2  0  0  0
  5  7  1  0  0  0
  5  8  1  0  0  0
  5  9  1  0  0  0
  9 10  1  0  0  0
 10 11  1  0  0  0
 11 12  1  0  0  0
 11 13  1  0  0  0
 12 17  1  0  0  0
 13 14  1  0  0  0
 13 15  1  0  0  0
 15 16  1  0  0  0
 15 17  1  0  0  0
 17 18  1  0  0  0
 18 19  4  0  0  0
 18 27  4  0  0  0
 19 20  4  0  0  0
 20 21  4  0  0  0
 21 22  4  0  0  0
 21 27  4  0  0  0
 22 23  1  0  0  0
 22 24  4  0  0  0
 24 25  4  0  0  0
 25 26  4  0  0  0
 26 27  4  0  0  0
  3 28  1  0  0  0
  4 29  1  0  0  0
  7 30  1  0  0  0
 10 31  1  0  0  0
 10 32  1  0  0  0
 11 33  1  0  0  0
 13 34  1  0  0  0
 14 35  1  0  0  0
 15 36  1  0  0  0
 16 37  1  0  0  0
 17 38  1  0  0  0
 19 39  1  0  0  0
 23 40  1  0  0  0
 23 41  1  0  0  0
 25 42  1  0  0  0
M  END
$$$$
