### 
### Created by X-TOOL on Mon Aug  2 16:12:48 2021
### 

@<TRIPOS>MOLECULE
6cjj_ligand
   39    41     1     0     0
SMALL
GAST_HUCK


@<TRIPOS>ATOM
      1 PB        100.3410   42.3370  104.0140 P.3       1 ADP         0.2069
      2 O1B       100.3760   41.0690  103.2030 O.co2     1 ADP        -0.5891
      3 O2B       101.6450   43.1280  104.0510 O.co2     1 ADP        -0.5891
      4 O3B        99.1200   43.1910  103.7150 O.co2     1 ADP        -0.5891
      5 PA         98.9070   41.8180  106.4760 P.3       1 ADP         0.3276
      6 O1A        98.2980   43.1930  106.4900 O.co2     1 ADP        -0.5556
      7 O2A        99.2800   41.1930  107.8000 O.co2     1 ADP        -0.5556
      8 O3A       100.2150   41.7600  105.5240 O.3       1 ADP        -0.1548
      9 O5'        97.9130   40.7890  105.7450 O.3       1 ADP        -0.2436
     10 C5'        98.2550   39.4090  105.7570 C.3       1 ADP         0.1132
     11 C4'        97.5590   38.7050  104.5980 C.3       1 ADP         0.1189
     12 O4'        96.1820   38.4830  104.9400 O.3       1 ADP        -0.3364
     13 C3'        97.5060   39.4610  103.2710 C.3       1 ADP         0.1149
     14 O3'        98.6960   39.3740  102.4680 O.3       1 ADP        -0.3864
     15 C2'        96.3190   38.8020  102.5900 C.3       1 ADP         0.1385
     16 O2'        96.7070   37.5600  101.9620 O.3       1 ADP        -0.3836
     17 C1'        95.3860   38.5110  103.7520 C.3       1 ADP         0.2010
     18 N9         94.3630   39.5710  103.9240 N.pl3     1 ADP        -0.1919
     19 C8         94.3010   40.4720  104.9400 C.2       1 ADP         0.1123
     20 N7         93.2050   41.2610  104.8020 N.2       1 ADP        -0.2958
     21 C5         92.5680   40.8460  103.6790 C.ar      1 ADP         0.1045
     22 C6         91.3680   41.2490  102.9440 C.ar      1 ADP         0.1298
     23 N6         90.6400   42.2800  103.3960 N.pl3     1 ADP        -0.3152
     24 N1         91.0370   40.5650  101.8310 N.ar      1 ADP        -0.2698
     25 C2         91.7870   39.5470  101.3580 C.ar      1 ADP         0.0533
     26 N3         92.9120   39.1190  101.9720 N.ar      1 ADP        -0.2714
     27 C4         93.3290   39.7310  103.1130 C.ar      1 ADP         0.1613
     28 H1         97.9316   38.9590  106.7072 H         1 ADP         0.0648
     29 H2         99.3445   39.2999  105.6516 H         1 ADP         0.0648
     30 H3         98.0689   37.7441  104.4347 H         1 ADP         0.0651
     31 H4         97.3017   40.5257  103.4569 H         1 ADP         0.0648
     32 H5         99.4310   39.7301  102.9534 H         1 ADP         0.2100
     33 H6         95.8551   39.4719  101.8511 H         1 ADP         0.0676
     34 H7         95.9495   37.1677  101.5439 H         1 ADP         0.2101
     35 H8         94.8906   37.5415  103.5953 H         1 ADP         0.0996
     36 H9         95.0264   40.5497  105.7485 H         1 ADP         0.1349
     37 H10        89.7933   42.5742  102.8886 H         1 ADP         0.1820
     38 H11        90.9274   42.7779  104.2506 H         1 ADP         0.1820
     39 H12        91.4732   39.0516  100.4463 H         1 ADP         0.0996
@<TRIPOS>BOND
     1    1    2 ar 
     2    1    3 ar 
     3    1    4 ar 
     4    8    1 1  
     5    5    6 ar 
     6    5    7 ar 
     7    5    8 1  
     8    5    9 1  
     9    9   10 1  
    10   10   11 1  
    11   11   12 1  
    12   11   13 1  
    13   12   17 1  
    14   13   14 1  
    15   13   15 1  
    16   15   16 1  
    17   15   17 1  
    18   17   18 1  
    19   18   19 1  
    20   18   27 1  
    21   19   20 2  
    22   20   21 1  
    23   21   22 ar 
    24   21   27 ar 
    25   22   23 1  
    26   22   24 ar 
    27   24   25 ar 
    28   25   26 ar 
    29   26   27 ar 
    30   10   28 1  
    31   10   29 1  
    32   11   30 1  
    33   13   31 1  
    34   14   32 1  
    35   15   33 1  
    36   16   34 1  
    37   17   35 1  
    38   19   36 1  
    39   23   37 1  
    40   23   38 1  
    41   25   39 1  
@<TRIPOS>SUBSTRUCTURE
     1 ADP         1

