6eq7_ligand
  -I-interpret- 

 24 26  0  0  0  0  0  0  0  0999 V2000
  -15.5130  -12.4370    9.3180 C   0  0  0  0  0
  -16.0220  -16.7200   10.0260 C   0  0  0  0  0
  -12.6080  -16.8220   12.9980 C   0  0  0  0  0
  -14.2300  -16.3770   11.5930 C   0  0  0  0  0
  -15.2190  -15.8210   10.7290 C   0  0  0  0  0
  -15.3980  -14.4450   10.5990 C   0  0  0  0  0
  -15.6690  -13.6840   11.7240 C   0  0  0  0  0
  -15.8480  -12.3170   11.5890 C   0  0  0  0  0
  -15.3180  -13.8090    9.3670 C   0  0  0  0  0
  -15.8420  -18.0960   10.1690 C   0  0  0  0  0
  -14.0850  -17.7380   11.7050 C   0  0  0  0  0
  -15.0580  -14.5070    8.2240 F   0  0  0  0  0
  -11.5280  -16.6490   13.9440 N   0  0  0  0  0
  -13.2850  -15.8370   12.4180 N   0  0  0  0  0
  -15.7690  -11.7330   10.4060 N   0  0  0  0  0
  -14.9000  -18.5490   10.9850 N   0  0  0  0  0
  -13.0730  -17.9880   12.5830 N   0  0  0  0  0
  -15.4535  -11.9263    8.3569 H   0  0  0  0  0
  -16.7973  -16.3435    9.3587 H   0  0  0  0  0
  -15.7406  -14.1553   12.7043 H   0  0  0  0  0
  -16.0573  -11.7136   12.4723 H   0  0  0  0  0
  -16.4705  -18.7930    9.6146 H   0  0  0  0  0
  -11.2319  -15.7110   14.2140 H   0  0  0  0  0
  -11.0624  -17.4650   14.3413 H   0  0  0  0  0
  9  1  4  0  0  0
  1 15  4  0  0  0
  5  2  4  0  0  0
  2 10  4  0  0  0
  3 13  1  0  0  0
 14  3  4  0  0  0
  3 17  4  0  0  0
  5  4  4  0  0  0
  4 11  4  0  0  0
  4 14  4  0  0  0
  6  5  1  0  0  0
  6  7  4  0  0  0
  6  9  4  0  0  0
  7  8  4  0  0  0
  8 15  4  0  0  0
  9 12  1  0  0  0
 10 16  4  0  0  0
 11 16  4  0  0  0
 11 17  4  0  0  0
  1 18  1  0  0  0
  2 19  1  0  0  0
  7 20  1  0  0  0
  8 21  1  0  0  0
 10 22  1  0  0  0
 13 23  1  0  0  0
 13 24  1  0  0  0
M  END
$$$$
