3obu_ligand
  -I-interpret- 

132135  0  0  0  0  0  0  0  0999 V2000
   -7.2870   -2.6170    1.9870 N   0  3  0  0  0
   -6.5670   -1.8520    3.0300 C   0  0  0  0  0
   -5.0820   -1.7820    2.6930 C   0  0  0  0  0
   -4.5070   -0.6990    2.5660 O   0  0  0  0  0
   -6.7910   -2.5830    4.3460 C   0  0  0  0  0
   -8.0880   -3.3460    4.0670 C   0  0  0  0  0
   -7.9940   -3.7590    2.5940 C   0  0  0  0  0
   -4.4720   -2.9520    2.5460 N   0  0  0  0  0
   -3.0530   -3.0560    2.2240 C   0  0  0  0  0
   -2.8650   -3.7660    0.8830 C   0  0  0  0  0
   -3.4590   -4.8130    0.6470 O   0  0  0  0  0
   -2.3350   -3.8340    3.3290 C   0  0  0  0  0
   -0.9640   -4.3500    2.9430 C   0  0  0  0  0
    0.1370   -3.7210    3.7630 C   0  0  0  0  0
    0.1970   -2.4740    3.8080 O   0  0  0  0  0
    0.9420   -4.4710    4.3550 O   0  0  0  0  0
   -2.0370   -3.2000   -0.0130 N   0  0  0  0  0
   -1.7980   -3.8140   -1.3230 C   0  0  0  0  0
   -1.3010   -5.2500   -1.1840 C   0  0  0  0  0
   -0.3850   -5.5240   -0.4110 O   0  0  0  0  0
   -0.7410   -2.9050   -1.9460 C   0  0  0  0  0
   -1.0390   -1.5690   -1.3370 C   0  0  0  0  0
   -1.3000   -1.9310    0.1140 C   0  0  0  0  0
   -1.9160   -6.1650   -1.9220 N   0  0  0  0  0
   -1.5070   -7.5630   -1.8880 C   0  0  0  0  0
   -1.5450   -8.1200   -3.3030 C   0  0  0  0  0
   -2.2540   -7.5990   -4.1640 O   0  0  0  0  0
   -2.4350   -8.4220   -0.9930 C   0  0  0  0  0
   -3.7950   -8.2700   -1.4170 O   0  0  0  0  0
   -2.3010   -8.0130    0.4680 C   0  0  0  0  0
   -0.7790   -9.1780   -3.5370 N   0  0  0  0  0
   -0.7260   -9.8070   -4.8480 C   0  0  0  0  0
   -0.5890  -11.3130   -4.6720 C   0  0  0  0  0
   -0.0430  -11.7800   -3.6730 O   0  0  0  0  0
    0.4540   -9.2610   -5.6350 C   0  0  0  0  0
   -1.0920  -12.0930   -5.6390 N   0  0  0  0  0
   -1.0110  -13.5550   -5.5630 C   0  0  0  0  0
    0.3900  -14.0780   -5.8610 C   0  0  0  0  0
    1.2100  -13.3830   -6.4500 O   0  0  0  0  0
   -2.0230  -14.0030   -6.6100 C   0  0  0  0  0
   -1.8590  -12.9580   -7.6680 C   0  0  0  0  0
   -1.8050  -11.6700   -6.8590 C   0  0  0  0  0
    0.6870  -15.3160   -5.4420 N   0  0  0  0  0
    2.0200  -15.8680   -5.7110 C   0  0  0  0  0
    2.1170  -16.3290   -7.1660 C   0  0  0  0  0
    1.0960  -16.5840   -7.7980 O   0  0  0  0  0
    2.1160  -17.0270   -4.7250 C   0  0  0  0  0
    0.6890  -17.5000   -4.6310 C   0  0  0  0  0
   -0.0940  -16.2040   -4.5610 C   0  0  0  0  0
    3.3310  -16.4260   -7.7030 N   0  0  0  0  0
    3.4920  -16.8660   -9.0870 C   0  0  0  0  0
    2.7310  -18.1700   -9.3030 C   0  0  0  0  0
    3.0330  -19.1820   -8.6730 O   0  0  0  0  0
    4.9710  -17.0670   -9.4340 C   0  0  0  0  0
    5.7710  -15.7780   -9.6450 C   0  0  0  0  0
    5.2720  -14.9400  -10.8170 C   0  0  0  0  0
    4.7570  -15.5180  -11.8000 O   0  0  0  0  0
    5.4150  -13.6980  -10.7660 O   0  0  0  0  0
    1.7380  -18.1120  -10.1880 N   0  0  0  0  0
    0.8720  -19.2360  -10.5520 C   0  0  0  0  0
   -0.4790  -18.7150  -11.0320 C   0  0  0  0  0
   -1.4720  -18.8840  -10.2880 O   0  0  0  0  0
    0.6370  -20.1950   -9.3760 C   0  0  0  0  0
    1.6570  -21.3190   -9.2670 C   0  0  0  0  0
    1.9130  -21.9910  -10.5930 C   0  0  0  0  0
    0.9690  -22.5940  -11.1480 O   0  0  0  0  0
    3.0590  -21.9070  -11.0840 O   0  0  0  0  0
   -0.5280  -18.1390  -12.1390 O   0  0  0  0  0
   -6.6150   -2.9645    1.3028 H   0  0  0  0  0
   -7.9658   -2.0063    1.5324 H   0  0  0  0  0
   -6.9338   -0.8277    3.0957 H   0  0  0  0  0
   -6.8581   -1.9158    5.2053 H   0  0  0  0  0
   -5.9606   -3.2303    4.6279 H   0  0  0  0  0
   -8.9679   -2.7323    4.2598 H   0  0  0  0  0
   -8.1986   -4.2094    4.7230 H   0  0  0  0  0
   -7.4770   -4.7075    2.4486 H   0  0  0  0  0
   -8.9670   -3.9487    2.1408 H   0  0  0  0  0
   -5.0144   -3.8080    2.6623 H   0  0  0  0  0
   -2.6300   -2.0541    2.1509 H   0  0  0  0  0
   -2.9505   -4.7036    3.5591 H   0  0  0  0  0
   -2.1945   -3.1472    4.1637 H   0  0  0  0  0
   -0.7910   -4.1000    1.8963 H   0  0  0  0  0
   -0.9453   -5.4254    3.1201 H   0  0  0  0  0
    0.7099   -5.3866    4.1836 H   0  0  0  0  0
   -2.6995   -3.8909   -1.9309 H   0  0  0  0  0
   -0.7865   -2.8910   -3.0350 H   0  0  0  0  0
    0.2758   -3.2421   -1.7448 H   0  0  0  0  0
   -1.8769   -1.0573   -1.8105 H   0  0  0  0  0
   -0.2305   -0.8488   -1.4623 H   0  0  0  0  0
   -0.3896   -2.0187    0.7069 H   0  0  0  0  0
   -1.8525   -1.1641    0.6569 H   0  0  0  0  0
   -2.6897   -5.8845   -2.5245 H   0  0  0  0  0
   -0.5012   -7.6062   -1.4702 H   0  0  0  0  0
   -2.1400   -9.4669   -1.0892 H   0  0  0  0  0
   -4.3646   -8.8044   -0.8589 H   0  0  0  0  0
   -1.2694   -8.1542    0.7904 H   0  0  0  0  0
   -2.5767   -6.9641    0.5771 H   0  0  0  0  0
   -2.9613   -8.6290    1.0784 H   0  0  0  0  0
   -0.2133   -9.5598   -2.7790 H   0  0  0  0  0
   -1.6414   -9.5890   -5.3981 H   0  0  0  0  0
    0.3410   -8.1837   -5.7562 H   0  0  0  0  0
    1.3776   -9.4723   -5.0961 H   0  0  0  0  0
    0.4868   -9.7368   -6.6151 H   0  0  0  0  0
   -1.2237  -13.9394   -4.5655 H   0  0  0  0  0
   -3.0405  -14.0719   -6.2253 H   0  0  0  0  0
   -1.8490  -15.0159   -6.9730 H   0  0  0  0  0
   -2.6644  -12.9658   -8.4024 H   0  0  0  0  0
   -0.9728  -13.1113   -8.2838 H   0  0  0  0  0
   -1.3080  -10.8546   -7.3846 H   0  0  0  0  0
   -2.7902  -11.2504   -6.6556 H   0  0  0  0  0
    2.8341  -15.1543   -5.5846 H   0  0  0  0  0
    2.5309  -16.7323   -3.7611 H   0  0  0  0  0
    2.8024  -17.8080   -5.0520 H   0  0  0  0  0
    0.5136  -18.1472   -3.7717 H   0  0  0  0  0
    0.3949  -18.1270   -5.4727 H   0  0  0  0  0
   -1.1323  -16.3132   -4.8742 H   0  0  0  0  0
   -0.1960  -15.8192   -3.5463 H   0  0  0  0  0
    4.1527  -16.1921   -7.1458 H   0  0  0  0  0
    3.0899  -16.0923   -9.7411 H   0  0  0  0  0
    5.0003  -17.6121  -10.3775 H   0  0  0  0  0
    5.4244  -17.5822   -8.5872 H   0  0  0  0  0
    6.8011  -16.0623   -9.8597 H   0  0  0  0  0
    5.6669  -15.1755   -8.7427 H   0  0  0  0  0
    5.8275  -13.4585   -9.9329 H   0  0  0  0  0
    1.5674  -17.2174  -10.6472 H   0  0  0  0  0
    1.3793  -19.7851  -11.3452 H   0  0  0  0  0
   -1.1995  -19.3481   -9.4930 H   0  0  0  0  0
   -0.3360  -20.6605   -9.5328 H   0  0  0  0  0
    0.7126  -19.6051   -8.4625 H   0  0  0  0  0
    1.2631  -22.0673   -8.5793 H   0  0  0  0  0
    2.5965  -20.8902   -8.9184 H   0  0  0  0  0
    0.1844  -22.5327  -10.5983 H   0  0  0  0  0
  1  2  1  0  0  0
  1  7  1  0  0  0
  2  3  1  0  0  0
  2  5  1  0  0  0
  3  4  2  0  0  0
  3  8  1  0  0  0
  5  6  1  0  0  0
  6  7  1  0  0  0
  8  9  1  0  0  0
  9 10  1  0  0  0
  9 12  1  0  0  0
 10 11  2  0  0  0
 10 17  1  0  0  0
 12 13  1  0  0  0
 13 14  1  0  0  0
 14 15  2  0  0  0
 14 16  1  0  0  0
 17 18  1  0  0  0
 17 23  1  0  0  0
 18 19  1  0  0  0
 18 21  1  0  0  0
 19 20  2  0  0  0
 19 24  1  0  0  0
 21 22  1  0  0  0
 22 23  1  0  0  0
 24 25  1  0  0  0
 25 26  1  0  0  0
 25 28  1  0  0  0
 26 27  2  0  0  0
 26 31  1  0  0  0
 28 29  1  0  0  0
 28 30  1  0  0  0
 31 32  1  0  0  0
 32 33  1  0  0  0
 32 35  1  0  0  0
 33 34  2  0  0  0
 33 36  1  0  0  0
 36 37  1  0  0  0
 36 42  1  0  0  0
 37 38  1  0  0  0
 37 40  1  0  0  0
 38 39  2  0  0  0
 38 43  1  0  0  0
 40 41  1  0  0  0
 41 42  1  0  0  0
 43 44  1  0  0  0
 43 49  1  0  0  0
 44 45  1  0  0  0
 44 47  1  0  0  0
 45 46  2  0  0  0
 45 50  1  0  0  0
 47 48  1  0  0  0
 48 49  1  0  0  0
 50 51  1  0  0  0
 51 52  1  0  0  0
 51 54  1  0  0  0
 52 53  2  0  0  0
 52 59  1  0  0  0
 54 55  1  0  0  0
 55 56  1  0  0  0
 56 57  2  0  0  0
 56 58  1  0  0  0
 59 60  1  0  0  0
 60 61  1  0  0  0
 60 63  1  0  0  0
 61 62  1  0  0  0
 61 68  2  0  0  0
 63 64  1  0  0  0
 64 65  1  0  0  0
 65 66  1  0  0  0
 65 67  2  0  0  0
  1 69  1  0  0  0
  1 70  1  0  0  0
  2 71  1  0  0  0
  5 72  1  0  0  0
  5 73  1  0  0  0
  6 74  1  0  0  0
  6 75  1  0  0  0
  7 76  1  0  0  0
  7 77  1  0  0  0
  8 78  1  0  0  0
  9 79  1  0  0  0
 12 80  1  0  0  0
 12 81  1  0  0  0
 13 82  1  0  0  0
 13 83  1  0  0  0
 16 84  1  0  0  0
 18 85  1  0  0  0
 21 86  1  0  0  0
 21 87  1  0  0  0
 22 88  1  0  0  0
 22 89  1  0  0  0
 23 90  1  0  0  0
 23 91  1  0  0  0
 24 92  1  0  0  0
 25 93  1  0  0  0
 28 94  1  0  0  0
 29 95  1  0  0  0
 30 96  1  0  0  0
 30 97  1  0  0  0
 30 98  1  0  0  0
 31 99  1  0  0  0
 32100  1  0  0  0
 35101  1  0  0  0
 35102  1  0  0  0
 35103  1  0  0  0
 37104  1  0  0  0
 40105  1  0  0  0
 40106  1  0  0  0
 41107  1  0  0  0
 41108  1  0  0  0
 42109  1  0  0  0
 42110  1  0  0  0
 44111  1  0  0  0
 47112  1  0  0  0
 47113  1  0  0  0
 48114  1  0  0  0
 48115  1  0  0  0
 49116  1  0  0  0
 49117  1  0  0  0
 50118  1  0  0  0
 51119  1  0  0  0
 54120  1  0  0  0
 54121  1  0  0  0
 55122  1  0  0  0
 55123  1  0  0  0
 58124  1  0  0  0
 59125  1  0  0  0
 60126  1  0  0  0
 62127  1  0  0  0
 63128  1  0  0  0
 63129  1  0  0  0
 64130  1  0  0  0
 64131  1  0  0  0
 66132  1  0  0  0
M  END
$$$$
