1b39_ligand
  -I-interpret- 

 47 49  0  0  0  0  0  0  0  0999 V2000
   -3.8060   25.2170   15.7960 P   0  0  0  0  0
   -4.1470   25.2770   17.2230 O   0  0  0  0  0
   -3.5140   26.5690   15.2590 O   0  0  0  0  0
   -4.9980   24.7420   15.0250 O   0  0  0  0  0
   -1.4360   24.5350   14.4010 P   0  0  0  0  0
   -0.7930   25.8360   14.4390 O   0  0  0  0  0
   -0.4340   23.4400   14.4360 O   0  0  0  0  0
   -2.5790   24.2690   15.4730 O   0  0  0  0  0
   -2.8020   25.3650   11.8640 P   0  0  0  0  0
   -3.8840   24.6190   11.1230 O   0  0  0  0  0
   -3.4190   26.6090   12.3770 O   0  0  0  0  0
   -2.2630   24.3570   13.0150 O   0  0  0  0  0
   -1.5540   25.6300   10.9420 O   0  0  0  0  0
   -1.2960   24.5100   10.0350 C   0  0  0  0  0
    0.1480   24.6480    9.5540 C   0  0  0  0  0
    0.2470   25.7950    8.6900 O   0  0  0  0  0
    1.0820   24.8900   10.7500 C   0  0  0  0  0
    2.3580   24.3110   10.3220 O   0  0  0  0  0
    1.2020   26.4580   10.6800 C   0  0  0  0  0
    2.4490   26.8180   11.3240 O   0  0  0  0  0
    1.1960   26.7160    9.1440 C   0  0  0  0  0
    0.5880   27.9960    8.7420 N   0  0  0  0  0
   -0.4270   28.5920    9.4270 C   0  0  0  0  0
   -0.6080   29.8390    9.2460 N   0  0  0  0  0
    0.2980   30.1600    8.3500 C   0  0  0  0  0
    0.5590   31.3880    7.7830 C   0  0  0  0  0
   -0.0550   32.5380    8.0200 N   0  0  0  0  0
    1.5820   31.4330    6.8990 N   0  0  0  0  0
    2.2910   30.2940    6.6180 C   0  0  0  0  0
    2.1100   29.0770    7.1120 N   0  0  0  0  0
    1.0760   29.0740    7.9910 C   0  0  0  0  0
   -3.2946   26.5013   14.3269 H   0  0  0  0  0
   -4.7784   24.7016   14.0913 H   0  0  0  0  0
   -0.8858   22.5934   14.4098 H   0  0  0  0  0
   -3.5243   23.8011   10.7720 H   0  0  0  0  0
   -1.9868   24.5294    9.1921 H   0  0  0  0  0
   -1.4431   23.5584   10.5458 H   0  0  0  0  0
    0.4318   23.7338    9.0326 H   0  0  0  0  0
    0.7854   24.5024   11.7246 H   0  0  0  0  0
    3.0079   24.4202   11.0201 H   0  0  0  0  0
    0.4238   27.0382   11.1758 H   0  0  0  0  0
    2.5565   27.7717   11.3001 H   0  0  0  0  0
    2.2217   26.6739    8.7776 H   0  0  0  0  0
   -1.0614   28.0219   10.1057 H   0  0  0  0  0
   -0.8200   32.5784    8.6934 H   0  0  0  0  0
    0.2373   33.3829    7.5290 H   0  0  0  0  0
    3.1038   30.4021    5.8999 H   0  0  0  0  0
  1  2  2  0  0  0
  1  3  1  0  0  0
  1  4  1  0  0  0
  8  1  1  0  0  0
  5  6  2  0  0  0
  5  7  1  0  0  0
  5  8  1  0  0  0
 12  5  1  0  0  0
  9 10  1  0  0  0
  9 11  2  0  0  0
  9 12  1  0  0  0
  9 13  1  0  0  0
 13 14  1  0  0  0
 14 15  1  0  0  0
 15 16  1  0  0  0
 15 17  1  0  0  0
 16 21  1  0  0  0
 17 18  1  0  0  0
 17 19  1  0  0  0
 19 20  1  0  0  0
 19 21  1  0  0  0
 21 22  1  0  0  0
 22 23  4  0  0  0
 22 31  4  0  0  0
 23 24  4  0  0  0
 24 25  4  0  0  0
 25 26  4  0  0  0
 25 31  4  0  0  0
 26 27  1  0  0  0
 26 28  4  0  0  0
 28 29  4  0  0  0
 29 30  4  0  0  0
 30 31  4  0  0  0
  3 32  1  0  0  0
  4 33  1  0  0  0
  7 34  1  0  0  0
 10 35  1  0  0  0
 14 36  1  0  0  0
 14 37  1  0  0  0
 15 38  1  0  0  0
 17 39  1  0  0  0
 18 40  1  0  0  0
 19 41  1  0  0  0
 20 42  1  0  0  0
 21 43  1  0  0  0
 23 44  1  0  0  0
 27 45  1  0  0  0
 27 46  1  0  0  0
 29 47  1  0  0  0
M  END
$$$$
