4izy_ligand
  -I-interpret- 

 64 68  0  0  0  0  0  0  0  0999 V2000
  -12.8530   11.1450  -18.2320 N   0  0  0  0  0
  -12.1860   10.6390  -19.2580 C   0  0  0  0  0
  -12.5180    9.4570  -19.7740 N   0  0  0  0  0
  -13.5410    8.7360  -19.2950 C   0  0  0  0  0
  -14.2520    9.2410  -18.1980 C   0  0  0  0  0
  -13.8800   10.4770  -17.6930 C   0  0  0  0  0
  -13.8620    7.4820  -19.8350 N   0  0  0  0  0
  -14.7660    5.4490  -19.9270 C   0  0  0  0  0
  -14.6440    6.5570  -19.1840 C   0  0  0  0  0
  -13.9960    5.6580  -21.1600 C   0  0  0  0  0
  -13.4450    6.9550  -21.0490 C   0  0  0  0  0
  -12.6520    7.4410  -22.0920 C   0  0  0  0  0
  -12.4140    6.6560  -23.2050 C   0  0  0  0  0
  -12.9520    5.3710  -23.3100 C   0  0  0  0  0
  -13.7500    4.8520  -22.2960 C   0  0  0  0  0
  -14.3100    3.5500  -22.3910 N   0  0  0  0  0
  -11.1270   11.3540  -19.7940 N   0  0  0  0  0
  -10.2970   10.7570  -20.8520 C   0  0  0  0  0
   -9.2290    9.8420  -20.2290 C   0  0  0  0  0
   -8.3150    9.2560  -21.3140 C   0  0  0  0  0
   -7.6740   10.3740  -22.1460 C   0  0  0  0  0
   -8.7600   11.2550  -22.7690 C   0  0  0  0  0
   -9.6420   11.8730  -21.6770 C   0  0  0  0  0
   -6.9330    9.7520  -23.1920 O   0  0  0  0  0
  -14.3770    2.9510  -23.7460 C   0  0  0  0  0
  -15.4560    1.8600  -23.7380 C   0  0  0  0  0
  -15.1050    0.7980  -22.6750 C   0  0  0  0  0
  -14.9240    1.4650  -21.2930 C   0  0  0  0  0
  -13.8610    2.5770  -21.3760 C   0  0  0  0  0
  -16.3770   -0.5160  -22.6330 S   0  0  0  0  0
  -17.5430   -0.0820  -21.9320 O   0  0  0  0  0
  -16.5330   -1.0260  -23.9560 O   0  0  0  0  0
  -15.5400   -1.7900  -21.6320 C   0  0  0  0  0
  -15.0736    8.6782  -17.7548 H   0  0  0  0  0
  -14.4261   10.9068  -16.8533 H   0  0  0  0  0
  -15.3330    4.5558  -19.6645 H   0  0  0  0  0
  -15.0990    6.7041  -18.2045 H   0  0  0  0  0
  -12.2207    8.4400  -22.0280 H   0  0  0  0  0
  -11.7964    7.0462  -24.0139 H   0  0  0  0  0
  -12.7444    4.7695  -24.1950 H   0  0  0  0  0
  -10.9229   12.2941  -19.4551 H   0  0  0  0  0
  -10.9219   10.1533  -21.5101 H   0  0  0  0  0
   -9.7267    9.0238  -19.7085 H   0  0  0  0  0
   -8.6235   10.4279  -19.5375 H   0  0  0  0  0
   -8.9108    8.6243  -21.9728 H   0  0  0  0  0
   -7.5256    8.6772  -20.8345 H   0  0  0  0  0
   -7.0357   10.9941  -21.5166 H   0  0  0  0  0
   -9.3817   10.6424  -23.4219 H   0  0  0  0  0
   -8.2847   12.0556  -23.3357 H   0  0  0  0  0
   -9.0286   12.4939  -21.0241 H   0  0  0  0  0
  -10.4170   12.4840  -22.1398 H   0  0  0  0  0
   -6.5175   10.4271  -23.7335 H   0  0  0  0  0
  -13.4118    2.5202  -24.0124 H   0  0  0  0  0
  -14.6250    3.7165  -24.4812 H   0  0  0  0  0
  -15.5044    1.3893  -24.7200 H   0  0  0  0  0
  -16.4221    2.3059  -23.5013 H   0  0  0  0  0
  -14.1595    0.3267  -22.9431 H   0  0  0  0  0
  -14.5996    0.7135  -20.5732 H   0  0  0  0  0
  -15.8728    1.9002  -20.9792 H   0  0  0  0  0
  -13.7446    3.0643  -20.4080 H   0  0  0  0  0
  -12.8937    2.1579  -21.6532 H   0  0  0  0  0
  -15.2588   -1.3661  -20.6680 H   0  0  0  0  0
  -16.2161   -2.6309  -21.4773 H   0  0  0  0  0
  -14.6466   -2.1319  -22.1545 H   0  0  0  0  0
  1  2  4  0  0  0
  1  6  4  0  0  0
  2  3  4  0  0  0
  2 17  1  0  0  0
  3  4  4  0  0  0
  4  5  4  0  0  0
  4  7  1  0  0  0
  5  6  4  0  0  0
  7  9  4  0  0  0
  7 11  4  0  0  0
  9  8  4  0  0  0
  8 10  4  0  0  0
 10 11  4  0  0  0
 10 15  4  0  0  0
 11 12  4  0  0  0
 12 13  4  0  0  0
 13 14  4  0  0  0
 14 15  4  0  0  0
 15 16  1  0  0  0
 16 25  1  0  0  0
 16 29  1  0  0  0
 17 18  1  0  0  0
 18 19  1  0  0  0
 18 23  1  0  0  0
 19 20  1  0  0  0
 20 21  1  0  0  0
 21 22  1  0  0  0
 21 24  1  0  0  0
 22 23  1  0  0  0
 25 26  1  0  0  0
 26 27  1  0  0  0
 27 28  1  0  0  0
 27 30  1  0  0  0
 28 29  1  0  0  0
 30 31  2  0  0  0
 30 32  2  0  0  0
 30 33  1  0  0  0
  5 34  1  0  0  0
  6 35  1  0  0  0
  8 36  1  0  0  0
  9 37  1  0  0  0
 12 38  1  0  0  0
 13 39  1  0  0  0
 14 40  1  0  0  0
 17 41  1  0  0  0
 18 42  1  0  0  0
 19 43  1  0  0  0
 19 44  1  0  0  0
 20 45  1  0  0  0
 20 46  1  0  0  0
 21 47  1  0  0  0
 22 48  1  0  0  0
 22 49  1  0  0  0
 23 50  1  0  0  0
 23 51  1  0  0  0
 24 52  1  0  0  0
 25 53  1  0  0  0
 25 54  1  0  0  0
 26 55  1  0  0  0
 26 56  1  0  0  0
 27 57  1  0  0  0
 28 58  1  0  0  0
 28 59  1  0  0  0
 29 60  1  0  0  0
 29 61  1  0  0  0
 33 62  1  0  0  0
 33 63  1  0  0  0
 33 64  1  0  0  0
M  END
$$$$
