5upf_ligand
  -I-interpret- 

 57 60  0  0  0  0  0  0  0  0999 V2000
   15.4800    7.7940    1.7350 N   0  0  0  0  0
   15.2180    2.7730   -4.5380 C   0  0  0  0  0
   15.4400    3.9790   -3.6200 C   0  0  0  0  0
   14.8620    3.7170   -2.2250 C   0  0  0  0  0
   13.4020    3.2460   -2.3280 C   0  0  0  0  0
   13.2600    2.0800   -3.3020 C   0  0  0  0  0
   16.0670    4.8320   -0.3210 C   0  0  0  0  0
   14.6600    8.8130    2.1350 C   0  0  0  0  0
   15.3500    9.0300    5.6090 C   0  0  0  0  0
   15.1660    9.1630    8.0180 C   0  0  0  0  0
   14.2470    9.8710    5.4820 C   0  0  0  0  0
   14.0160   10.2320    4.0470 C   0  0  0  0  0
   14.3390    6.9940   -0.3440 C   0  0  0  0  0
   13.4340   10.4900    8.9490 F   0  0  0  0  0
   14.0670    9.9890    7.8440 C   0  0  0  0  0
   15.8010    8.6660    6.8800 C   0  0  0  0  0
   13.5880   10.3470    6.6100 C   0  0  0  0  0
   15.9110    8.7090    4.2510 C   0  0  0  0  0
   14.9600    9.3620    3.3440 N   0  0  0  0  0
   13.6380    9.1340    1.5400 O   0  0  0  0  0
   15.3270    6.9100    0.6390 C   0  0  0  0  0
   16.2210    5.8430    0.6090 C   0  0  0  0  0
   14.2140    5.9910   -1.2920 C   0  0  0  0  0
   15.0550    4.8780   -1.2750 C   0  0  0  0  0
   13.7900    2.4450   -4.6250 N   0  0  0  0  0
   13.1030    2.5290   -5.7810 C   0  0  0  0  0
   13.6500    2.8870   -6.8090 O   0  0  0  0  0
   11.6200    2.2010   -5.9860 C   0  0  0  0  0
   11.2140    1.0890   -5.1770 O   0  0  0  0  0
   10.7890    3.4210   -5.6040 C   0  0  0  0  0
   11.3870    1.8040   -7.4440 C   0  0  0  0  0
   16.3150    7.6513    2.3031 H   0  0  0  0  0
   15.7528    1.9155   -4.1297 H   0  0  0  0  0
   15.5857    3.0159   -5.5349 H   0  0  0  0  0
   14.9377    4.8451   -4.0509 H   0  0  0  0  0
   16.5114    4.1574   -3.5280 H   0  0  0  0  0
   15.4336    2.9046   -1.7763 H   0  0  0  0  0
   12.7956    4.0758   -2.6910 H   0  0  0  0  0
   13.0748    2.9152   -1.3423 H   0  0  0  0  0
   12.2041    1.8284   -3.4010 H   0  0  0  0  0
   13.8218    1.2283   -2.9185 H   0  0  0  0  0
   16.7508    3.9833   -0.3068 H   0  0  0  0  0
   15.5240    8.9090    9.0157 H   0  0  0  0  0
   13.3197   10.9599    3.6306 H   0  0  0  0  0
   13.6647    7.8501   -0.3658 H   0  0  0  0  0
   16.6513    7.9918    6.9827 H   0  0  0  0  0
   12.7122   10.9890    6.5157 H   0  0  0  0  0
   16.8029    8.1339    4.0022 H   0  0  0  0  0
   17.0452    5.8048    1.3213 H   0  0  0  0  0
   13.4472    6.0729   -2.0624 H   0  0  0  0  0
   10.2832    0.9085   -5.3271 H   0  0  0  0  0
   10.9715    3.6705   -4.5587 H   0  0  0  0  0
   11.0719    4.2637   -6.2348 H   0  0  0  0  0
    9.7316    3.1979   -5.7464 H   0  0  0  0  0
   11.6717    2.6311   -8.0944 H   0  0  0  0  0
   11.9912    0.9285   -7.6818 H   0  0  0  0  0
   10.3326    1.5704   -7.5916 H   0  0  0  0  0
  1  8  1  0  0  0
 21  1  1  0  0  0
  3  2  1  0  0  0
  2 25  1  0  0  0
  4  3  1  0  0  0
  4  5  1  0  0  0
 24  4  1  0  0  0
  5  6  1  0  0  0
  6 25  1  0  0  0
 22  7  4  0  0  0
  7 24  4  0  0  0
  8 19  1  0  0  0
  8 20  2  0  0  0
  9 11  4  0  0  0
  9 16  4  0  0  0
 18  9  4  0  0  0
 10 15  4  0  0  0
 16 10  4  0  0  0
 12 11  4  0  0  0
 11 17  4  0  0  0
 19 12  4  0  0  0
 21 13  4  0  0  0
 13 23  4  0  0  0
 15 14  1  0  0  0
 17 15  4  0  0  0
 19 18  4  0  0  0
 21 22  4  0  0  0
 23 24  4  0  0  0
 25 26  1  0  0  0
 26 27  2  0  0  0
 26 28  1  0  0  0
 28 29  1  0  0  0
 28 30  1  0  0  0
 28 31  1  0  0  0
  1 32  1  0  0  0
  2 33  1  0  0  0
  2 34  1  0  0  0
  3 35  1  0  0  0
  3 36  1  0  0  0
  4 37  1  0  0  0
  5 38  1  0  0  0
  5 39  1  0  0  0
  6 40  1  0  0  0
  6 41  1  0  0  0
  7 42  1  0  0  0
 10 43  1  0  0  0
 12 44  1  0  0  0
 13 45  1  0  0  0
 16 46  1  0  0  0
 17 47  1  0  0  0
 18 48  1  0  0  0
 22 49  1  0  0  0
 23 50  1  0  0  0
 29 51  1  0  0  0
 30 52  1  0  0  0
 30 53  1  0  0  0
 30 54  1  0  0  0
 31 55  1  0  0  0
 31 56  1  0  0  0
 31 57  1  0  0  0
M  END
$$$$
