5vlr_ligand
  -I-interpret- 

 63 67  0  0  0  0  0  0  0  0999 V2000
   44.2210   13.6030   31.3190 C   0  0  0  0  0
   45.5480   13.3470   33.3890 C   0  0  0  0  0
   43.0720   13.3850   33.4740 C   0  0  0  0  0
   42.1610   15.6690   33.9300 C   0  0  0  0  0
   38.5960   12.7880   35.8540 C   0  0  0  0  0
   40.9960   13.0210   35.8440 C   0  0  0  0  0
   38.5100   13.4810   34.6490 C   0  0  0  0  0
   45.8950   15.8640   31.2270 O   0  0  0  0  0
   45.1950   16.3180   32.1160 C   0  0  0  0  0
   45.1730   17.7960   32.3730 C   0  0  0  0  0
   44.4060   15.5010   32.9270 N   0  0  0  0  0
   43.5980   16.0910   34.0050 C   0  0  0  0  0
   44.3080   14.0100   32.7900 C   0  0  0  0  0
   42.9710   12.1660   33.5440 O   0  0  0  0  0
   42.0960   14.2030   33.9920 N   0  0  0  0  0
   40.9200   13.7140   34.6340 C   0  0  0  0  0
   39.8320   12.5600   36.4480 C   0  0  0  0  0
   39.6750   13.9410   34.0400 C   0  0  0  0  0
   37.2090   13.7600   34.0020 C   0  0  0  0  0
   36.2090   12.8880   33.6450 C   0  0  0  0  0
   35.1440   13.6220   33.0560 C   0  0  0  0  0
   35.5130   14.9830   33.0560 C   0  0  0  0  0
   34.9700   16.2440   32.6470 C   0  0  0  0  0
   33.7610   16.3350   32.0580 N   0  0  0  0  0
   35.6600   17.3620   32.8400 N   0  0  0  0  0
   36.8620   17.2790   33.4140 C   0  0  0  0  0
   37.4810   16.2160   33.8280 N   0  0  0  0  0
   36.7620   15.0440   33.6320 N   0  0  0  0  0
   33.8940   13.0540   32.5590 C   0  0  0  0  0
   32.6210   13.5890   32.7630 C   0  0  0  0  0
   31.7590   12.7060   32.1200 C   0  0  0  0  0
   32.3980   11.6920   31.5500 N   0  0  0  0  0
   33.7210   11.9200   31.8280 N   0  0  0  0  0
   34.7250   10.9960   31.3260 C   0  0  0  0  0
   34.8070   11.0540   29.8280 C   0  0  0  0  0
   35.0530   12.2910   29.4090 F   0  0  0  0  0
   33.6620   10.6870   29.2580 F   0  0  0  0  0
   35.7510   10.2630   29.3210 F   0  0  0  0  0
   43.3373   14.0560   30.8697 H   0  0  0  0  0
   45.1131   13.9462   30.7950 H   0  0  0  0  0
   44.1508   12.5176   31.2472 H   0  0  0  0  0
   46.4360   13.6983   32.8634 H   0  0  0  0  0
   45.6228   13.6064   34.4450 H   0  0  0  0  0
   45.4664   12.2651   33.2842 H   0  0  0  0  0
   41.7207   16.0197   32.9966 H   0  0  0  0  0
   41.6050   16.0995   34.7629 H   0  0  0  0  0
   37.6885   12.4221   36.3343 H   0  0  0  0  0
   41.9637   12.8424   36.3127 H   0  0  0  0  0
   46.1772   18.1340   32.6290 H   0  0  0  0  0
   44.8312   18.3142   31.4771 H   0  0  0  0  0
   44.4947   18.0098   33.1990 H   0  0  0  0  0
   44.0027   15.7503   34.9580 H   0  0  0  0  0
   43.6390   17.1757   33.9054 H   0  0  0  0  0
   39.8886   12.0173   37.3916 H   0  0  0  0  0
   39.6157   14.4810   33.0950 H   0  0  0  0  0
   36.2292   11.8079   33.7901 H   0  0  0  0  0
   33.2091   15.4931   31.8937 H   0  0  0  0  0
   33.3981   17.2458   31.7766 H   0  0  0  0  0
   37.3902   18.2224   33.5525 H   0  0  0  0  0
   32.3599   14.4974   33.3059 H   0  0  0  0  0
   30.6769   12.8332   32.0879 H   0  0  0  0  0
   34.4489    9.9841   31.6226 H   0  0  0  0  0
   35.6942   11.2731   31.7406 H   0  0  0  0  0
 13  1  1  0  0  0
 13  2  1  0  0  0
  3 13  1  0  0  0
  3 14  2  0  0  0
 15  3  1  0  0  0
  4 12  1  0  0  0
 15  4  1  0  0  0
  5  7  4  0  0  0
 17  5  4  0  0  0
 16  6  4  0  0  0
  6 17  4  0  0  0
  7 18  4  0  0  0
  7 19  1  0  0  0
  9  8  2  0  0  0
  9 10  1  0  0  0
 11  9  1  0  0  0
 12 11  1  0  0  0
 13 11  1  0  0  0
 15 16  1  0  0  0
 16 18  4  0  0  0
 19 20  4  0  0  0
 19 28  4  0  0  0
 20 21  4  0  0  0
 21 22  4  0  0  0
 21 29  1  0  0  0
 22 23  4  0  0  0
 22 28  4  0  0  0
 23 24  1  0  0  0
 23 25  4  0  0  0
 25 26  4  0  0  0
 26 27  4  0  0  0
 27 28  4  0  0  0
 29 30  4  0  0  0
 29 33  4  0  0  0
 30 31  4  0  0  0
 31 32  4  0  0  0
 32 33  4  0  0  0
 33 34  1  0  0  0
 34 35  1  0  0  0
 35 36  1  0  0  0
 35 37  1  0  0  0
 35 38  1  0  0  0
  1 39  1  0  0  0
  1 40  1  0  0  0
  1 41  1  0  0  0
  2 42  1  0  0  0
  2 43  1  0  0  0
  2 44  1  0  0  0
  4 45  1  0  0  0
  4 46  1  0  0  0
  5 47  1  0  0  0
  6 48  1  0  0  0
 10 49  1  0  0  0
 10 50  1  0  0  0
 10 51  1  0  0  0
 12 52  1  0  0  0
 12 53  1  0  0  0
 17 54  1  0  0  0
 18 55  1  0  0  0
 20 56  1  0  0  0
 24 57  1  0  0  0
 24 58  1  0  0  0
 26 59  1  0  0  0
 30 60  1  0  0  0
 31 61  1  0  0  0
 34 62  1  0  0  0
 34 63  1  0  0  0
M  END
$$$$
