4v04_ligand
  -I-interpret- 

 68 72  0  0  0  0  0  0  0  0999 V2000
   87.3620   -0.8800    9.4030 N   0  0  0  0  0
   85.9390    0.6900   25.2760 N   0  3  0  0  0
   88.3420    1.6940   13.3250 C   0  0  0  0  0
   88.8380    2.0420   14.6170 C   0  0  0  0  0
   89.9180    2.9050   14.7390 C   0  0  0  0  0
   90.4040    3.1610   16.0120 C   0  0  0  0  0
   89.8570    2.5550   17.1260 C   0  0  0  0  0
   88.3010    1.4220   15.7220 C   0  0  0  0  0
   88.0860    0.8470   20.6330 C   0  0  0  0  0
   87.6090    1.2560   22.9390 C   0  0  0  0  0
   87.0070   -0.8390   21.9710 C   0  0  0  0  0
   86.4490   -0.4200   24.4190 C   0  0  0  0  0
   84.6120    1.1880   24.8200 C   0  0  0  0  0
   84.1980    2.3870   25.6430 C   0  0  0  0  0
   85.8570    0.3150   26.6980 C   0  0  0  0  0
   85.5710    0.3820    8.2110 C   0  0  0  0  0
   84.8410    1.4950    8.3090 C   0  0  0  0  0
   85.0460    2.3900    9.4020 C   0  0  0  0  0
   85.9110    2.2260   10.3550 N   0  0  0  0  0
   86.6440    1.0680   10.2180 N   0  0  0  0  0
   86.5180    0.1260    9.2110 C   0  0  0  0  0
   88.0290   -0.6000   10.5640 C   0  0  0  0  0
   87.6140    0.6040   11.0650 C   0  0  0  0  0
   88.0130    1.2500   12.2600 C   0  0  0  0  0
   88.8020    1.6770   16.9960 C   0  0  0  0  0
   90.5340    3.5470   13.5460 C   0  0  0  0  0
   88.1530    0.9510   18.1330 C   0  0  0  0  0
   87.2810    0.1370   17.9070 O   0  0  0  0  0
   88.5990    1.2740   19.4050 N   0  0  0  0  0
   88.1230    1.6790   21.7270 C   0  0  0  0  0
   87.0300    0.0040   23.0790 C   0  0  0  0  0
   87.5400   -0.4090   20.7670 C   0  0  0  0  0
   86.3940   -2.2090   22.0080 C   0  0  0  0  0
   85.0870   -2.1510   22.3780 F   0  0  0  0  0
   87.0430   -3.0830   22.8340 F   0  0  0  0  0
   86.3740   -2.8420   20.8100 F   0  0  0  0  0
   85.4470    1.4960   27.5490 C   0  0  0  0  0
   83.6600    3.1550   27.9290 C   0  0  0  0  0
   84.1430    2.0350   27.0950 N   0  3  0  0  0
   86.6230    1.4405   25.1801 H   0  0  0  0  0
   91.2352    3.8551   16.1362 H   0  0  0  0  0
   90.2620    2.7723   18.1144 H   0  0  0  0  0
   87.4737    0.7231   15.5985 H   0  0  0  0  0
   87.6600    1.9202   23.8017 H   0  0  0  0  0
   85.5951   -1.0607   24.1991 H   0  0  0  0  0
   87.2591   -0.8940   24.9733 H   0  0  0  0  0
   83.8716    0.3973   24.9412 H   0  0  0  0  0
   84.6794    1.4790   23.7717 H   0  0  0  0  0
   83.2088    2.7120   25.3207 H   0  0  0  0  0
   84.9289    3.1829   25.5000 H   0  0  0  0  0
   86.8385   -0.0275   27.0258 H   0  0  0  0  0
   85.1103   -0.4713   26.8091 H   0  0  0  0  0
   85.4344   -0.3072    7.3777 H   0  0  0  0  0
   84.0879    1.7207    7.5540 H   0  0  0  0  0
   84.4247    3.2848    9.4390 H   0  0  0  0  0
   88.7810   -1.2419   11.0229 H   0  0  0  0  0
   90.9041    2.7758   12.8705 H   0  0  0  0  0
   89.7860    4.1521   13.0337 H   0  0  0  0  0
   91.3615    4.1817   13.8631 H   0  0  0  0  0
   89.4018    1.9016   19.4506 H   0  0  0  0  0
   88.5585    2.6743   21.6387 H   0  0  0  0  0
   87.5267   -1.0795   19.9077 H   0  0  0  0  0
   86.2030    2.2761   27.4600 H   0  0  0  0  0
   85.3544    1.1707   28.5852 H   0  0  0  0  0
   84.3299    4.0071   27.8140 H   0  0  0  0  0
   82.6555    3.4355   27.6120 H   0  0  0  0  0
   83.6395    2.8457   28.9740 H   0  0  0  0  0
   83.4506    1.2954   27.2130 H   0  0  0  0  0
  1 21  4  0  0  0
 22  1  4  0  0  0
 12  2  1  0  0  0
  2 13  1  0  0  0
  2 15  1  0  0  0
  4  3  1  0  0  0
  3 24  3  0  0  0
  4  5  4  0  0  0
  8  4  4  0  0  0
  6  5  4  0  0  0
  5 26  1  0  0  0
  7  6  4  0  0  0
 25  7  4  0  0  0
 25  8  4  0  0  0
 29  9  1  0  0  0
  9 30  4  0  0  0
  9 32  4  0  0  0
 30 10  4  0  0  0
 10 31  4  0  0  0
 11 31  4  0  0  0
 32 11  4  0  0  0
 11 33  1  0  0  0
 31 12  1  0  0  0
 13 14  1  0  0  0
 14 39  1  0  0  0
 15 37  1  0  0  0
 16 17  4  0  0  0
 21 16  4  0  0  0
 18 17  4  0  0  0
 19 18  4  0  0  0
 20 19  4  0  0  0
 20 21  4  0  0  0
 23 20  4  0  0  0
 23 22  4  0  0  0
 24 23  1  0  0  0
 27 25  1  0  0  0
 27 28  2  0  0  0
 27 29  1  0  0  0
 33 34  1  0  0  0
 33 35  1  0  0  0
 33 36  1  0  0  0
 37 39  1  0  0  0
 39 38  1  0  0  0
  2 40  1  0  0  0
  6 41  1  0  0  0
  7 42  1  0  0  0
  8 43  1  0  0  0
 10 44  1  0  0  0
 12 45  1  0  0  0
 12 46  1  0  0  0
 13 47  1  0  0  0
 13 48  1  0  0  0
 14 49  1  0  0  0
 14 50  1  0  0  0
 15 51  1  0  0  0
 15 52  1  0  0  0
 16 53  1  0  0  0
 17 54  1  0  0  0
 18 55  1  0  0  0
 22 56  1  0  0  0
 26 57  1  0  0  0
 26 58  1  0  0  0
 26 59  1  0  0  0
 29 60  1  0  0  0
 30 61  1  0  0  0
 32 62  1  0  0  0
 37 63  1  0  0  0
 37 64  1  0  0  0
 38 65  1  0  0  0
 38 66  1  0  0  0
 38 67  1  0  0  0
 39 68  1  0  0  0
M  END
$$$$
