2cne_ligand
  -I-interpret- 

 75 77  0  0  0  0  0  0  0  0999 V2000
   13.3590   35.6090   10.9980 C   0  0  0  0  0
   12.1980   35.1520   11.7760 C   0  0  0  0  0
   12.2750   34.7180   13.1850 C   0  0  0  0  0
   13.5730   34.7350   13.8620 C   0  0  0  0  0
   14.6960   35.1980   13.0360 C   0  0  0  0  0
   14.6730   35.6400   11.6380 C   0  0  0  0  0
   10.9000   35.1230   11.0900 C   0  0  0  0  0
    9.7480   36.4580   11.3080 P   0  0  0  0  0
   10.0360   33.9560   11.3790 F   0  0  0  0  0
   10.9350   35.0640    9.6000 F   0  0  0  0  0
    8.5250   35.8930   10.1260 O   0  0  0  0  0
   10.6050   37.8510   10.6480 O   0  0  0  0  0
    9.3350   36.4470   13.0170 O   0  0  0  0  0
   16.0570   35.2170   13.6850 C   0  0  0  0  0
   16.7360   33.8660   13.5470 C   0  0  0  0  0
   16.2190   32.8530   14.0100 O   0  0  0  0  0
   17.8790   33.7800   12.8630 N   0  0  0  0  0
   18.4990   32.4410   12.8070 C   0  0  0  0  0
   19.8890   32.4330   13.4400 C   0  0  0  0  0
   20.7870   33.1670   13.0260 O   0  0  0  0  0
   20.1080   31.6020   14.4670 N   0  0  0  0  0
   21.4100   31.6260   15.1680 C   0  0  0  0  0
   22.4800   30.8140   14.4540 C   0  0  0  0  0
   23.5960   31.2800   14.2660 O   0  0  0  0  0
   21.2070   31.0720   16.5860 C   0  0  0  0  0
   22.4600   31.1370   17.4330 C   0  0  0  0  0
   22.1440   29.5910   14.0700 N   0  0  0  0  0
   19.3040   30.6560   11.2050 C   0  0  0  0  0
   18.5060   29.4660   11.5210 C   0  0  0  0  0
   19.1770   28.1610   11.3950 C   0  0  0  0  0
   20.5830   28.1180   10.9690 C   0  0  0  0  0
   21.3560   29.3300   10.6590 C   0  0  0  0  0
   20.7140   30.6470   10.7740 C   0  0  0  0  0
   22.9310   29.8780   18.0110 C   0  0  0  0  0
   24.1370   29.9620   18.8330 C   0  0  0  0  0
   24.7610   31.2830   19.0050 C   0  0  0  0  0
   24.2600   32.5300   18.4060 C   0  0  0  0  0
   23.0610   32.4610   17.5870 C   0  0  0  0  0
   25.9550   31.3200   19.8400 C   0  0  0  0  0
   26.8380   32.3440   19.3730 F   0  0  0  0  0
   26.6290   30.0390   19.8640 F   0  0  0  0  0
   25.7480   31.6130   21.7170 P   0  0  0  0  0
   27.3030   31.3940   22.3270 O   0  0  0  0  0
   24.6360   30.4250   22.1690 O   0  0  0  0  0
   25.2030   33.2350   21.8840 O   0  0  0  0  0
   18.6140   32.0010   11.3410 C   0  0  0  0  0
   13.2417   35.9199    9.9599 H   0  0  0  0  0
   11.3795   34.3901   13.7129 H   0  0  0  0  0
   13.6967   34.4274   14.9003 H   0  0  0  0  0
   15.5707   35.9679   11.1139 H   0  0  0  0  0
    8.8866   35.9546    9.2389 H   0  0  0  0  0
   10.7602   37.7150    9.7104 H   0  0  0  0  0
   15.9392   35.4457   14.7442 H   0  0  0  0  0
   16.6711   35.9719   13.1940 H   0  0  0  0  0
   18.2987   34.5900   12.4067 H   0  0  0  0  0
   17.8671   31.7534   13.3692 H   0  0  0  0  0
   19.3787   30.9541   14.7650 H   0  0  0  0  0
   21.7603   32.6579   15.1908 H   0  0  0  0  0
   20.9225   30.0237   16.4948 H   0  0  0  0  0
   20.4452   31.6803   17.0737 H   0  0  0  0  0
   22.8273   28.9989   13.5978 H   0  0  0  0  0
   21.2021   29.2417   14.2466 H   0  0  0  0  0
   17.4650   29.5441   11.8344 H   0  0  0  0  0
   18.6381   27.2394   11.6147 H   0  0  0  0  0
   21.0727   27.1483   10.8792 H   0  0  0  0  0
   22.3973   29.2521   10.3463 H   0  0  0  0  0
   21.2520   31.5687   10.5523 H   0  0  0  0  0
   22.4137   28.9341   17.8390 H   0  0  0  0  0
   24.5602   29.0744   19.3033 H   0  0  0  0  0
   24.7727   33.4775   18.5715 H   0  0  0  0  0
   22.6343   33.3458   17.1146 H   0  0  0  0  0
   23.7808   30.6246   21.7812 H   0  0  0  0  0
   24.3163   33.3121   21.5244 H   0  0  0  0  0
   19.2063   32.7441   10.8070 H   0  0  0  0  0
   17.6078   31.9114   10.9316 H   0  0  0  0  0
  1  2  4  0  0  0
  6  1  4  0  0  0
  3  2  4  0  0  0
  2  7  1  0  0  0
  4  3  4  0  0  0
  5  4  4  0  0  0
  5  6  4  0  0  0
 14  5  1  0  0  0
  7  8  1  0  0  0
  7  9  1  0  0  0
  7 10  1  0  0  0
  8 11  1  0  0  0
  8 12  1  0  0  0
  8 13  2  0  0  0
 15 14  1  0  0  0
 15 16  2  0  0  0
 17 15  1  0  0  0
 18 17  1  0  0  0
 18 19  1  0  0  0
 46 18  1  0  0  0
 19 20  2  0  0  0
 19 21  1  0  0  0
 21 22  1  0  0  0
 22 23  1  0  0  0
 22 25  1  0  0  0
 23 24  2  0  0  0
 23 27  1  0  0  0
 25 26  1  0  0  0
 26 34  4  0  0  0
 26 38  4  0  0  0
 28 29  4  0  0  0
 28 33  4  0  0  0
 28 46  1  0  0  0
 29 30  4  0  0  0
 30 31  4  0  0  0
 31 32  4  0  0  0
 32 33  4  0  0  0
 34 35  4  0  0  0
 35 36  4  0  0  0
 36 37  4  0  0  0
 36 39  1  0  0  0
 37 38  4  0  0  0
 39 40  1  0  0  0
 39 41  1  0  0  0
 39 42  1  0  0  0
 42 43  2  0  0  0
 42 44  1  0  0  0
 42 45  1  0  0  0
  1 47  1  0  0  0
  3 48  1  0  0  0
  4 49  1  0  0  0
  6 50  1  0  0  0
 11 51  1  0  0  0
 12 52  1  0  0  0
 14 53  1  0  0  0
 14 54  1  0  0  0
 17 55  1  0  0  0
 18 56  1  0  0  0
 21 57  1  0  0  0
 22 58  1  0  0  0
 25 59  1  0  0  0
 25 60  1  0  0  0
 27 61  1  0  0  0
 27 62  1  0  0  0
 29 63  1  0  0  0
 30 64  1  0  0  0
 31 65  1  0  0  0
 32 66  1  0  0  0
 33 67  1  0  0  0
 34 68  1  0  0  0
 35 69  1  0  0  0
 37 70  1  0  0  0
 38 71  1  0  0  0
 44 72  1  0  0  0
 45 73  1  0  0  0
 46 74  1  0  0  0
 46 75  1  0  0  0
M  END
$$$$
