### 
### Created by X-TOOL on Mon Sep 10 21:12:54 2018
### 

@<TRIPOS>MOLECULE
2cne_ligand
   71    73     1     0     0
SMALL
GAST_HUCK


@<TRIPOS>ATOM
      1 C1         13.3590   35.6090   10.9980 C.ar      1 DFJ        -0.0382
      2 C2         12.1980   35.1520   11.7760 C.ar      1 DFJ         0.0221
      3 C3         12.2750   34.7180   13.1850 C.ar      1 DFJ        -0.0382
      4 C4         13.5730   34.7350   13.8620 C.ar      1 DFJ        -0.0260
      5 C5         14.6960   35.1980   13.0360 C.ar      1 DFJ         0.0072
      6 C6         14.6730   35.6400   11.6380 C.ar      1 DFJ        -0.0260
      7 C11        10.9000   35.1230   11.0900 C.3       1 DFJ         0.2933
      8 P12         9.7480   36.4580   11.3080 P.3       1 DFJ         0.0967
      9 F13        10.0360   33.9560   11.3790 F         1 DFJ        -0.2417
     10 F14        10.9350   35.0640    9.6000 F         1 DFJ        -0.2417
     11 O15         8.5250   35.8930   10.1260 O.co2     1 DFJ        -0.5668
     12 O16        10.6050   37.8510   10.6480 O.co2     1 DFJ        -0.5668
     13 O17         9.3350   36.4470   13.0170 O.co2     1 DFJ        -0.5668
     14 C20        16.0570   35.2170   13.6850 C.3       1 DFJ         0.0854
     15 C21        16.7360   33.8660   13.5470 C.2       1 DFJ         0.1958
     16 O24        16.2190   32.8530   14.0100 O.2       1 DFJ        -0.3923
     17 N25        17.8790   33.7800   12.8630 N.am      1 DFJ        -0.2614
     18 C26        18.4990   32.4410   12.8070 C.3       1 DFJ         0.1406
     19 C27        19.8890   32.4330   13.4400 C.2       1 DFJ         0.2061
     20 O30        20.7870   33.1670   13.0260 O.2       1 DFJ        -0.3942
     21 N31        20.1080   31.6020   14.4670 N.am      1 DFJ        -0.2611
     22 C32        21.4100   31.6260   15.1680 C.3       1 DFJ         0.1448
     23 C33        22.4800   30.8140   14.4540 C.2       1 DFJ         0.2021
     24 O34        23.5960   31.2800   14.2660 O.2       1 DFJ        -0.3945
     25 C35        21.2070   31.0720   16.5860 C.3       1 DFJ         0.0367
     26 C37        22.4600   31.1370   17.4330 C.ar      1 DFJ        -0.0068
     27 N40        22.1440   29.5910   14.0700 N.am      1 DFJ        -0.2988
     28 C43        19.3040   30.6560   11.2050 C.ar      1 DFJ        -0.0386
     29 C46        18.5060   29.4660   11.5210 C.ar      1 DFJ        -0.0601
     30 C47        19.1770   28.1610   11.3950 C.ar      1 DFJ        -0.0686
     31 C48        20.5830   28.1180   10.9690 C.ar      1 DFJ        -0.0687
     32 C49        21.3560   29.3300   10.6590 C.ar      1 DFJ        -0.0686
     33 C50        20.7140   30.6470   10.7740 C.ar      1 DFJ        -0.0601
     34 C56        22.9310   29.8780   18.0110 C.ar      1 DFJ        -0.0280
     35 C57        24.1370   29.9620   18.8330 C.ar      1 DFJ        -0.0385
     36 C58        24.7610   31.2830   19.0050 C.ar      1 DFJ         0.0219
     37 C59        24.2600   32.5300   18.4060 C.ar      1 DFJ        -0.0385
     38 C60        23.0610   32.4610   17.5870 C.ar      1 DFJ        -0.0280
     39 C65        25.9550   31.3200   19.8400 C.3       1 DFJ         0.2931
     40 F66        26.8380   32.3440   19.3730 F         1 DFJ        -0.2419
     41 F67        26.6290   30.0390   19.8640 F         1 DFJ        -0.2419
     42 P68        25.7480   31.6130   21.7170 P.3       1 DFJ         0.0966
     43 O69        27.3030   31.3940   22.3270 O.co2     1 DFJ        -0.5668
     44 O70        24.6360   30.4250   22.1690 O.co2     1 DFJ        -0.5668
     45 O71        25.2030   33.2350   21.8840 O.co2     1 DFJ        -0.5668
     46 C7         18.6140   32.0010   11.3410 C.3       1 DFJ         0.0214
     47 H1         13.2424   35.9182    9.9656 H         1 DFJ         0.0836
     48 H2         11.3845   34.3919   13.7100 H         1 DFJ         0.0836
     49 H3         13.6960   34.4291   14.8946 H         1 DFJ         0.0656
     50 H4         15.5658   35.9661   11.1168 H         1 DFJ         0.0656
     51 H5         15.9447   35.4573   14.7525 H         1 DFJ         0.0732
     52 H6         16.6779   35.9844   13.1997 H         1 DFJ         0.0732
     53 H7         18.2904   34.5741   12.4157 H         1 DFJ         0.1887
     54 H8         17.8581   31.7313   13.3507 H         1 DFJ         0.0824
     55 H9         19.3930   30.9668   14.7592 H         1 DFJ         0.1886
     56 H10        21.7532   32.6691   15.2327 H         1 DFJ         0.0833
     57 H11        20.8901   30.0214   16.5096 H         1 DFJ         0.0547
     58 H12        20.4187   31.6577   17.0814 H         1 DFJ         0.0547
     59 H13        22.8102   29.0149   13.5964 H         1 DFJ         0.1815
     60 H14        21.2242   29.2442   14.2538 H         1 DFJ         0.1815
     61 H15        17.4707   29.5437   11.8327 H         1 DFJ         0.0557
     62 H16        18.6410   27.2445   11.6135 H         1 DFJ         0.0599
     63 H17        21.0700   27.1537   10.8797 H         1 DFJ         0.0559
     64 H18        22.3915   29.2526   10.3480 H         1 DFJ         0.0599
     65 H19        21.2490   31.5636   10.5535 H         1 DFJ         0.0557
     66 H20        22.4165   28.9393   17.8400 H         1 DFJ         0.0652
     67 H21        24.5579   29.0793   19.3007 H         1 DFJ         0.0835
     68 H22        24.7699   33.4723   18.5706 H         1 DFJ         0.0835
     69 H23        22.6367   33.3410   17.1172 H         1 DFJ         0.0652
     70 H24        19.1932   32.7551   10.7880 H         1 DFJ         0.0474
     71 H25        17.6039   31.9272   10.9118 H         1 DFJ         0.0474
@<TRIPOS>BOND
     1    1    2 ar 
     2    6    1 ar 
     3    3    2 ar 
     4    2    7 1  
     5    4    3 ar 
     6    5    4 ar 
     7    5    6 ar 
     8   14    5 1  
     9    7    8 1  
    10    7    9 1  
    11    7   10 1  
    12    8   11 ar 
    13    8   12 ar 
    14    8   13 ar 
    15   15   14 1  
    16   15   16 2  
    17   17   15 am 
    18   18   17 1  
    19   18   19 1  
    20   46   18 1  
    21   19   20 2  
    22   19   21 am 
    23   21   22 1  
    24   22   23 1  
    25   22   25 1  
    26   23   24 2  
    27   23   27 am 
    28   25   26 1  
    29   26   34 ar 
    30   26   38 ar 
    31   28   29 ar 
    32   28   33 ar 
    33   28   46 1  
    34   29   30 ar 
    35   30   31 ar 
    36   31   32 ar 
    37   32   33 ar 
    38   34   35 ar 
    39   35   36 ar 
    40   36   37 ar 
    41   36   39 1  
    42   37   38 ar 
    43   39   40 1  
    44   39   41 1  
    45   39   42 1  
    46   42   43 ar 
    47   42   44 ar 
    48   42   45 ar 
    49    1   47 1  
    50    3   48 1  
    51    4   49 1  
    52    6   50 1  
    53   14   51 1  
    54   14   52 1  
    55   17   53 1  
    56   18   54 1  
    57   21   55 1  
    58   22   56 1  
    59   25   57 1  
    60   25   58 1  
    61   27   59 1  
    62   27   60 1  
    63   29   61 1  
    64   30   62 1  
    65   31   63 1  
    66   32   64 1  
    67   33   65 1  
    68   34   66 1  
    69   35   67 1  
    70   37   68 1  
    71   38   69 1  
    72   46   70 1  
    73   46   71 1  
@<TRIPOS>SUBSTRUCTURE
     1 DFJ         1

