2ity_ligand
  -I-interpret- 

 56 59  0  0  0  0  0  0  0  0999 V2000
  -45.3040   -2.9970  -16.8970 C   0  0  0  0  0
  -43.8270   -3.4930  -16.9960 C   0  0  0  0  0
  -43.2200   -3.2470  -18.3060 O   0  0  0  0  0
  -43.9940   -3.9060  -19.3500 C   0  0  0  0  0
  -45.4960   -3.4890  -19.3580 C   0  0  0  0  0
  -46.1610   -3.4980  -18.0110 N   0  3  0  0  0
  -47.4070   -2.6730  -18.0340 C   0  0  0  0  0
  -48.6050   -3.3750  -18.8720 C   0  0  0  0  0
  -49.3370   -2.1730  -19.9370 C   0  0  0  0  0
  -50.0110   -1.1150  -19.0520 O   0  0  0  0  0
  -51.0590   -0.4110  -19.6070 C   0  0  0  0  0
  -51.8510    0.3220  -18.7380 C   0  0  0  0  0
  -52.9420    1.0520  -19.2100 C   0  0  0  0  0
  -51.5280    0.2890  -17.4160 O   0  0  0  0  0
  -51.8800    1.5010  -16.6950 C   0  0  0  0  0
  -51.3720   -0.4090  -20.9680 C   0  0  0  0  0
  -52.4640    0.3240  -21.4520 C   0  0  0  0  0
  -53.2450    1.0570  -20.5630 C   0  0  0  0  0
  -54.2870    1.7660  -21.0240 N   0  0  0  0  0
  -54.5850    1.7670  -22.3190 C   0  0  0  0  0
  -53.8690    1.0820  -23.2060 N   0  0  0  0  0
  -52.8030    0.3520  -22.8180 C   0  0  0  0  0
  -52.0740   -0.3550  -23.7040 N   0  0  0  0  0
  -52.1840   -0.3870  -25.0470 C   0  0  0  0  0
  -52.1700    0.7900  -25.8000 C   0  0  0  0  0
  -52.2600    0.7300  -27.1910 C   0  0  0  0  0
  -52.2640    2.1910  -28.1230 Cl  0  0  0  0  0
  -52.3590   -0.4990  -27.8370 C   0  0  0  0  0
  -52.4480   -0.5200  -29.1770 F   0  0  0  0  0
  -52.3660   -1.6850  -27.0980 C   0  0  0  0  0
  -52.2700   -1.6270  -25.7050 C   0  0  0  0  0
  -45.2936   -1.9083  -16.9488 H   0  0  0  0  0
  -45.7195   -3.3734  -15.9623 H   0  0  0  0  0
  -43.8295   -4.5705  -16.8311 H   0  0  0  0  0
  -43.2450   -2.9449  -16.2550 H   0  0  0  0  0
  -43.9505   -4.9794  -19.1653 H   0  0  0  0  0
  -43.5662   -3.6172  -20.3100 H   0  0  0  0  0
  -46.0227   -4.2169  -19.9752 H   0  0  0  0  0
  -45.5371   -2.4630  -19.7238 H   0  0  0  0  0
  -46.3627   -4.4812  -17.8290 H   0  0  0  0  0
  -47.1719   -1.7241  -18.5161 H   0  0  0  0  0
  -47.7456   -2.5484  -17.0055 H   0  0  0  0  0
  -49.3560   -3.7652  -18.1851 H   0  0  0  0  0
  -48.2071   -4.1989  -19.4643 H   0  0  0  0  0
  -48.5771   -1.7119  -20.5679 H   0  0  0  0  0
  -50.0705   -2.6429  -20.5922 H   0  0  0  0  0
  -53.5581    1.6202  -18.5131 H   0  0  0  0  0
  -51.3561    2.3493  -17.1354 H   0  0  0  0  0
  -52.9559    1.6624  -16.7617 H   0  0  0  0  0
  -51.5910    1.3970  -15.6492 H   0  0  0  0  0
  -50.7596   -0.9845  -21.6622 H   0  0  0  0  0
  -55.4414    2.3462  -22.6644 H   0  0  0  0  0
  -51.3424   -0.9436  -23.3056 H   0  0  0  0  0
  -52.0887    1.7554  -25.3005 H   0  0  0  0  0
  -52.4457   -2.6472  -27.6038 H   0  0  0  0  0
  -52.2617   -2.5494  -25.1243 H   0  0  0  0  0
  1  2  1  0  0  0
  6  1  1  0  0  0
  2  3  1  0  0  0
  4  3  1  0  0  0
  5  4  1  0  0  0
  6  5  1  0  0  0
  7  6  1  0  0  0
  8  7  1  0  0  0
  9 10  1  0  0  0
 10 11  1  0  0  0
 11 12  4  0  0  0
 11 16  4  0  0  0
 12 13  4  0  0  0
 12 14  1  0  0  0
 13 18  4  0  0  0
 14 15  1  0  0  0
 16 17  4  0  0  0
 17 18  4  0  0  0
 17 22  4  0  0  0
 18 19  4  0  0  0
 19 20  4  0  0  0
 21 20  4  0  0  0
 22 21  4  0  0  0
 22 23  1  0  0  0
 23 24  1  0  0  0
 24 25  4  0  0  0
 24 31  4  0  0  0
 25 26  4  0  0  0
 26 27  1  0  0  0
 26 28  4  0  0  0
 28 29  1  0  0  0
 30 28  4  0  0  0
 31 30  4  0  0  0
  8  9  1  0  0  0
  1 32  1  0  0  0
  1 33  1  0  0  0
  2 34  1  0  0  0
  2 35  1  0  0  0
  4 36  1  0  0  0
  4 37  1  0  0  0
  5 38  1  0  0  0
  5 39  1  0  0  0
  6 40  1  0  0  0
  7 41  1  0  0  0
  7 42  1  0  0  0
  8 43  1  0  0  0
  8 44  1  0  0  0
  9 45  1  0  0  0
  9 46  1  0  0  0
 13 47  1  0  0  0
 15 48  1  0  0  0
 15 49  1  0  0  0
 15 50  1  0  0  0
 16 51  1  0  0  0
 20 52  1  0  0  0
 23 53  1  0  0  0
 25 54  1  0  0  0
 30 55  1  0  0  0
 31 56  1  0  0  0
M  END
$$$$
