3udv_ligand
  -I-interpret- 

 80 85  0  0  0  0  0  0  0  0999 V2000
    1.9210   17.2430   15.5880 C   0  0  0  0  0
    2.6290   14.3620   13.4830 N   0  0  0  0  0
    1.9640   16.4560   14.4020 O   0  0  0  0  0
    3.9310   19.3840   15.1450 S   0  0  0  0  0
    2.9170   16.5400   16.5680 C   0  0  0  0  0
    2.3030   12.9850   11.6460 N   0  0  0  0  0
    2.2670   16.3910   17.7930 O   0  0  0  0  0
    3.2050   15.1240   15.8830 C   0  0  0  0  0
    4.6390   12.4390    9.6550 N   0  0  0  0  0
    2.9640   14.0520   16.7650 O   0  0  0  0  0
    2.2010   15.1010   14.7140 C   0  0  0  0  0
    5.9220   13.8300   11.0300 N   0  0  0  0  0
    4.8120   25.4880   11.1040 O   0  0  0  0  0
    1.7390   13.5330   12.7260 C   0  0  0  0  0
    5.0200   14.9190   13.0350 N   0  0  0  0  0
    9.3620   24.9010    7.0680 O   0  0  0  0  0
    3.6240   13.4570   11.6490 C   0  0  0  0  0
    5.2940   19.9960   11.4160 N   0  3  0  0  0
    4.7160   13.2300   10.7600 C   0  0  0  0  0
    5.9740   14.6140   12.1300 C   0  0  0  0  0
    7.2900   28.2170    5.8460 N   0  0  0  0  0
    3.8360   14.3100   12.7710 C   0  0  0  0  0
    8.9970   28.4290    4.2170 N   0  0  0  0  0
    2.1620   18.7790   15.3010 C   0  0  0  0  0
    9.1260   26.6350    5.6940 N   0  0  0  0  0
    4.9790   18.3060   13.9360 C   0  0  0  0  0
    6.9930   25.5890    8.4700 N   0  0  0  0  0
    4.2350   18.0300   12.6430 C   0  0  0  0  0
    5.6790   27.8890    7.5540 N   0  0  0  0  0
    4.0170   19.3470   11.8820 C   0  0  0  0  0
    6.3870   20.0330   12.4950 C   0  0  0  0  0
    6.3670   18.8800   13.5560 C   0  0  0  0  0
    4.9810   21.2790   10.6160 C   0  0  0  0  0
    5.4480   25.0060   10.1660 C   0  0  0  0  0
    8.4430   27.7560    5.2850 C   0  0  0  0  0
    8.6700   25.8730    6.7970 C   0  0  0  0  0
    5.8960   25.9370    9.0600 C   0  0  0  0  0
    5.0870   27.1900    8.7340 C   0  0  0  0  0
    4.9880   28.2450    9.8330 C   0  0  0  0  0
    3.6450   26.7730    8.3870 C   0  0  0  0  0
    6.8180   27.4810    6.9230 C   0  0  0  0  0
    7.4470   26.3400    7.4010 C   0  0  0  0  0
    5.2970   22.6860   11.1850 C   0  0  0  0  0
    5.7250   23.6370   10.1210 N   0  0  0  0  0
    0.9364   17.2798   16.0541 H   0  0  0  0  0
    3.8439   17.0854   16.7454 H   0  0  0  0  0
    2.1089   17.2563   18.1774 H   0  0  0  0  0
    4.2447   15.0102   15.5762 H   0  0  0  0  0
    5.4589   12.3097    9.0622 H   0  0  0  0  0
    3.7614   11.9755    9.4197 H   0  0  0  0  0
    3.5980   14.0830   17.4852 H   0  0  0  0  0
    1.3198   14.5484   15.0398 H   0  0  0  0  0
    0.6988   13.3651   13.0051 H   0  0  0  0  0
    5.7652   19.4064   10.7299 H   0  0  0  0  0
    6.9440   15.0748   12.3165 H   0  0  0  0  0
    6.8075   29.0456    5.4982 H   0  0  0  0  0
    9.8562   28.0854    3.7879 H   0  0  0  0  0
    1.7548   19.3008   16.1670 H   0  0  0  0  0
    1.7076   18.9646   14.3278 H   0  0  0  0  0
    5.1470   17.3948   14.5101 H   0  0  0  0  0
    3.2690   17.5791   12.8703 H   0  0  0  0  0
    4.8211   17.3484   12.0265 H   0  0  0  0  0
    3.4260   19.1170   10.9954 H   0  0  0  0  0
    3.5293   20.0416   12.5659 H   0  0  0  0  0
    6.2283   20.9565   13.0519 H   0  0  0  0  0
    7.3351   19.9378   11.9657 H   0  0  0  0  0
    6.9214   18.0537   13.1111 H   0  0  0  0  0
    6.7751   19.3081   14.4716 H   0  0  0  0  0
    3.8946   21.2720   10.5278 H   0  0  0  0  0
    5.6243   21.2024    9.7394 H   0  0  0  0  0
    5.9833   28.6286   10.0574 H   0  0  0  0  0
    4.3503   29.0616    9.4946 H   0  0  0  0  0
    4.5600   27.7954   10.7290 H   0  0  0  0  0
    3.0589   27.6605    8.1486 H   0  0  0  0  0
    3.6588   26.1033    7.5271 H   0  0  0  0  0
    3.2008   26.2612    9.2407 H   0  0  0  0  0
    6.5478   26.9425    7.2724 H   0  0  0  0  0
    6.1124   22.5879   11.9017 H   0  0  0  0  0
    4.3907   23.0776   11.6468 H   0  0  0  0  0
    6.2443   23.2719    9.3226 H   0  0  0  0  0
  1  3  1  0  0  0
  1  5  1  0  0  0
 24  1  1  0  0  0
 11  2  1  0  0  0
  2 14  4  0  0  0
  2 22  4  0  0  0
  3 11  1  0  0  0
  4 24  1  0  0  0
 26  4  1  0  0  0
  5  7  1  0  0  0
  5  8  1  0  0  0
 14  6  4  0  0  0
 17  6  4  0  0  0
  8 10  1  0  0  0
  8 11  1  0  0  0
 19  9  1  0  0  0
 19 12  4  0  0  0
 20 12  4  0  0  0
 34 13  2  0  0  0
 15 20  4  0  0  0
 22 15  4  0  0  0
 36 16  2  0  0  0
 17 19  4  0  0  0
 22 17  4  0  0  0
 18 30  1  0  0  0
 18 31  1  0  0  0
 33 18  1  0  0  0
 21 35  1  0  0  0
 41 21  1  0  0  0
 35 23  2  0  0  0
 25 35  4  0  0  0
 36 25  1  0  0  0
 28 26  1  0  0  0
 32 26  1  0  0  0
 37 27  2  0  0  0
 27 42  1  0  0  0
 30 28  1  0  0  0
 38 29  1  0  0  0
 29 41  2  0  0  0
 31 32  1  0  0  0
 43 33  1  0  0  0
 34 37  1  0  0  0
 44 34  1  0  0  0
 42 36  1  0  0  0
 37 38  1  0  0  0
 38 39  1  0  0  0
 38 40  1  0  0  0
 42 41  1  0  0  0
 43 44  1  0  0  0
  1 45  1  0  0  0
  5 46  1  0  0  0
  7 47  1  0  0  0
  8 48  1  0  0  0
  9 49  1  0  0  0
  9 50  1  0  0  0
 10 51  1  0  0  0
 11 52  1  0  0  0
 14 53  1  0  0  0
 18 54  1  0  0  0
 20 55  1  0  0  0
 21 56  1  0  0  0
 23 57  1  0  0  0
 24 58  1  0  0  0
 24 59  1  0  0  0
 26 60  1  0  0  0
 28 61  1  0  0  0
 28 62  1  0  0  0
 30 63  1  0  0  0
 30 64  1  0  0  0
 31 65  1  0  0  0
 31 66  1  0  0  0
 32 67  1  0  0  0
 32 68  1  0  0  0
 33 69  1  0  0  0
 33 70  1  0  0  0
 39 71  1  0  0  0
 39 72  1  0  0  0
 39 73  1  0  0  0
 40 74  1  0  0  0
 40 75  1  0  0  0
 40 76  1  0  0  0
 42 77  1  0  0  0
 43 78  1  0  0  0
 43 79  1  0  0  0
 44 80  1  0  0  0
M  END
$$$$
