### 
### Created by X-TOOL on Mon Sep 10 21:13:11 2018
### 

@<TRIPOS>MOLECULE
3udv_ligand
   81    86     1     0     0
SMALL
GAST_HUCK


@<TRIPOS>ATOM
      1 C1          1.9210   17.2430   15.5880 C.3       1 J1C         0.0996
      2 N1          2.6290   14.3620   13.4830 N.pl3     1 J1C        -0.1919
      3 O1          1.9640   16.4560   14.4020 O.3       1 J1C        -0.3383
      4 S1          3.9310   19.3840   15.1450 S.3       1 J1C        -0.1549
      5 C2          2.9170   16.5400   16.5680 C.3       1 J1C         0.1132
      6 N2          2.3030   12.9850   11.6460 N.2       1 J1C        -0.2958
      7 O2          2.2670   16.3910   17.7930 O.3       1 J1C        -0.3864
      8 C3          3.2050   15.1240   15.8830 C.3       1 J1C         0.1385
      9 N3          4.6390   12.4390    9.6550 N.pl3     1 J1C        -0.3152
     10 O3          2.9640   14.0520   16.7650 O.3       1 J1C        -0.3836
     11 C4          2.2010   15.1010   14.7140 C.3       1 J1C         0.2009
     12 N4          5.9220   13.8300   11.0300 N.ar      1 J1C        -0.2698
     13 O4          4.8120   25.4880   11.1040 O.2       1 J1C        -0.3678
     14 C5          1.7390   13.5330   12.7260 C.2       1 J1C         0.1123
     15 N5          5.0200   14.9190   13.0350 N.ar      1 J1C        -0.2714
     16 O5          9.3620   24.9010    7.0680 O.2       1 J1C        -0.3758
     17 C6          3.6240   13.4570   11.6490 C.ar      1 J1C         0.1045
     18 N6          5.2940   19.9960   11.4160 N.4       1 J1C         0.4042
     19 C7          4.7160   13.2300   10.7600 C.ar      1 J1C         0.1298
     20 C8          5.9740   14.6140   12.1300 C.ar      1 J1C         0.0533
     21 N8          7.2900   28.2170    5.8460 N.pl3     1 J1C        -0.1752
     22 C9          3.8360   14.3100   12.7710 C.ar      1 J1C         0.1613
     23 N9          8.9970   28.4290    4.2170 N.pl3     1 J1C        -0.3279
     24 C10         2.1620   18.7790   15.3010 C.3       1 J1C         0.0229
     25 N10         9.1260   26.6350    5.6940 N.am      1 J1C        -0.2425
     26 C11         4.9790   18.3060   13.9360 C.3       1 J1C         0.0017
     27 N11         6.9930   25.5890    8.4700 N.2       1 J1C        -0.1598
     28 C12         4.2350   18.0300   12.6430 C.3       1 J1C        -0.0599
     29 N12         5.6790   27.8890    7.5540 N.2       1 J1C        -0.1178
     30 C13         4.0170   19.3470   11.8820 C.3       1 J1C        -0.1119
     31 C14         6.3870   20.0330   12.4950 C.3       1 J1C        -0.1119
     32 C15         6.3670   18.8800   13.5560 C.3       1 J1C        -0.0599
     33 C16         4.9810   21.2790   10.6160 C.3       1 J1C        -0.0923
     34 C18         5.4480   25.0060   10.1660 C.2       1 J1C         0.2458
     35 C19         8.4430   27.7560    5.2850 C.cat     1 J1C         0.2197
     36 C20         8.6700   25.8730    6.7970 C.2       1 J1C         0.2540
     37 C21         5.8960   25.9370    9.0600 C.2       1 J1C         0.1799
     38 C22         5.0870   27.1900    8.7340 C.3       1 J1C         0.1561
     39 C23         4.9880   28.2450    9.8330 C.3       1 J1C        -0.0383
     40 C24         3.6450   26.7730    8.3870 C.3       1 J1C        -0.0383
     41 C25         6.8180   27.4810    6.9230 C.2       1 J1C         0.3415
     42 C26         7.4470   26.3400    7.4010 C.3       1 J1C         0.3045
     43 C27         5.2970   22.6860   11.1850 C.3       1 J1C         0.0126
     44 N28         5.7250   23.6370   10.1210 N.am      1 J1C        -0.2821
     45 H           0.9364   17.2798   16.0541 H         1 J1C         0.0632
     46 H           3.8439   17.0854   16.7454 H         1 J1C         0.0647
     47 H           1.4797   15.8550   17.6731 H         1 J1C         0.2100
     48 H           4.2447   15.0102   15.5762 H         1 J1C         0.0676
     49 H           3.7637   11.9690    9.4242 H         1 J1C         0.1820
     50 H           5.4566   12.3163    9.0577 H         1 J1C         0.1820
     51 H           3.1480   13.2230   16.3171 H         1 J1C         0.2101
     52 H           1.3198   14.5484   15.0398 H         1 J1C         0.0996
     53 H           0.6988   13.3651   13.0051 H         1 J1C         0.1349
     54 H           6.9440   15.0748   12.3165 H         1 J1C         0.0996
     55 H           6.8075   29.0456    5.4982 H         1 J1C         0.2685
     56 H           8.5440   29.2666    3.8515 H         1 J1C         0.1809
     57 H           9.8600   28.0894    3.7923 H         1 J1C         0.1809
     58 H           1.7548   19.3008   16.1670 H         1 J1C         0.0403
     59 H           1.7076   18.9646   14.3278 H         1 J1C         0.0403
     60 H           9.9700   26.3492    5.1977 H         1 J1C         0.1856
     61 H           5.1470   17.3948   14.5101 H         1 J1C         0.0411
     62 H           3.2690   17.5791   12.8703 H         1 J1C         0.0256
     63 H           4.8211   17.3484   12.0265 H         1 J1C         0.0256
     64 H           3.4260   19.1170   10.9954 H         1 J1C         0.0017
     65 H           3.5293   20.0416   12.5659 H         1 J1C         0.0017
     66 H           6.2283   20.9565   13.0519 H         1 J1C         0.0017
     67 H           7.3351   19.9378   11.9657 H         1 J1C         0.0017
     68 H           6.9214   18.0537   13.1111 H         1 J1C         0.0256
     69 H           6.7751   19.3081   14.4716 H         1 J1C         0.0256
     70 H           3.8946   21.2720   10.5278 H         1 J1C         0.0037
     71 H           5.6243   21.2024    9.7394 H         1 J1C         0.0037
     72 H           5.9833   28.6286   10.0574 H         1 J1C         0.0199
     73 H           4.3503   29.0616    9.4946 H         1 J1C         0.0199
     74 H           4.5600   27.7954   10.7290 H         1 J1C         0.0199
     75 H           3.0589   27.6605    8.1486 H         1 J1C         0.0199
     76 H           3.6588   26.1033    7.5271 H         1 J1C         0.0199
     77 H           3.2008   26.2612    9.2407 H         1 J1C         0.0199
     78 H           6.5478   26.9425    7.2724 H         1 J1C         0.1399
     79 H           6.1124   22.5879   11.9017 H         1 J1C         0.0500
     80 H           4.3907   23.0776   11.6468 H         1 J1C         0.0500
     81 H           6.2443   23.2719    9.3226 H         1 J1C         0.1853
@<TRIPOS>BOND
     1    1    3 1  
     2    1    5 1  
     3   24    1 1  
     4   11    2 1  
     5    2   14 1  
     6    2   22 1  
     7    3   11 1  
     8    4   24 1  
     9   26    4 1  
    10    5    7 1  
    11    5    8 1  
    12   14    6 2  
    13   17    6 1  
    14    8   10 1  
    15    8   11 1  
    16   19    9 1  
    17   19   12 ar 
    18   20   12 ar 
    19   34   13 2  
    20   15   20 ar 
    21   22   15 ar 
    22   36   16 2  
    23   17   19 ar 
    24   22   17 ar 
    25   18   30 1  
    26   18   31 1  
    27   33   18 1  
    28   21   35 ar 
    29   41   21 1  
    30   35   23 ar 
    31   25   35 ar 
    32   36   25 am 
    33   28   26 1  
    34   32   26 1  
    35   37   27 2  
    36   27   42 1  
    37   30   28 1  
    38   38   29 1  
    39   29   41 2  
    40   31   32 1  
    41   43   33 1  
    42   34   37 1  
    43   44   34 am 
    44   42   36 1  
    45   37   38 1  
    46   38   39 1  
    47   38   40 1  
    48   42   41 1  
    49   43   44 1  
    50    1   45 1  
    51    5   46 1  
    52    7   47 1  
    53    8   48 1  
    54    9   49 1  
    55    9   50 1  
    56   10   51 1  
    57   11   52 1  
    58   14   53 1  
    59   20   54 1  
    60   21   55 1  
    61   23   56 1  
    62   23   57 1  
    63   24   58 1  
    64   24   59 1  
    65   25   60 1  
    66   26   61 1  
    67   28   62 1  
    68   28   63 1  
    69   30   64 1  
    70   30   65 1  
    71   31   66 1  
    72   31   67 1  
    73   32   68 1  
    74   32   69 1  
    75   33   70 1  
    76   33   71 1  
    77   39   72 1  
    78   39   73 1  
    79   39   74 1  
    80   40   75 1  
    81   40   76 1  
    82   40   77 1  
    83   42   78 1  
    84   43   79 1  
    85   43   80 1  
    86   44   81 1  
@<TRIPOS>SUBSTRUCTURE
     1 J1C         1

