5njz_ligand
  -I-interpret- 

 57 60  0  0  0  0  0  0  0  0999 V2000
  -93.0110  -16.0280   40.8760 C   0  0  0  0  0
  -91.7470  -15.3870   40.3250 C   0  0  0  0  0
  -90.5460  -16.1690   40.6730 N   0  3  0  0  0
  -90.7970  -17.6120   40.5010 C   0  0  0  0  0
  -91.8200  -18.1100   41.5190 C   0  0  0  0  0
  -92.5980  -16.9050   42.0370 C   0  0  0  0  0
  -93.7760  -17.3010   42.8220 N   0  0  0  0  0
  -94.7910  -18.0690   42.4010 C   0  0  0  0  0
  -94.9100  -18.5720   41.2830 O   0  0  0  0  0
  -95.7690  -18.2030   43.3750 C   0  0  0  0  0
  -97.1130  -18.2270   43.0250 C   0  0  0  0  0
  -95.3750  -18.2680   44.7050 C   0  0  0  0  0
  -96.3380  -18.3740   45.6930 C   0  0  0  0  0
  -97.6770  -18.4040   45.3340 C   0  0  0  0  0
  -98.0920  -18.3440   44.0050 C   0  0  0  0  0
  -99.3790  -18.3550   43.5950 N   0  0  0  0  0
 -100.4160  -18.8700   44.2820 C   0  0  0  0  0
 -100.4360  -19.6510   45.7710 S   0  0  0  0  0
 -101.6780  -18.8420   43.8110 N   0  0  0  0  0
 -102.6020  -19.4100   44.6300 C   0  0  0  0  0
 -102.0960  -19.9220   45.7660 C   0  0  0  0  0
 -102.7580  -20.5470   46.7650 C   0  0  0  0  0
 -102.1500  -20.8380   47.7950 O   0  0  0  0  0
 -104.0730  -20.8390   46.5820 N   0  0  0  0  0
 -104.7670  -21.4470   47.5870 C   0  0  0  0  0
 -104.9890  -22.8310   47.5650 C   0  0  0  0  0
 -104.3930  -23.8490   46.2990 Cl  0  0  0  0  0
 -105.7080  -23.4290   48.5990 C   0  0  0  0  0
 -106.2110  -22.6670   49.6480 C   0  0  0  0  0
 -105.9960  -21.2890   49.6580 C   0  0  0  0  0
 -105.2780  -20.6720   48.6340 C   0  0  0  0  0
 -105.0860  -19.2870   48.6870 C   0  0  0  0  0
  -93.5086  -16.6186   40.1068 H   0  0  0  0  0
  -93.7171  -15.2649   41.2035 H   0  0  0  0  0
  -91.6479  -14.3921   40.7590 H   0  0  0  0  0
  -91.8276  -15.3445   39.2388 H   0  0  0  0  0
  -90.3063  -15.9895   41.6481 H   0  0  0  0  0
  -89.7815  -15.8913   40.0576 H   0  0  0  0  0
  -89.8617  -18.1515   40.6502 H   0  0  0  0  0
  -91.1875  -17.7835   39.4979 H   0  0  0  0  0
  -91.3152  -18.6139   42.3432 H   0  0  0  0  0
  -92.4991  -18.8229   41.0513 H   0  0  0  0  0
  -91.9413  -16.3467   42.7042 H   0  0  0  0  0
  -93.8261  -16.9578   43.7812 H   0  0  0  0  0
  -97.4016  -18.1537   41.9764 H   0  0  0  0  0
  -94.3177  -18.2358   44.9681 H   0  0  0  0  0
  -96.0472  -18.4333   46.7418 H   0  0  0  0  0
  -98.4307  -18.4770   46.1180 H   0  0  0  0  0
  -99.5827  -17.9373   42.6870 H   0  0  0  0  0
 -103.6638  -19.4474   44.3866 H   0  0  0  0  0
 -104.5356  -20.6062   45.7033 H   0  0  0  0  0
 -105.8778  -24.5056   48.5851 H   0  0  0  0  0
 -106.7683  -23.1425   50.4551 H   0  0  0  0  0
 -106.3937  -20.6875   50.4754 H   0  0  0  0  0
 -104.0182  -19.0705   48.7185 H   0  0  0  0  0
 -105.5255  -18.8264   47.8022 H   0  0  0  0  0
 -105.5653  -18.8890   49.5814 H   0  0  0  0  0
  1  2  1  0  0  0
  1  6  1  0  0  0
  2  3  1  0  0  0
  3  4  1  0  0  0
  4  5  1  0  0  0
  5  6  1  0  0  0
  6  7  1  0  0  0
  7  8  1  0  0  0
  8  9  2  0  0  0
  8 10  1  0  0  0
 10 11  4  0  0  0
 10 12  4  0  0  0
 11 15  4  0  0  0
 12 13  4  0  0  0
 13 14  4  0  0  0
 14 15  4  0  0  0
 15 16  1  0  0  0
 16 17  1  0  0  0
 17 18  4  0  0  0
 17 19  4  0  0  0
 18 21  4  0  0  0
 19 20  4  0  0  0
 20 21  4  0  0  0
 21 22  1  0  0  0
 22 23  2  0  0  0
 22 24  1  0  0  0
 24 25  1  0  0  0
 25 26  4  0  0  0
 25 31  4  0  0  0
 26 27  1  0  0  0
 26 28  4  0  0  0
 28 29  4  0  0  0
 29 30  4  0  0  0
 30 31  4  0  0  0
 31 32  1  0  0  0
  1 33  1  0  0  0
  1 34  1  0  0  0
  2 35  1  0  0  0
  2 36  1  0  0  0
  3 37  1  0  0  0
  3 38  1  0  0  0
  4 39  1  0  0  0
  4 40  1  0  0  0
  5 41  1  0  0  0
  5 42  1  0  0  0
  6 43  1  0  0  0
  7 44  1  0  0  0
 11 45  1  0  0  0
 12 46  1  0  0  0
 13 47  1  0  0  0
 14 48  1  0  0  0
 16 49  1  0  0  0
 20 50  1  0  0  0
 24 51  1  0  0  0
 28 52  1  0  0  0
 29 53  1  0  0  0
 30 54  1  0  0  0
 32 55  1  0  0  0
 32 56  1  0  0  0
 32 57  1  0  0  0
M  END
$$$$
