3zi8_ligand
  -I-interpret- 

 22 22  0  0  0  0  0  0  0  0999 V2000
   20.1410   11.5470  -19.1720 C   0  0  0  0  0
   20.4790   11.3260  -17.6980 C   0  0  0  0  0
   21.8470   10.6500  -17.6120 C   0  0  0  0  0
   22.9450   11.4510  -18.3560 C   0  0  0  0  0
   22.4460   11.7930  -19.7690 C   0  0  0  0  0
   23.4440   12.6540  -20.4920 C   0  0  0  0  0
   19.4790   10.5190  -17.0700 O   0  0  0  0  0
   22.1230   10.3490  -16.2440 O   0  0  0  0  0
   23.3300   12.7020  -17.7870 O   0  0  0  0  0
   21.1460   12.3980  -19.7390 O   0  0  0  0  0
   19.1596   12.0119  -19.2659 H   0  0  0  0  0
   20.1173   10.5928  -19.6983 H   0  0  0  0  0
   20.5070   12.2831  -17.1771 H   0  0  0  0  0
   21.8383    9.7004  -18.1471 H   0  0  0  0  0
   23.8111   10.7908  -18.3101 H   0  0  0  0  0
   22.3468   10.8601  -20.3240 H   0  0  0  0  0
   23.1128   12.8076  -21.5190 H   0  0  0  0  0
   23.5247   13.6166  -19.9871 H   0  0  0  0  0
   24.4155   12.1598  -20.4922 H   0  0  0  0  0
   18.6280   10.9588  -17.1337 H   0  0  0  0  0
   21.3892    9.8542  -15.8721 H   0  0  0  0  0
   23.6549   12.5600  -16.8949 H   0  0  0  0  0
  1  2  1  0  0  0
  1 10  1  0  0  0
  2  3  1  0  0  0
  2  7  1  0  0  0
  3  4  1  0  0  0
  3  8  1  0  0  0
  4  5  1  0  0  0
  4  9  1  0  0  0
  5  6  1  0  0  0
  5 10  1  0  0  0
  1 11  1  0  0  0
  1 12  1  0  0  0
  2 13  1  0  0  0
  3 14  1  0  0  0
  4 15  1  0  0  0
  5 16  1  0  0  0
  6 17  1  0  0  0
  6 18  1  0  0  0
  6 19  1  0  0  0
  7 20  1  0  0  0
  8 21  1  0  0  0
  9 22  1  0  0  0
M  END
$$$$
