### 
### Created by X-TOOL on Mon Sep 10 21:13:31 2018
### 

@<TRIPOS>MOLECULE
5vlp_ligand
  279   282     1     0     0
SMALL
GAST_HUCK


@<TRIPOS>ATOM
      1 C         -16.2570  -16.2710  -24.3050 C.2       1 ACE         0.1751
      2 O         -15.4380  -15.8410  -23.4890 O.2       1 ACE        -0.3972
      3 CH3       -15.8380  -16.5170  -25.7590 C.3       1 ACE         0.0258
      4 N         -17.5280  -16.5550  -24.0030 N.am      1 MET        -0.2658
      5 CA        -18.1020  -16.4110  -22.6500 C.3       1 MET         0.1316
      6 C         -17.9530  -17.7090  -21.8430 C.2       1 MET         0.2039
      7 O         -17.3470  -18.6800  -22.3140 O.2       1 MET        -0.3944
      8 CB        -19.5890  -15.9810  -22.7150 C.3       1 MET        -0.0034
      9 CG        -20.5230  -17.0730  -23.2110 C.3       1 MET        -0.0024
     10 SD        -22.1170  -16.4900  -23.8040 S.3       1 MET        -0.1639
     11 CE        -21.6930  -15.9940  -25.4330 C.3       1 MET        -0.0181
     12 N         -18.5350  -17.7270  -20.6390 N.am      1 GLU        -0.2636
     13 CA        -18.5340  -18.8960  -19.7650 C.3       1 GLU         0.1325
     14 C         -19.8120  -19.7110  -19.9960 C.2       1 GLU         0.2041
     15 O         -20.8650  -19.1330  -20.2670 O.2       1 GLU        -0.3944
     16 CB        -18.4250  -18.4570  -18.2990 C.3       1 GLU        -0.0008
     17 CG        -17.0560  -17.9080  -17.9300 C.3       1 GLU         0.0044
     18 CD        -16.4510  -18.5580  -16.7020 C.2       1 GLU         0.0350
     19 OE1       -16.7490  -18.0930  -15.5780 O.co2     1 GLU        -0.5690
     20 OE2       -15.7010  -19.5490  -16.8640 O.co2     1 GLU        -0.5690
     21 N         -19.7130  -21.0470  -19.9090 N.am      1 SER        -0.2616
     22 CA        -20.8550  -21.9430  -20.0990 C.3       1 SER         0.1539
     23 C         -21.8130  -21.8870  -18.9100 C.2       1 SER         0.2063
     24 O         -21.4090  -22.1390  -17.7780 O.2       1 SER        -0.3943
     25 CB        -20.3800  -23.3690  -20.3660 C.3       1 SER         0.0843
     26 OG        -21.4180  -24.3120  -20.1700 O.3       1 SER        -0.3903
     27 N         -23.0650  -21.5270  -19.1620 N.am      1 PHE        -0.2619
     28 CA        -24.1070  -21.4520  -18.1330 C.3       1 PHE         0.1406
     29 C         -25.4540  -21.7760  -18.7860 C.2       1 PHE         0.2085
     30 O         -25.5600  -21.6250  -20.0080 O.2       1 PHE        -0.3940
     31 CB        -24.1350  -20.0650  -17.4630 C.3       1 PHE         0.0214
     32 CG        -24.4530  -18.9300  -18.4020 C.ar      1 PHE        -0.0386
     33 CD1       -23.4420  -18.2830  -19.1050 C.ar      1 PHE        -0.0601
     34 CD2       -25.7630  -18.5050  -18.5880 C.ar      1 PHE        -0.0601
     35 CE1       -23.7350  -17.2480  -19.9940 C.ar      1 PHE        -0.0686
     36 CE2       -26.0580  -17.4700  -19.4830 C.ar      1 PHE        -0.0686
     37 CZ        -25.0390  -16.8420  -20.1720 C.ar      1 PHE        -0.0687
     38 N         -26.5030  -22.1920  -18.0370 N.am      1 PRO        -0.2497
     39 CA        -27.7820  -22.4990  -18.6960 C.3       1 PRO         0.1338
     40 C         -28.3440  -21.3040  -19.4580 C.2       1 PRO         0.2039
     41 O         -28.5090  -20.2060  -18.8990 O.2       1 PRO        -0.3944
     42 CB        -28.6850  -22.9390  -17.5440 C.3       1 PRO        -0.0104
     43 CG        -27.7520  -23.3780  -16.4960 C.3       1 PRO        -0.0281
     44 CD        -26.5880  -22.4490  -16.5900 C.3       1 PRO         0.0369
     45 N         -28.5390  -21.5280  -20.7540 N.am      1 GLY        -0.2664
     46 CA        -29.0480  -20.5260  -21.6730 C.3       1 GLY         0.1201
     47 C         -28.0010  -19.7000  -22.4030 C.2       1 GLY         0.2008
     48 O         -28.3840  -18.8030  -23.1620 O.2       1 GLY        -0.3947
     49 N         -26.6790  -19.9910  -22.2180 N.am      1 TRP        -0.2629
     50 CA        -25.5920  -19.2680  -22.9060 C.3       1 TRP         0.1352
     51 C         -25.8140  -19.2780  -24.4190 C.2       1 TRP         0.2053
     52 O         -25.5320  -18.2900  -25.1020 O.2       1 TRP        -0.3942
     53 CB        -24.2080  -19.8450  -22.5590 C.3       1 TRP         0.0042
     54 CG        -23.8640  -21.1240  -23.2750 C.2       1 TRP        -0.0418
     55 CD1       -24.0290  -22.3950  -22.8090 C.2       1 TRP         0.0167
     56 CD2       -23.2830  -21.2450  -24.5820 C.ar      1 TRP        -0.0214
     57 NE1       -23.6180  -23.3020  -23.7570 N.pl3     1 TRP        -0.2890
     58 CE2       -23.1610  -22.6240  -24.8590 C.ar      1 TRP         0.0603
     59 CE3       -22.8880  -20.3170  -25.5680 C.ar      1 TRP        -0.0747
     60 CZ2       -22.6250  -23.1000  -26.0650 C.ar      1 TRP        -0.0443
     61 CZ3       -22.3950  -20.7900  -26.7740 C.ar      1 TRP        -0.0792
     62 CH2       -22.2450  -22.1630  -27.0050 C.ar      1 TRP        -0.0768
     63 N         -26.3420  -20.4170  -24.9220 N.am      1 ASN        -0.2615
     64 CA        -26.6850  -20.6710  -26.3150 C.3       1 ASN         0.1476
     65 C         -27.6850  -19.6430  -26.8310 C.2       1 ASN         0.2063
     66 O         -27.5520  -19.1910  -27.9610 O.2       1 ASN        -0.3942
     67 CB        -27.2580  -22.0850  -26.4610 C.3       1 ASN         0.0773
     68 CG        -28.3220  -22.4670  -25.4720 C.2       1 ASN         0.1780
     69 OD1       -28.0920  -22.5140  -24.2610 O.2       1 ASN        -0.3970
     70 ND2       -29.4920  -22.8230  -25.9740 N.am      1 ASN        -0.3007
     71 N         -28.6680  -19.2610  -25.9880 N.am      1 LEU        -0.2636
     72 CA        -29.7110  -18.2990  -26.3230 C.3       1 LEU         0.1312
     73 C         -29.1860  -16.8760  -26.3970 C.2       1 LEU         0.2039
     74 O         -29.7730  -16.0520  -27.0990 O.2       1 LEU        -0.3944
     75 CB        -30.9140  -18.4270  -25.3740 C.3       1 LEU        -0.0101
     76 CG        -31.5770  -19.8140  -25.3550 C.3       1 LEU        -0.0425
     77 CD1       -32.6470  -19.9110  -24.2630 C.3       1 LEU        -0.0625
     78 CD2       -32.0780  -20.2560  -26.7760 C.3       1 LEU        -0.0625
     79 N         -28.0750  -16.5840  -25.7070 N.am      1 VAL        -0.2635
     80 CA        -27.5210  -15.2450  -25.8110 C.3       1 VAL         0.1332
     81 C         -26.5250  -15.2290  -26.9620 C.2       1 VAL         0.2041
     82 O         -26.4130  -14.2250  -27.6640 O.2       1 VAL        -0.3944
     83 CB        -26.9950  -14.6050  -24.4910 C.3       1 VAL        -0.0063
     84 CG1       -27.9510  -14.8690  -23.3380 C.3       1 VAL        -0.0584
     85 CG2       -25.5930  -15.0610  -24.1350 C.3       1 VAL        -0.0584
     86 N         -25.8560  -16.3690  -27.1950 N.am      1 HRG        -0.2637
     87 CA        -24.8790  -16.5140  -28.2680 C.3       1 HRG         0.1310
     88 CB        -24.1530  -17.8580  -28.1840 C.3       1 HRG        -0.0123
     89 CG        -21.9620  -17.1140  -29.2870 C.3       1 HRG        -0.0196
     90 CG'       -23.1640  -18.0610  -29.3270 C.3       1 HRG        -0.0457
     91 CD        -21.2110  -17.1740  -30.6150 C.3       1 HRG         0.0625
     92 NE        -19.9650  -16.4150  -30.6180 N.pl3     1 HRG        -0.2723
     93 CZ        -19.8960  -15.0880  -30.7690 C.cat     1 HRG         0.2882
     94 NH1       -20.8950  -14.3970  -31.3270 N.pl3     1 HRG        -0.2849
     95 NH2       -18.8740  -14.4680  -30.3620 N.pl3     1 HRG        -0.2849
     96 C         -25.5190  -16.2530  -29.6190 C.2       1 HRG         0.2039
     97 O         -24.9530  -15.5270  -30.4280 O.2       1 HRG        -0.3944
     98 N         -26.7180  -16.7930  -29.8360 N.am      1 ILE        -0.2635
     99 CA        -27.4710  -16.6190  -31.0740 C.3       1 ILE         0.1335
    100 C         -28.2530  -15.2970  -31.0770 C.2       1 ILE         0.2040
    101 O         -28.9780  -15.0140  -32.0210 O.2       1 ILE        -0.3944
    102 CB        -28.3530  -17.8600  -31.3930 C.3       1 ILE        -0.0037
    103 CG1       -29.4740  -18.0720  -30.3440 C.3       1 ILE        -0.0491
    104 CG2       -27.4910  -19.1160  -31.5890 C.3       1 ILE        -0.0582
    105 CD1       -30.5720  -19.0100  -30.7890 C.3       1 ILE        -0.0648
    106 N         -28.0860  -14.5060  -30.0240 N.am      1 GLY        -0.2664
    107 CA        -28.7220  -13.2030  -29.8770 C.3       1 GLY         0.1201
    108 C         -30.2120  -13.1930  -29.5980 C.2       1 GLY         0.2007
    109 O         -30.8750  -12.1940  -29.8860 O.2       1 GLY        -0.3947
    110 N         -30.7570  -14.2840  -29.0370 N.am      1 LEU        -0.2640
    111 CA        -32.1800  -14.3400  -28.6870 C.3       1 LEU         0.1312
    112 C         -32.3910  -13.5670  -27.3930 C.2       1 LEU         0.2039
    113 O         -33.3210  -12.7630  -27.3130 O.2       1 LEU        -0.3944
    114 CB        -32.6860  -15.7920  -28.5400 C.3       1 LEU        -0.0101
    115 CG        -34.1740  -15.9770  -28.2530 C.3       1 LEU        -0.0425
    116 CD1       -35.0100  -15.6230  -29.4670 C.3       1 LEU        -0.0625
    117 CD2       -34.4660  -17.4020  -27.8450 C.3       1 LEU        -0.0625
    118 N         -31.5120  -13.7950  -26.3940 N.am      1 LEU        -0.2637
    119 CA        -31.5810  -13.1310  -25.0890 C.3       1 LEU         0.1312
    120 C         -30.4240  -12.1710  -24.8890 C.2       1 LEU         0.2033
    121 O         -29.3350  -12.3970  -25.4220 O.2       1 LEU        -0.3944
    122 CB        -31.6410  -14.1570  -23.9420 C.3       1 LEU        -0.0101
    123 CG        -32.6780  -15.2930  -24.0630 C.3       1 LEU        -0.0425
    124 CD1       -32.6290  -16.1850  -22.8520 C.3       1 LEU        -0.0625
    125 CD2       -34.1090  -14.7620  -24.2780 C.3       1 LEU        -0.0625
    126 N         -30.6770  -11.0760  -24.1490 N.am      1 ARG        -0.2695
    127 CA        -29.6910  -10.0350  -23.8350 C.3       1 ARG         0.0945
    128 C         -28.9010  -10.4300  -22.5860 C.2       1 ARG         0.0601
    129 O         -27.8050  -10.9750  -22.6940 O.co2     1 ARG        -0.5666
    130 CB        -30.3770   -8.6730  -23.6190 C.3       1 ARG        -0.0148
    131 CG        -30.9460   -8.0390  -24.8820 C.3       1 ARG        -0.0162
    132 CD        -31.6590   -6.7390  -24.5610 C.3       1 ARG         0.0627
    133 NE        -32.3070   -6.1650  -25.7400 N.pl3     1 ARG        -0.2723
    134 CZ        -33.0120   -5.0380  -25.7360 C.cat     1 ARG         0.2882
    135 NH1       -33.1680   -4.3480  -24.6130 N.pl3     1 ARG        -0.2849
    136 NH2       -33.5640   -4.5910  -26.8550 N.pl3     1 ARG        -0.2849
    137 OXT       -29.3580  -10.2040  -21.4680 O.co2     1 ARG        -0.5666
    138 H1        -16.6984  -16.8973  -26.3292 H         1 ACE         0.0467
    139 H2        -15.0244  -17.2568  -25.7860 H         1 ACE         0.0467
    140 H3        -15.4906  -15.5735  -26.2052 H         1 ACE         0.0467
    141 H4        -18.1243  -16.8838  -24.7354 H         1 MET         0.1882
    142 H5        -17.5423  -15.6205  -22.1286 H         1 MET         0.0800
    143 H6        -19.6714  -15.1195  -23.3940 H         1 MET         0.0320
    144 H7        -19.9085  -15.6839  -21.7052 H         1 MET         0.0320
    145 H8        -20.7017  -17.7732  -22.3817 H         1 MET         0.0378
    146 H9        -20.0235  -17.6018  -24.0362 H         1 MET         0.0378
    147 H10       -22.5866  -15.6030  -25.9415 H         1 MET         0.0340
    148 H11       -21.3032  -16.8588  -25.9899 H         1 MET         0.0340
    149 H12       -20.9235  -15.2092  -25.3888 H         1 MET         0.0340
    150 H13       -18.9942  -16.8974  -20.3214 H         1 GLU         0.1883
    151 H14       -17.6647  -19.5238  -20.0101 H         1 GLU         0.0801
    152 H15       -18.6355  -19.3263  -17.6587 H         1 GLU         0.0330
    153 H16       -19.1754  -17.6745  -18.1132 H         1 GLU         0.0330
    154 H17       -17.1541  -16.8291  -17.7394 H         1 GLU         0.0433
    155 H18       -16.3761  -18.0700  -18.7794 H         1 GLU         0.0433
    156 H19       -18.8197  -21.4478  -19.7054 H         1 SER         0.1884
    157 H20       -21.4064  -21.6008  -20.9872 H         1 SER         0.0823
    158 H21       -19.5518  -23.6030  -19.6810 H         1 SER         0.0606
    159 H22       -20.0269  -23.4384  -21.4055 H         1 SER         0.0606
    160 H23       -21.0878  -25.1856  -20.3444 H         1 SER         0.2097
    161 H24       -23.3109  -21.2946  -20.1030 H         1 PHE         0.1885
    162 H25       -23.8964  -22.2048  -17.3591 H         1 PHE         0.0823
    163 H26       -23.1469  -19.8773  -17.0177 H         1 PHE         0.0474
    164 H27       -24.8975  -20.0804  -16.6703 H         1 PHE         0.0474
    165 H28       -22.4117  -18.5872  -18.9602 H         1 PHE         0.0557
    166 H29       -26.5647  -18.9800  -18.0342 H         1 PHE         0.0557
    167 H30       -22.9365  -16.7637  -20.5443 H         1 PHE         0.0599
    168 H31       -27.0859  -17.1615  -19.6353 H         1 PHE         0.0599
    169 H32       -25.2655  -16.0295  -20.8529 H         1 PHE         0.0559
    170 H33       -27.6493  -23.3284  -19.4062 H         1 PRO         0.0802
    171 H34       -29.3381  -23.7674  -17.8557 H         1 PRO         0.0313
    172 H35       -29.3013  -22.0995  -17.1898 H         1 PRO         0.0313
    173 H36       -27.4324  -24.4152  -16.6746 H         1 PRO         0.0287
    174 H37       -28.2238  -23.3052  -15.5050 H         1 PRO         0.0287
    175 H38       -26.7745  -21.5200  -16.0313 H         1 PRO         0.0524
    176 H39       -25.6690  -22.9238  -16.2157 H         1 PRO         0.0524
    177 H40       -28.3235  -22.4353  -21.1151 H         1 GLY         0.1881
    178 H41       -29.6827  -19.8345  -21.0995 H         1 GLY         0.0763
    179 H42       -29.6577  -21.0416  -22.4296 H         1 GLY         0.0763
    180 H43       -26.4368  -20.7281  -21.5871 H         1 TRP         0.1884
    181 H44       -25.6153  -18.2225  -22.5648 H         1 TRP         0.0815
    182 H45       -24.1790  -20.0394  -21.4767 H         1 TRP         0.0397
    183 H46       -23.4482  -19.0926  -22.8169 H         1 TRP         0.0397
    184 H47       -24.4280  -22.6537  -21.8293 H         1 TRP         0.0795
    185 H48       -23.6483  -24.3266  -23.6561 H         1 TRP         0.2216
    186 H49       -22.9686  -19.2515  -25.3856 H         1 TRP         0.0540
    187 H50       -22.5136  -24.1620  -26.2515 H         1 TRP         0.0541
    188 H51       -22.1211  -20.0856  -27.5511 H         1 TRP         0.0510
    189 H52       -21.8204  -22.4981  -27.9444 H         1 TRP         0.0530
    190 H53       -26.5141  -21.1584  -24.2734 H         1 ASN         0.1885
    191 H54       -25.7685  -20.5982  -26.9188 H         1 ASN         0.0826
    192 H55       -26.4272  -22.7980  -26.3544 H         1 ASN         0.0551
    193 H56       -27.6886  -22.1717  -27.4695 H         1 ASN         0.0551
    194 H57       -30.2384  -23.0876  -25.3634 H         1 ASN         0.1814
    195 H58       -29.6306  -22.8277  -26.9643 H         1 ASN         0.1814
    196 H59       -28.6816  -19.6647  -25.0732 H         1 LEU         0.1883
    197 H60       -30.0699  -18.5556  -27.3306 H         1 LEU         0.0800
    198 H61       -31.6712  -17.6903  -25.6804 H         1 LEU         0.0315
    199 H62       -30.5710  -18.1980  -24.3542 H         1 LEU         0.0315
    200 H63       -30.7904  -20.5304  -25.0758 H         1 LEU         0.0298
    201 H64       -33.0980  -20.9142  -24.2797 H         1 LEU         0.0232
    202 H65       -33.4259  -19.1558  -24.4447 H         1 LEU         0.0232
    203 H66       -32.1855  -19.7328  -23.2805 H         1 LEU         0.0232
    204 H67       -31.2566  -20.1583  -27.5011 H         1 LEU         0.0232
    205 H68       -32.9174  -19.6156  -27.0844 H         1 LEU         0.0232
    206 H69       -32.4108  -21.3037  -26.7380 H         1 LEU         0.0232
    207 H70       -27.6359  -17.2742  -25.1318 H         1 VAL         0.1883
    208 H71       -28.3560  -14.5985  -26.1189 H         1 VAL         0.0802
    209 H72       -26.9552  -13.5172  -24.6495 H         1 VAL         0.0343
    210 H73       -27.5560  -14.4072  -22.4211 H         1 VAL         0.0234
    211 H74       -28.0532  -15.9538  -23.1874 H         1 VAL         0.0234
    212 H75       -28.9352  -14.4369  -23.5714 H         1 VAL         0.0234
    213 H76       -24.9172  -14.8621  -24.9798 H         1 VAL         0.0234
    214 H77       -25.6020  -16.1395  -23.9187 H         1 VAL         0.0234
    215 H78       -25.2429  -14.5121  -23.2484 H         1 VAL         0.0234
    216 H79       -26.0360  -17.1561  -26.6050 H         1 HRG         0.1883
    217 H80       -24.1170  -15.7343  -28.1218 H         1 HRG         0.0800
    218 H81       -24.8999  -18.6649  -28.2166 H         1 HRG         0.0312
    219 H82       -23.6050  -17.9038  -27.2313 H         1 HRG         0.0312
    220 H83       -21.2871  -17.4149  -28.4721 H         1 HRG         0.0299
    221 H84       -22.3127  -16.0862  -29.1121 H         1 HRG         0.0299
    222 H85       -23.6963  -17.9041  -30.2768 H         1 HRG         0.0269
    223 H86       -22.7912  -19.0949  -29.2821 H         1 HRG         0.0269
    224 H87       -21.8650  -16.7713  -31.4025 H         1 HRG         0.0689
    225 H88       -20.9774  -18.2262  -30.8348 H         1 HRG         0.0689
    226 H89       -19.0834  -16.9336  -30.4962 H         1 HRG         0.2642
    227 H90       -20.8185  -13.3753  -31.4324 H         1 HRG         0.2615
    228 H91       -21.7413  -14.8863  -31.6515 H         1 HRG         0.2615
    229 H92       -18.0956  -14.9859  -29.9298 H         1 HRG         0.2615
    230 H93       -18.8187  -13.4444  -30.4623 H         1 HRG         0.2615
    231 H94       -27.1242  -17.3482  -29.1102 H         1 ILE         0.1883
    232 H95       -26.7330  -16.5459  -31.8864 H         1 ILE         0.0803
    233 H96       -28.8519  -17.6606  -32.3529 H         1 ILE         0.0345
    234 H97       -29.9257  -17.0944  -30.1200 H         1 ILE         0.0267
    235 H98       -29.0185  -18.4833  -29.4311 H         1 ILE         0.0267
    236 H99       -26.7135  -18.9135  -32.3404 H         1 ILE         0.0235
    237 H100      -28.1255  -19.9463  -31.9325 H         1 ILE         0.0235
    238 H101      -27.0165  -19.3877  -30.6345 H         1 ILE         0.0235
    239 H102      -31.3214  -19.1028  -29.9892 H         1 ILE         0.0230
    240 H103      -30.1433  -19.9994  -31.0064 H         1 ILE         0.0230
    241 H104      -31.0506  -18.6105  -31.6953 H         1 ILE         0.0230
    242 H105      -27.4882  -14.8231  -29.2878 H         1 GLY         0.1881
    243 H106      -28.5552  -12.6450  -30.8101 H         1 GLY         0.0763
    244 H107      -28.2250  -12.6829  -29.0449 H         1 GLY         0.0763
    245 H108      -30.1781  -15.0784  -28.8532 H         1 LEU         0.1883
    246 H109      -32.7568  -13.8557  -29.4887 H         1 LEU         0.0800
    247 H110      -32.1276  -16.2570  -27.7142 H         1 LEU         0.0315
    248 H111      -32.4601  -16.3197  -29.4783 H         1 LEU         0.0315
    249 H112      -34.4536  -15.3083  -27.4256 H         1 LEU         0.0298
    250 H113      -36.0753  -15.7651  -29.2326 H         1 LEU         0.0232
    251 H114      -34.7296  -16.2743  -30.3079 H         1 LEU         0.0232
    252 H115      -34.8318  -14.5728  -29.7413 H         1 LEU         0.0232
    253 H116      -33.8609  -17.6625  -26.9641 H         1 LEU         0.0232
    254 H117      -34.2161  -18.0795  -28.6747 H         1 LEU         0.0232
    255 H118      -35.5335  -17.5016  -27.5990 H         1 LEU         0.0232
    256 H119      -30.7747  -14.4517  -26.5527 H         1 LEU         0.1883
    257 H120      -32.5110  -12.5441  -25.0634 H         1 LEU         0.0800
    258 H121      -31.8616  -13.6054  -23.0163 H         1 LEU         0.0315
    259 H122      -30.6478  -14.6232  -23.8632 H         1 LEU         0.0315
    260 H123      -32.4098  -15.8969  -24.9424 H         1 LEU         0.0298
    261 H124      -33.3743  -16.9872  -22.9571 H         1 LEU         0.0232
    262 H125      -32.8515  -15.5935  -21.9517 H         1 LEU         0.0232
    263 H126      -31.6255  -16.6264  -22.7620 H         1 LEU         0.0232
    264 H127      -34.1295  -14.1124  -25.1654 H         1 LEU         0.0232
    265 H128      -34.4231  -14.1863  -23.3949 H         1 LEU         0.0232
    266 H129      -34.7956  -15.6083  -24.4272 H         1 LEU         0.0232
    267 H130      -31.6025  -10.9635  -23.7873 H         1 ARG         0.1875
    268 H131      -28.9939   -9.9452  -24.6812 H         1 ARG         0.0726
    269 H132      -29.6368   -7.9805  -23.1917 H         1 ARG         0.0307
    270 H133      -31.2019   -8.8143  -22.9051 H         1 ARG         0.0307
    271 H134      -31.6597   -8.7363  -25.3450 H         1 ARG         0.0301
    272 H135      -30.1243   -7.8352  -25.5843 H         1 ARG         0.0301
    273 H136      -30.9250   -6.0177  -24.1725 H         1 ARG         0.0689
    274 H137      -32.4237   -6.9330  -23.7944 H         1 ARG         0.0689
    275 H138      -32.2106   -6.6680  -26.6337 H         1 ARG         0.2642
    276 H139      -33.7154   -3.4755  -24.6165 H         1 ARG         0.2615
    277 H140      -32.7417   -4.6850  -23.7380 H         1 ARG         0.2615
    278 H141      -33.4493   -5.1184  -27.7322 H         1 ARG         0.2615
    279 H142      -34.1076   -3.7162  -26.8474 H         1 ARG         0.2615
@<TRIPOS>BOND
     1    1    2 2  
     2    1    3 1  
     3    1    4 am 
     4    4    5 1  
     5    5    6 1  
     6    5    8 1  
     7    6    7 2  
     8    6   12 am 
     9    8    9 1  
    10    9   10 1  
    11   10   11 1  
    12   12   13 1  
    13   13   14 1  
    14   13   16 1  
    15   14   15 2  
    16   14   21 am 
    17   16   17 1  
    18   17   18 1  
    19   18   19 ar 
    20   18   20 ar 
    21   21   22 1  
    22   22   23 1  
    23   22   25 1  
    24   23   24 2  
    25   23   27 am 
    26   25   26 1  
    27   27   28 1  
    28   28   29 1  
    29   28   31 1  
    30   29   30 2  
    31   29   38 am 
    32   31   32 1  
    33   32   33 ar 
    34   32   34 ar 
    35   33   35 ar 
    36   34   36 ar 
    37   35   37 ar 
    38   36   37 ar 
    39   38   39 1  
    40   38   44 1  
    41   39   40 1  
    42   39   42 1  
    43   40   41 2  
    44   40   45 am 
    45   42   43 1  
    46   43   44 1  
    47   45   46 1  
    48   46   47 1  
    49   47   48 2  
    50   47   49 am 
    51   49   50 1  
    52   50   51 1  
    53   50   53 1  
    54   51   52 2  
    55   51   63 am 
    56   53   54 1  
    57   54   55 2  
    58   54   56 1  
    59   55   57 1  
    60   56   58 ar 
    61   56   59 ar 
    62   57   58 1  
    63   58   60 ar 
    64   59   61 ar 
    65   60   62 ar 
    66   61   62 ar 
    67   63   64 1  
    68   64   65 1  
    69   64   67 1  
    70   65   66 2  
    71   65   71 am 
    72   67   68 1  
    73   68   69 2  
    74   68   70 am 
    75   71   72 1  
    76   72   73 1  
    77   72   75 1  
    78   73   74 2  
    79   73   79 am 
    80   75   76 1  
    81   76   77 1  
    82   76   78 1  
    83   79   80 1  
    84   80   81 1  
    85   80   83 1  
    86   81   82 2  
    87   81   86 am 
    88   83   84 1  
    89   83   85 1  
    90   86   87 1  
    91   87   88 1  
    92   87   96 1  
    93   88   90 1  
    94   90   89 1  
    95   89   91 1  
    96   91   92 1  
    97   92   93 ar 
    98   93   94 ar 
    99   93   95 ar 
   100   96   97 2  
   101   96   98 am 
   102   98   99 1  
   103   99  100 1  
   104   99  102 1  
   105  100  101 2  
   106  100  106 am 
   107  102  103 1  
   108  102  104 1  
   109  103  105 1  
   110  106  107 1  
   111  107  108 1  
   112  108  109 2  
   113  108  110 am 
   114  110  111 1  
   115  111  112 1  
   116  111  114 1  
   117  112  113 2  
   118  112  118 am 
   119  114  115 1  
   120  115  116 1  
   121  115  117 1  
   122  118  119 1  
   123  119  120 1  
   124  119  122 1  
   125  120  121 2  
   126  120  126 am 
   127  122  123 1  
   128  123  124 1  
   129  123  125 1  
   130  126  127 1  
   131  127  128 1  
   132  127  130 1  
   133  128  129 ar 
   134  128  137 ar 
   135  130  131 1  
   136  131  132 1  
   137  132  133 1  
   138  133  134 ar 
   139  134  135 ar 
   140  134  136 ar 
   141    3  138 1  
   142    3  139 1  
   143    3  140 1  
   144    4  141 1  
   145    5  142 1  
   146    8  143 1  
   147    8  144 1  
   148    9  145 1  
   149    9  146 1  
   150   11  147 1  
   151   11  148 1  
   152   11  149 1  
   153   12  150 1  
   154   13  151 1  
   155   16  152 1  
   156   16  153 1  
   157   17  154 1  
   158   17  155 1  
   159   21  156 1  
   160   22  157 1  
   161   25  158 1  
   162   25  159 1  
   163   26  160 1  
   164   27  161 1  
   165   28  162 1  
   166   31  163 1  
   167   31  164 1  
   168   33  165 1  
   169   34  166 1  
   170   35  167 1  
   171   36  168 1  
   172   37  169 1  
   173   39  170 1  
   174   42  171 1  
   175   42  172 1  
   176   43  173 1  
   177   43  174 1  
   178   44  175 1  
   179   44  176 1  
   180   45  177 1  
   181   46  178 1  
   182   46  179 1  
   183   49  180 1  
   184   50  181 1  
   185   53  182 1  
   186   53  183 1  
   187   55  184 1  
   188   57  185 1  
   189   59  186 1  
   190   60  187 1  
   191   61  188 1  
   192   62  189 1  
   193   63  190 1  
   194   64  191 1  
   195   67  192 1  
   196   67  193 1  
   197   70  194 1  
   198   70  195 1  
   199   71  196 1  
   200   72  197 1  
   201   75  198 1  
   202   75  199 1  
   203   76  200 1  
   204   77  201 1  
   205   77  202 1  
   206   77  203 1  
   207   78  204 1  
   208   78  205 1  
   209   78  206 1  
   210   79  207 1  
   211   80  208 1  
   212   83  209 1  
   213   84  210 1  
   214   84  211 1  
   215   84  212 1  
   216   85  213 1  
   217   85  214 1  
   218   85  215 1  
   219   86  216 1  
   220   87  217 1  
   221   88  218 1  
   222   88  219 1  
   223   89  220 1  
   224   89  221 1  
   225   90  222 1  
   226   90  223 1  
   227   91  224 1  
   228   91  225 1  
   229   92  226 1  
   230   94  227 1  
   231   94  228 1  
   232   95  229 1  
   233   95  230 1  
   234   98  231 1  
   235   99  232 1  
   236  102  233 1  
   237  103  234 1  
   238  103  235 1  
   239  104  236 1  
   240  104  237 1  
   241  104  238 1  
   242  105  239 1  
   243  105  240 1  
   244  105  241 1  
   245  106  242 1  
   246  107  243 1  
   247  107  244 1  
   248  110  245 1  
   249  111  246 1  
   250  114  247 1  
   251  114  248 1  
   252  115  249 1  
   253  116  250 1  
   254  116  251 1  
   255  116  252 1  
   256  117  253 1  
   257  117  254 1  
   258  117  255 1  
   259  118  256 1  
   260  119  257 1  
   261  122  258 1  
   262  122  259 1  
   263  123  260 1  
   264  124  261 1  
   265  124  262 1  
   266  124  263 1  
   267  125  264 1  
   268  125  265 1  
   269  125  266 1  
   270  126  267 1  
   271  127  268 1  
   272  130  269 1  
   273  130  270 1  
   274  131  271 1  
   275  131  272 1  
   276  132  273 1  
   277  132  274 1  
   278  133  275 1  
   279  135  276 1  
   280  135  277 1  
   281  136  278 1  
   282  136  279 1  
@<TRIPOS>SUBSTRUCTURE
     1 ACE         1

