5vlp_ligand
  -I-interpret- 

278281  0  0  0  0  0  0  0  0999 V2000
  -16.2570  -16.2710  -24.3050 C   0  0  0  0  0
  -15.4380  -15.8410  -23.4890 O   0  0  0  0  0
  -15.8380  -16.5170  -25.7590 C   0  0  0  0  0
  -17.5280  -16.5550  -24.0030 N   0  0  0  0  0
  -18.1020  -16.4110  -22.6500 C   0  0  0  0  0
  -17.9530  -17.7090  -21.8430 C   0  0  0  0  0
  -17.3470  -18.6800  -22.3140 O   0  0  0  0  0
  -19.5890  -15.9810  -22.7150 C   0  0  0  0  0
  -20.5230  -17.0730  -23.2110 C   0  0  0  0  0
  -22.1170  -16.4900  -23.8040 S   0  0  0  0  0
  -21.6930  -15.9940  -25.4330 C   0  0  0  0  0
  -18.5350  -17.7270  -20.6390 N   0  0  0  0  0
  -18.5340  -18.8960  -19.7650 C   0  0  0  0  0
  -19.8120  -19.7110  -19.9960 C   0  0  0  0  0
  -20.8650  -19.1330  -20.2670 O   0  0  0  0  0
  -18.4250  -18.4570  -18.2990 C   0  0  0  0  0
  -17.0560  -17.9080  -17.9300 C   0  0  0  0  0
  -16.4510  -18.5580  -16.7020 C   0  0  0  0  0
  -16.7490  -18.0930  -15.5780 O   0  0  0  0  0
  -15.7010  -19.5490  -16.8640 O   0  0  0  0  0
  -19.7130  -21.0470  -19.9090 N   0  0  0  0  0
  -20.8550  -21.9430  -20.0990 C   0  0  0  0  0
  -21.8130  -21.8870  -18.9100 C   0  0  0  0  0
  -21.4090  -22.1390  -17.7780 O   0  0  0  0  0
  -20.3800  -23.3690  -20.3660 C   0  0  0  0  0
  -21.4180  -24.3120  -20.1700 O   0  0  0  0  0
  -23.0650  -21.5270  -19.1620 N   0  0  0  0  0
  -24.1070  -21.4520  -18.1330 C   0  0  0  0  0
  -25.4540  -21.7760  -18.7860 C   0  0  0  0  0
  -25.5600  -21.6250  -20.0080 O   0  0  0  0  0
  -24.1350  -20.0650  -17.4630 C   0  0  0  0  0
  -24.4530  -18.9300  -18.4020 C   0  0  0  0  0
  -23.4420  -18.2830  -19.1050 C   0  0  0  0  0
  -25.7630  -18.5050  -18.5880 C   0  0  0  0  0
  -23.7350  -17.2480  -19.9940 C   0  0  0  0  0
  -26.0580  -17.4700  -19.4830 C   0  0  0  0  0
  -25.0390  -16.8420  -20.1720 C   0  0  0  0  0
  -26.5030  -22.1920  -18.0370 N   0  0  0  0  0
  -27.7820  -22.4990  -18.6960 C   0  0  0  0  0
  -28.3440  -21.3040  -19.4580 C   0  0  0  0  0
  -28.5090  -20.2060  -18.8990 O   0  0  0  0  0
  -28.6850  -22.9390  -17.5440 C   0  0  0  0  0
  -27.7520  -23.3780  -16.4960 C   0  0  0  0  0
  -26.5880  -22.4490  -16.5900 C   0  0  0  0  0
  -28.5390  -21.5280  -20.7540 N   0  0  0  0  0
  -29.0480  -20.5260  -21.6730 C   0  0  0  0  0
  -28.0010  -19.7000  -22.4030 C   0  0  0  0  0
  -28.3840  -18.8030  -23.1620 O   0  0  0  0  0
  -26.6790  -19.9910  -22.2180 N   0  0  0  0  0
  -25.5920  -19.2680  -22.9060 C   0  0  0  0  0
  -25.8140  -19.2780  -24.4190 C   0  0  0  0  0
  -25.5320  -18.2900  -25.1020 O   0  0  0  0  0
  -24.2080  -19.8450  -22.5590 C   0  0  0  0  0
  -23.8640  -21.1240  -23.2750 C   0  0  0  0  0
  -24.0290  -22.3950  -22.8090 C   0  0  0  0  0
  -23.2830  -21.2450  -24.5820 C   0  0  0  0  0
  -23.6180  -23.3020  -23.7570 N   0  0  0  0  0
  -23.1610  -22.6240  -24.8590 C   0  0  0  0  0
  -22.8880  -20.3170  -25.5680 C   0  0  0  0  0
  -22.6250  -23.1000  -26.0650 C   0  0  0  0  0
  -22.3950  -20.7900  -26.7740 C   0  0  0  0  0
  -22.2450  -22.1630  -27.0050 C   0  0  0  0  0
  -26.3420  -20.4170  -24.9220 N   0  0  0  0  0
  -26.6850  -20.6710  -26.3150 C   0  0  0  0  0
  -27.6850  -19.6430  -26.8310 C   0  0  0  0  0
  -27.5520  -19.1910  -27.9610 O   0  0  0  0  0
  -27.2580  -22.0850  -26.4610 C   0  0  0  0  0
  -28.3220  -22.4670  -25.4720 C   0  0  0  0  0
  -28.0920  -22.5140  -24.2610 O   0  0  0  0  0
  -29.4920  -22.8230  -25.9740 N   0  0  0  0  0
  -28.6680  -19.2610  -25.9880 N   0  0  0  0  0
  -29.7110  -18.2990  -26.3230 C   0  0  0  0  0
  -29.1860  -16.8760  -26.3970 C   0  0  0  0  0
  -29.7730  -16.0520  -27.0990 O   0  0  0  0  0
  -30.9140  -18.4270  -25.3740 C   0  0  0  0  0
  -31.5770  -19.8140  -25.3550 C   0  0  0  0  0
  -32.6470  -19.9110  -24.2630 C   0  0  0  0  0
  -32.0780  -20.2560  -26.7760 C   0  0  0  0  0
  -28.0750  -16.5840  -25.7070 N   0  0  0  0  0
  -27.5210  -15.2450  -25.8110 C   0  0  0  0  0
  -26.5250  -15.2290  -26.9620 C   0  0  0  0  0
  -26.4130  -14.2250  -27.6640 O   0  0  0  0  0
  -26.9950  -14.6050  -24.4910 C   0  0  0  0  0
  -27.9510  -14.8690  -23.3380 C   0  0  0  0  0
  -25.5930  -15.0610  -24.1350 C   0  0  0  0  0
  -25.8560  -16.3690  -27.1950 N   0  0  0  0  0
  -24.8790  -16.5140  -28.2680 C   0  0  0  0  0
  -24.1530  -17.8580  -28.1840 C   0  0  0  0  0
  -21.9620  -17.1140  -29.2870 C   0  0  0  0  0
  -23.1640  -18.0610  -29.3270 C   0  0  0  0  0
  -21.2110  -17.1740  -30.6150 C   0  0  0  0  0
  -19.9650  -16.4150  -30.6180 N   0  0  0  0  0
  -19.8960  -15.0880  -30.7690 C   0  0  0  0  0
  -20.8950  -14.3970  -31.3270 N   0  0  0  0  0
  -18.8740  -14.4680  -30.3620 N   0  0  0  0  0
  -25.5190  -16.2530  -29.6190 C   0  0  0  0  0
  -24.9530  -15.5270  -30.4280 O   0  0  0  0  0
  -26.7180  -16.7930  -29.8360 N   0  0  0  0  0
  -27.4710  -16.6190  -31.0740 C   0  0  0  0  0
  -28.2530  -15.2970  -31.0770 C   0  0  0  0  0
  -28.9780  -15.0140  -32.0210 O   0  0  0  0  0
  -28.3530  -17.8600  -31.3930 C   0  0  0  0  0
  -29.4740  -18.0720  -30.3440 C   0  0  0  0  0
  -27.4910  -19.1160  -31.5890 C   0  0  0  0  0
  -30.5720  -19.0100  -30.7890 C   0  0  0  0  0
  -28.0860  -14.5060  -30.0240 N   0  0  0  0  0
  -28.7220  -13.2030  -29.8770 C   0  0  0  0  0
  -30.2120  -13.1930  -29.5980 C   0  0  0  0  0
  -30.8750  -12.1940  -29.8860 O   0  0  0  0  0
  -30.7570  -14.2840  -29.0370 N   0  0  0  0  0
  -32.1800  -14.3400  -28.6870 C   0  0  0  0  0
  -32.3910  -13.5670  -27.3930 C   0  0  0  0  0
  -33.3210  -12.7630  -27.3130 O   0  0  0  0  0
  -32.6860  -15.7920  -28.5400 C   0  0  0  0  0
  -34.1740  -15.9770  -28.2530 C   0  0  0  0  0
  -35.0100  -15.6230  -29.4670 C   0  0  0  0  0
  -34.4660  -17.4020  -27.8450 C   0  0  0  0  0
  -31.5120  -13.7950  -26.3940 N   0  0  0  0  0
  -31.5810  -13.1310  -25.0890 C   0  0  0  0  0
  -30.4240  -12.1710  -24.8890 C   0  0  0  0  0
  -29.3350  -12.3970  -25.4220 O   0  0  0  0  0
  -31.6410  -14.1570  -23.9420 C   0  0  0  0  0
  -32.6780  -15.2930  -24.0630 C   0  0  0  0  0
  -32.6290  -16.1850  -22.8520 C   0  0  0  0  0
  -34.1090  -14.7620  -24.2780 C   0  0  0  0  0
  -30.6770  -11.0760  -24.1490 N   0  0  0  0  0
  -29.6910  -10.0350  -23.8350 C   0  0  0  0  0
  -28.9010  -10.4300  -22.5860 C   0  0  0  0  0
  -27.8050  -10.9750  -22.6940 O   0  0  0  0  0
  -30.3770   -8.6730  -23.6190 C   0  0  0  0  0
  -30.9460   -8.0390  -24.8820 C   0  0  0  0  0
  -31.6590   -6.7390  -24.5610 C   0  0  0  0  0
  -32.3070   -6.1650  -25.7400 N   0  0  0  0  0
  -33.0120   -5.0380  -25.7360 C   0  0  0  0  0
  -33.1680   -4.3480  -24.6130 N   0  0  0  0  0
  -33.5640   -4.5910  -26.8550 N   0  0  0  0  0
  -29.3580  -10.2040  -21.4680 O   0  0  0  0  0
  -15.4940  -15.5814  -26.1999 H   0  0  0  0  0
  -15.0318  -17.2502  -25.7844 H   0  0  0  0  0
  -16.6913  -16.8937  -26.3229 H   0  0  0  0  0
  -18.1362  -16.8904  -24.7500 H   0  0  0  0  0
  -17.5430  -15.6266  -22.1398 H   0  0  0  0  0
  -19.6567  -15.1513  -23.4187 H   0  0  0  0  0
  -19.8977  -15.7252  -21.7014 H   0  0  0  0  0
  -20.7214  -17.7289  -22.3633 H   0  0  0  0  0
  -20.0280  -17.5536  -24.0548 H   0  0  0  0  0
  -20.9305  -15.2164  -25.3878 H   0  0  0  0  0
  -21.3069  -16.8518  -25.9837 H   0  0  0  0  0
  -22.5792  -15.6068  -25.9358 H   0  0  0  0  0
  -19.0034  -16.8808  -20.3150 H   0  0  0  0  0
  -17.6730  -19.5227  -19.9975 H   0  0  0  0  0
  -18.6030  -19.3362  -17.6798 H   0  0  0  0  0
  -19.1510  -17.6595  -18.1412 H   0  0  0  0  0
  -17.1780  -16.8472  -17.7111 H   0  0  0  0  0
  -16.3877  -18.1077  -18.7676 H   0  0  0  0  0
  -15.6105  -19.7304  -17.8024 H   0  0  0  0  0
  -18.8019  -21.4558  -19.7014 H   0  0  0  0  0
  -21.4090  -21.6024  -20.9737 H   0  0  0  0  0
  -19.5723  -23.5978  -19.6708 H   0  0  0  0  0
  -20.0495  -23.4325  -21.4028 H   0  0  0  0  0
  -21.0843  -25.1947  -20.3462 H   0  0  0  0  0
  -23.3158  -21.2900  -20.1219 H   0  0  0  0  0
  -23.8947  -22.1758  -17.3461 H   0  0  0  0  0
  -23.1377  -19.8813  -17.0634 H   0  0  0  0  0
  -24.9221  -20.0883  -16.7094 H   0  0  0  0  0
  -22.4060  -18.5889  -18.9594 H   0  0  0  0  0
  -26.5692  -18.9826  -18.0311 H   0  0  0  0  0
  -22.9321  -16.7610  -20.5474 H   0  0  0  0  0
  -27.0916  -17.1598  -19.6361 H   0  0  0  0  0
  -25.2668  -16.0250  -20.8567 H   0  0  0  0  0
  -27.6837  -23.2681  -19.4621 H   0  0  0  0  0
  -29.3705  -23.7327  -17.8409 H   0  0  0  0  0
  -29.3352  -22.1336  -17.2025 H   0  0  0  0  0
  -27.4494  -24.4156  -16.6375 H   0  0  0  0  0
  -28.2131  -23.3445  -15.5089 H   0  0  0  0  0
  -26.7173  -21.5408  -16.0014 H   0  0  0  0  0
  -25.6714  -22.8690  -16.1759 H   0  0  0  0  0
  -28.3192  -22.4534  -21.1223 H   0  0  0  0  0
  -29.6273  -19.8250  -21.0721 H   0  0  0  0  0
  -29.6015  -21.0669  -22.4405 H   0  0  0  0  0
  -26.4319  -20.7428  -21.5745 H   0  0  0  0  0
  -25.6127  -18.2367  -22.5537 H   0  0  0  0  0
  -24.2156  -20.0699  -21.4925 H   0  0  0  0  0
  -23.4692  -19.1028  -22.8614 H   0  0  0  0  0
  -24.4283  -22.6539  -21.8284 H   0  0  0  0  0
  -22.9691  -19.2456  -25.3846 H   0  0  0  0  0
  -22.5130  -24.1679  -26.2525 H   0  0  0  0  0
  -22.1196  -20.0817  -27.5554 H   0  0  0  0  0
  -21.8180  -22.5000  -27.9496 H   0  0  0  0  0
  -26.5175  -21.1733  -24.2604 H   0  0  0  0  0
  -25.7769  -20.5867  -26.9120 H   0  0  0  0  0
  -26.4270  -22.7713  -26.2983 H   0  0  0  0  0
  -27.7244  -22.1271  -27.4453 H   0  0  0  0  0
  -30.2350  -23.1477  -25.3552 H   0  0  0  0  0
  -29.6518  -22.7730  -26.9802 H   0  0  0  0  0
  -28.6818  -19.6727  -25.0549 H   0  0  0  0  0
  -30.0612  -18.5427  -27.3260 H   0  0  0  0  0
  -31.6679  -17.7211  -25.7224 H   0  0  0  0  0
  -30.5428  -18.2403  -24.3663 H   0  0  0  0  0
  -30.8111  -20.5421  -25.0879 H   0  0  0  0  0
  -32.1885  -19.7342  -23.2901 H   0  0  0  0  0
  -33.4181  -19.1622  -24.4441 H   0  0  0  0  0
  -33.0931  -20.9054  -24.2805 H   0  0  0  0  0
  -32.8106  -19.5365  -27.1416 H   0  0  0  0  0
  -31.2319  -20.2955  -27.4621 H   0  0  0  0  0
  -32.5380  -21.2418  -26.7073 H   0  0  0  0  0
  -27.6271  -17.2880  -25.1203 H   0  0  0  0  0
  -28.3467  -14.5681  -26.0307 H   0  0  0  0  0
  -26.9444  -13.5307  -24.6680 H   0  0  0  0  0
  -28.9258  -14.4404  -23.5706 H   0  0  0  0  0
  -28.0514  -15.9442  -23.1899 H   0  0  0  0  0
  -27.5585  -14.4110  -22.4301 H   0  0  0  0  0
  -25.5859  -16.1434  -24.0070 H   0  0  0  0  0
  -24.9078  -14.7841  -24.9362 H   0  0  0  0  0
  -25.2812  -14.5820  -23.2068 H   0  0  0  0  0
  -26.0396  -17.1718  -26.5932 H   0  0  0  0  0
  -24.1071  -15.7546  -28.1434 H   0  0  0  0  0
  -24.9013  -18.6483  -28.2429 H   0  0  0  0  0
  -23.5943  -17.8801  -27.2484 H   0  0  0  0  0
  -21.2929  -17.4152  -28.4810 H   0  0  0  0  0
  -22.3113  -16.0957  -29.1165 H   0  0  0  0  0
  -23.6992  -17.8646  -30.2560 H   0  0  0  0  0
  -22.7778  -19.0769  -29.2434 H   0  0  0  0  0
  -21.8592  -16.7400  -31.3763 H   0  0  0  0  0
  -20.9575  -18.2179  -30.7996 H   0  0  0  0  0
  -19.0920  -16.9285  -30.4974 H   0  0  0  0  0
  -20.8250  -13.3836  -31.4190 H   0  0  0  0  0
  -21.7273  -14.8832  -31.6608 H   0  0  0  0  0
  -18.1090  -14.9793  -29.9219 H   0  0  0  0  0
  -27.1323  -17.3593  -29.0957 H   0  0  0  0  0
  -26.7555  -16.5471  -31.8931 H   0  0  0  0  0
  -28.8601  -17.6637  -32.3377 H   0  0  0  0  0
  -29.9346  -17.1003  -30.1658 H   0  0  0  0  0
  -29.0097  -18.5162  -29.4635 H   0  0  0  0  0
  -26.8010  -18.9559  -32.4175 H   0  0  0  0  0
  -26.9268  -19.3137  -30.6776 H   0  0  0  0  0
  -28.1356  -19.9666  -31.8105 H   0  0  0  0  0
  -31.0454  -18.6131  -31.6870 H   0  0  0  0  0
  -30.1459  -19.9899  -31.0041 H   0  0  0  0  0
  -31.3139  -19.1012  -29.9957 H   0  0  0  0  0
  -27.4762  -14.8295  -29.2731 H   0  0  0  0  0
  -28.5950  -12.6997  -30.8355 H   0  0  0  0  0
  -28.2533  -12.7389  -29.0092 H   0  0  0  0  0
  -30.1666  -15.0943  -28.8495 H   0  0  0  0  0
  -32.7564  -13.8896  -29.4950 H   0  0  0  0  0
  -32.1615  -16.2058  -27.6788 H   0  0  0  0  0
  -32.5052  -16.2707  -29.5024 H   0  0  0  0  0
  -34.4359  -15.3067  -27.4344 H   0  0  0  0  0
  -34.8325  -14.5822  -29.7378 H   0  0  0  0  0
  -34.7312  -16.2690  -30.2995 H   0  0  0  0  0
  -36.0653  -15.7642  -29.2335 H   0  0  0  0  0
  -34.1755  -18.0761  -28.6508 H   0  0  0  0  0
  -33.9003  -17.6442  -26.9453 H   0  0  0  0  0
  -35.5321  -17.5103  -27.6455 H   0  0  0  0  0
  -30.7600  -14.4648  -26.5559 H   0  0  0  0  0
  -32.5029  -12.5496  -25.0727 H   0  0  0  0  0
  -31.9249  -13.5914  -23.0545 H   0  0  0  0  0
  -30.6670  -14.6462  -23.9322 H   0  0  0  0  0
  -32.4122  -15.8730  -24.9468 H   0  0  0  0  0
  -31.6342  -16.6217  -22.7640 H   0  0  0  0  0
  -32.8496  -15.5978  -21.9606 H   0  0  0  0  0
  -33.3679  -16.9794  -22.9573 H   0  0  0  0  0
  -34.3931  -14.1347  -23.4331 H   0  0  0  0  0
  -34.1433  -14.1750  -25.1958 H   0  0  0  0  0
  -34.7989  -15.6022  -24.3566 H   0  0  0  0  0
  -31.6210  -10.9612  -23.7801 H   0  0  0  0  0
  -29.0082   -9.9405  -24.6793 H   0  0  0  0  0
  -27.5914  -11.0801  -23.6240 H   0  0  0  0  0
  -29.6165   -7.9919  -23.2372 H   0  0  0  0  0
  -31.2159   -8.8439  -22.9443 H   0  0  0  0  0
  -31.6607   -8.7296  -25.3295 H   0  0  0  0  0
  -30.1261   -7.8288  -25.5688 H   0  0  0  0  0
  -30.9200   -6.0255  -24.1965 H   0  0  0  0  0
  -32.4274   -6.9462  -23.8162 H   0  0  0  0  0
  -32.2115   -6.6631  -26.6250 H   0  0  0  0  0
  -33.7084   -3.4829  -24.6168 H   0  0  0  0  0
  -32.7475   -4.6828  -23.7461 H   0  0  0  0  0
  -33.4487   -5.1122  -27.7241 H   0  0  0  0  0
  1  2  2  0  0  0
  1  3  1  0  0  0
  1  4  1  0  0  0
  4  5  1  0  0  0
  5  6  1  0  0  0
  5  8  1  0  0  0
  6  7  2  0  0  0
  6 12  1  0  0  0
  8  9  1  0  0  0
  9 10  1  0  0  0
 10 11  1  0  0  0
 12 13  1  0  0  0
 13 14  1  0  0  0
 13 16  1  0  0  0
 14 15  2  0  0  0
 14 21  1  0  0  0
 16 17  1  0  0  0
 17 18  1  0  0  0
 18 19  2  0  0  0
 18 20  1  0  0  0
 21 22  1  0  0  0
 22 23  1  0  0  0
 22 25  1  0  0  0
 23 24  2  0  0  0
 23 27  1  0  0  0
 25 26  1  0  0  0
 27 28  1  0  0  0
 28 29  1  0  0  0
 28 31  1  0  0  0
 29 30  2  0  0  0
 29 38  1  0  0  0
 31 32  1  0  0  0
 32 33  4  0  0  0
 32 34  4  0  0  0
 33 35  4  0  0  0
 34 36  4  0  0  0
 35 37  4  0  0  0
 36 37  4  0  0  0
 38 39  1  0  0  0
 38 44  1  0  0  0
 39 40  1  0  0  0
 39 42  1  0  0  0
 40 41  2  0  0  0
 40 45  1  0  0  0
 42 43  1  0  0  0
 43 44  1  0  0  0
 45 46  1  0  0  0
 46 47  1  0  0  0
 47 48  2  0  0  0
 47 49  1  0  0  0
 49 50  1  0  0  0
 50 51  1  0  0  0
 50 53  1  0  0  0
 51 52  2  0  0  0
 51 63  1  0  0  0
 53 54  1  0  0  0
 54 55  4  0  0  0
 54 56  4  0  0  0
 55 57  4  0  0  0
 56 58  4  0  0  0
 56 59  4  0  0  0
 57 58  4  0  0  0
 58 60  4  0  0  0
 59 61  4  0  0  0
 60 62  4  0  0  0
 61 62  4  0  0  0
 63 64  1  0  0  0
 64 65  1  0  0  0
 64 67  1  0  0  0
 65 66  2  0  0  0
 65 71  1  0  0  0
 67 68  1  0  0  0
 68 69  2  0  0  0
 68 70  1  0  0  0
 71 72  1  0  0  0
 72 73  1  0  0  0
 72 75  1  0  0  0
 73 74  2  0  0  0
 73 79  1  0  0  0
 75 76  1  0  0  0
 76 77  1  0  0  0
 76 78  1  0  0  0
 79 80  1  0  0  0
 80 81  1  0  0  0
 80 83  1  0  0  0
 81 82  2  0  0  0
 81 86  1  0  0  0
 83 84  1  0  0  0
 83 85  1  0  0  0
 86 87  1  0  0  0
 87 88  1  0  0  0
 87 96  1  0  0  0
 88 90  1  0  0  0
 90 89  1  0  0  0
 89 91  1  0  0  0
 91 92  1  0  0  0
 92 93  1  0  0  0
 93 94  1  0  0  0
 93 95  2  0  0  0
 96 97  2  0  0  0
 96 98  1  0  0  0
 98 99  1  0  0  0
 99100  1  0  0  0
 99102  1  0  0  0
100101  2  0  0  0
100106  1  0  0  0
102103  1  0  0  0
102104  1  0  0  0
103105  1  0  0  0
106107  1  0  0  0
107108  1  0  0  0
108109  2  0  0  0
108110  1  0  0  0
110111  1  0  0  0
111112  1  0  0  0
111114  1  0  0  0
112113  2  0  0  0
112118  1  0  0  0
114115  1  0  0  0
115116  1  0  0  0
115117  1  0  0  0
118119  1  0  0  0
119120  1  0  0  0
119122  1  0  0  0
120121  2  0  0  0
120126  1  0  0  0
122123  1  0  0  0
123124  1  0  0  0
123125  1  0  0  0
126127  1  0  0  0
127128  1  0  0  0
127130  1  0  0  0
128129  1  0  0  0
128137  2  0  0  0
130131  1  0  0  0
131132  1  0  0  0
132133  1  0  0  0
133134  1  0  0  0
134135  1  0  0  0
134136  2  0  0  0
  3138  1  0  0  0
  3139  1  0  0  0
  3140  1  0  0  0
  4141  1  0  0  0
  5142  1  0  0  0
  8143  1  0  0  0
  8144  1  0  0  0
  9145  1  0  0  0
  9146  1  0  0  0
 11147  1  0  0  0
 11148  1  0  0  0
 11149  1  0  0  0
 12150  1  0  0  0
 13151  1  0  0  0
 16152  1  0  0  0
 16153  1  0  0  0
 17154  1  0  0  0
 17155  1  0  0  0
 20156  1  0  0  0
 21157  1  0  0  0
 22158  1  0  0  0
 25159  1  0  0  0
 25160  1  0  0  0
 26161  1  0  0  0
 27162  1  0  0  0
 28163  1  0  0  0
 31164  1  0  0  0
 31165  1  0  0  0
 33166  1  0  0  0
 34167  1  0  0  0
 35168  1  0  0  0
 36169  1  0  0  0
 37170  1  0  0  0
 39171  1  0  0  0
 42172  1  0  0  0
 42173  1  0  0  0
 43174  1  0  0  0
 43175  1  0  0  0
 44176  1  0  0  0
 44177  1  0  0  0
 45178  1  0  0  0
 46179  1  0  0  0
 46180  1  0  0  0
 49181  1  0  0  0
 50182  1  0  0  0
 53183  1  0  0  0
 53184  1  0  0  0
 55185  1  0  0  0
 59186  1  0  0  0
 60187  1  0  0  0
 61188  1  0  0  0
 62189  1  0  0  0
 63190  1  0  0  0
 64191  1  0  0  0
 67192  1  0  0  0
 67193  1  0  0  0
 70194  1  0  0  0
 70195  1  0  0  0
 71196  1  0  0  0
 72197  1  0  0  0
 75198  1  0  0  0
 75199  1  0  0  0
 76200  1  0  0  0
 77201  1  0  0  0
 77202  1  0  0  0
 77203  1  0  0  0
 78204  1  0  0  0
 78205  1  0  0  0
 78206  1  0  0  0
 79207  1  0  0  0
 80208  1  0  0  0
 83209  1  0  0  0
 84210  1  0  0  0
 84211  1  0  0  0
 84212  1  0  0  0
 85213  1  0  0  0
 85214  1  0  0  0
 85215  1  0  0  0
 86216  1  0  0  0
 87217  1  0  0  0
 88218  1  0  0  0
 88219  1  0  0  0
 89220  1  0  0  0
 89221  1  0  0  0
 90222  1  0  0  0
 90223  1  0  0  0
 91224  1  0  0  0
 91225  1  0  0  0
 92226  1  0  0  0
 94227  1  0  0  0
 94228  1  0  0  0
 95229  1  0  0  0
 98230  1  0  0  0
 99231  1  0  0  0
102232  1  0  0  0
103233  1  0  0  0
103234  1  0  0  0
104235  1  0  0  0
104236  1  0  0  0
104237  1  0  0  0
105238  1  0  0  0
105239  1  0  0  0
105240  1  0  0  0
106241  1  0  0  0
107242  1  0  0  0
107243  1  0  0  0
110244  1  0  0  0
111245  1  0  0  0
114246  1  0  0  0
114247  1  0  0  0
115248  1  0  0  0
116249  1  0  0  0
116250  1  0  0  0
116251  1  0  0  0
117252  1  0  0  0
117253  1  0  0  0
117254  1  0  0  0
118255  1  0  0  0
119256  1  0  0  0
122257  1  0  0  0
122258  1  0  0  0
123259  1  0  0  0
124260  1  0  0  0
124261  1  0  0  0
124262  1  0  0  0
125263  1  0  0  0
125264  1  0  0  0
125265  1  0  0  0
126266  1  0  0  0
127267  1  0  0  0
129268  1  0  0  0
130269  1  0  0  0
130270  1  0  0  0
131271  1  0  0  0
131272  1  0  0  0
132273  1  0  0  0
132274  1  0  0  0
133275  1  0  0  0
135276  1  0  0  0
135277  1  0  0  0
136278  1  0  0  0
M  END
$$$$
