3sgt_ligand
  -I-interpret- 

 46 48  0  0  0  0  0  0  0  0999 V2000
  -13.3630   -4.3790    0.3300 C   0  0  0  0  0
  -15.1170   -2.1640    1.5530 C   0  0  0  0  0
  -11.0160    7.9790    7.6780 O   0  0  0  0  0
  -12.2700    4.3590    6.1590 O   0  0  0  0  0
  -10.9450    6.9980    5.6770 O   0  0  0  0  0
  -15.2240    8.1420    7.5260 C   0  0  0  0  0
  -15.8910    7.0690    6.9320 C   0  0  0  0  0
  -13.8370    8.2560    7.4700 C   0  0  0  0  0
  -15.1450    6.1150    6.2670 C   0  0  0  0  0
  -11.5760   -2.6340    0.1730 C   0  0  0  0  0
  -12.1750    2.8060    4.0030 C   0  0  0  0  0
  -12.7240    4.0460    2.0130 C   0  0  0  0  0
  -11.0640   -1.3600    0.3270 C   0  0  0  0  0
  -11.6930    1.7480    3.1980 C   0  0  0  0  0
  -12.2450    3.0110    1.2200 C   0  0  0  0  0
  -13.1700   -0.6100    1.2720 C   0  0  0  0  0
  -13.2160    4.9720    4.1560 N   0  0  0  0  0
  -11.2650    0.8610    0.9940 O   0  0  0  0  0
  -11.5520    7.3950    6.7190 C   0  0  0  0  0
  -13.0140    5.0830    5.4680 C   0  0  0  0  0
  -12.8880   -2.9250    0.5530 C   0  0  0  0  0
  -13.6900   -1.9060    1.0880 C   0  0  0  0  0
  -12.6830    3.9670    3.4090 C   0  0  0  0  0
  -11.7550    1.8470    1.8110 C   0  0  0  0  0
  -11.8760   -0.3440    0.8710 C   0  0  0  0  0
  -13.0910    7.2660    6.7990 C   0  0  0  0  0
  -13.7660    6.2240    6.1820 C   0  0  0  0  0
  -13.2979   -4.6225   -0.7304 H   0  0  0  0  0
  -12.7290   -5.0584    0.8997 H   0  0  0  0  0
  -14.3959   -4.4777    0.6640 H   0  0  0  0  0
  -15.1889   -1.9734    2.6238 H   0  0  0  0  0
  -15.7974   -1.5013    1.0182 H   0  0  0  0  0
  -15.3824   -3.2012    1.3486 H   0  0  0  0  0
  -11.5717    6.5777    5.0835 H   0  0  0  0  0
  -15.8013    8.9072    8.0449 H   0  0  0  0  0
  -16.9762    6.9857    6.9915 H   0  0  0  0  0
  -13.3341    9.1013    7.9398 H   0  0  0  0  0
  -15.6473    5.2660    5.8034 H   0  0  0  0  0
  -10.9497   -3.4198   -0.2493 H   0  0  0  0  0
  -12.1508    2.7171    5.0891 H   0  0  0  0  0
  -13.1392    4.9355    1.5391 H   0  0  0  0  0
  -10.0383   -1.1417    0.0296 H   0  0  0  0  0
  -11.2734    0.8560    3.6631 H   0  0  0  0  0
  -12.2522    3.1089    0.1344 H   0  0  0  0  0
  -13.7804    0.1716    1.7244 H   0  0  0  0  0
  -13.7955    5.6708    3.6909 H   0  0  0  0  0
 21  1  1  0  0  0
 22  2  1  0  0  0
 19  3  2  0  0  0
 20  4  2  0  0  0
 19  5  1  0  0  0
  7  6  4  0  0  0
  6  8  4  0  0  0
  9  7  4  0  0  0
  8 26  4  0  0  0
 27  9  4  0  0  0
 13 10  4  0  0  0
 10 21  4  0  0  0
 11 14  4  0  0  0
 23 11  4  0  0  0
 12 15  4  0  0  0
 23 12  4  0  0  0
 25 13  4  0  0  0
 14 24  4  0  0  0
 15 24  4  0  0  0
 16 22  4  0  0  0
 25 16  4  0  0  0
 20 17  1  0  0  0
 17 23  1  0  0  0
 24 18  1  0  0  0
 18 25  1  0  0  0
 26 19  1  0  0  0
 20 27  1  0  0  0
 21 22  4  0  0  0
 26 27  4  0  0  0
  1 28  1  0  0  0
  1 29  1  0  0  0
  1 30  1  0  0  0
  2 31  1  0  0  0
  2 32  1  0  0  0
  2 33  1  0  0  0
  5 34  1  0  0  0
  6 35  1  0  0  0
  7 36  1  0  0  0
  8 37  1  0  0  0
  9 38  1  0  0  0
 10 39  1  0  0  0
 11 40  1  0  0  0
 12 41  1  0  0  0
 13 42  1  0  0  0
 14 43  1  0  0  0
 15 44  1  0  0  0
 16 45  1  0  0  0
 17 46  1  0  0  0
M  END
$$$$
