5vcw_ligand
  -I-interpret- 

 57 59  0  0  0  0  0  0  0  0999 V2000
   18.7640   14.0620    8.6840 C   0  0  0  0  0
   17.7060   11.4760    9.2110 C   0  0  0  0  0
   19.4650   13.1410    9.5220 C   0  0  0  0  0
   17.0670    8.1060   10.4360 C   0  0  0  0  0
   20.5200   17.0030    6.1090 C   0  0  0  0  0
   21.1700   18.0280    5.3730 C   0  0  0  0  0
   20.5770   19.2940    5.2760 C   0  0  0  0  0
   18.6980   18.5230    6.6430 C   0  0  0  0  0
   14.7280   12.7360    7.4620 C   0  0  0  0  0
   13.4390   12.2300    7.5540 C   0  0  0  0  0
   12.3950   12.7200    6.8570 C   0  0  0  0  0
   11.0470   12.1790    6.9680 C   0  0  0  0  0
   14.9010   13.8930    7.0110 O   0  0  0  0  0
   15.7910   11.9650    7.8470 N   0  0  0  0  0
   10.1330   12.6170    5.8570 N   0  3  0  0  0
   10.8100   12.8440    4.5380 C   0  0  0  0  0
    9.2500   13.7560    6.2540 C   0  0  0  0  0
   20.6520   13.4900   10.0750 N   0  0  0  0  0
   21.1850   14.7290    9.8560 C   0  0  0  0  0
   20.5400   15.6960    9.0340 C   0  0  0  0  0
   19.2870   15.3790    8.4180 C   0  0  0  0  0
   17.5390   13.6350    8.1330 C   0  0  0  0  0
   16.9890   12.3620    8.3820 C   0  0  0  0  0
   18.9400   11.8590    9.7740 C   0  0  0  0  0
   17.2000   10.2330    9.4660 O   0  0  0  0  0
   17.8890    9.4050   10.4180 C   0  0  0  0  0
   21.1860   16.8440    8.9350 C   0  0  0  0  0
   21.7580   17.8440    8.8470 N   0  0  0  0  0
   18.6090   16.2740    7.5550 N   0  0  0  0  0
   19.2640   17.2240    6.7640 C   0  0  0  0  0
   19.3420   19.5400    5.9030 C   0  0  0  0  0
   21.1820   20.2360    4.6050 F   0  0  0  0  0
   22.6610   17.7680    4.6010 Cl  0  0  0  0  0
   16.0455    8.3282   10.7448 H   0  0  0  0  0
   17.0591    7.6687    9.4376 H   0  0  0  0  0
   17.5156    7.4034   11.1383 H   0  0  0  0  0
   20.9885   16.0212    6.1781 H   0  0  0  0  0
   17.7476   18.7386    7.1313 H   0  0  0  0  0
   13.2615   11.3908    8.2265 H   0  0  0  0  0
   12.5666   13.5575    6.1808 H   0  0  0  0  0
   10.6234   12.5429    7.9041 H   0  0  0  0  0
   11.1244   11.0928    6.9202 H   0  0  0  0  0
   15.6765   10.9596    7.7186 H   0  0  0  0  0
    9.5271   11.8125    5.6954 H   0  0  0  0  0
   11.5663   13.6211    4.6482 H   0  0  0  0  0
   11.2832   11.9185    4.2099 H   0  0  0  0  0
   10.0707   13.1568    3.8007 H   0  0  0  0  0
    8.6305   13.4563    7.0992 H   0  0  0  0  0
    9.8657   14.6096    6.5377 H   0  0  0  0  0
    8.6123   14.0298    5.4135 H   0  0  0  0  0
   22.1346   14.9852   10.3258 H   0  0  0  0  0
   16.9926   14.3204    7.4851 H   0  0  0  0  0
   19.4892   11.1611   10.4060 H   0  0  0  0  0
   18.9298    9.2340   10.1430 H   0  0  0  0  0
   17.9535    9.8692   11.4021 H   0  0  0  0  0
   17.5914   16.2234    7.5077 H   0  0  0  0  0
   18.8783   20.5227    5.8173 H   0  0  0  0  0
  1  3  4  0  0  0
 21  1  4  0  0  0
  1 22  4  0  0  0
 23  2  4  0  0  0
 24  2  4  0  0  0
  2 25  1  0  0  0
  3 18  4  0  0  0
  3 24  4  0  0  0
 26  4  1  0  0  0
  5  6  4  0  0  0
 30  5  4  0  0  0
  6  7  4  0  0  0
  6 33  1  0  0  0
 31  7  4  0  0  0
  7 32  1  0  0  0
 30  8  4  0  0  0
  8 31  4  0  0  0
  9 10  1  0  0  0
  9 13  2  0  0  0
 14  9  1  0  0  0
 10 11  2  0  0  0
 11 12  1  0  0  0
 12 15  1  0  0  0
 23 14  1  0  0  0
 15 16  1  0  0  0
 15 17  1  0  0  0
 19 18  4  0  0  0
 20 19  4  0  0  0
 21 20  4  0  0  0
 20 27  1  0  0  0
 29 21  1  0  0  0
 22 23  4  0  0  0
 25 26  1  0  0  0
 27 28  3  0  0  0
 29 30  1  0  0  0
  4 34  1  0  0  0
  4 35  1  0  0  0
  4 36  1  0  0  0
  5 37  1  0  0  0
  8 38  1  0  0  0
 10 39  1  0  0  0
 11 40  1  0  0  0
 12 41  1  0  0  0
 12 42  1  0  0  0
 14 43  1  0  0  0
 15 44  1  0  0  0
 16 45  1  0  0  0
 16 46  1  0  0  0
 16 47  1  0  0  0
 17 48  1  0  0  0
 17 49  1  0  0  0
 17 50  1  0  0  0
 19 51  1  0  0  0
 22 52  1  0  0  0
 24 53  1  0  0  0
 26 54  1  0  0  0
 26 55  1  0  0  0
 29 56  1  0  0  0
 31 57  1  0  0  0
M  END
$$$$
