5av0_ligand
  -I-interpret- 

 30 32  0  0  0  0  0  0  0  0999 V2000
  -24.7990    4.9980   -8.8790 C   0  0  0  0  0
  -25.8890    5.4100   -9.6480 C   0  0  0  0  0
  -26.0650    4.9160  -10.9270 C   0  0  0  0  0
  -23.8750    4.0900   -9.3970 C   0  0  0  0  0
  -24.0520    3.5870  -10.6790 C   0  0  0  0  0
  -25.1450    4.0110  -11.4370 C   0  0  0  0  0
  -25.3220    3.5190  -12.6980 O   0  0  0  0  0
  -24.4010    2.6440  -13.1940 C   0  0  0  0  0
  -23.2970    2.2090  -12.4770 C   0  0  0  0  0
  -23.1220    2.6800  -11.1790 C   0  0  0  0  0
  -22.4240    1.3020  -13.0850 C   0  0  0  0  0
  -21.9650    0.1860  -12.3920 C   0  0  0  0  0
  -21.1030   -0.7010  -13.0230 C   0  0  0  0  0
  -20.7090   -0.4910  -14.3420 C   0  0  0  0  0
  -21.1680    0.6160  -15.0520 C   0  0  0  0  0
  -22.0330    1.5050  -14.4130 C   0  0  0  0  0
  -19.8650   -1.4100  -14.8860 O   0  0  0  0  0
  -20.6150   -1.8040  -12.3870 O   0  0  0  0  0
  -26.7900    6.3030   -9.1630 O   0  0  0  0  0
  -22.1590    2.3410  -10.4880 O   0  0  0  0  0
  -24.6693    5.3875   -7.8693 H   0  0  0  0  0
  -26.9169    5.2338  -11.5282 H   0  0  0  0  0
  -23.0192    3.7773   -8.7988 H   0  0  0  0  0
  -24.5401    2.2669  -14.2072 H   0  0  0  0  0
  -22.2793    0.0098  -11.3633 H   0  0  0  0  0
  -20.8584    0.7840  -16.0835 H   0  0  0  0  0
  -22.4100    2.3711  -14.9569 H   0  0  0  0  0
  -19.6647   -1.1623  -15.7916 H   0  0  0  0  0
  -20.0404   -2.2884  -12.9843 H   0  0  0  0  0
  -27.4652    6.4665   -9.8255 H   0  0  0  0  0
  1  2  4  0  0  0
  1  4  4  0  0  0
  2  3  4  0  0  0
  2 19  1  0  0  0
  3  6  4  0  0  0
  4  5  4  0  0  0
  5  6  4  0  0  0
  5 10  1  0  0  0
  6  7  1  0  0  0
  7  8  1  0  0  0
  8  9  2  0  0  0
  9 10  1  0  0  0
  9 11  1  0  0  0
 10 20  2  0  0  0
 11 12  4  0  0  0
 11 16  4  0  0  0
 12 13  4  0  0  0
 13 14  4  0  0  0
 13 18  1  0  0  0
 14 15  4  0  0  0
 14 17  1  0  0  0
 15 16  4  0  0  0
  1 21  1  0  0  0
  3 22  1  0  0  0
  4 23  1  0  0  0
  8 24  1  0  0  0
 12 25  1  0  0  0
 15 26  1  0  0  0
 16 27  1  0  0  0
 17 28  1  0  0  0
 18 29  1  0  0  0
 19 30  1  0  0  0
M  END
$$$$
