4pnm_ligand
  -I-interpret- 

 21 22  0  0  0  0  0  0  0  0999 V2000
   26.2250   48.6120    0.8860 C   0  0  0  0  0
   27.2720   48.0740    1.5650 O   0  0  0  0  0
   25.3480   47.7890    0.1660 C   0  0  0  0  0
   25.5610   46.4510    0.1190 N   0  0  0  0  0
   24.7330   45.6320   -0.5580 C   0  0  0  0  0
   24.9780   44.1230   -0.5970 C   0  0  0  0  0
   23.6370   46.1650   -1.2550 N   0  0  0  0  0
   23.3910   47.5400   -1.2290 C   0  0  0  0  0
   22.4290   47.9850   -1.8550 O   0  0  0  0  0
   24.2520   48.3660   -0.5040 C   0  0  0  0  0
   24.0380   49.7460   -0.4330 C   0  0  0  0  0
   24.9070   50.5570    0.3020 C   0  0  0  0  0
   25.9950   49.9880    0.9680 C   0  0  0  0  0
   27.7651   48.7747    1.9981 H   0  0  0  0  0
   25.9525   43.9259   -1.0437 H   0  0  0  0  0
   24.9551   43.7261    0.4179 H   0  0  0  0  0
   24.2004   43.6452   -1.1930 H   0  0  0  0  0
   23.0192   45.5472   -1.7813 H   0  0  0  0  0
   23.1898   50.1911   -0.9531 H   0  0  0  0  0
   24.7360   51.6322    0.3555 H   0  0  0  0  0
   26.6655   50.6180    1.5524 H   0  0  0  0  0
  1  2  1  0  0  0
  1  3  4  0  0  0
  1 13  4  0  0  0
  3  4  1  0  0  0
  3 10  4  0  0  0
  4  5  2  0  0  0
  5  6  1  0  0  0
  5  7  1  0  0  0
  7  8  1  0  0  0
  8  9  2  0  0  0
  8 10  1  0  0  0
 10 11  4  0  0  0
 11 12  4  0  0  0
 12 13  4  0  0  0
  2 14  1  0  0  0
  6 15  1  0  0  0
  6 16  1  0  0  0
  6 17  1  0  0  0
  7 18  1  0  0  0
 11 19  1  0  0  0
 12 20  1  0  0  0
 13 21  1  0  0  0
M  END
$$$$
