2zfp_ligand
  -I-interpret- 

 45 46  0  0  0  0  0  0  0  0999 V2000
   18.1120  -13.1040   21.4600 N   0  0  0  0  0
   19.4170  -13.6460   21.0650 C   0  0  0  0  0
   16.3290  -11.6340   20.5720 C   0  0  0  0  0
   17.7460  -15.0060   23.0980 C   0  0  0  0  0
   19.8130  -14.1810   24.2950 C   0  0  0  0  0
   14.3020  -10.3570   20.3610 C   0  0  0  0  0
   12.4580  -11.4560   21.6750 C   0  0  0  0  0
   11.4440  -10.4450   23.6260 C   0  0  0  0  0
   18.3830  -14.7220   24.4870 C   0  0  0  0  0
   16.5370  -15.8360   23.3100 N   0  3  0  0  0
   17.3840  -13.6710   22.4600 C   0  0  0  0  0
   16.3750  -13.1400   22.9140 O   0  0  0  0  0
   19.9930  -12.4470   20.2640 C   0  0  0  0  0
   18.7040  -11.8010   19.6800 C   0  0  0  0  0
   17.7820  -11.7870   20.9290 C   0  0  0  0  0
   15.6920  -10.4550   20.8000 N   0  0  0  0  0
   13.3070  -10.3530   21.5240 C   0  0  0  0  0
   13.2110   -9.2950   22.4380 C   0  0  0  0  0
   12.2860   -9.3320   23.4900 C   0  0  0  0  0
   11.5310  -11.5060   22.7180 C   0  0  0  0  0
   15.7310  -12.5940   20.1030 O   0  0  0  0  0
   12.1580   -8.0080   24.6450 Cl  0  0  0  0  0
   19.3597  -14.5744   20.4967 H   0  0  0  0  0
   20.0394  -13.9620   21.9022 H   0  0  0  0  0
   18.4323  -15.5380   22.4392 H   0  0  0  0  0
   20.4119  -14.9211   23.7643 H   0  0  0  0  0
   19.7763  -13.2584   23.7158 H   0  0  0  0  0
   20.2588  -13.9822   25.2696 H   0  0  0  0  0
   14.0867  -11.2283   19.7425 H   0  0  0  0  0
   14.1889   -9.4154   19.8237 H   0  0  0  0  0
   12.5214  -12.2852   20.9703 H   0  0  0  0  0
   10.7205  -10.4837   24.4404 H   0  0  0  0  0
   18.4182  -15.6447   25.0662 H   0  0  0  0  0
   17.7830  -13.9828   25.0177 H   0  0  0  0  0
   16.1009  -16.0356   22.4098 H   0  0  0  0  0
   16.8018  -16.7110   23.7623 H   0  0  0  0  0
   15.8789  -15.3307   23.9033 H   0  0  0  0  0
   20.7123  -12.7430   19.5003 H   0  0  0  0  0
   20.5813  -11.7620   20.8746 H   0  0  0  0  0
   18.2864  -12.3432   18.8317 H   0  0  0  0  0
   18.8658  -10.8160   19.2422 H   0  0  0  0  0
   17.9310  -10.9585   21.6215 H   0  0  0  0  0
   16.1631   -9.6741   21.2569 H   0  0  0  0  0
   13.8657   -8.4303   22.3290 H   0  0  0  0  0
   10.8759  -12.3706   22.8247 H   0  0  0  0  0
  1  2  1  0  0  0
  1 11  1  0  0  0
 15  1  1  0  0  0
  2 13  1  0  0  0
  3 15  1  0  0  0
 16  3  1  0  0  0
  3 21  2  0  0  0
  4  9  1  0  0  0
  4 10  1  0  0  0
 11  4  1  0  0  0
  9  5  1  0  0  0
  6 16  1  0  0  0
 17  6  1  0  0  0
  7 17  4  0  0  0
 20  7  4  0  0  0
  8 19  4  0  0  0
  8 20  4  0  0  0
 11 12  2  0  0  0
 13 14  1  0  0  0
 14 15  1  0  0  0
 17 18  4  0  0  0
 18 19  4  0  0  0
 19 22  1  0  0  0
  2 23  1  0  0  0
  2 24  1  0  0  0
  4 25  1  0  0  0
  5 26  1  0  0  0
  5 27  1  0  0  0
  5 28  1  0  0  0
  6 29  1  0  0  0
  6 30  1  0  0  0
  7 31  1  0  0  0
  8 32  1  0  0  0
  9 33  1  0  0  0
  9 34  1  0  0  0
 10 35  1  0  0  0
 10 36  1  0  0  0
 10 37  1  0  0  0
 13 38  1  0  0  0
 13 39  1  0  0  0
 14 40  1  0  0  0
 14 41  1  0  0  0
 15 42  1  0  0  0
 16 43  1  0  0  0
 18 44  1  0  0  0
 20 45  1  0  0  0
M  END
$$$$
