2zm1_ligand
  -I-interpret- 

 36 39  0  0  0  0  0  0  0  0999 V2000
   21.0260   38.7930    5.5230 Cl  0  0  0  0  0
   19.7750   37.6240    6.0760 C   0  0  0  0  0
   19.8820   37.0660    7.4570 C   0  0  0  0  0
   18.9030   36.1690    7.8910 C   0  0  0  0  0
   17.8480   35.8400    7.0300 C   0  0  0  0  0
   17.7400   36.3630    5.7350 C   0  0  0  0  0
   18.6960   37.2730    5.2550 C   0  0  0  0  0
   20.9410   37.4200    8.2520 N   0  0  0  0  0
   22.2390   36.9710    8.0930 C   0  0  0  0  0
   22.5580   35.9240    7.3000 N   0  0  0  0  0
   23.8240   35.5040    7.1780 C   0  0  0  0  0
   24.9000   36.0750    7.8280 C   0  0  0  0  0
   24.6570   37.1220    8.6590 N   0  0  0  0  0
   25.4730   37.8770    9.4050 C   0  0  0  0  0
   24.7490   38.8040   10.0580 N   0  0  0  0  0
   23.4480   38.6800    9.7420 C   0  0  0  0  0
   23.3870   37.5920    8.8160 C   0  0  0  0  0
   26.2600   35.4610    7.5660 C   0  0  0  0  0
   26.5700   34.9720    6.2700 C   0  0  0  0  0
   27.8090   34.3590    5.9770 C   0  0  0  0  0
   28.7480   34.2180    7.0070 C   0  0  0  0  0
   28.4340   34.6650    8.3160 C   0  0  0  0  0
   27.2020   35.2850    8.5870 C   0  0  0  0  0
   18.9593   35.7305    8.8873 H   0  0  0  0  0
   17.0810   35.1499    7.3816 H   0  0  0  0  0
   16.9095   36.0621    5.0964 H   0  0  0  0  0
   18.5995   37.7003    4.2569 H   0  0  0  0  0
   20.7572   38.0648    9.0207 H   0  0  0  0  0
   24.0176   34.6552    6.5221 H   0  0  0  0  0
   26.5545   37.7591    9.4727 H   0  0  0  0  0
   22.6172   39.2805   10.1125 H   0  0  0  0  0
   25.8296   35.0724    5.4764 H   0  0  0  0  0
   28.0295   34.0033    4.9706 H   0  0  0  0  0
   29.7184   33.7655    6.8028 H   0  0  0  0  0
   29.1561   34.5262    9.1206 H   0  0  0  0  0
   26.9789   35.6304    9.5965 H   0  0  0  0  0
  1  2  1  0  0  0
  2  3  4  0  0  0
  2  7  4  0  0  0
  3  4  4  0  0  0
  3  8  1  0  0  0
  4  5  4  0  0  0
  5  6  4  0  0  0
  6  7  4  0  0  0
  8  9  1  0  0  0
  9 10  4  0  0  0
  9 17  4  0  0  0
 10 11  4  0  0  0
 11 12  4  0  0  0
 12 13  4  0  0  0
 12 18  1  0  0  0
 13 14  4  0  0  0
 13 17  4  0  0  0
 14 15  4  0  0  0
 15 16  4  0  0  0
 16 17  4  0  0  0
 18 19  4  0  0  0
 18 23  4  0  0  0
 19 20  4  0  0  0
 20 21  4  0  0  0
 21 22  4  0  0  0
 22 23  4  0  0  0
  4 24  1  0  0  0
  5 25  1  0  0  0
  6 26  1  0  0  0
  7 27  1  0  0  0
  8 28  1  0  0  0
 11 29  1  0  0  0
 14 30  1  0  0  0
 16 31  1  0  0  0
 19 32  1  0  0  0
 20 33  1  0  0  0
 21 34  1  0  0  0
 22 35  1  0  0  0
 23 36  1  0  0  0
M  END
$$$$
