2vj6_ligand
  -I-interpret- 

 87 90  0  0  0  0  0  0  0  0999 V2000
   31.2710   -0.8080   37.3920 C   0  0  0  0  0
   31.1650    0.3600   36.5140 C   0  0  0  0  0
   30.5390    0.2240   35.2520 C   0  0  0  0  0
   29.9990   -1.0800   34.8260 C   0  0  0  0  0
   30.0940   -2.2490   35.6910 C   0  0  0  0  0
   30.7280   -2.0860   36.9500 C   0  0  0  0  0
   30.4120    1.3270   34.3220 C   0  0  0  0  0
   29.2160    1.4250   33.6650 N   0  0  0  0  0
   31.3420    2.1110   34.1130 O   0  0  0  0  0
   28.9190    2.4470   32.6270 C   0  0  0  0  0
   28.2300    1.6730   31.4520 C   0  0  0  0  0
   28.0280    3.5920   33.1590 C   0  0  0  0  0
   27.7760    4.5170   32.1050 O   0  0  0  0  0
   28.9120    0.3460   31.1300 C   0  0  0  0  0
   28.7210    4.3580   34.2960 C   0  0  0  0  0
   28.0830    5.6590   34.5450 N   0  3  0  0  0
   28.8170    6.8380   35.0720 C   0  0  0  0  0
   29.8780    7.2620   34.0130 C   0  0  0  0  0
   29.3410    7.9110   32.9590 N   0  0  0  0  0
   31.0790    7.0110   34.1540 O   0  0  0  0  0
   30.1510    8.4020   31.8360 C   0  0  0  0  0
   29.4890    6.5020   36.4340 C   0  0  0  0  0
   30.6100    9.8720   32.1020 C   0  0  0  0  0
   31.4680   10.4010   30.9080 C   0  0  0  0  0
   30.7140   10.2680   29.5350 C   0  0  0  0  0
   30.1520    8.8270   29.2950 C   0  0  0  0  0
   29.3300    8.3100   30.5150 C   0  0  0  0  0
   28.1200   -0.8470   31.0530 C   0  0  0  0  0
   28.7400   -2.1130   30.7580 C   0  0  0  0  0
   30.1590   -2.1940   30.5430 C   0  0  0  0  0
   30.9640   -1.0080   30.6180 C   0  0  0  0  0
   30.3460    0.2540   30.9080 C   0  0  0  0  0
   29.5790   -3.5360   35.3110 N   0  0  0  0  0
   29.0220   -3.8230   34.0000 C   0  0  0  0  0
   27.4870   -3.7680   34.0760 C   0  0  0  0  0
   31.8740   -0.7040   38.6120 N   0  0  0  0  0
   33.2150   -0.1180   38.7180 C   0  0  0  0  0
   33.5640   -0.1690   40.1970 C   0  0  0  0  0
   32.3800   -0.8000   40.9220 C   0  0  0  0  0
   31.3660   -1.1000   39.8130 C   0  0  0  0  0
   30.2780   -1.6220   40.0320 O   0  0  0  0  0
   31.5642    1.3239   36.8295 H   0  0  0  0  0
   29.5219   -1.1711   33.8502 H   0  0  0  0  0
   30.8119   -2.9487   37.6109 H   0  0  0  0  0
   28.4833    0.7560   33.9018 H   0  0  0  0  0
   29.8339    2.9406   32.2993 H   0  0  0  0  0
   28.2880    2.3003   30.5625 H   0  0  0  0  0
   27.2056    1.4549   31.7540 H   0  0  0  0  0
   27.1042    3.1502   33.5324 H   0  0  0  0  0
   27.2225    5.2300   32.4320 H   0  0  0  0  0
   29.7577    4.5338   34.0089 H   0  0  0  0  0
   28.6490    3.7612   35.2052 H   0  0  0  0  0
   27.4171    5.4506   35.2890 H   0  0  0  0  0
   27.8023    5.9604   33.6119 H   0  0  0  0  0
   28.1257    7.6618   35.2495 H   0  0  0  0  0
   28.3331    8.0668   32.9412 H   0  0  0  0  0
   31.0413    7.7809   31.7375 H   0  0  0  0  0
   28.7235    6.2118   37.1536 H   0  0  0  0  0
   30.1919    5.6801   36.2979 H   0  0  0  0  0
   30.0209    7.3795   36.8015 H   0  0  0  0  0
   31.2128    9.8963   33.0098 H   0  0  0  0  0
   29.7288   10.5039   32.2126 H   0  0  0  0  0
   32.3800    9.8065   30.8545 H   0  0  0  0  0
   31.6773   11.4567   31.0806 H   0  0  0  0  0
   31.4252   10.4879   28.7388 H   0  0  0  0  0
   29.8714   10.9594   29.5464 H   0  0  0  0  0
   30.9952    8.1534   29.1420 H   0  0  0  0  0
   29.4921    8.8585   28.4281 H   0  0  0  0  0
   28.4387    8.9288   30.6183 H   0  0  0  0  0
   29.0723    7.2654   30.3403 H   0  0  0  0  0
   27.0439   -0.7954   31.2185 H   0  0  0  0  0
   28.1301   -3.0144   30.6974 H   0  0  0  0  0
   30.6233   -3.1553   30.3232 H   0  0  0  0  0
   32.0402   -1.0658   30.4553 H   0  0  0  0  0
   30.9585    1.1540   30.9625 H   0  0  0  0  0
   29.6060   -4.2886   35.9989 H   0  0  0  0  0
   29.3359   -4.8166   33.6800 H   0  0  0  0  0
   29.3783   -3.0837   33.2827 H   0  0  0  0  0
   27.1332   -4.5086   34.7933 H   0  0  0  0  0
   27.1757   -2.7734   34.3954 H   0  0  0  0  0
   27.0679   -3.9831   33.0931 H   0  0  0  0  0
   33.2362    0.9031   38.3373 H   0  0  0  0  0
   33.9398   -0.6673   38.1171 H   0  0  0  0  0
   33.7566    0.8334   40.5794 H   0  0  0  0  0
   34.4678   -0.7569   40.3567 H   0  0  0  0  0
   31.9680   -0.1384   41.6840 H   0  0  0  0  0
   32.6670   -1.6992   41.4671 H   0  0  0  0  0
  1  2  4  0  0  0
  1  6  4  0  0  0
  1 36  1  0  0  0
  2  3  4  0  0  0
  3  4  4  0  0  0
  3  7  1  0  0  0
  4  5  4  0  0  0
  5  6  4  0  0  0
  5 33  1  0  0  0
  7  8  1  0  0  0
  7  9  2  0  0  0
  8 10  1  0  0  0
 10 11  1  0  0  0
 10 12  1  0  0  0
 11 14  1  0  0  0
 12 13  1  0  0  0
 12 15  1  0  0  0
 14 28  4  0  0  0
 14 32  4  0  0  0
 15 16  1  0  0  0
 16 17  1  0  0  0
 17 18  1  0  0  0
 17 22  1  0  0  0
 18 19  1  0  0  0
 18 20  2  0  0  0
 19 21  1  0  0  0
 21 23  1  0  0  0
 21 27  1  0  0  0
 23 24  1  0  0  0
 24 25  1  0  0  0
 25 26  1  0  0  0
 26 27  1  0  0  0
 28 29  4  0  0  0
 29 30  4  0  0  0
 30 31  4  0  0  0
 31 32  4  0  0  0
 33 34  1  0  0  0
 34 35  1  0  0  0
 36 37  1  0  0  0
 36 40  1  0  0  0
 37 38  1  0  0  0
 38 39  1  0  0  0
 39 40  1  0  0  0
 40 41  2  0  0  0
  2 42  1  0  0  0
  4 43  1  0  0  0
  6 44  1  0  0  0
  8 45  1  0  0  0
 10 46  1  0  0  0
 11 47  1  0  0  0
 11 48  1  0  0  0
 12 49  1  0  0  0
 13 50  1  0  0  0
 15 51  1  0  0  0
 15 52  1  0  0  0
 16 53  1  0  0  0
 16 54  1  0  0  0
 17 55  1  0  0  0
 19 56  1  0  0  0
 21 57  1  0  0  0
 22 58  1  0  0  0
 22 59  1  0  0  0
 22 60  1  0  0  0
 23 61  1  0  0  0
 23 62  1  0  0  0
 24 63  1  0  0  0
 24 64  1  0  0  0
 25 65  1  0  0  0
 25 66  1  0  0  0
 26 67  1  0  0  0
 26 68  1  0  0  0
 27 69  1  0  0  0
 27 70  1  0  0  0
 28 71  1  0  0  0
 29 72  1  0  0  0
 30 73  1  0  0  0
 31 74  1  0  0  0
 32 75  1  0  0  0
 33 76  1  0  0  0
 34 77  1  0  0  0
 34 78  1  0  0  0
 35 79  1  0  0  0
 35 80  1  0  0  0
 35 81  1  0  0  0
 37 82  1  0  0  0
 37 83  1  0  0  0
 38 84  1  0  0  0
 38 85  1  0  0  0
 39 86  1  0  0  0
 39 87  1  0  0  0
M  END
$$$$
