5lzg_ligand
  -I-interpret- 

 82 84  0  0  0  0  0  0  0  0999 V2000
  -19.4880    6.5620    0.7800 C   0  0  0  0  0
  -18.3600    7.6270    0.5590 C   0  0  0  0  0
  -17.0920    7.1370    1.2720 C   0  0  0  0  0
  -20.7150    7.0070   -0.0700 C   0  0  0  0  0
  -21.5280    7.8700   -2.1180 O   0  0  0  0  0
  -20.3050    7.3040   -1.4660 C   0  0  0  0  0
  -21.7500    5.9710    0.0100 O   0  0  0  0  0
  -19.0170    5.2930    0.3460 O   0  0  0  0  0
  -16.1610    8.2240    1.2260 O   0  0  0  0  0
  -18.0580    7.8010   -0.8020 O   0  0  0  0  0
  -19.2010    8.3950   -1.4840 C   0  0  0  0  0
  -18.6450    8.6610   -2.8470 C   0  0  0  0  0
  -18.0880   10.0890   -2.8070 C   0  0  0  0  0
  -17.5100   10.4830   -4.0930 N   0  0  0  0  0
  -18.2680   10.8980   -5.1380 C   0  0  0  0  0
  -19.4960   10.8050   -5.1260 O   0  0  0  0  0
  -17.5240   11.4400   -6.3460 C   0  0  0  0  0
  -18.1530   12.7400   -6.9180 C   0  0  0  0  0
  -18.5150   13.7410   -5.8320 C   0  0  0  0  0
  -17.8810   13.9060   -4.6680 C   0  0  0  0  0
  -19.4970   14.6320   -5.8950 N   0  0  0  0  0
  -19.5370   15.3140   -4.7660 N   0  0  0  0  0
  -18.5020   14.8760   -4.0140 N   0  0  0  0  0
  -18.3040   15.4330   -2.6970 C   0  0  0  0  0
  -19.2520   14.5930   -1.7950 C   0  0  0  0  0
  -20.2820   15.1160   -1.3170 O   0  0  0  0  0
  -18.8230   13.4450   -1.4700 O   0  0  0  0  0
  -16.8970   15.1720   -2.4430 O   0  0  0  0  0
  -18.5520   16.9270   -2.6680 C   0  0  0  0  0
  -18.0660   17.4480   -1.2910 C   0  0  0  0  0
  -18.1440   18.8910   -1.3540 O   0  0  0  0  0
  -16.6120   17.0360   -0.9800 C   0  0  0  0  0
  -16.3350   17.4850    0.3840 N   0  0  0  0  0
  -15.0690   17.8470    0.7610 C   0  0  0  0  0
  -14.1020   17.7190    0.0390 O   0  0  0  0  0
  -14.9610   18.3150    2.1800 C   0  0  0  0  0
  -16.5300   15.5390   -1.0980 C   0  0  0  0  0
  -15.1240   14.9360   -0.9230 C   0  0  0  0  0
  -14.1540   15.6640   -1.7030 O   0  0  0  0  0
  -15.1180   13.4500   -1.3520 C   0  0  0  0  0
  -16.1990   12.7810   -0.6760 O   0  0  0  0  0
  -13.8580   12.8110   -0.8490 C   0  0  0  0  0
  -13.6240   11.6090   -1.5970 O   0  0  0  0  0
  -19.7671    6.4851    1.8309 H   0  0  0  0  0
  -18.7099    8.5804    0.9548 H   0  0  0  0  0
  -16.6852    6.2509    0.7846 H   0  0  0  0  0
  -17.3071    6.8477    2.3007 H   0  0  0  0  0
  -21.1333    7.9320    0.3269 H   0  0  0  0  0
  -22.2245    7.2094   -2.1171 H   0  0  0  0  0
  -19.9194    6.4143   -1.9639 H   0  0  0  0  0
  -21.9777    5.8181    0.9300 H   0  0  0  0  0
  -18.2619    5.0337    0.8792 H   0  0  0  0  0
  -15.3462    7.9646    1.6623 H   0  0  0  0  0
  -19.6339    9.3028   -1.0638 H   0  0  0  0  0
  -19.4137    8.5591   -3.6130 H   0  0  0  0  0
  -17.8671    7.9416   -3.1026 H   0  0  0  0  0
  -17.3032   10.1297   -2.0517 H   0  0  0  0  0
  -18.9072   10.7701   -2.5764 H   0  0  0  0  0
  -16.4972   10.4438   -4.2075 H   0  0  0  0  0
  -17.5649   10.6812   -7.1274 H   0  0  0  0  0
  -16.5077   11.6756   -6.0302 H   0  0  0  0  0
  -19.0692   12.4672   -7.4418 H   0  0  0  0  0
  -17.4188   13.2075   -7.5740 H   0  0  0  0  0
  -17.0129   13.3458   -4.3205 H   0  0  0  0  0
  -18.0218   13.2527   -1.9627 H   0  0  0  0  0
  -19.6115   17.1422   -2.8068 H   0  0  0  0  0
  -18.0126   17.4206   -3.4764 H   0  0  0  0  0
  -18.6868   17.0221   -0.5027 H   0  0  0  0  0
  -17.8513   19.2629   -0.5188 H   0  0  0  0  0
  -15.8832   17.4757   -1.6610 H   0  0  0  0  0
  -17.0945   17.5291    1.0634 H   0  0  0  0  0
  -14.3340   17.6233    2.7426 H   0  0  0  0  0
  -14.5157   19.3097    2.2003 H   0  0  0  0  0
  -15.9550   18.3513    2.6259 H   0  0  0  0  0
  -17.1769   15.1649   -0.3045 H   0  0  0  0  0
  -14.8565   15.0087    0.1312 H   0  0  0  0  0
  -13.2864   15.2721   -1.5794 H   0  0  0  0  0
  -15.2037   13.3798   -2.4364 H   0  0  0  0  0
  -16.2104   11.8556   -0.9310 H   0  0  0  0  0
  -13.9589   12.5751    0.2104 H   0  0  0  0  0
  -13.0191   13.4955   -0.9746 H   0  0  0  0  0
  -12.8190   11.1902   -1.2838 H   0  0  0  0  0
  1  2  1  0  0  0
  1  4  1  0  0  0
  1  8  1  0  0  0
  2  3  1  0  0  0
  2 10  1  0  0  0
  3  9  1  0  0  0
  4  6  1  0  0  0
  4  7  1  0  0  0
  6  5  1  0  0  0
  6 11  1  0  0  0
 10 11  1  0  0  0
 11 12  1  0  0  0
 12 13  1  0  0  0
 13 14  1  0  0  0
 14 15  1  0  0  0
 15 16  2  0  0  0
 15 17  1  0  0  0
 17 18  1  0  0  0
 18 19  1  0  0  0
 19 20  4  0  0  0
 19 21  4  0  0  0
 20 23  4  0  0  0
 21 22  4  0  0  0
 22 23  4  0  0  0
 23 24  1  0  0  0
 24 25  1  0  0  0
 24 28  1  0  0  0
 24 29  1  0  0  0
 25 26  2  0  0  0
 25 27  1  0  0  0
 28 37  1  0  0  0
 29 30  1  0  0  0
 30 31  1  0  0  0
 30 32  1  0  0  0
 32 33  1  0  0  0
 32 37  1  0  0  0
 33 34  1  0  0  0
 34 35  2  0  0  0
 34 36  1  0  0  0
 37 38  1  0  0  0
 38 39  1  0  0  0
 38 40  1  0  0  0
 40 41  1  0  0  0
 40 42  1  0  0  0
 42 43  1  0  0  0
  1 44  1  0  0  0
  2 45  1  0  0  0
  3 46  1  0  0  0
  3 47  1  0  0  0
  4 48  1  0  0  0
  5 49  1  0  0  0
  6 50  1  0  0  0
  7 51  1  0  0  0
  8 52  1  0  0  0
  9 53  1  0  0  0
 11 54  1  0  0  0
 12 55  1  0  0  0
 12 56  1  0  0  0
 13 57  1  0  0  0
 13 58  1  0  0  0
 14 59  1  0  0  0
 17 60  1  0  0  0
 17 61  1  0  0  0
 18 62  1  0  0  0
 18 63  1  0  0  0
 20 64  1  0  0  0
 27 65  1  0  0  0
 29 66  1  0  0  0
 29 67  1  0  0  0
 30 68  1  0  0  0
 31 69  1  0  0  0
 32 70  1  0  0  0
 33 71  1  0  0  0
 36 72  1  0  0  0
 36 73  1  0  0  0
 36 74  1  0  0  0
 37 75  1  0  0  0
 38 76  1  0  0  0
 39 77  1  0  0  0
 40 78  1  0  0  0
 41 79  1  0  0  0
 42 80  1  0  0  0
 42 81  1  0  0  0
 43 82  1  0  0  0
M  END
$$$$
