6bdy_ligand
  -I-interpret- 

 52 54  0  0  0  0  0  0  0  0999 V2000
  -10.1220   20.6750  -13.9270 N   0  3  0  0  0
   -9.4700   19.3770  -13.6500 C   0  0  0  0  0
   -8.5740   19.4920  -12.4470 C   0  0  0  0  0
   -7.8440   20.5020  -12.3210 O   0  0  0  0  0
   -8.6010   18.5780  -11.5810 O   0  0  0  0  0
   -8.7030   18.9290  -14.9010 C   0  0  0  0  0
   -7.8850   17.6530  -14.6660 C   0  0  0  0  0
   -8.7300   16.4050  -14.3550 C   0  0  0  0  0
   -7.8090   15.4350  -13.7050 N   0  3  0  0  0
   -9.3270   15.7310  -15.6080 C   0  0  0  0  0
   -8.3030   14.9490  -16.4470 C   0  0  0  0  0
   -7.9760   13.6490  -15.9300 O   0  0  0  0  0
   -8.7960   14.6510  -17.8570 C   0  0  0  0  0
   -8.5990   15.7610  -18.7340 O   0  0  0  0  0
   -7.9620   13.4500  -18.2520 C   0  0  0  0  0
   -6.6330   13.8430  -18.6160 O   0  0  0  0  0
   -7.8570   12.6880  -16.9760 C   0  0  0  0  0
   -8.9450   11.7240  -16.8030 N   0  0  0  0  0
  -10.0410   11.8480  -16.0340 C   0  0  0  0  0
  -10.8010   10.7150  -16.0920 N   0  0  0  0  0
  -10.1680    9.8600  -16.9080 C   0  0  0  0  0
  -10.4130    8.4980  -17.3870 C   0  0  0  0  0
  -11.5300    7.8160  -16.9940 N   0  0  0  0  0
   -9.4420    7.9970  -18.1920 N   0  0  0  0  0
   -8.3570    8.6890  -18.6000 C   0  0  0  0  0
   -8.0790    9.9540  -18.1940 N   0  0  0  0  0
   -8.9500   10.5240  -17.3600 C   0  0  0  0  0
  -10.6345   20.9801  -13.0996 H   0  0  0  0  0
   -9.4113   21.3676  -14.1628 H   0  0  0  0  0
  -10.7683   20.5694  -14.7090 H   0  0  0  0  0
  -10.2187   18.6196  -13.4178 H   0  0  0  0  0
   -9.2174   17.8956  -11.8567 H   0  0  0  0  0
   -8.0108   19.7258  -15.1733 H   0  0  0  0  0
   -9.4316   18.7208  -15.6845 H   0  0  0  0  0
   -7.2510   17.8346  -13.7982 H   0  0  0  0  0
   -7.3392   17.4486  -15.5871 H   0  0  0  0  0
   -9.5730   16.7050  -13.7325 H   0  0  0  0  0
   -8.3209   14.5830  -13.4759 H   0  0  0  0  0
   -7.0452   15.2129  -14.3435 H   0  0  0  0  0
   -7.4314   15.8462  -12.8513 H   0  0  0  0  0
   -9.7259   16.5232  -16.2416 H   0  0  0  0  0
  -10.0758   15.0171  -15.2648 H   0  0  0  0  0
   -7.4423   15.6174  -16.4242 H   0  0  0  0  0
   -9.8679   14.4606  -17.9109 H   0  0  0  0  0
   -8.9207   15.5362  -19.6101 H   0  0  0  0  0
   -8.3974   12.9090  -19.0922 H   0  0  0  0  0
   -6.1265   13.0653  -18.8615 H   0  0  0  0  0
   -6.9172   12.1359  -16.9714 H   0  0  0  0  0
  -10.2887   12.7313  -15.4454 H   0  0  0  0  0
  -12.2000    8.2553  -16.3628 H   0  0  0  0  0
  -11.6937    6.8676  -17.3319 H   0  0  0  0  0
   -7.6674    8.2061  -19.2924 H   0  0  0  0  0
  1  2  1  0  0  0
  2  3  1  0  0  0
  2  6  1  0  0  0
  3  4  2  0  0  0
  3  5  1  0  0  0
  6  7  1  0  0  0
  7  8  1  0  0  0
  8  9  1  0  0  0
  8 10  1  0  0  0
 10 11  1  0  0  0
 11 12  1  0  0  0
 11 13  1  0  0  0
 12 17  1  0  0  0
 13 14  1  0  0  0
 13 15  1  0  0  0
 15 16  1  0  0  0
 15 17  1  0  0  0
 17 18  1  0  0  0
 18 19  4  0  0  0
 18 27  4  0  0  0
 19 20  4  0  0  0
 20 21  4  0  0  0
 21 22  4  0  0  0
 21 27  4  0  0  0
 22 23  1  0  0  0
 22 24  4  0  0  0
 24 25  4  0  0  0
 25 26  4  0  0  0
 26 27  4  0  0  0
  1 28  1  0  0  0
  1 29  1  0  0  0
  1 30  1  0  0  0
  2 31  1  0  0  0
  5 32  1  0  0  0
  6 33  1  0  0  0
  6 34  1  0  0  0
  7 35  1  0  0  0
  7 36  1  0  0  0
  8 37  1  0  0  0
  9 38  1  0  0  0
  9 39  1  0  0  0
  9 40  1  0  0  0
 10 41  1  0  0  0
 10 42  1  0  0  0
 11 43  1  0  0  0
 13 44  1  0  0  0
 14 45  1  0  0  0
 15 46  1  0  0  0
 16 47  1  0  0  0
 17 48  1  0  0  0
 19 49  1  0  0  0
 23 50  1  0  0  0
 23 51  1  0  0  0
 25 52  1  0  0  0
M  END
$$$$
