5q1c_ligand
  -I-interpret- 

 72 76  0  0  0  0  0  0  0  0999 V2000
   13.3010   26.0330    2.4500 N   0  0  0  0  0
   11.8160   24.8840    3.7530 C   0  0  0  0  0
   15.4170   24.9050    3.0320 C   0  0  0  0  0
   11.9640   25.9030    2.8260 C   0  0  0  0  0
   12.7100   21.9780    4.5960 C   0  0  0  0  0
   16.0070   23.8800    2.2540 C   0  0  0  0  0
   13.5830   23.2470    4.8420 C   0  0  0  0  0
    9.6290   26.2940    2.9490 C   0  0  0  0  0
   18.1280   24.4990    2.8300 C   0  0  0  0  0
   17.6680   25.5500    3.6350 C   0  0  0  0  0
   11.7280   20.5160    2.8330 C   0  0  0  0  0
    9.9560   18.9240    1.0610 C   0  0  0  0  0
   12.2520   19.9970    1.5000 C   0  0  0  0  0
   13.9500   25.1090    3.1330 C   0  0  0  0  0
   13.1190   24.3760    3.9480 N   0  0  0  0  0
   10.8490   26.6310    2.4110 C   0  0  0  0  0
    9.4990   25.2750    3.8720 C   0  0  0  0  0
   10.5820   24.5430    4.3000 C   0  0  0  0  0
    8.2720   24.9930    4.3660 F   0  0  0  0  0
    8.5250   26.9770    2.5650 F   0  0  0  0  0
   12.2520   21.3150    5.5230 O   0  0  0  0  0
   12.5100   21.6700    3.3000 N   0  0  0  0  0
   10.2510   20.8340    2.7280 C   0  0  0  0  0
    9.4490   19.5810    2.3670 C   0  0  0  0  0
   11.5060   18.7330    1.0420 C   0  0  0  0  0
    9.3170   17.6470    0.9080 O   0  0  0  0  0
   13.9610   23.7550    6.2520 C   0  0  0  0  0
   13.1080   24.9260    6.7380 C   0  0  0  0  0
   13.7040   25.5510    8.0020 C   0  0  0  0  0
   13.8550   24.5180    9.1260 C   0  0  0  0  0
   14.6010   23.2130    8.6380 C   0  0  0  0  0
   14.0040   22.6680    7.3110 C   0  0  0  0  0
   17.3240   23.6790    2.1520 N   0  0  0  0  0
   16.2950   25.7440    3.7290 C   0  0  0  0  0
   19.4850   24.3330    2.7540 O   0  0  0  0  0
   19.9830   23.0560    2.3600 C   0  0  0  0  0
   15.1680   23.0750    1.5940 O   0  0  0  0  0
   15.3560   22.9390    0.1890 C   0  0  0  0  0
   14.5595   22.8366    4.5850 H   0  0  0  0  0
   18.3649   26.1948    4.1704 H   0  0  0  0  0
   11.8468   19.7335    3.5825 H   0  0  0  0  0
    9.7060   19.5914    0.2362 H   0  0  0  0  0
   13.3057   19.7461    1.6219 H   0  0  0  0  0
   12.1021   20.7727    0.7490 H   0  0  0  0  0
   10.9414   27.4391    1.6854 H   0  0  0  0  0
   10.4796   23.7388    5.0286 H   0  0  0  0  0
   12.9289   22.2777    2.5960 H   0  0  0  0  0
   10.1070   21.5804    1.9468 H   0  0  0  0  0
    9.9030   21.2086    3.6906 H   0  0  0  0  0
    9.5608   18.8600    3.1768 H   0  0  0  0  0
    8.4091   19.8727    2.2202 H   0  0  0  0  0
   11.8083   18.5128    0.0182 H   0  0  0  0  0
   11.7566   17.9238    1.7279 H   0  0  0  0  0
    9.6253   17.2310    0.0996 H   0  0  0  0  0
   14.9788   24.1208    6.1162 H   0  0  0  0  0
   12.1078   24.5586    6.9676 H   0  0  0  0  0
   13.0754   25.6837    5.9551 H   0  0  0  0  0
   13.0332   26.3383    8.3459 H   0  0  0  0  0
   14.6919   25.9427    7.7594 H   0  0  0  0  0
   12.8580   24.2338    9.4627 H   0  0  0  0  0
   14.4448   24.9682    9.9245 H   0  0  0  0  0
   14.4871   22.4467    9.4047 H   0  0  0  0  0
   15.6482   23.4616    8.4656 H   0  0  0  0  0
   14.6320   21.8526    6.9521 H   0  0  0  0  0
   12.9881   22.3207    7.4994 H   0  0  0  0  0
   15.9008   26.5510    4.3466 H   0  0  0  0  0
   19.6442   22.3007    3.0691 H   0  0  0  0  0
   19.6115   22.8140    1.3643 H   0  0  0  0  0
   21.0726   23.0807    2.3465 H   0  0  0  0  0
   15.2538   23.9147   -0.2861 H   0  0  0  0  0
   16.3518   22.5409   -0.0062 H   0  0  0  0  0
   14.6058   22.2577   -0.2124 H   0  0  0  0  0
  4  1  4  0  0  0
  1 14  4  0  0  0
  2  4  4  0  0  0
 15  2  4  0  0  0
  2 18  4  0  0  0
  3  6  4  0  0  0
 14  3  1  0  0  0
  3 34  4  0  0  0
  4 16  4  0  0  0
  5  7  1  0  0  0
  5 21  2  0  0  0
 22  5  1  0  0  0
  6 33  4  0  0  0
  6 37  1  0  0  0
  7 15  1  0  0  0
  7 27  1  0  0  0
 16  8  4  0  0  0
  8 17  4  0  0  0
  8 20  1  0  0  0
 10  9  4  0  0  0
 33  9  4  0  0  0
  9 35  1  0  0  0
 34 10  4  0  0  0
 13 11  1  0  0  0
 11 22  1  0  0  0
 11 23  1  0  0  0
 12 24  1  0  0  0
 25 12  1  0  0  0
 12 26  1  0  0  0
 13 25  1  0  0  0
 14 15  4  0  0  0
 17 18  4  0  0  0
 17 19  1  0  0  0
 23 24  1  0  0  0
 27 28  1  0  0  0
 27 32  1  0  0  0
 28 29  1  0  0  0
 29 30  1  0  0  0
 30 31  1  0  0  0
 31 32  1  0  0  0
 35 36  1  0  0  0
 37 38  1  0  0  0
  7 39  1  0  0  0
 10 40  1  0  0  0
 11 41  1  0  0  0
 12 42  1  0  0  0
 13 43  1  0  0  0
 13 44  1  0  0  0
 16 45  1  0  0  0
 18 46  1  0  0  0
 22 47  1  0  0  0
 23 48  1  0  0  0
 23 49  1  0  0  0
 24 50  1  0  0  0
 24 51  1  0  0  0
 25 52  1  0  0  0
 25 53  1  0  0  0
 26 54  1  0  0  0
 27 55  1  0  0  0
 28 56  1  0  0  0
 28 57  1  0  0  0
 29 58  1  0  0  0
 29 59  1  0  0  0
 30 60  1  0  0  0
 30 61  1  0  0  0
 31 62  1  0  0  0
 31 63  1  0  0  0
 32 64  1  0  0  0
 32 65  1  0  0  0
 34 66  1  0  0  0
 36 67  1  0  0  0
 36 68  1  0  0  0
 36 69  1  0  0  0
 38 70  1  0  0  0
 38 71  1  0  0  0
 38 72  1  0  0  0
M  END
$$$$
