### 
### Created by X-TOOL on Mon Sep 10 21:13:10 2018
### 

@<TRIPOS>MOLECULE
4du8_ligand
   29    29     1     0     0
SMALL
GAST_HUCK


@<TRIPOS>ATOM
      1 C          16.1060   23.4840   18.0520 C.2       1 2P0         0.0603
      2 N          14.3540   22.9130   19.7640 N.am      1 2P0        -0.2553
      3 O          16.9510   23.6540   18.9920 O.co2     1 2P0        -0.5666
      4 CA         14.6290   23.1600   18.3480 C.3       1 2P0         0.0972
      5 CB         13.7570   24.2550   17.8930 C.3       1 2P0        -0.0159
      6 CD         13.6020   24.0240   20.2760 C.3       1 2P0         0.0362
      7 CG         12.9460   24.6710   19.0880 C.3       1 2P0        -0.0288
      8 OAB        14.4330   21.6840   21.7350 O.2       1 2P0        -0.3938
      9 OAC        18.2660   15.8720   20.7160 O.co2     1 2P0        -0.5891
     10 OAD        18.1360   19.0450   19.6890 O.co2     1 2P0        -0.5555
     11 OAF        16.0250   14.9250   20.1310 O.co2     1 2P0        -0.5891
     12 OAG        17.3810   16.1370   18.4210 O.co2     1 2P0        -0.5891
     13 OAH        17.9020   18.3550   22.0810 O.co2     1 2P0        -0.5555
     14 CAK        15.5200   20.6230   19.9730 C.3       1 2P0         0.1732
     15 OAM        16.1690   19.8990   21.0450 O.3       1 2P0        -0.2250
     16 OAN        16.3000   17.4130   20.3560 O.3       1 2P0        -0.1547
     17 CAP        14.7500   21.7350   20.5580 C.2       1 2P0         0.2119
     18 PAS        16.9900   16.0640   19.9090 P.3       1 2P0         0.2070
     19 PAT        17.1470   18.6750   20.7770 P.3       1 2P0         0.3298
     20 OXT        16.5040   23.6000   16.8360 O.co2     1 2P0        -0.5666
     21 H1         14.3705   22.2494   17.7876 H         1 2P0         0.0728
     22 H2         13.0956   23.9055   17.0866 H         1 2P0         0.0306
     23 H3         14.3624   25.0990   17.5309 H         1 2P0         0.0306
     24 H4         14.2712   24.7384   20.7778 H         1 2P0         0.0524
     25 H5         12.8403   23.6730   20.9877 H         1 2P0         0.0524
     26 H6         11.9080   24.3215   18.9866 H         1 2P0         0.0286
     27 H7         12.9555   25.7658   19.1947 H         1 2P0         0.0286
     28 H8         14.8427   19.9495   19.4274 H         1 2P0         0.0866
     29 H9         16.2778   21.0200   19.2815 H         1 2P0         0.0866
@<TRIPOS>BOND
     1    1    3 ar 
     2    4    1 1  
     3    1   20 ar 
     4    2    4 1  
     5    2    6 1  
     6   17    2 am 
     7    4    5 1  
     8    7    5 1  
     9    6    7 1  
    10   17    8 2  
    11   18    9 ar 
    12   19   10 ar 
    13   18   11 ar 
    14   18   12 ar 
    15   19   13 ar 
    16   15   14 1  
    17   14   17 1  
    18   19   15 1  
    19   16   18 1  
    20   16   19 1  
    21    4   21 1  
    22    5   22 1  
    23    5   23 1  
    24    6   24 1  
    25    6   25 1  
    26    7   26 1  
    27    7   27 1  
    28   14   28 1  
    29   14   29 1  
@<TRIPOS>SUBSTRUCTURE
     1 2P0         1

