3e3u_ligand
  -I-interpret- 

 51 53  0  0  0  0  0  0  0  0999 V2000
   20.3620   53.7950   15.9130 O   0  0  0  0  0
   20.1420   54.9940   15.9300 C   0  0  0  0  0
   18.7090   55.5040   15.9260 C   0  0  0  0  0
   17.9010   55.0910   17.1600 C   0  0  0  0  0
   18.5500   55.5560   18.4720 C   0  0  0  0  0
   17.6920   55.0610   19.6320 C   0  0  0  0  0
   18.3390   55.3030   20.9790 C   0  0  0  0  0
   18.0690   54.9230   14.6590 C   0  0  0  0  0
   16.7630   55.5170   14.3950 N   0  0  0  0  0
   16.7570   56.8320   13.9170 O   0  0  0  0  0
   15.7420   54.8280   14.6060 C   0  0  0  0  0
   14.7220   55.3890   14.5930 O   0  0  0  0  0
   21.1450   55.8800   15.8980 N   0  0  0  0  0
   22.5330   55.4080   15.8590 C   0  0  0  0  0
   23.3730   56.6550   15.6210 C   0  0  0  0  0
   22.5160   57.7680   16.2090 C   0  0  0  0  0
   21.0800   57.3510   15.8880 C   0  0  0  0  0
   22.8960   54.8620   17.1790 C   0  0  0  0  0
   23.7080   53.7710   17.1520 O   0  0  0  0  0
   23.8920   53.4720   18.5080 C   0  0  0  0  0
   23.2000   54.3640   19.3050 C   0  0  0  0  0
   22.5690   55.2210   18.4460 N   0  0  0  0  0
   24.6560   52.4270   19.0070 C   0  0  0  0  0
   24.6980   52.3110   20.3950 C   0  0  0  0  0
   24.0040   53.2050   21.2100 C   0  0  0  0  0
   23.2340   54.2420   20.6890 C   0  0  0  0  0
   18.7120   56.5938   15.9457 H   0  0  0  0  0
   17.8488   54.0024   17.1784 H   0  0  0  0  0
   16.9176   55.5557   17.0886 H   0  0  0  0  0
   18.6147   56.6439   18.4923 H   0  0  0  0  0
   19.5590   55.1518   18.5540 H   0  0  0  0  0
   17.5556   53.9861   19.5136 H   0  0  0  0  0
   16.7494   55.6080   19.6094 H   0  0  0  0  0
   19.2942   54.7796   21.0211 H   0  0  0  0  0
   18.5027   56.3720   21.1152 H   0  0  0  0  0
   17.6844   54.9310   21.7672 H   0  0  0  0  0
   17.9367   53.8505   14.8012 H   0  0  0  0  0
   18.7223   55.1388   13.8136 H   0  0  0  0  0
   15.8507   57.1173   13.7799 H   0  0  0  0  0
   15.8034   53.7559   14.7928 H   0  0  0  0  0
   22.6804   54.6420   15.0977 H   0  0  0  0  0
   23.6028   56.8128   14.5673 H   0  0  0  0  0
   24.3581   56.5934   16.0835 H   0  0  0  0  0
   22.7638   58.7422   15.7875 H   0  0  0  0  0
   22.6782   57.8877   17.2802 H   0  0  0  0  0
   20.3585   57.7443   16.6041 H   0  0  0  0  0
   20.7300   57.7494   14.9357 H   0  0  0  0  0
   25.1910   51.7384   18.3530 H   0  0  0  0  0
   25.2813   51.5105   20.8500 H   0  0  0  0  0
   24.0664   53.0881   22.2919 H   0  0  0  0  0
   22.6841   54.9255   21.3360 H   0  0  0  0  0
  1  2  2  0  0  0
  2  3  1  0  0  0
  2 13  1  0  0  0
  3  4  1  0  0  0
  3  8  1  0  0  0
  4  5  1  0  0  0
  5  6  1  0  0  0
  6  7  1  0  0  0
  8  9  1  0  0  0
  9 10  1  0  0  0
  9 11  1  0  0  0
 11 12  2  0  0  0
 13 14  1  0  0  0
 13 17  1  0  0  0
 14 15  1  0  0  0
 14 18  1  0  0  0
 15 16  1  0  0  0
 16 17  1  0  0  0
 18 19  4  0  0  0
 18 22  4  0  0  0
 19 20  4  0  0  0
 20 21  4  0  0  0
 20 23  4  0  0  0
 21 22  4  0  0  0
 21 26  4  0  0  0
 23 24  4  0  0  0
 24 25  4  0  0  0
 25 26  4  0  0  0
  3 27  1  0  0  0
  4 28  1  0  0  0
  4 29  1  0  0  0
  5 30  1  0  0  0
  5 31  1  0  0  0
  6 32  1  0  0  0
  6 33  1  0  0  0
  7 34  1  0  0  0
  7 35  1  0  0  0
  7 36  1  0  0  0
  8 37  1  0  0  0
  8 38  1  0  0  0
 10 39  1  0  0  0
 11 40  1  0  0  0
 14 41  1  0  0  0
 15 42  1  0  0  0
 15 43  1  0  0  0
 16 44  1  0  0  0
 16 45  1  0  0  0
 17 46  1  0  0  0
 17 47  1  0  0  0
 23 48  1  0  0  0
 24 49  1  0  0  0
 25 50  1  0  0  0
 26 51  1  0  0  0
M  END
$$$$
