1o4p_ligand
  -I-interpret- 

 21 21  0  0  0  0  0  0  0  0999 V2000
   18.3950   24.6180   19.6170 C   0  0  0  0  0
   19.1640   25.8080   19.6450 C   0  0  0  0  0
   18.7110   27.0130   19.0240 C   0  0  0  0  0
   17.4530   26.9890   18.4000 C   0  0  0  0  0
   16.7060   25.7860   18.4070 C   0  0  0  0  0
   17.1370   24.5930   18.9880 C   0  0  0  0  0
   16.8570   28.1540   17.6640 C   0  0  0  0  0
   15.4520   28.5640   18.0810 C   0  0  0  0  0
   17.4000   28.6220   16.3020 C   0  0  0  0  0
   14.7160   28.8540   17.0720 O   0  0  0  0  0
   15.2020   28.7360   19.2040 O   0  0  0  0  0
   17.5040   29.9270   16.0100 O   0  0  0  0  0
   17.5550   27.7640   15.5980 O   0  0  0  0  0
   18.7818   23.7139   20.0871 H   0  0  0  0  0
   20.1277   25.8042   20.1543 H   0  0  0  0  0
   19.3195   27.9173   19.0343 H   0  0  0  0  0
   15.7280   25.7925   17.9259 H   0  0  0  0  0
   16.5301   23.6881   18.9562 H   0  0  0  0  0
   17.5030   28.9081   18.1135 H   0  0  0  0  0
   15.1697   28.6035   16.2639 H   0  0  0  0  0
   17.3202   30.4454   16.7968 H   0  0  0  0  0
  1  2  4  0  0  0
  1  6  4  0  0  0
  2  3  4  0  0  0
  3  4  4  0  0  0
  4  5  4  0  0  0
  4  7  1  0  0  0
  5  6  4  0  0  0
  7  8  1  0  0  0
  7  9  1  0  0  0
  8 10  1  0  0  0
  8 11  2  0  0  0
  9 12  1  0  0  0
  9 13  2  0  0  0
  1 14  1  0  0  0
  2 15  1  0  0  0
  3 16  1  0  0  0
  5 17  1  0  0  0
  6 18  1  0  0  0
  7 19  1  0  0  0
 10 20  1  0  0  0
 12 21  1  0  0  0
M  END
$$$$
