4at3_ligand
  -I-interpret- 

 42 44  0  0  0  0  0  0  0  0999 V2000
   13.3220  -25.5450  -17.7510 C   0  0  0  0  0
   12.0560  -24.9430  -17.8780 C   0  0  0  0  0
   13.4100  -26.9620  -17.7420 C   0  0  0  0  0
   10.8950  -25.7770  -17.9850 C   0  0  0  0  0
    8.2370  -27.5110  -14.1870 C   0  0  0  0  0
   12.2720  -27.7940  -17.8540 C   0  0  0  0  0
   10.9900  -27.1960  -17.9800 C   0  0  0  0  0
    8.2630  -27.6670  -15.6210 C   0  0  0  0  0
    7.3380  -26.4760  -13.8760 C   0  0  0  0  0
    8.9480  -28.2450  -13.1180 C   0  0  0  0  0
    6.1130  -25.0490  -12.2380 C   0  0  0  0  0
   12.4860  -29.2770  -17.8230 C   0  0  0  0  0
   12.0320  -29.9220  -19.1090 C   0  0  0  0  0
   10.5490  -30.2020  -19.0960 C   0  0  0  0  0
    9.7540  -28.9280  -19.3110 C   0  0  0  0  0
    9.7150  -27.9930  -18.0920 C   0  0  0  0  0
    7.4910  -26.8530  -16.3430 N   0  0  0  0  0
    9.9860  -29.0250  -13.5250 N   0  0  0  0  0
    6.0130  -24.8860  -10.8790 N   0  0  0  0  0
    7.0030  -26.0360  -12.5910 N   0  0  0  0  0
    8.6470  -28.1510  -11.9300 O   0  0  0  0  0
    5.4600  -24.3810  -13.0240 O   0  0  0  0  0
    6.6570  -25.8130  -15.3220 S   0  0  0  0  0
    9.2060  -28.8400  -16.5220 S   0  0  0  0  0
   14.2198  -24.9335  -17.6611 H   0  0  0  0  0
   11.9597  -23.8574  -17.8948 H   0  0  0  0  0
   14.3915  -27.4260  -17.6451 H   0  0  0  0  0
    9.9134  -25.3113  -18.0725 H   0  0  0  0  0
   11.9051  -29.6948  -17.0008 H   0  0  0  0  0
   13.5506  -29.4718  -17.6935 H   0  0  0  0  0
   12.5604  -30.8683  -19.2252 H   0  0  0  0  0
   12.2467  -29.2395  -19.9313 H   0  0  0  0  0
   10.2808  -30.6225  -18.1268 H   0  0  0  0  0
   10.3174  -30.8991  -19.9013 H   0  0  0  0  0
    8.7261  -29.2233  -19.5215 H   0  0  0  0  0
   10.2383  -28.3805  -20.1196 H   0  0  0  0  0
    8.9145  -27.2733  -18.2629 H   0  0  0  0  0
   10.5318  -29.5463  -12.8389 H   0  0  0  0  0
   10.2183  -29.0884  -14.5162 H   0  0  0  0  0
    5.3766  -24.1877  -10.4946 H   0  0  0  0  0
    6.5751  -25.4631  -10.2534 H   0  0  0  0  0
    7.4779  -26.5057  -11.8201 H   0  0  0  0  0
  2  1  4  0  0  0
  3  1  4  0  0  0
  4  2  4  0  0  0
  6  3  4  0  0  0
  7  4  4  0  0  0
  8  5  4  0  0  0
  5  9  4  0  0  0
  5 10  1  0  0  0
  7  6  4  0  0  0
  6 12  1  0  0  0
 16  7  1  0  0  0
  8 17  4  0  0  0
 24  8  1  0  0  0
  9 20  1  0  0  0
  9 23  4  0  0  0
 10 18  1  0  0  0
 10 21  2  0  0  0
 11 19  1  0  0  0
 20 11  1  0  0  0
 11 22  2  0  0  0
 13 12  1  0  0  0
 14 13  1  0  0  0
 15 14  1  0  0  0
 16 15  1  0  0  0
 16 24  1  0  0  0
 17 23  4  0  0  0
  1 25  1  0  0  0
  2 26  1  0  0  0
  3 27  1  0  0  0
  4 28  1  0  0  0
 12 29  1  0  0  0
 12 30  1  0  0  0
 13 31  1  0  0  0
 13 32  1  0  0  0
 14 33  1  0  0  0
 14 34  1  0  0  0
 15 35  1  0  0  0
 15 36  1  0  0  0
 16 37  1  0  0  0
 18 38  1  0  0  0
 18 39  1  0  0  0
 19 40  1  0  0  0
 19 41  1  0  0  0
 20 42  1  0  0  0
M  END
$$$$
