4uua_ligand
  -I-interpret- 

139140  0  0  0  0  0  0  0  0999 V2000
  -32.8870  -26.0550   12.4380 C   0  0  0  0  0
  -32.2050  -27.0710   12.4790 O   0  0  0  0  0
  -33.8050  -25.7910   13.4700 C   0  0  0  0  0
  -34.9720  -25.0190   13.2380 C   0  0  0  0  0
  -35.8450  -24.7630   14.2620 C   0  0  0  0  0
  -35.5180  -25.2900   15.5080 C   0  0  0  0  0
  -34.3720  -26.0570   15.7790 C   0  0  0  0  0
  -33.4980  -26.3070   14.7410 C   0  0  0  0  0
  -32.7380  -25.1300   11.4590 N   0  0  0  0  0
  -31.7470  -25.3500   10.3760 C   0  0  0  0  0
  -31.9840  -24.2220    9.4200 C   0  0  0  0  0
  -33.0730  -23.6170    9.3510 O   0  0  0  0  0
  -30.9120  -23.9200    8.7010 N   0  0  0  0  0
  -30.8460  -22.7570    7.8480 C   0  0  0  0  0
  -31.6190  -23.0270    6.5660 C   0  0  0  0  0
  -31.3050  -23.9430    5.8270 O   0  0  0  0  0
  -29.3890  -22.4470    7.4910 C   0  0  0  0  0
  -29.3120  -21.2700    6.5310 C   0  0  0  0  0
  -28.5700  -22.2060    8.7480 C   0  0  0  0  0
  -32.6440  -22.2390    6.3120 N   0  0  0  0  0
  -33.4210  -22.4070    5.1000 C   0  0  0  0  0
  -32.6190  -21.8060    3.9640 C   0  0  0  0  0
  -32.1270  -20.6850    4.0890 O   0  0  0  0  0
  -34.8040  -21.7250    5.2060 C   0  0  0  0  0
  -35.9990  -22.6850    5.3010 C   0  0  0  0  0
  -35.8960  -23.6660    6.4500 C   0  0  0  0  0
  -37.2970  -21.9090    5.4120 C   0  0  0  0  0
  -32.5010  -22.5570    2.8630 N   0  0  0  0  0
  -31.7680  -22.1060    1.6880 C   0  0  0  0  0
  -32.4910  -20.8610    1.0970 C   0  0  0  0  0
  -33.6980  -20.7710    1.1110 O   0  0  0  0  0
  -31.4460  -23.2900    0.7580 C   0  0  0  0  0
  -32.1020  -23.1460   -0.5990 C   0  0  0  0  0
  -31.3260  -24.1010   -1.5170 C   0  0  0  0  0
  -31.9220  -23.8480   -2.8960 C   0  0  0  0  0
  -31.5040  -25.0000   -3.6950 N   0  3  0  0  0
  -31.7130  -19.8910    0.6390 N   0  0  0  0  0
  -32.2010  -18.5630    0.2390 C   0  0  0  0  0
  -32.9430  -17.8000    1.3540 C   0  0  0  0  0
  -33.4990  -16.7130    1.1210 O   0  0  0  0  0
  -33.0570  -18.6410   -1.0320 C   0  0  0  0  0
  -32.3670  -19.2940   -2.2330 C   0  0  0  0  0
  -31.3310  -18.4290   -2.9440 C   0  0  0  0  0
  -31.0350  -17.2830   -2.5230 O   0  0  0  0  0
  -30.8080  -18.9300   -3.9640 O   0  0  0  0  0
  -32.8700  -18.3460    2.5690 N   0  0  0  0  0
  -33.6330  -17.8800    3.7320 C   0  0  0  0  0
  -35.1650  -18.1020    3.5920 C   0  0  0  0  0
  -35.9550  -17.4020    4.2250 O   0  0  0  0  0
  -33.2920  -16.4100    4.0530 C   0  0  0  0  0
  -31.8120  -16.1380    4.2170 C   0  0  0  0  0
  -31.0550  -16.8710    5.1450 C   0  0  0  0  0
  -31.1570  -15.1610    3.4570 C   0  0  0  0  0
  -29.6870  -16.6400    5.3060 C   0  0  0  0  0
  -29.7920  -14.9140    3.6120 C   0  0  0  0  0
  -29.0640  -15.6580    4.5400 C   0  0  0  0  0
  -27.7140  -15.4700    4.7390 O   0  0  0  0  0
  -35.5760  -19.0970    2.8040 N   0  0  0  0  0
  -37.0010  -19.3730    2.5590 C   0  0  0  0  0
  -37.7040  -18.5120    1.5090 C   0  0  0  0  0
  -38.8160  -18.8400    1.1050 O   0  0  0  0  0
  -37.0540  -17.4310    1.0570 N   0  0  0  0  0
  -37.6720  -16.4240    0.1740 C   0  0  0  0  0
  -37.8710  -16.9720   -1.2270 C   0  0  0  0  0
  -36.9160  -17.0050   -2.0140 O   0  0  0  0  0
  -36.7850  -15.1600    0.0250 C   0  0  0  0  0
  -37.4730  -14.1400   -0.8940 C   0  0  0  0  0
  -36.4480  -14.5600    1.3840 C   0  0  0  0  0
  -39.0031  -17.3915   -1.5876 O   0  0  0  0  0
  -35.1749  -24.6279   12.2410 H   0  0  0  0  0
  -36.7505  -24.1759   14.1087 H   0  0  0  0  0
  -36.2010  -25.0934   16.3344 H   0  0  0  0  0
  -34.1792  -26.4431   16.7799 H   0  0  0  0  0
  -32.5916  -26.8904   14.9026 H   0  0  0  0  0
  -33.3064  -24.2831   11.4663 H   0  0  0  0  0
  -31.8696  -26.3229    9.9000 H   0  0  0  0  0
  -30.7242  -25.3597   10.7526 H   0  0  0  0  0
  -30.0999  -24.5350    8.7526 H   0  0  0  0  0
  -31.2785  -21.9072    8.3760 H   0  0  0  0  0
  -28.9610  -23.3113    6.9831 H   0  0  0  0  0
  -29.8563  -21.5113    5.6180 H   0  0  0  0  0
  -29.7562  -20.3915    6.9989 H   0  0  0  0  0
  -28.2685  -21.0666    6.2905 H   0  0  0  0  0
  -28.9875  -21.3611    9.2957 H   0  0  0  0  0
  -28.5986  -23.0970    9.3752 H   0  0  0  0  0
  -27.5385  -21.9876    8.4717 H   0  0  0  0  0
  -32.8929  -21.5042    6.9742 H   0  0  0  0  0
  -33.6106  -23.4665    4.9280 H   0  0  0  0  0
  -34.9389  -21.1459    4.2925 H   0  0  0  0  0
  -34.7963  -21.1418    6.1268 H   0  0  0  0  0
  -35.9872  -23.2693    4.3809 H   0  0  0  0  0
  -34.9983  -24.2724    6.3290 H   0  0  0  0  0
  -35.8416  -23.1177    7.3905 H   0  0  0  0  0
  -36.7742  -24.3116    6.4547 H   0  0  0  0  0
  -37.2710  -21.2859    6.3060 H   0  0  0  0  0
  -37.4182  -21.2783    4.5313 H   0  0  0  0  0
  -38.1316  -22.6070    5.4782 H   0  0  0  0  0
  -32.9398  -23.4777    2.8459 H   0  0  0  0  0
  -30.7685  -21.7389    1.9212 H   0  0  0  0  0
  -31.8254  -24.1998    1.2233 H   0  0  0  0  0
  -30.3664  -23.3221    0.6112 H   0  0  0  0  0
  -32.0640  -22.1181   -0.9597 H   0  0  0  0  0
  -33.1632  -23.3922   -0.5635 H   0  0  0  0  0
  -31.4230  -25.1419   -1.2086 H   0  0  0  0  0
  -30.2516  -23.9191   -1.4905 H   0  0  0  0  0
  -31.5750  -22.9075   -3.3239 H   0  0  0  0  0
  -33.0069  -23.7492   -2.8594 H   0  0  0  0  0
  -31.8676  -24.9046   -4.6432 H   0  0  0  0  0
  -30.4852  -25.0413   -3.7228 H   0  0  0  0  0
  -31.8687  -25.8545   -3.2741 H   0  0  0  0  0
  -30.7133  -20.0772    0.5590 H   0  0  0  0  0
  -31.3041  -17.9809    0.0272 H   0  0  0  0  0
  -33.2895  -17.6158   -1.3200 H   0  0  0  0  0
  -33.9238  -19.2568   -0.7921 H   0  0  0  0  0
  -33.1483  -19.5061   -2.9628 H   0  0  0  0  0
  -31.8348  -20.1647   -1.8500 H   0  0  0  0  0
  -31.5466  -17.0913   -1.7336 H   0  0  0  0  0
  -32.2424  -19.1397    2.6978 H   0  0  0  0  0
  -33.3268  -18.4966    4.5771 H   0  0  0  0  0
  -33.7705  -16.1687    5.0022 H   0  0  0  0  0
  -33.6383  -15.8086    3.2125 H   0  0  0  0  0
  -31.5438  -17.6341    5.7507 H   0  0  0  0  0
  -31.7249  -14.5814    2.7293 H   0  0  0  0  0
  -29.1119  -17.2234    6.0251 H   0  0  0  0  0
  -29.3000  -14.1472    3.0136 H   0  0  0  0  0
  -27.4002  -14.7725    4.1588 H   0  0  0  0  0
  -34.8769  -19.6884    2.3547 H   0  0  0  0  0
  -37.5100  -19.1686    3.5009 H   0  0  0  0  0
  -37.0460  -20.3955    2.1842 H   0  0  0  0  0
  -36.0825  -17.2977    1.3378 H   0  0  0  0  0
  -38.6242  -16.1703    0.6400 H   0  0  0  0  0
  -35.8402  -15.4479   -0.4361 H   0  0  0  0  0
  -37.6304  -14.5859   -1.8761 H   0  0  0  0  0
  -38.4336  -13.8558   -0.4644 H   0  0  0  0  0
  -36.8416  -13.2569   -0.9915 H   0  0  0  0  0
  -37.3694  -14.2806    1.8950 H   0  0  0  0  0
  -35.9087  -15.2955    1.9808 H   0  0  0  0  0
  -35.8256  -13.6760    1.2452 H   0  0  0  0  0
  -39.6248  -17.2946   -0.8626 H   0  0  0  0  0
  1  2  2  0  0  0
  1  3  1  0  0  0
  1  9  1  0  0  0
  3  4  4  0  0  0
  3  8  4  0  0  0
  4  5  4  0  0  0
  5  6  4  0  0  0
  6  7  4  0  0  0
  7  8  4  0  0  0
  9 10  1  0  0  0
 10 11  1  0  0  0
 11 12  2  0  0  0
 11 13  1  0  0  0
 13 14  1  0  0  0
 14 15  1  0  0  0
 14 17  1  0  0  0
 15 16  2  0  0  0
 15 20  1  0  0  0
 17 18  1  0  0  0
 17 19  1  0  0  0
 20 21  1  0  0  0
 21 22  1  0  0  0
 21 24  1  0  0  0
 22 23  2  0  0  0
 22 28  1  0  0  0
 24 25  1  0  0  0
 25 26  1  0  0  0
 25 27  1  0  0  0
 28 29  1  0  0  0
 29 30  1  0  0  0
 29 32  1  0  0  0
 30 31  2  0  0  0
 30 37  1  0  0  0
 32 33  1  0  0  0
 33 34  1  0  0  0
 34 35  1  0  0  0
 35 36  1  0  0  0
 37 38  1  0  0  0
 38 39  1  0  0  0
 38 41  1  0  0  0
 39 40  2  0  0  0
 39 46  1  0  0  0
 41 42  1  0  0  0
 42 43  1  0  0  0
 43 44  1  0  0  0
 43 45  2  0  0  0
 46 47  1  0  0  0
 47 48  1  0  0  0
 47 50  1  0  0  0
 48 49  2  0  0  0
 48 58  1  0  0  0
 50 51  1  0  0  0
 51 52  4  0  0  0
 51 53  4  0  0  0
 52 54  4  0  0  0
 53 55  4  0  0  0
 54 56  4  0  0  0
 55 56  4  0  0  0
 56 57  1  0  0  0
 58 59  1  0  0  0
 59 60  1  0  0  0
 60 61  2  0  0  0
 60 62  1  0  0  0
 62 63  1  0  0  0
 63 64  1  0  0  0
 63 66  1  0  0  0
 64 65  2  0  0  0
 66 67  1  0  0  0
 66 68  1  0  0  0
 64 69  1  0  0  0
  4 70  1  0  0  0
  5 71  1  0  0  0
  6 72  1  0  0  0
  7 73  1  0  0  0
  8 74  1  0  0  0
  9 75  1  0  0  0
 10 76  1  0  0  0
 10 77  1  0  0  0
 13 78  1  0  0  0
 14 79  1  0  0  0
 17 80  1  0  0  0
 18 81  1  0  0  0
 18 82  1  0  0  0
 18 83  1  0  0  0
 19 84  1  0  0  0
 19 85  1  0  0  0
 19 86  1  0  0  0
 20 87  1  0  0  0
 21 88  1  0  0  0
 24 89  1  0  0  0
 24 90  1  0  0  0
 25 91  1  0  0  0
 26 92  1  0  0  0
 26 93  1  0  0  0
 26 94  1  0  0  0
 27 95  1  0  0  0
 27 96  1  0  0  0
 27 97  1  0  0  0
 28 98  1  0  0  0
 29 99  1  0  0  0
 32100  1  0  0  0
 32101  1  0  0  0
 33102  1  0  0  0
 33103  1  0  0  0
 34104  1  0  0  0
 34105  1  0  0  0
 35106  1  0  0  0
 35107  1  0  0  0
 36108  1  0  0  0
 36109  1  0  0  0
 36110  1  0  0  0
 37111  1  0  0  0
 38112  1  0  0  0
 41113  1  0  0  0
 41114  1  0  0  0
 42115  1  0  0  0
 42116  1  0  0  0
 44117  1  0  0  0
 46118  1  0  0  0
 47119  1  0  0  0
 50120  1  0  0  0
 50121  1  0  0  0
 52122  1  0  0  0
 53123  1  0  0  0
 54124  1  0  0  0
 55125  1  0  0  0
 57126  1  0  0  0
 58127  1  0  0  0
 59128  1  0  0  0
 59129  1  0  0  0
 62130  1  0  0  0
 63131  1  0  0  0
 66132  1  0  0  0
 67133  1  0  0  0
 67134  1  0  0  0
 67135  1  0  0  0
 68136  1  0  0  0
 68137  1  0  0  0
 68138  1  0  0  0
 69139  1  0  0  0
M  END
$$$$
