### 
### Created by X-TOOL on Mon Sep 10 21:13:19 2018
### 

@<TRIPOS>MOLECULE
4uua_ligand
  137   138     1     0     0
SMALL
GAST_HUCK


@<TRIPOS>ATOM
      1 C         -32.8870  -26.0550   12.4380 C.2       1 BEZ         0.2070
      2 O1        -32.2050  -27.0710   12.4790 O.2       1 BEZ        -0.3845
      3 C1        -33.8050  -25.7910   13.4700 C.ar      1 BEZ         0.0500
      4 C2        -34.9720  -25.0190   13.2380 C.ar      1 BEZ        -0.0419
      5 C3        -35.8450  -24.7630   14.2620 C.ar      1 BEZ        -0.0562
      6 C4        -35.5180  -25.2900   15.5080 C.ar      1 BEZ        -0.0575
      7 C5        -34.3720  -26.0570   15.7790 C.ar      1 BEZ        -0.0562
      8 C6        -33.4980  -26.3070   14.7410 C.ar      1 BEZ        -0.0419
      9 N         -32.7380  -25.1300   11.4590 N.am      1 GLY        -0.2676
     10 CA        -31.7470  -25.3500   10.3760 C.3       1 GLY         0.1197
     11 C         -31.9840  -24.2220    9.4200 C.2       1 GLY         0.2007
     12 O         -33.0730  -23.6170    9.3510 O.2       1 GLY        -0.3947
     13 N         -30.9120  -23.9200    8.7010 N.am      1 VAL        -0.2637
     14 CA        -30.8460  -22.7570    7.8480 C.3       1 VAL         0.1332
     15 C         -31.6190  -23.0270    6.5660 C.2       1 VAL         0.2041
     16 O         -31.3050  -23.9430    5.8270 O.2       1 VAL        -0.3944
     17 CB        -29.3890  -22.4470    7.4910 C.3       1 VAL        -0.0063
     18 CG1       -29.3120  -21.2700    6.5310 C.3       1 VAL        -0.0584
     19 CG2       -28.5700  -22.2060    8.7480 C.3       1 VAL        -0.0584
     20 N         -32.6440  -22.2390    6.3120 N.am      1 LEU        -0.2637
     21 CA        -33.4210  -22.4070    5.1000 C.3       1 LEU         0.1312
     22 C         -32.6190  -21.8060    3.9640 C.2       1 LEU         0.2039
     23 O         -32.1270  -20.6850    4.0890 O.2       1 LEU        -0.3944
     24 CB        -34.8040  -21.7250    5.2060 C.3       1 LEU        -0.0101
     25 CG        -35.9990  -22.6850    5.3010 C.3       1 LEU        -0.0425
     26 CD1       -35.8960  -23.6660    6.4500 C.3       1 LEU        -0.0625
     27 CD2       -37.2970  -21.9090    5.4120 C.3       1 LEU        -0.0625
     28 N         -32.5010  -22.5570    2.8630 N.am      1 LYS        -0.2637
     29 CA        -31.7680  -22.1060    1.6880 C.3       1 LYS         0.1310
     30 C         -32.4910  -20.8610    1.0970 C.2       1 LYS         0.2039
     31 O         -33.6980  -20.7710    1.1110 O.2       1 LYS        -0.3944
     32 CB        -31.4460  -23.2900    0.7580 C.3       1 LYS        -0.0122
     33 CG        -32.1020  -23.1460   -0.5990 C.3       1 LYS        -0.0440
     34 CD        -31.3260  -24.1010   -1.5170 C.3       1 LYS        -0.0124
     35 CE        -31.9220  -23.8480   -2.8960 C.3       1 LYS        -0.0354
     36 NZ        -31.5040  -25.0000   -3.6950 N.4       1 LYS         0.2185
     37 N         -31.7130  -19.8910    0.6390 N.am      1 GLU        -0.2636
     38 CA        -32.2010  -18.5630    0.2390 C.3       1 GLU         0.1325
     39 C         -32.9430  -17.8000    1.3540 C.2       1 GLU         0.2041
     40 O         -33.4990  -16.7130    1.1210 O.2       1 GLU        -0.3944
     41 CB        -33.0570  -18.6410   -1.0320 C.3       1 GLU        -0.0008
     42 CG        -32.3670  -19.2940   -2.2330 C.3       1 GLU         0.0044
     43 CD        -31.3310  -18.4290   -2.9440 C.2       1 GLU         0.0350
     44 OE1       -31.0350  -17.2830   -2.5230 O.co2     1 GLU        -0.5690
     45 OE2       -30.8080  -18.9300   -3.9640 O.co2     1 GLU        -0.5690
     46 N         -32.8700  -18.3460    2.5690 N.am      1 TYR        -0.2621
     47 CA        -33.6330  -17.8800    3.7320 C.3       1 TYR         0.1390
     48 C         -35.1650  -18.1020    3.5920 C.2       1 TYR         0.2055
     49 O         -35.9550  -17.4020    4.2250 O.2       1 TYR        -0.3942
     50 CB        -33.2920  -16.4100    4.0530 C.3       1 TYR         0.0163
     51 CG        -31.8120  -16.1380    4.2170 C.ar      1 TYR        -0.0493
     52 CD1       -31.0550  -16.8710    5.1450 C.ar      1 TYR        -0.0685
     53 CD2       -31.1570  -15.1610    3.4570 C.ar      1 TYR        -0.0685
     54 CE1       -29.6870  -16.6400    5.3060 C.ar      1 TYR        -0.0398
     55 CE2       -29.7920  -14.9140    3.6120 C.ar      1 TYR        -0.0398
     56 CZ        -29.0640  -15.6580    4.5400 C.ar      1 TYR         0.0805
     57 OH        -27.7140  -15.4700    4.7390 O.3       1 TYR        -0.3376
     58 N         -35.5760  -19.0970    2.8040 N.am      1 GLY        -0.2663
     59 CA        -37.0010  -19.3730    2.5590 C.3       1 GLY         0.1201
     60 C         -37.7040  -18.5120    1.5090 C.2       1 GLY         0.2003
     61 O         -38.8160  -18.8400    1.1050 O.2       1 GLY        -0.3947
     62 N         -37.0540  -17.4310    1.0570 N.am      1 VAL        -0.2670
     63 CA        -37.6720  -16.4240    0.1740 C.3       1 VAL         0.1248
     64 C         -37.8710  -16.9720   -1.2270 C.2       1 VAL         0.2152
     65 O         -36.9160  -17.0050   -2.0140 O.co2     1 VAL        -0.4120
     66 CB        -36.7850  -15.1600    0.0250 C.3       1 VAL        -0.0094
     67 CG1       -37.4730  -14.1400   -0.8940 C.3       1 VAL        -0.0589
     68 CG2       -36.4480  -14.5600    1.3840 C.3       1 VAL        -0.0589
     69 H         -35.1738  -24.6301   12.2465 H         1 BEZ         0.0669
     70 H         -36.7455  -24.1792   14.1096 H         1 BEZ         0.0629
     71 H         -36.1972  -25.0944   16.3299 H         1 BEZ         0.0653
     72 H         -34.1803  -26.4410   16.7744 H         1 BEZ         0.0629
     73 H         -32.5966  -26.8872   14.9017 H         1 BEZ         0.0669
     74 H         -33.2953  -24.2997   11.4661 H         1 GLY         0.1874
     75 H         -31.9165  -26.3192    9.8842 H         1 GLY         0.0763
     76 H         -30.7219  -25.3147   10.7733 H         1 GLY         0.0763
     77 H         -30.1158  -24.5229    8.7515 H         1 VAL         0.1883
     78 H         -31.2868  -21.8954    8.3709 H         1 VAL         0.0802
     79 H         -28.9692  -23.3258    6.9797 H         1 VAL         0.0343
     80 H         -28.2593  -21.0638    6.2875 H         1 VAL         0.0234
     81 H         -29.7599  -20.3826    7.0021 H         1 VAL         0.0234
     82 H         -29.8609  -21.5122    5.6091 H         1 VAL         0.0234
     83 H         -28.6531  -23.0786    9.4126 H         1 VAL         0.0234
     84 H         -28.9484  -21.3128    9.2666 H         1 VAL         0.0234
     85 H         -27.5156  -22.0523    8.4748 H         1 VAL         0.0234
     86 H         -32.8880  -21.5186    6.9612 H         1 LEU         0.1883
     87 H         -33.5731  -23.4804    4.9136 H         1 LEU         0.0800
     88 H         -34.9427  -21.0957    4.3145 H         1 LEU         0.0315
     89 H         -34.8035  -21.0918    6.1054 H         1 LEU         0.0315
     90 H         -36.0268  -23.2678    4.3685 H         1 LEU         0.0298
     91 H         -36.7818  -24.3182    6.4558 H         1 LEU         0.0232
     92 H         -35.8410  -23.1138    7.3998 H         1 LEU         0.0232
     93 H         -34.9904  -24.2786    6.3291 H         1 LEU         0.0232
     94 H         -37.3709  -21.1967    4.5770 H         1 LEU         0.0232
     95 H         -37.3156  -21.3599    6.3650 H         1 LEU         0.0232
     96 H         -38.1461  -22.6073    5.3744 H         1 LEU         0.0232
     97 H         -32.9312  -23.4596    2.8463 H         1 LYS         0.1883
     98 H         -30.7906  -21.7407    2.0362 H         1 LYS         0.0800
     99 H         -31.8046  -24.2175    1.2282 H         1 LYS         0.0312
    100 H         -30.3561  -23.3462    0.6204 H         1 LYS         0.0312
    101 H         -32.0202  -22.1103   -0.9604 H         1 LYS         0.0269
    102 H         -33.1624  -23.4341   -0.5487 H         1 LYS         0.0269
    103 H         -31.4769  -25.1468   -1.2113 H         1 LYS         0.0317
    104 H         -30.2512  -23.8673   -1.5063 H         1 LYS         0.0317
    105 H         -31.5278  -22.9147   -3.3243 H         1 LYS         0.0813
    106 H         -33.0191  -23.7913   -2.8406 H         1 LYS         0.0813
    107 H         -31.8628  -24.9067   -4.6323 H         1 LYS         0.1994
    108 H         -31.8639  -25.8452   -3.2800 H         1 LYS         0.1994
    109 H         -30.4973  -25.0418   -3.7233 H         1 LYS         0.1994
    110 H         -30.7329  -20.0736    0.5605 H         1 GLU         0.1883
    111 H         -31.3104  -17.9666   -0.0081 H         1 GLU         0.0801
    112 H         -33.3415  -17.6171   -1.3161 H         1 GLU         0.0330
    113 H         -33.9618  -19.2220   -0.7999 H         1 GLU         0.0330
    114 H         -33.1429  -19.5639   -2.9645 H         1 GLU         0.0433
    115 H         -31.8628  -20.2057   -1.8800 H         1 GLU         0.0433
    116 H         -32.2547  -19.1241    2.6953 H         1 TYR         0.1885
    117 H         -33.3051  -18.4836    4.5911 H         1 TYR         0.0821
    118 H         -33.7991  -16.1348    4.9895 H         1 TYR         0.0453
    119 H         -33.6695  -15.7813    3.2331 H         1 TYR         0.0453
    120 H         -31.5411  -17.6299    5.7474 H         1 TYR         0.0530
    121 H         -31.7218  -14.5846    2.7333 H         1 TYR         0.0530
    122 H         -29.1151  -17.2202    6.0211 H         1 TYR         0.0525
    123 H         -29.3027  -14.1514    3.0169 H         1 TYR         0.0525
    124 H         -27.4071  -16.0702    5.4084 H         1 TYR         0.2458
    125 H         -34.8906  -19.6768    2.3635 H         1 GLY         0.1881
    126 H         -37.5341  -19.2362    3.5114 H         1 GLY         0.0763
    127 H         -37.0857  -20.4219    2.2388 H         1 GLY         0.0763
    128 H         -36.1016  -17.3003    1.3323 H         1 VAL         0.1876
    129 H         -38.6455  -16.1388    0.5995 H         1 VAL         0.0754
    130 O2        -39.0031  -17.3915   -1.5876 O.co2     1 VAL        -0.4120
    131 H         -35.8401  -15.4611   -0.4510 H         1 VAL         0.0336
    132 H         -36.8367  -13.2482   -0.9932 H         1 VAL         0.0234
    133 H         -38.4426  -13.8523   -0.4616 H         1 VAL         0.0234
    134 H         -37.6324  -14.5888   -1.8856 H         1 VAL         0.0234
    135 H         -35.9582  -15.3209    2.0094 H         1 VAL         0.0234
    136 H         -37.3724  -14.2215    1.8748 H         1 VAL         0.0234
    137 H         -35.7700  -13.7044    1.2491 H         1 VAL         0.0234
@<TRIPOS>BOND
     1    1    2 2  
     2    1    3 1  
     3    1    9 am 
     4    3    4 ar 
     5    3    8 ar 
     6    4    5 ar 
     7    5    6 ar 
     8    6    7 ar 
     9    7    8 ar 
    10    9   10 1  
    11   10   11 1  
    12   11   12 2  
    13   11   13 am 
    14   13   14 1  
    15   14   15 1  
    16   14   17 1  
    17   15   16 2  
    18   15   20 am 
    19   17   18 1  
    20   17   19 1  
    21   20   21 1  
    22   21   22 1  
    23   21   24 1  
    24   22   23 2  
    25   22   28 am 
    26   24   25 1  
    27   25   26 1  
    28   25   27 1  
    29   28   29 1  
    30   29   30 1  
    31   29   32 1  
    32   30   31 2  
    33   30   37 am 
    34   32   33 1  
    35   33   34 1  
    36   34   35 1  
    37   35   36 1  
    38   37   38 1  
    39   38   39 1  
    40   38   41 1  
    41   39   40 2  
    42   39   46 am 
    43   41   42 1  
    44   42   43 1  
    45   43   44 ar 
    46   43   45 ar 
    47   46   47 1  
    48   47   48 1  
    49   47   50 1  
    50   48   49 2  
    51   48   58 am 
    52   50   51 1  
    53   51   52 ar 
    54   51   53 ar 
    55   52   54 ar 
    56   53   55 ar 
    57   54   56 ar 
    58   55   56 ar 
    59   56   57 1  
    60   58   59 1  
    61   59   60 1  
    62   60   61 2  
    63   60   62 am 
    64   62   63 1  
    65   63   64 1  
    66   63   66 1  
    67   64   65 ar 
    68   66   67 1  
    69   66   68 1  
    70    4   69 1  
    71    5   70 1  
    72    6   71 1  
    73    7   72 1  
    74    8   73 1  
    75    9   74 1  
    76   10   75 1  
    77   10   76 1  
    78   13   77 1  
    79   14   78 1  
    80   17   79 1  
    81   18   80 1  
    82   18   81 1  
    83   18   82 1  
    84   19   83 1  
    85   19   84 1  
    86   19   85 1  
    87   20   86 1  
    88   21   87 1  
    89   24   88 1  
    90   24   89 1  
    91   25   90 1  
    92   26   91 1  
    93   26   92 1  
    94   26   93 1  
    95   27   94 1  
    96   27   95 1  
    97   27   96 1  
    98   28   97 1  
    99   29   98 1  
   100   32   99 1  
   101   32  100 1  
   102   33  101 1  
   103   33  102 1  
   104   34  103 1  
   105   34  104 1  
   106   35  105 1  
   107   35  106 1  
   108   36  107 1  
   109   36  108 1  
   110   36  109 1  
   111   37  110 1  
   112   38  111 1  
   113   41  112 1  
   114   41  113 1  
   115   42  114 1  
   116   42  115 1  
   117   46  116 1  
   118   47  117 1  
   119   50  118 1  
   120   50  119 1  
   121   52  120 1  
   122   53  121 1  
   123   54  122 1  
   124   55  123 1  
   125   57  124 1  
   126   58  125 1  
   127   59  126 1  
   128   59  127 1  
   129   62  128 1  
   130   63  129 1  
   131   64  130 ar 
   132   66  131 1  
   133   67  132 1  
   134   67  133 1  
   135   67  134 1  
   136   68  135 1  
   137   68  136 1  
   138   68  137 1  
@<TRIPOS>SUBSTRUCTURE
     1 BEZ         1

