3tki_ligand
  -I-interpret- 

 54 57  0  0  0  0  0  0  0  0999 V2000
   23.5040   -2.7800    8.0990 C   0  0  0  0  0
   22.5550   -1.6670    8.0230 N   0  0  0  0  0
   23.7560   -2.5540    5.7210 O   0  0  0  0  0
   15.9950   -1.5420   10.1210 S   0  0  0  0  0
   23.5330   -3.5060    6.7670 C   0  0  0  0  0
   22.6500   -1.6520    5.6010 C   0  0  0  0  0
   22.5820   -0.7910    6.8510 C   0  0  0  0  0
   13.3620   -1.1200   10.9120 C   0  0  0  0  0
   13.3150   -2.3430   11.5720 C   0  0  0  0  0
   12.2170   -2.5940   12.3860 C   0  0  0  0  0
   11.2350   -1.6320   12.4890 C   0  0  0  0  0
   11.2400   -0.4490   11.8520 N   0  0  0  0  0
   12.3260   -0.2260   11.1010 C   0  0  0  0  0
   16.7370   -0.2540    9.2330 C   0  0  0  0  0
   14.5080   -0.6780   10.1340 C   0  0  0  0  0
   14.6770    0.5110    9.4520 C   0  0  0  0  0
   15.9260    0.7410    8.9430 N   0  0  0  0  0
   21.0320   -3.0120    9.3910 C   0  0  0  0  0
   19.7940   -3.1500    9.9780 C   0  0  0  0  0
   18.7930   -2.2740    9.8470 N   0  0  0  0  0
   19.0090   -1.2020    9.0760 C   0  0  0  0  0
   20.2350   -0.9920    8.4730 C   0  0  0  0  0
   21.2750   -1.8990    8.6070 C   0  0  0  0  0
   18.0420   -0.2130    8.8430 N   0  0  0  0  0
   12.0230   -3.8400   13.1550 C   0  0  0  0  0
   10.9660   -3.9920   13.7680 O   0  0  0  0  0
   13.0790   -4.7220   13.1570 N   0  0  0  0  0
   13.0040   -5.9670   13.8920 C   0  0  0  0  0
   14.1020   -6.0830   14.9330 C   0  0  0  0  0
   14.1750   -4.8330   15.7470 N   0  3  0  0  0
   23.1949   -3.4701    8.8841 H   0  0  0  0  0
   24.4985   -2.3967    8.3274 H   0  0  0  0  0
   22.5823   -4.0139    6.6048 H   0  0  0  0  0
   24.3348   -4.2444    6.7686 H   0  0  0  0  0
   21.7239   -2.2160    5.4903 H   0  0  0  0  0
   22.7832   -1.0192    4.7236 H   0  0  0  0  0
   23.4525   -0.1366    6.8977 H   0  0  0  0  0
   21.6829   -0.1752    6.8281 H   0  0  0  0  0
   14.1109   -3.0785   11.4551 H   0  0  0  0  0
   10.3871   -1.8483   13.1389 H   0  0  0  0  0
   12.3984    0.7385   10.5984 H   0  0  0  0  0
   13.8627    1.2247    9.3265 H   0  0  0  0  0
   21.8053   -3.7653    9.5414 H   0  0  0  0  0
   19.6184   -4.0338   10.5913 H   0  0  0  0  0
   20.3878   -0.0917    7.8779 H   0  0  0  0  0
   18.3448    0.6166    8.3326 H   0  0  0  0  0
   13.9251   -4.4959   12.6342 H   0  0  0  0  0
   13.1194   -6.7873   13.1836 H   0  0  0  0  0
   12.0434   -6.0008   14.4061 H   0  0  0  0  0
   15.0563   -6.2371   14.4294 H   0  0  0  0  0
   13.8831   -6.9245   15.5903 H   0  0  0  0  0
   14.9160   -4.9241   16.4420 H   0  0  0  0  0
   14.3761   -4.0418   15.1355 H   0  0  0  0  0
   13.2826   -4.6825   16.2175 H   0  0  0  0  0
  2  1  1  0  0  0
  1  5  1  0  0  0
  2  7  1  0  0  0
 23  2  1  0  0  0
  5  3  1  0  0  0
  6  3  1  0  0  0
 14  4  4  0  0  0
  4 15  4  0  0  0
  7  6  1  0  0  0
  8  9  4  0  0  0
  8 13  4  0  0  0
 15  8  1  0  0  0
  9 10  4  0  0  0
 10 11  4  0  0  0
 10 25  1  0  0  0
 12 11  4  0  0  0
 13 12  4  0  0  0
 14 17  4  0  0  0
 24 14  1  0  0  0
 16 15  4  0  0  0
 17 16  4  0  0  0
 19 18  4  0  0  0
 18 23  4  0  0  0
 20 19  4  0  0  0
 21 20  4  0  0  0
 21 22  4  0  0  0
 21 24  1  0  0  0
 22 23  4  0  0  0
 25 26  2  0  0  0
 25 27  1  0  0  0
 27 28  1  0  0  0
 28 29  1  0  0  0
 29 30  1  0  0  0
  1 31  1  0  0  0
  1 32  1  0  0  0
  5 33  1  0  0  0
  5 34  1  0  0  0
  6 35  1  0  0  0
  6 36  1  0  0  0
  7 37  1  0  0  0
  7 38  1  0  0  0
  9 39  1  0  0  0
 11 40  1  0  0  0
 13 41  1  0  0  0
 16 42  1  0  0  0
 18 43  1  0  0  0
 19 44  1  0  0  0
 22 45  1  0  0  0
 24 46  1  0  0  0
 27 47  1  0  0  0
 28 48  1  0  0  0
 28 49  1  0  0  0
 29 50  1  0  0  0
 29 51  1  0  0  0
 30 52  1  0  0  0
 30 53  1  0  0  0
 30 54  1  0  0  0
M  END
$$$$
