1pwq_ligand
  -I-interpret- 

 62 63  0  0  0  0  0  0  0  0999 V2000
   83.7610   36.0930  128.6780 C   0  0  0  0  0
   82.2840   35.2840  128.0820 S   0  0  0  0  0
   81.7350   34.2010  129.4330 C   0  0  0  0  0
   82.4670   33.0750  129.7270 C   0  0  0  0  0
   82.0390   32.1700  130.8760 C   0  0  0  0  0
   82.7660   30.8350  130.6920 C   0  0  0  0  0
   84.0040   30.7710  130.7620 O   0  0  0  0  0
   81.9820   29.7920  130.4610 N   0  0  0  0  0
   82.6900   32.8260  131.9590 N   0  0  0  0  0
   82.3920   33.2210  133.1730 C   0  0  0  0  0
   81.3580   33.0930  133.8210 O   0  0  0  0  0
   83.6330   33.8680  133.7270 C   0  0  0  0  0
   84.7050   32.7810  133.8640 C   0  0  0  0  0
   85.4210   33.1050  135.1630 C   0  0  0  0  0
   84.3380   33.7200  136.0450 C   0  0  0  0  0
   83.4810   34.3890  135.0650 N   0  0  0  0  0
   82.7760   35.4920  135.3120 C   0  0  0  0  0
   82.2080   36.0600  134.3810 O   0  0  0  0  0
   82.6360   36.0290  136.7370 C   0  0  0  0  0
   83.0350   37.4480  136.7800 N   0  0  0  0  0
   83.4060   38.0410  137.9170 C   0  0  0  0  0
   83.4450   37.4730  139.0090 O   0  0  0  0  0
   83.7810   39.5160  137.7920 C   0  0  0  0  0
   82.9520   40.5070  139.0970 S   0  0  0  0  0
   81.1750   35.8690  137.2100 C   0  0  0  0  0
   80.8590   34.4110  137.5650 C   0  0  0  0  0
   80.8480   34.0140  138.9110 C   0  0  0  0  0
   80.6730   32.6610  139.2480 C   0  0  0  0  0
   80.5030   31.7030  138.2360 C   0  0  0  0  0
   80.3900   30.3830  138.5580 O   0  0  0  0  0
   80.5000   32.1040  136.8900 C   0  0  0  0  0
   80.6730   33.4580  136.5560 C   0  0  0  0  0
   83.5233   36.6665  129.5740 H   0  0  0  0  0
   84.5146   35.3420  128.9151 H   0  0  0  0  0
   84.1432   36.7624  127.9074 H   0  0  0  0  0
   80.7621   33.8270  129.1142 H   0  0  0  0  0
   81.7981   34.8178  130.3294 H   0  0  0  0  0
   83.4439   33.4543  130.0269 H   0  0  0  0  0
   82.3766   32.4502  128.8384 H   0  0  0  0  0
   80.9657   32.0083  130.9764 H   0  0  0  0  0
   82.3901   28.8667  130.3283 H   0  0  0  0  0
   80.9704   29.9145  130.4159 H   0  0  0  0  0
   83.6570   33.0512  131.7254 H   0  0  0  0  0
   83.8748   34.6847  133.0469 H   0  0  0  0  0
   85.3880   32.7749  133.0145 H   0  0  0  0  0
   84.2703   31.7815  133.8783 H   0  0  0  0  0
   86.2613   33.7824  135.0113 H   0  0  0  0  0
   85.8682   32.2209  135.6174 H   0  0  0  0  0
   84.7342   34.3972  136.8017 H   0  0  0  0  0
   83.8065   32.9839  136.6481 H   0  0  0  0  0
   83.2878   35.4628  137.4024 H   0  0  0  0  0
   83.0273   37.9916  135.9169 H   0  0  0  0  0
   83.4612   39.8800  136.8156 H   0  0  0  0  0
   84.8605   39.6166  137.9046 H   0  0  0  0  0
   83.2949   41.7853  138.9657 H   0  0  0  0  0
   80.5132   36.1799  136.4017 H   0  0  0  0  0
   81.0300   36.4814  138.0999 H   0  0  0  0  0
   80.9756   34.7576  139.6977 H   0  0  0  0  0
   80.6693   32.3556  140.2943 H   0  0  0  0  0
   80.2803   29.8673  137.7557 H   0  0  0  0  0
   80.3631   31.3630  136.1024 H   0  0  0  0  0
   80.6624   33.7667  135.5107 H   0  0  0  0  0
  1  2  1  0  0  0
  2  3  1  0  0  0
  3  4  1  0  0  0
  4  5  1  0  0  0
  5  6  1  0  0  0
  5  9  1  0  0  0
  6  7  2  0  0  0
  6  8  1  0  0  0
  9 10  1  0  0  0
 10 11  2  0  0  0
 10 12  1  0  0  0
 12 13  1  0  0  0
 12 16  1  0  0  0
 13 14  1  0  0  0
 14 15  1  0  0  0
 15 16  1  0  0  0
 16 17  1  0  0  0
 17 18  2  0  0  0
 17 19  1  0  0  0
 19 20  1  0  0  0
 19 25  1  0  0  0
 20 21  1  0  0  0
 21 22  2  0  0  0
 21 23  1  0  0  0
 23 24  1  0  0  0
 25 26  1  0  0  0
 26 27  4  0  0  0
 26 32  4  0  0  0
 27 28  4  0  0  0
 28 29  4  0  0  0
 29 30  1  0  0  0
 29 31  4  0  0  0
 31 32  4  0  0  0
  1 33  1  0  0  0
  1 34  1  0  0  0
  1 35  1  0  0  0
  3 36  1  0  0  0
  3 37  1  0  0  0
  4 38  1  0  0  0
  4 39  1  0  0  0
  5 40  1  0  0  0
  8 41  1  0  0  0
  8 42  1  0  0  0
  9 43  1  0  0  0
 12 44  1  0  0  0
 13 45  1  0  0  0
 13 46  1  0  0  0
 14 47  1  0  0  0
 14 48  1  0  0  0
 15 49  1  0  0  0
 15 50  1  0  0  0
 19 51  1  0  0  0
 20 52  1  0  0  0
 23 53  1  0  0  0
 23 54  1  0  0  0
 24 55  1  0  0  0
 25 56  1  0  0  0
 25 57  1  0  0  0
 27 58  1  0  0  0
 28 59  1  0  0  0
 30 60  1  0  0  0
 31 61  1  0  0  0
 32 62  1  0  0  0
M  END
$$$$
