5nwz_ligand
  -I-interpret- 

 56 58  0  0  0  0  0  0  0  0999 V2000
    3.7280  -11.0950   22.9370 C   0  0  0  0  0
    2.4610  -11.7400   23.5450 C   0  0  0  0  0
    2.7270  -13.0120   24.3120 C   0  0  0  0  0
    3.9330  -15.0660   26.2480 C   0  0  0  0  0
    1.3700  -12.9250   28.2560 C   0  0  0  0  0
   -0.3660  -12.1270   29.7830 C   0  0  0  0  0
   -1.5680  -10.2770   30.2060 C   0  0  0  0  0
   -2.1570   -8.8950   30.3090 C   0  0  0  0  0
   -1.9740   -7.9940   29.0610 C   0  0  0  0  0
   -2.9500   -6.8170   29.1940 C   0  0  0  0  0
   -2.6700   -5.7650   30.0980 C   0  0  0  0  0
   -3.5810   -4.7030   30.2650 C   0  0  0  0  0
   -3.9140   -2.3770   31.1760 C   0  0  0  0  0
   -4.7790   -4.7090   29.5130 C   0  0  0  0  0
   -5.0780   -5.7340   28.6040 C   0  0  0  0  0
   -7.1070   -4.5530   27.6550 C   0  0  0  0  0
   -4.1630   -6.7970   28.4590 C   0  0  0  0  0
    2.8150  -14.0610   23.6950 O   0  0  0  0  0
    2.8630  -12.9210   25.6580 N   0  0  0  0  0
    3.0430  -14.0140   26.5690 C   0  0  0  0  0
    2.3070  -14.0610   27.8000 C   0  0  0  0  0
    2.5160  -15.1660   28.6640 C   0  0  0  0  0
    3.4050  -16.2030   28.3320 C   0  0  0  0  0
    4.1130  -16.1540   27.1170 C   0  0  0  0  0
    1.4890  -11.8440   27.6960 O   0  0  0  0  0
    0.4960  -13.0680   29.2970 N   0  0  0  0  0
   -1.2980  -12.3790   30.6290 N   0  0  0  0  0
   -2.0300  -11.2790   30.9110 N   0  0  0  0  0
   -3.2880   -3.6770   31.1810 O   0  0  0  0  0
   -6.2680   -5.7200   27.8580 O   0  0  0  0  0
   -0.5040  -10.6850   29.4790 C   0  0  0  0  0
    4.4280  -10.8493   23.7356 H   0  0  0  0  0
    4.1952  -11.7964   22.2457 H   0  0  0  0  0
    3.4508  -10.1863   22.4027 H   0  0  0  0  0
    1.7988  -11.9942   22.7173 H   0  0  0  0  0
    2.0379  -11.0217   24.2472 H   0  0  0  0  0
    4.4881  -15.0312   25.3106 H   0  0  0  0  0
   -1.6380   -8.3977   31.1285 H   0  0  0  0  0
   -3.2310   -9.0255   30.4417 H   0  0  0  0  0
   -2.1787   -8.5577   28.1508 H   0  0  0  0  0
   -0.9475   -7.6326   28.9992 H   0  0  0  0  0
   -1.7421   -5.7762   30.6698 H   0  0  0  0  0
   -3.7176   -1.8842   30.2238 H   0  0  0  0  0
   -4.9893   -2.4924   31.3118 H   0  0  0  0  0
   -3.5063   -1.7757   31.9886 H   0  0  0  0  0
   -5.4902   -3.8934   29.6439 H   0  0  0  0  0
   -7.4545   -4.1846   28.6202 H   0  0  0  0  0
   -6.5305   -3.7754   27.1540 H   0  0  0  0  0
   -7.9638   -4.8258   27.0389 H   0  0  0  0  0
   -4.3906   -7.6134   27.7736 H   0  0  0  0  0
    2.8345  -11.9847   26.0617 H   0  0  0  0  0
    1.9740  -15.2123   29.6086 H   0  0  0  0  0
    3.5454  -17.0421   29.0134 H   0  0  0  0  0
    4.7991  -16.9582   26.8513 H   0  0  0  0  0
    0.4866  -13.9762   29.7613 H   0  0  0  0  0
    0.1165  -10.0838   28.8144 H   0  0  0  0  0
  2  1  1  0  0  0
  3  2  1  0  0  0
  3 18  2  0  0  0
 19  3  1  0  0  0
 20  4  4  0  0  0
  4 24  4  0  0  0
 21  5  1  0  0  0
  5 25  2  0  0  0
  5 26  1  0  0  0
 26  6  1  0  0  0
  6 27  4  0  0  0
  6 31  4  0  0  0
  7  8  1  0  0  0
  7 28  4  0  0  0
 31  7  4  0  0  0
  8  9  1  0  0  0
  9 10  1  0  0  0
 10 11  4  0  0  0
 10 17  4  0  0  0
 11 12  4  0  0  0
 12 14  4  0  0  0
 12 29  1  0  0  0
 29 13  1  0  0  0
 15 14  4  0  0  0
 17 15  4  0  0  0
 15 30  1  0  0  0
 30 16  1  0  0  0
 20 19  1  0  0  0
 20 21  4  0  0  0
 21 22  4  0  0  0
 22 23  4  0  0  0
 23 24  4  0  0  0
 27 28  4  0  0  0
  1 32  1  0  0  0
  1 33  1  0  0  0
  1 34  1  0  0  0
  2 35  1  0  0  0
  2 36  1  0  0  0
  4 37  1  0  0  0
  8 38  1  0  0  0
  8 39  1  0  0  0
  9 40  1  0  0  0
  9 41  1  0  0  0
 11 42  1  0  0  0
 13 43  1  0  0  0
 13 44  1  0  0  0
 13 45  1  0  0  0
 14 46  1  0  0  0
 16 47  1  0  0  0
 16 48  1  0  0  0
 16 49  1  0  0  0
 17 50  1  0  0  0
 19 51  1  0  0  0
 22 52  1  0  0  0
 23 53  1  0  0  0
 24 54  1  0  0  0
 26 55  1  0  0  0
 31 56  1  0  0  0
M  END
$$$$
