### 
### Created by X-TOOL on Mon Sep 10 21:13:19 2018
### 

@<TRIPOS>MOLECULE
4bpi_ligand
  310   310     1     0     0
SMALL
GAST_HUCK


@<TRIPOS>ATOM
      1 N           3.6070  -14.0430   24.7350 N.4       1 ALA         0.2377
      2 CA          3.2160  -13.1520   23.6420 C.3       1 ALA         0.0621
      3 C           4.3440  -12.1790   23.2800 C.2       1 ALA         0.2264
      4 O           4.9970  -12.3230   22.2420 O.2       1 ALA        -0.3907
      5 CB          1.9490  -12.3960   24.0030 C.3       1 ALA        -0.0040
      6 N           4.5640  -11.1760   24.1270 N.am      1 GLU        -0.2609
      7 CA          5.7800  -10.3830   24.0210 C.3       1 GLU         0.1324
      8 C           6.8800  -11.3980   24.3110 C.2       1 GLU         0.2021
      9 O           7.9410  -11.4020   23.6740 O.2       1 GLU        -0.3945
     10 CB          5.7870   -9.2490   25.0480 C.3       1 GLU        -0.0008
     11 CG          4.5580   -8.3580   25.0050 C.3       1 GLU         0.0044
     12 CD          3.6730   -8.5260   26.2250 C.2       1 GLU         0.0350
     13 OE1         4.1260   -9.1500   27.2080 O.co2     1 GLU        -0.5690
     14 OE2         2.5250   -8.0340   26.2010 O.co2     1 GLU        -0.5690
     15 N           6.5730  -12.2840   25.2600 N.am      1 B3E        -0.2796
     16 CB          7.8480  -12.7260   25.8160 C.3       1 B3E         0.0602
     17 CG          7.9790  -12.1280   27.2190 C.3       1 B3E        -0.0162
     18 CD          9.3950  -11.7700   27.6390 C.3       1 B3E         0.0024
     19 CE          9.9010  -10.4270   27.1340 C.2       1 B3E         0.0349
     20 OF2        11.1370  -10.2920   27.0420 O.co2     1 B3E        -0.5690
     21 OF1         9.1010   -9.5110   26.8330 O.co2     1 B3E        -0.5690
     22 CA          7.9510  -14.2570   25.8540 C.3       1 B3E         0.0604
     23 C           8.2690  -14.8830   24.4940 C.2       1 B3E         0.1804
     24 O           9.4310  -15.1010   24.1550 O.2       1 B3E        -0.3968
     25 N           7.2440  -15.1770   23.7050 N.am      1 ILE        -0.2653
     26 CA          7.4960  -15.8310   22.4310 C.3       1 ILE         0.1334
     27 C           8.1340  -14.8750   21.4160 C.2       1 ILE         0.2040
     28 O           8.9100  -15.2930   20.5610 O.2       1 ILE        -0.3944
     29 CB          6.2490  -16.5810   21.8950 C.3       1 ILE        -0.0037
     30 CG1         5.5470  -15.8010   20.7980 C.3       1 ILE        -0.0491
     31 CG2         5.3070  -16.9830   23.0450 C.3       1 ILE        -0.0582
     32 CD1         5.9070  -16.2830   19.4040 C.3       1 ILE        -0.0648
     33 N           7.8380  -13.5860   21.5250 N.am      1 GLY        -0.2664
     34 CA          8.5320  -12.6080   20.7100 C.3       1 GLY         0.1201
     35 C          10.0410  -12.6410   20.9500 C.2       1 GLY         0.2007
     36 O          10.8470  -12.7000   20.0110 O.2       1 GLY        -0.3947
     37 N          10.4290  -12.6030   22.2130 N.am      1 ALA        -0.2642
     38 CA         11.8360  -12.5310   22.5660 C.3       1 ALA         0.1280
     39 C          12.4350  -13.8950   22.3010 C.2       1 ALA         0.2018
     40 O          13.6200  -14.0190   21.9690 O.2       1 ALA        -0.3945
     41 CB         12.0060  -12.1280   24.0310 C.3       1 ALA        -0.0244
     42 N          11.5960  -14.9120   22.4940 N.am      1 B3Q        -0.2796
     43 CB         12.4740  -16.0710   22.3870 C.3       1 B3Q         0.0608
     44 CG         12.7320  -16.6850   23.7670 C.3       1 B3Q        -0.0108
     45 CA         11.8540  -17.1060   21.4580 C.3       1 B3Q         0.0605
     46 C          12.1900  -16.7810   20.0040 C.2       1 B3Q         0.1804
     47 O          13.2000  -17.2580   19.4950 O.2       1 B3Q        -0.3968
     48 CD         13.9360  -16.0960   24.4940 C.3       1 B3Q         0.0393
     49 CE         15.1790  -16.9750   24.4500 C.2       1 B3Q         0.1736
     50 NF2        15.0130  -18.2430   24.0690 N.am      1 B3Q        -0.3009
     51 OF1        16.2840  -16.5200   24.7560 O.2       1 B3Q        -0.3973
     52 N          11.3730  -15.9640   19.3370 N.am      1 LEU        -0.2656
     53 CA         11.6080  -15.6880   17.9170 C.3       1 LEU         0.1311
     54 C          12.8710  -14.8540   17.6760 C.2       1 LEU         0.2039
     55 O          13.6030  -15.0750   16.6950 O.2       1 LEU        -0.3944
     56 CB         10.3780  -15.0460   17.2680 C.3       1 LEU        -0.0101
     57 CG          9.1820  -15.9940   17.1080 C.3       1 LEU        -0.0425
     58 CD1         7.9500  -15.2170   16.6850 C.3       1 LEU        -0.0625
     59 CD2         9.5000  -17.0820   16.0800 C.3       1 LEU        -0.0625
     60 N          13.1320  -13.9060   18.5750 N.am      1 ARG        -0.2637
     61 CA         14.2340  -12.9690   18.4090 C.3       1 ARG         0.1310
     62 C          15.5490  -13.7140   18.5910 C.2       1 ARG         0.2020
     63 O          16.5060  -13.5060   17.8400 O.2       1 ARG        -0.3945
     64 CB         14.1240  -11.8560   19.4570 C.3       1 ARG        -0.0092
     65 CG         15.0920  -10.7240   19.2590 C.3       1 ARG        -0.0156
     66 CD         14.4760   -9.4480   19.8070 C.3       1 ARG         0.0627
     67 NE         14.6570   -9.3850   21.2320 N.pl3     1 ARG        -0.2723
     68 CZ         13.9400   -8.6430   22.0660 C.cat     1 ARG         0.2882
     69 NH1        12.9310   -7.8740   21.6470 N.pl3     1 ARG        -0.2849
     70 NH2        14.2440   -8.6840   23.3480 N.pl3     1 ARG        -0.2849
     71 N          15.5870  -14.5400   19.6320 N.am      1 HR7        -0.2797
     72 CB         16.9580  -14.8740   20.0250 C.3       1 HR7         0.0588
     73 CG         17.1910  -14.5700   21.5030 C.3       1 HR7        -0.0246
     74 CD         17.4000  -13.0840   21.7590 C.3       1 HR7        -0.0176
     75 CE         18.3200  -12.8970   22.9640 C.3       1 HR7         0.0626
     76 NZ         18.7400  -14.1680   23.5660 N.pl3     1 HR7        -0.2723
     77 CH         19.9260  -14.7700   23.4260 C.cat     1 HR7         0.2882
     78 NH2        20.8690  -14.2260   22.6670 N.pl3     1 HR7        -0.2849
     79 NH1        20.1630  -15.9250   24.0430 N.pl3     1 HR7        -0.2849
     80 C          17.2190  -16.8160   18.4160 C.2       1 HR7         0.1804
     81 O          18.2510  -16.6980   17.7560 O.2       1 HR7        -0.3968
     82 CA         17.1600  -16.3780   19.8820 C.3       1 HR7         0.0603
     83 N          16.1200  -17.3250   17.8820 N.am      1 MET        -0.2655
     84 CA         16.2470  -18.0020   16.5940 C.3       1 MET         0.1316
     85 C          16.5680  -17.0840   15.3910 C.2       1 MET         0.2039
     86 O          17.2740  -17.5100   14.4660 O.2       1 MET        -0.3944
     87 CB         15.0440  -18.8990   16.3260 C.3       1 MET        -0.0034
     88 CG         13.8560  -18.1680   15.8060 C.3       1 MET        -0.0024
     89 SD         12.5650  -19.3100   15.2990 S.3       1 MET        -0.1639
     90 CE         12.1640  -20.0130   16.8770 C.3       1 MET        -0.0181
     91 N          16.0920  -15.8370   15.4020 N.am      1 ALA        -0.2640
     92 CA         16.3060  -14.9430   14.2670 C.3       1 ALA         0.1282
     93 C          17.7200  -14.3860   14.2670 C.2       1 ALA         0.2037
     94 O          18.3620  -14.2480   13.2090 O.2       1 ALA        -0.3944
     95 CB         15.3110  -13.7730   14.3160 C.3       1 ALA        -0.0244
     96 N          18.2060  -14.0570   15.4590 N.am      1 ASP        -0.2622
     97 CA         19.4810  -13.3590   15.5690 C.3       1 ASP         0.1422
     98 C          20.5180  -14.4570   15.4700 C.2       1 ASP         0.2038
     99 O          21.6870  -14.2200   15.1620 O.2       1 ASP        -0.3944
    100 CB         19.5890  -12.6100   16.8900 C.3       1 ASP         0.0406
    101 CG         18.8670  -11.2590   16.8660 C.2       1 ASP         0.0393
    102 OD1        18.4260  -10.8050   15.7880 O.co2     1 ASP        -0.5688
    103 OD2        18.7570  -10.6370   17.9390 O.co2     1 ASP        -0.5688
    104 OE1        23.6910  -17.6800   16.6360 O.co2     1 B3D        -0.5689
    105 CD         22.6580  -17.9440   17.2890 C.2       1 B3D         0.0371
    106 OE2        22.4460  -19.0100   17.9040 O.co2     1 B3D        -0.5689
    107 CG         21.5820  -16.8740   17.3160 C.3       1 B3D         0.0254
    108 CB         21.2490  -16.4900   15.8770 C.3       1 B3D         0.0701
    109 N          20.0490  -15.6550   15.8000 N.am      1 B3D        -0.2780
    110 CA         21.0330  -17.8140   15.1600 C.3       1 B3D         0.0619
    111 C          21.0120  -17.6270   13.6660 C.2       1 B3D         0.1805
    112 O          22.0560  -17.7160   13.0260 O.2       1 B3D        -0.3968
    113 N          19.8410  -17.3480   13.1000 N.am      1 LEU        -0.2655
    114 CA         19.7390  -17.2160   11.6430 C.3       1 LEU         0.1311
    115 C          20.5590  -16.0340   11.0850 C.2       1 LEU         0.2040
    116 O          21.2980  -16.1930   10.1160 O.2       1 LEU        -0.3944
    117 CB         18.2810  -17.1390   11.1800 C.3       1 LEU        -0.0101
    118 CG         18.1400  -17.0250    9.6570 C.3       1 LEU        -0.0425
    119 CD1        18.6990  -18.2750    9.0000 C.3       1 LEU        -0.0625
    120 CD2        16.7110  -16.8080    9.2230 C.3       1 LEU        -0.0625
    121 N          20.4450  -14.8600   11.6880 N.am      1 ASN        -0.2616
    122 CA         21.2100  -13.7160   11.1890 C.3       1 ASN         0.1474
    123 C          22.7150  -13.9400   11.3430 C.2       1 ASN         0.2044
    124 O          23.5110  -13.4740   10.5240 O.2       1 ASN        -0.3943
    125 CB         20.7590  -12.4260   11.8460 C.3       1 ASN         0.0773
    126 CG         21.0480  -11.2170   10.9910 C.2       1 ASN         0.1780
    127 OD1        20.3970  -10.9990    9.9650 O.2       1 ASN        -0.3970
    128 ND2        22.0100  -10.4140   11.4140 N.am      1 ASN        -0.3007
    129 CG         25.0040  -13.6330   13.5060 C.3       1 B3A        -0.0398
    130 CB         24.5470  -14.5720   12.4030 C.3       1 B3A         0.0559
    131 N          23.0770  -14.6530   12.4110 N.am      1 B3A        -0.2799
    132 CA         25.2160  -15.9230   12.6190 C.3       1 B3A         0.0601
    133 C          25.3170  -16.7360   11.3430 C.2       1 B3A         0.1804
    134 O          26.3040  -16.6180   10.6250 O.2       1 B3A        -0.3968
    135 N          24.3060  -17.5580   11.0610 N.am      1 GLN        -0.2654
    136 CA         24.2760  -18.3730    9.8420 C.3       1 GLN         0.1329
    137 C          24.6240  -17.5850    8.5670 C.2       1 GLN         0.2037
    138 O          25.3430  -18.0950    7.7120 O.2       1 GLN        -0.3944
    139 CB         22.9120  -19.0520    9.6690 C.3       1 GLN         0.0045
    140 CG         22.7520  -20.3870   10.3720 C.3       1 GLN         0.0412
    141 CD         22.5850  -21.5370    9.3970 C.2       1 GLN         0.1737
    142 OE1        22.7980  -21.3820    8.1950 O.2       1 GLN        -0.3973
    143 NE2        22.1980  -22.6980    9.9120 N.am      1 GLN        -0.3009
    144 N          24.1070  -16.3580    8.4470 N.am      1 TYR        -0.2655
    145 CA         24.4220  -15.4660    7.3190 C.3       1 TYR         0.1306
    146 C          25.1490  -14.1960    7.7800 C.2       1 TYR         0.2167
    147 O          26.1760  -14.2650    8.4650 O.co2     1 TYR        -0.4118
    148 CB         23.1520  -15.0690    6.5500 C.3       1 TYR         0.0132
    149 CG         22.4850  -16.2100    5.8050 C.ar      1 TYR        -0.0498
    150 CD1        21.5180  -16.9950    6.4230 C.ar      1 TYR        -0.0686
    151 CD2        22.8190  -16.5050    4.4870 C.ar      1 TYR        -0.0686
    152 CE1        20.9040  -18.0510    5.7570 C.ar      1 TYR        -0.0398
    153 CE2        22.2030  -17.5620    3.8090 C.ar      1 TYR        -0.0398
    154 CZ         21.2420  -18.3250    4.4520 C.ar      1 TYR         0.0805
    155 OH         20.6160  -19.3710    3.8120 O.3       1 TYR        -0.3376
    156 H           2.8453  -14.6681   24.9477 H         1 ALA         0.2015
    157 H           3.8303  -13.4955   25.5513 H         1 ALA         0.2015
    158 H           4.4146  -14.5793   24.4588 H         1 ALA         0.2015
    159 H           3.0055  -13.7710   22.7574 H         1 ALA         0.1095
    160 H           1.6691  -11.7317   23.1721 H         1 ALA         0.0310
    161 H           2.1250  -11.7965   24.9083 H         1 ALA         0.0310
    162 H           1.1353  -13.1122   24.1899 H         1 ALA         0.0310
    163 H           3.8924  -10.9668   24.8377 H         1 GLU         0.1885
    164 H           5.8895   -9.9617   23.0108 H         1 GLU         0.0801
    165 H           6.6726   -8.6231   24.8638 H         1 GLU         0.0330
    166 H           5.8547   -9.6939   26.0517 H         1 GLU         0.0330
    167 H           3.9726   -8.6083   24.1080 H         1 GLU         0.0433
    168 H           4.8849   -7.3092   24.9487 H         1 GLU         0.0433
    169 H           5.6589  -12.5832   25.5336 H         1 B3E         0.1856
    170 H           8.6636  -12.3421   25.1856 H         1 B3E         0.0582
    171 H           7.5850  -12.8600   27.9393 H         1 B3E         0.0307
    172 H           7.3708  -11.2122   27.2570 H         1 B3E         0.0307
    173 H          10.0700  -12.5519   27.2608 H         1 B3E         0.0431
    174 H           9.4304  -11.7553   28.7383 H         1 B3E         0.0431
    175 H           6.9911  -14.6616   26.2072 H         1 B3E         0.0525
    176 H           8.7479  -14.5347   26.5596 H         1 B3E         0.0525
    177 H           6.3101  -14.9518   23.9828 H         1 ILE         0.1883
    178 H           8.2498  -16.6074   22.6283 H         1 ILE         0.0803
    179 H           6.6075  -17.5147   21.4371 H         1 ILE         0.0345
    180 H           5.8287  -14.7413   20.8861 H         1 ILE         0.0267
    181 H           4.4604  -15.9042   20.9348 H         1 ILE         0.0267
    182 H           5.8732  -17.5427   23.8041 H         1 ILE         0.0235
    183 H           4.4972  -17.6151   22.6517 H         1 ILE         0.0235
    184 H           4.8778  -16.0785   23.5007 H         1 ILE         0.0235
    185 H           5.3686  -15.6808   18.6574 H         1 ILE         0.0230
    186 H           5.6225  -17.3401   19.2967 H         1 ILE         0.0230
    187 H           6.9907  -16.1773   19.2479 H         1 ILE         0.0230
    188 H           7.1347  -13.2885   22.1707 H         1 GLY         0.1881
    189 H           8.1536  -11.6051   20.9570 H         1 GLY         0.0763
    190 H           8.3349  -12.8234   19.6495 H         1 GLY         0.0763
    191 H           9.7413  -12.6242   22.9387 H         1 ALA         0.1883
    192 H          12.3359  -11.7827   21.9334 H         1 ALA         0.0797
    193 H          13.0773  -12.0798   24.2760 H         1 ALA         0.0277
    194 H          11.5157  -12.8725   24.6754 H         1 ALA         0.0277
    195 H          11.5475  -11.1418   24.1956 H         1 ALA         0.0277
    196 H          10.6116  -14.8867   22.6684 H         1 B3Q         0.1856
    197 H          13.4354  -15.7460   21.9627 H         1 B3Q         0.0582
    198 H          12.8997  -17.7646   23.6391 H         1 B3Q         0.0313
    199 H          11.8395  -16.5237   24.3895 H         1 B3Q         0.0313
    200 H          10.7617  -17.1022   21.5877 H         1 B3Q         0.0525
    201 H          12.2495  -18.1015   21.7081 H         1 B3Q         0.0525
    202 H          13.6609  -15.9390   25.5474 H         1 B3Q         0.0503
    203 H          14.1802  -15.1287   24.0307 H         1 B3Q         0.0503
    204 H          15.7997  -18.8588   24.0245 H         1 B3Q         0.1814
    205 H          14.1019  -18.5775   23.8279 H         1 B3Q         0.1814
    206 H          10.5991  -15.5393   19.8067 H         1 LEU         0.1883
    207 H          11.7669  -16.6582   17.4236 H         1 LEU         0.0800
    208 H          10.6651  -14.6821   16.2704 H         1 LEU         0.0315
    209 H          10.0632  -14.1964   17.8917 H         1 LEU         0.0315
    210 H           8.9807  -16.4735   18.0773 H         1 LEU         0.0298
    211 H           7.1011  -15.9077   16.5741 H         1 LEU         0.0232
    212 H           8.1437  -14.7169   15.7246 H         1 LEU         0.0232
    213 H           7.7116  -14.4629   17.4496 H         1 LEU         0.0232
    214 H          10.3945  -17.6372   16.3986 H         1 LEU         0.0232
    215 H           9.6863  -16.6177   15.1004 H         1 LEU         0.0232
    216 H           8.6479  -17.7732   16.0021 H         1 LEU         0.0232
    217 H          12.5539  -13.8359   19.3879 H         1 ARG         0.1883
    218 H          14.1957  -12.5290   17.4016 H         1 ARG         0.0800
    219 H          14.3069  -12.2965   20.4482 H         1 ARG         0.0313
    220 H          13.1034  -11.4473   19.4200 H         1 ARG         0.0313
    221 H          15.3023  -10.6013   18.1863 H         1 ARG         0.0301
    222 H          16.0284  -10.9411   19.7937 H         1 ARG         0.0301
    223 H          13.4007   -9.4345   19.5758 H         1 ARG         0.0689
    224 H          14.9624   -8.5791   19.3396 H         1 ARG         0.0689
    225 H          15.4054   -9.9639   21.6391 H         1 ARG         0.2642
    226 H          12.3966   -7.3114   22.3243 H         1 ARG         0.2615
    227 H          12.6875   -7.8438   20.6466 H         1 ARG         0.2615
    228 H          15.0213   -9.2758   23.6743 H         1 ARG         0.2615
    229 H          13.7042   -8.1242   24.0234 H         1 ARG         0.2615
    230 H          14.7731  -14.8928   20.0937 H         1 HR7         0.1856
    231 H          17.6725  -14.3193   19.3991 H         1 HR7         0.0581
    232 H          18.0840  -15.1165   21.8405 H         1 HR7         0.0290
    233 H          16.3155  -14.9084   22.0765 H         1 HR7         0.0290
    234 H          16.4296  -12.6072   21.9616 H         1 HR7         0.0300
    235 H          17.8584  -12.6206   20.8729 H         1 HR7         0.0300
    236 H          17.7865  -12.3080   23.7246 H         1 HR7         0.0689
    237 H          19.2170  -12.3496   22.6389 H         1 HR7         0.0689
    238 H          18.0478  -14.6472   24.1593 H         1 HR7         0.2642
    239 H          21.7804  -14.6945   22.5631 H         1 HR7         0.2615
    240 H          20.6895  -13.3353   22.1818 H         1 HR7         0.2615
    241 H          19.4352  -16.3523   24.6334 H         1 HR7         0.2615
    242 H          21.0742  -16.3917   23.9301 H         1 HR7         0.2615
    243 H          16.3233  -16.8963   20.3733 H         1 HR7         0.0525
    244 H          18.1036  -16.6572   20.3735 H         1 HR7         0.0525
    245 H          15.2359  -17.2489   18.3431 H         1 MET         0.1883
    246 H          17.1151  -18.6702   16.6935 H         1 MET         0.0800
    247 H          14.7628  -19.3932   17.2676 H         1 MET         0.0320
    248 H          15.3354  -19.6588   15.5859 H         1 MET         0.0320
    249 H          14.1585  -17.5605   14.9403 H         1 MET         0.0378
    250 H          13.4642  -17.5108   16.5963 H         1 MET         0.0378
    251 H          11.3646  -20.7585   16.7538 H         1 MET         0.0340
    252 H          11.8226  -19.2182   17.5565 H         1 MET         0.0340
    253 H          13.0560  -20.4985   17.2995 H         1 MET         0.0340
    254 H          15.5821  -15.5105   16.1979 H         1 ALA         0.1883
    255 H          16.1471  -15.5107   13.3383 H         1 ALA         0.0797
    256 H          15.4835  -13.1087   13.4564 H         1 ALA         0.0277
    257 H          15.4538  -13.2091   15.2496 H         1 ALA         0.0277
    258 H          14.2834  -14.1636   14.2770 H         1 ALA         0.0277
    259 H          17.6939  -14.2897   16.2858 H         1 ASP         0.1884
    260 H          19.5996  -12.6443   14.7413 H         1 ASP         0.0819
    261 H          20.6527  -12.4363   17.1099 H         1 ASP         0.0478
    262 H          19.1472  -13.2307   17.6834 H         1 ASP         0.0478
    263 H          21.9490  -15.9916   17.8606 H         1 B3D         0.0455
    264 H          20.6822  -17.2643   17.8141 H         1 B3D         0.0455
    265 H          22.0919  -15.9453   15.4266 H         1 B3D         0.0599
    266 H          19.0989  -15.9236   15.9587 H         1 B3D         0.1858
    267 H          20.0727  -18.2436   15.4813 H         1 B3D         0.0526
    268 H          21.8493  -18.5024   15.4240 H         1 B3D         0.0526
    269 H          19.0279  -17.2279   13.6696 H         1 LEU         0.1883
    270 H          20.1672  -18.1329   11.2118 H         1 LEU         0.0800
    271 H          17.8128  -16.2574   11.6421 H         1 LEU         0.0315
    272 H          17.7592  -18.0483   11.5130 H         1 LEU         0.0315
    273 H          18.7312  -16.1595    9.3234 H         1 LEU         0.0298
    274 H          18.5973  -18.1919    7.9079 H         1 LEU         0.0232
    275 H          18.1427  -19.1554    9.3541 H         1 LEU         0.0232
    276 H          19.7619  -18.3830    9.2620 H         1 LEU         0.0232
    277 H          16.3155  -15.9011    9.7038 H         1 LEU         0.0232
    278 H          16.1022  -17.6751    9.5189 H         1 LEU         0.0232
    279 H          16.6737  -16.6895    8.1300 H         1 LEU         0.0232
    280 H          19.8409  -14.7560   12.4781 H         1 ASN         0.1885
    281 H          21.0019  -13.6252   10.1127 H         1 ASN         0.0826
    282 H          21.2853  -12.3147   12.8055 H         1 ASN         0.0551
    283 H          19.6753  -12.4808   12.0264 H         1 ASN         0.0551
    284 H          22.2462   -9.5966   10.8885 H         1 ASN         0.1814
    285 H          22.5012  -10.6242   12.2593 H         1 ASN         0.1814
    286 H          26.1022  -13.5704   13.5026 H         1 B3A         0.0253
    287 H          24.6616  -14.0158   14.4787 H         1 B3A         0.0253
    288 H          24.5792  -12.6328   13.3355 H         1 B3A         0.0253
    289 H          24.8676  -14.1733   11.4292 H         1 B3A         0.0578
    290 H          22.4883  -15.1302   13.0635 H         1 B3A         0.1856
    291 H          24.6289  -16.4931   13.3540 H         1 B3A         0.0525
    292 H          26.2301  -15.7551   13.0105 H         1 B3A         0.0525
    293 H          23.5417  -17.6211   11.7028 H         1 GLN         0.1883
    294 H          25.0344  -19.1610    9.9598 H         1 GLN         0.0801
    295 H          22.7482  -19.2139    8.5934 H         1 GLN         0.0337
    296 H          22.1421  -18.3697   10.0586 H         1 GLN         0.0337
    297 H          21.8641  -20.3411   11.0197 H         1 GLN         0.0504
    298 H          23.6452  -20.5719   10.9868 H         1 GLN         0.0504
    299 H          22.0714  -23.4916    9.3169 H         1 GLN         0.1814
    300 H          22.0331  -22.7788   10.8950 H         1 GLN         0.1814
    301 H          23.4793  -16.0321    9.1539 H         1 TYR         0.1878
    302 H          25.0856  -16.0126    6.6329 H         1 TYR         0.0772
    303 O1         24.6931  -13.0669    7.4560 O.co2     1 TYR        -0.4118
    304 H          23.4216  -14.2925    5.8190 H         1 TYR         0.0446
    305 H          22.4283  -14.6593    7.2700 H         1 TYR         0.0446
    306 H          21.2360  -16.7793    7.4472 H         1 TYR         0.0530
    307 H          23.5670  -15.9074    3.9785 H         1 TYR         0.0530
    308 H          20.1616  -18.6560    6.2649 H         1 TYR         0.0525
    309 H          22.4767  -17.7834    2.7837 H         1 TYR         0.0525
    310 H          19.9926  -19.7754    4.4039 H         1 TYR         0.2458
@<TRIPOS>BOND
     1    2    1 1  
     2    3    2 1  
     3    2    5 1  
     4    3    4 2  
     5    6    3 am 
     6    7    6 1  
     7    8    7 1  
     8    7   10 1  
     9    8    9 2  
    10   15    8 am 
    11   10   11 1  
    12   11   12 1  
    13   12   13 ar 
    14   12   14 ar 
    15   16   15 1  
    16   16   17 1  
    17   22   16 1  
    18   17   18 1  
    19   18   19 1  
    20   19   20 ar 
    21   19   21 ar 
    22   23   22 1  
    23   23   24 2  
    24   25   23 am 
    25   26   25 1  
    26   27   26 1  
    27   26   29 1  
    28   27   28 2  
    29   33   27 am 
    30   29   30 1  
    31   29   31 1  
    32   30   32 1  
    33   34   33 1  
    34   35   34 1  
    35   35   36 2  
    36   37   35 am 
    37   38   37 1  
    38   39   38 1  
    39   38   41 1  
    40   39   40 2  
    41   42   39 am 
    42   43   42 1  
    43   43   44 1  
    44   45   43 1  
    45   44   48 1  
    46   46   45 1  
    47   46   47 2  
    48   52   46 am 
    49   48   49 1  
    50   49   50 am 
    51   49   51 2  
    52   53   52 1  
    53   54   53 1  
    54   53   56 1  
    55   54   55 2  
    56   60   54 am 
    57   56   57 1  
    58   57   58 1  
    59   57   59 1  
    60   61   60 1  
    61   62   61 1  
    62   61   64 1  
    63   62   63 2  
    64   71   62 am 
    65   64   65 1  
    66   65   66 1  
    67   66   67 1  
    68   67   68 ar 
    69   68   69 ar 
    70   68   70 ar 
    71   72   71 1  
    72   72   73 1  
    73   82   72 1  
    74   73   74 1  
    75   74   75 1  
    76   75   76 1  
    77   76   77 ar 
    78   77   78 ar 
    79   77   79 ar 
    80   80   81 2  
    81   80   82 1  
    82   83   80 am 
    83   84   83 1  
    84   85   84 1  
    85   84   87 1  
    86   85   86 2  
    87   91   85 am 
    88   87   88 1  
    89   88   89 1  
    90   89   90 1  
    91   92   91 1  
    92   93   92 1  
    93   92   95 1  
    94   93   94 2  
    95   96   93 am 
    96   97   96 1  
    97   98   97 1  
    98   97  100 1  
    99   98   99 2  
   100  109   98 am 
   101  100  101 1  
   102  101  102 ar 
   103  101  103 ar 
   104  105  104 ar 
   105  105  106 ar 
   106  107  105 1  
   107  108  107 1  
   108  108  109 1  
   109  110  108 1  
   110  111  110 1  
   111  111  112 2  
   112  113  111 am 
   113  114  113 1  
   114  115  114 1  
   115  114  117 1  
   116  115  116 2  
   117  121  115 am 
   118  117  118 1  
   119  118  119 1  
   120  118  120 1  
   121  122  121 1  
   122  123  122 1  
   123  122  125 1  
   124  123  124 2  
   125  131  123 am 
   126  125  126 1  
   127  126  127 2  
   128  126  128 am 
   129  130  129 1  
   130  130  131 1  
   131  130  132 1  
   132  132  133 1  
   133  133  134 2  
   134  133  135 am 
   135  135  136 1  
   136  136  137 1  
   137  136  139 1  
   138  137  138 2  
   139  137  144 am 
   140  139  140 1  
   141  140  141 1  
   142  141  142 2  
   143  141  143 am 
   144  144  145 1  
   145  145  146 1  
   146  145  148 1  
   147  146  147 ar 
   148  148  149 1  
   149  149  150 ar 
   150  149  151 ar 
   151  150  152 ar 
   152  151  153 ar 
   153  152  154 ar 
   154  153  154 ar 
   155  154  155 1  
   156    1  156 1  
   157    1  157 1  
   158    1  158 1  
   159    2  159 1  
   160    5  160 1  
   161    5  161 1  
   162    5  162 1  
   163    6  163 1  
   164    7  164 1  
   165   10  165 1  
   166   10  166 1  
   167   11  167 1  
   168   11  168 1  
   169   15  169 1  
   170   16  170 1  
   171   17  171 1  
   172   17  172 1  
   173   18  173 1  
   174   18  174 1  
   175   22  175 1  
   176   22  176 1  
   177   25  177 1  
   178   26  178 1  
   179   29  179 1  
   180   30  180 1  
   181   30  181 1  
   182   31  182 1  
   183   31  183 1  
   184   31  184 1  
   185   32  185 1  
   186   32  186 1  
   187   32  187 1  
   188   33  188 1  
   189   34  189 1  
   190   34  190 1  
   191   37  191 1  
   192   38  192 1  
   193   41  193 1  
   194   41  194 1  
   195   41  195 1  
   196   42  196 1  
   197   43  197 1  
   198   44  198 1  
   199   44  199 1  
   200   45  200 1  
   201   45  201 1  
   202   48  202 1  
   203   48  203 1  
   204   50  204 1  
   205   50  205 1  
   206   52  206 1  
   207   53  207 1  
   208   56  208 1  
   209   56  209 1  
   210   57  210 1  
   211   58  211 1  
   212   58  212 1  
   213   58  213 1  
   214   59  214 1  
   215   59  215 1  
   216   59  216 1  
   217   60  217 1  
   218   61  218 1  
   219   64  219 1  
   220   64  220 1  
   221   65  221 1  
   222   65  222 1  
   223   66  223 1  
   224   66  224 1  
   225   67  225 1  
   226   69  226 1  
   227   69  227 1  
   228   70  228 1  
   229   70  229 1  
   230   71  230 1  
   231   72  231 1  
   232   73  232 1  
   233   73  233 1  
   234   74  234 1  
   235   74  235 1  
   236   75  236 1  
   237   75  237 1  
   238   76  238 1  
   239   78  239 1  
   240   78  240 1  
   241   79  241 1  
   242   79  242 1  
   243   82  243 1  
   244   82  244 1  
   245   83  245 1  
   246   84  246 1  
   247   87  247 1  
   248   87  248 1  
   249   88  249 1  
   250   88  250 1  
   251   90  251 1  
   252   90  252 1  
   253   90  253 1  
   254   91  254 1  
   255   92  255 1  
   256   95  256 1  
   257   95  257 1  
   258   95  258 1  
   259   96  259 1  
   260   97  260 1  
   261  100  261 1  
   262  100  262 1  
   263  107  263 1  
   264  107  264 1  
   265  108  265 1  
   266  109  266 1  
   267  110  267 1  
   268  110  268 1  
   269  113  269 1  
   270  114  270 1  
   271  117  271 1  
   272  117  272 1  
   273  118  273 1  
   274  119  274 1  
   275  119  275 1  
   276  119  276 1  
   277  120  277 1  
   278  120  278 1  
   279  120  279 1  
   280  121  280 1  
   281  122  281 1  
   282  125  282 1  
   283  125  283 1  
   284  128  284 1  
   285  128  285 1  
   286  129  286 1  
   287  129  287 1  
   288  129  288 1  
   289  130  289 1  
   290  131  290 1  
   291  132  291 1  
   292  132  292 1  
   293  135  293 1  
   294  136  294 1  
   295  139  295 1  
   296  139  296 1  
   297  140  297 1  
   298  140  298 1  
   299  143  299 1  
   300  143  300 1  
   301  144  301 1  
   302  145  302 1  
   303  146  303 ar 
   304  148  304 1  
   305  148  305 1  
   306  150  306 1  
   307  151  307 1  
   308  152  308 1  
   309  153  309 1  
   310  155  310 1  
@<TRIPOS>SUBSTRUCTURE
     1 ALA         1

