4bpi_ligand
  -I-interpret- 

313313  0  0  0  0  0  0  0  0999 V2000
    3.6070  -14.0430   24.7350 N   0  3  0  0  0
    3.2160  -13.1520   23.6420 C   0  0  0  0  0
    4.3440  -12.1790   23.2800 C   0  0  0  0  0
    4.9970  -12.3230   22.2420 O   0  0  0  0  0
    1.9490  -12.3960   24.0030 C   0  0  0  0  0
    4.5640  -11.1760   24.1270 N   0  0  0  0  0
    5.7800  -10.3830   24.0210 C   0  0  0  0  0
    6.8800  -11.3980   24.3110 C   0  0  0  0  0
    7.9410  -11.4020   23.6740 O   0  0  0  0  0
    5.7870   -9.2490   25.0480 C   0  0  0  0  0
    4.5580   -8.3580   25.0050 C   0  0  0  0  0
    3.6730   -8.5260   26.2250 C   0  0  0  0  0
    4.1260   -9.1500   27.2080 O   0  0  0  0  0
    2.5250   -8.0340   26.2010 O   0  0  0  0  0
    6.5730  -12.2840   25.2600 N   0  0  0  0  0
    7.8480  -12.7260   25.8160 C   0  0  0  0  0
    7.9790  -12.1280   27.2190 C   0  0  0  0  0
    9.3950  -11.7700   27.6390 C   0  0  0  0  0
    9.9010  -10.4270   27.1340 C   0  0  0  0  0
   11.1370  -10.2920   27.0420 O   0  0  0  0  0
    9.1010   -9.5110   26.8330 O   0  0  0  0  0
    7.9510  -14.2570   25.8540 C   0  0  0  0  0
    8.2690  -14.8830   24.4940 C   0  0  0  0  0
    9.4310  -15.1010   24.1550 O   0  0  0  0  0
    7.2440  -15.1770   23.7050 N   0  0  0  0  0
    7.4960  -15.8310   22.4310 C   0  0  0  0  0
    8.1340  -14.8750   21.4160 C   0  0  0  0  0
    8.9100  -15.2930   20.5610 O   0  0  0  0  0
    6.2490  -16.5810   21.8950 C   0  0  0  0  0
    5.5470  -15.8010   20.7980 C   0  0  0  0  0
    5.3070  -16.9830   23.0450 C   0  0  0  0  0
    5.9070  -16.2830   19.4040 C   0  0  0  0  0
    7.8380  -13.5860   21.5250 N   0  0  0  0  0
    8.5320  -12.6080   20.7100 C   0  0  0  0  0
   10.0410  -12.6410   20.9500 C   0  0  0  0  0
   10.8470  -12.7000   20.0110 O   0  0  0  0  0
   10.4290  -12.6030   22.2130 N   0  0  0  0  0
   11.8360  -12.5310   22.5660 C   0  0  0  0  0
   12.4350  -13.8950   22.3010 C   0  0  0  0  0
   13.6200  -14.0190   21.9690 O   0  0  0  0  0
   12.0060  -12.1280   24.0310 C   0  0  0  0  0
   11.5960  -14.9120   22.4940 N   0  0  0  0  0
   12.4740  -16.0710   22.3870 C   0  0  0  0  0
   12.7320  -16.6850   23.7670 C   0  0  0  0  0
   11.8540  -17.1060   21.4580 C   0  0  0  0  0
   12.1900  -16.7810   20.0040 C   0  0  0  0  0
   13.2000  -17.2580   19.4950 O   0  0  0  0  0
   13.9360  -16.0960   24.4940 C   0  0  0  0  0
   15.1790  -16.9750   24.4500 C   0  0  0  0  0
   15.0130  -18.2430   24.0690 N   0  0  0  0  0
   16.2840  -16.5200   24.7560 O   0  0  0  0  0
   11.3730  -15.9640   19.3370 N   0  0  0  0  0
   11.6080  -15.6880   17.9170 C   0  0  0  0  0
   12.8710  -14.8540   17.6760 C   0  0  0  0  0
   13.6030  -15.0750   16.6950 O   0  0  0  0  0
   10.3780  -15.0460   17.2680 C   0  0  0  0  0
    9.1820  -15.9940   17.1080 C   0  0  0  0  0
    7.9500  -15.2170   16.6850 C   0  0  0  0  0
    9.5000  -17.0820   16.0800 C   0  0  0  0  0
   13.1320  -13.9060   18.5750 N   0  0  0  0  0
   14.2340  -12.9690   18.4090 C   0  0  0  0  0
   15.5490  -13.7140   18.5910 C   0  0  0  0  0
   16.5060  -13.5060   17.8400 O   0  0  0  0  0
   14.1240  -11.8560   19.4570 C   0  0  0  0  0
   15.0920  -10.7240   19.2590 C   0  0  0  0  0
   14.4760   -9.4480   19.8070 C   0  0  0  0  0
   14.6570   -9.3850   21.2320 N   0  0  0  0  0
   13.9400   -8.6430   22.0660 C   0  0  0  0  0
   12.9310   -7.8740   21.6470 N   0  0  0  0  0
   14.2440   -8.6840   23.3480 N   0  0  0  0  0
   15.5870  -14.5400   19.6320 N   0  0  0  0  0
   16.9580  -14.8740   20.0250 C   0  0  0  0  0
   17.1910  -14.5700   21.5030 C   0  0  0  0  0
   17.4000  -13.0840   21.7590 C   0  0  0  0  0
   18.3200  -12.8970   22.9640 C   0  0  0  0  0
   18.7400  -14.1680   23.5660 N   0  0  0  0  0
   19.9260  -14.7700   23.4260 C   0  0  0  0  0
   20.8690  -14.2260   22.6670 N   0  0  0  0  0
   20.1630  -15.9250   24.0430 N   0  0  0  0  0
   17.2190  -16.8160   18.4160 C   0  0  0  0  0
   18.2510  -16.6980   17.7560 O   0  0  0  0  0
   17.1600  -16.3780   19.8820 C   0  0  0  0  0
   16.1200  -17.3250   17.8820 N   0  0  0  0  0
   16.2470  -18.0020   16.5940 C   0  0  0  0  0
   16.5680  -17.0840   15.3910 C   0  0  0  0  0
   17.2740  -17.5100   14.4660 O   0  0  0  0  0
   15.0440  -18.8990   16.3260 C   0  0  0  0  0
   13.8560  -18.1680   15.8060 C   0  0  0  0  0
   12.5650  -19.3100   15.2990 S   0  0  0  0  0
   12.1640  -20.0130   16.8770 C   0  0  0  0  0
   16.0920  -15.8370   15.4020 N   0  0  0  0  0
   16.3060  -14.9430   14.2670 C   0  0  0  0  0
   17.7200  -14.3860   14.2670 C   0  0  0  0  0
   18.3620  -14.2480   13.2090 O   0  0  0  0  0
   15.3110  -13.7730   14.3160 C   0  0  0  0  0
   18.2060  -14.0570   15.4590 N   0  0  0  0  0
   19.4810  -13.3590   15.5690 C   0  0  0  0  0
   20.5180  -14.4570   15.4700 C   0  0  0  0  0
   21.6870  -14.2200   15.1620 O   0  0  0  0  0
   19.5890  -12.6100   16.8900 C   0  0  0  0  0
   18.8670  -11.2590   16.8660 C   0  0  0  0  0
   18.4260  -10.8050   15.7880 O   0  0  0  0  0
   18.7570  -10.6370   17.9390 O   0  0  0  0  0
   23.6910  -17.6800   16.6360 O   0  0  0  0  0
   22.6580  -17.9440   17.2890 C   0  0  0  0  0
   22.4460  -19.0100   17.9040 O   0  0  0  0  0
   21.5820  -16.8740   17.3160 C   0  0  0  0  0
   21.2490  -16.4900   15.8770 C   0  0  0  0  0
   20.0490  -15.6550   15.8000 N   0  0  0  0  0
   21.0330  -17.8140   15.1600 C   0  0  0  0  0
   21.0120  -17.6270   13.6660 C   0  0  0  0  0
   22.0560  -17.7160   13.0260 O   0  0  0  0  0
   19.8410  -17.3480   13.1000 N   0  0  0  0  0
   19.7390  -17.2160   11.6430 C   0  0  0  0  0
   20.5590  -16.0340   11.0850 C   0  0  0  0  0
   21.2980  -16.1930   10.1160 O   0  0  0  0  0
   18.2810  -17.1390   11.1800 C   0  0  0  0  0
   18.1400  -17.0250    9.6570 C   0  0  0  0  0
   18.6990  -18.2750    9.0000 C   0  0  0  0  0
   16.7110  -16.8080    9.2230 C   0  0  0  0  0
   20.4450  -14.8600   11.6880 N   0  0  0  0  0
   21.2100  -13.7160   11.1890 C   0  0  0  0  0
   22.7150  -13.9400   11.3430 C   0  0  0  0  0
   23.5110  -13.4740   10.5240 O   0  0  0  0  0
   20.7590  -12.4260   11.8460 C   0  0  0  0  0
   21.0480  -11.2170   10.9910 C   0  0  0  0  0
   20.3970  -10.9990    9.9650 O   0  0  0  0  0
   22.0100  -10.4140   11.4140 N   0  0  0  0  0
   25.0040  -13.6330   13.5060 C   0  0  0  0  0
   24.5470  -14.5720   12.4030 C   0  0  0  0  0
   23.0770  -14.6530   12.4110 N   0  0  0  0  0
   25.2160  -15.9230   12.6190 C   0  0  0  0  0
   25.3170  -16.7360   11.3430 C   0  0  0  0  0
   26.3040  -16.6180   10.6250 O   0  0  0  0  0
   24.3060  -17.5580   11.0610 N   0  0  0  0  0
   24.2760  -18.3730    9.8420 C   0  0  0  0  0
   24.6240  -17.5850    8.5670 C   0  0  0  0  0
   25.3430  -18.0950    7.7120 O   0  0  0  0  0
   22.9120  -19.0520    9.6690 C   0  0  0  0  0
   22.7520  -20.3870   10.3720 C   0  0  0  0  0
   22.5850  -21.5370    9.3970 C   0  0  0  0  0
   22.7980  -21.3820    8.1950 O   0  0  0  0  0
   22.1980  -22.6980    9.9120 N   0  0  0  0  0
   24.1070  -16.3580    8.4470 N   0  0  0  0  0
   24.4220  -15.4660    7.3190 C   0  0  0  0  0
   25.1490  -14.1960    7.7800 C   0  0  0  0  0
   26.1760  -14.2650    8.4650 O   0  0  0  0  0
   23.1520  -15.0690    6.5500 C   0  0  0  0  0
   22.4850  -16.2100    5.8050 C   0  0  0  0  0
   21.5180  -16.9950    6.4230 C   0  0  0  0  0
   22.8190  -16.5050    4.4870 C   0  0  0  0  0
   20.9040  -18.0510    5.7570 C   0  0  0  0  0
   22.2030  -17.5620    3.8090 C   0  0  0  0  0
   21.2420  -18.3250    4.4520 C   0  0  0  0  0
   20.6160  -19.3710    3.8120 O   0  0  0  0  0
   24.6931  -13.0669    7.4560 O   0  0  0  0  0
    4.4581  -14.5424   24.4770 H   0  0  0  0  0
    3.7763  -13.4925   25.5768 H   0  0  0  0  0
    2.8581  -14.7130   24.9103 H   0  0  0  0  0
    3.0179  -13.7664   22.7637 H   0  0  0  0  0
    2.1446  -11.7491   24.8582 H   0  0  0  0  0
    1.6336  -11.7911   23.1528 H   0  0  0  0  0
    1.1627  -13.1072   24.2561 H   0  0  0  0  0
    3.8789  -10.9626   24.8520 H   0  0  0  0  0
    5.8933   -9.8964   23.0523 H   0  0  0  0  0
    6.6476   -8.6188   24.8236 H   0  0  0  0  0
    5.8135   -9.7108   26.0350 H   0  0  0  0  0
    3.9744   -8.6337   24.1267 H   0  0  0  0  0
    4.8956   -7.3220   24.9756 H   0  0  0  0  0
    5.0207   -9.4406   27.0165 H   0  0  0  0  0
    5.6406  -12.5892   25.5391 H   0  0  0  0  0
    8.6645  -12.3817   25.1813 H   0  0  0  0  0
    7.6276  -12.8875   27.9174 H   0  0  0  0  0
    7.4081  -11.1995   27.2184 H   0  0  0  0  0
   10.0493  -12.5309   27.2134 H   0  0  0  0  0
    9.3938  -11.7145   28.7276 H   0  0  0  0  0
    8.2012   -9.8145   26.9737 H   0  0  0  0  0
    6.9825  -14.6421   26.1729 H   0  0  0  0  0
    8.7662  -14.5133   26.5306 H   0  0  0  0  0
    6.2914  -14.9473   23.9883 H   0  0  0  0  0
    8.2380  -16.6103   22.6047 H   0  0  0  0  0
    6.5884  -17.5067   21.4302 H   0  0  0  0  0
    5.8581  -14.7595   20.8799 H   0  0  0  0  0
    4.4734  -15.9364   20.9292 H   0  0  0  0  0
    5.8381  -17.6377   23.7360 H   0  0  0  0  0
    4.9765  -16.0879   23.5720 H   0  0  0  0  0
    4.4421  -17.5069   22.6382 H   0  0  0  0  0
    6.9810  -16.1777   19.2506 H   0  0  0  0  0
    5.6246  -17.3305   19.2989 H   0  0  0  0  0
    5.3729  -15.6855   18.6652 H   0  0  0  0  0
    7.1207  -13.2825   22.1836 H   0  0  0  0  0
    8.1637  -11.6168   20.9747 H   0  0  0  0  0
    8.3458  -12.8404   19.6615 H   0  0  0  0  0
    9.7275  -12.6246   22.9532 H   0  0  0  0  0
   12.3450  -11.7731   21.9706 H   0  0  0  0  0
   11.5512  -11.1507   24.1928 H   0  0  0  0  0
   11.5197  -12.8665   24.6684 H   0  0  0  0  0
   13.0678  -12.0805   24.2726 H   0  0  0  0  0
   10.5920  -14.8862   22.6719 H   0  0  0  0  0
   13.4291  -15.7468   21.9737 H   0  0  0  0  0
   12.9331  -17.7456   23.6160 H   0  0  0  0  0
   11.8538  -16.4822   24.3799 H   0  0  0  0  0
   10.7714  -17.0948   21.5844 H   0  0  0  0  0
   12.2530  -18.0900   21.7043 H   0  0  0  0  0
   13.6571  -15.9835   25.5417 H   0  0  0  0  0
   14.1859  -15.1584   23.9975 H   0  0  0  0  0
   15.8154  -18.8711   24.0235 H   0  0  0  0  0
   14.0837  -18.5842   23.8232 H   0  0  0  0  0
   10.5836  -15.5308   19.8161 H   0  0  0  0  0
   11.7809  -16.6503   17.4352 H   0  0  0  0  0
   10.6719  -14.7285   16.2676 H   0  0  0  0  0
   10.0583  -14.2333   17.9203 H   0  0  0  0  0
    8.9835  -16.4696   18.0685 H   0  0  0  0  0
    7.7149  -14.4702   17.4433 H   0  0  0  0  0
    8.1432  -14.7220   15.7333 H   0  0  0  0  0
    7.1096  -15.9024   16.5754 H   0  0  0  0  0
    9.7184  -16.6184   15.1180 H   0  0  0  0  0
   10.3657  -17.6538   16.4141 H   0  0  0  0  0
    8.6416  -17.7460   15.9783 H   0  0  0  0  0
   12.5423  -13.8345   19.4042 H   0  0  0  0  0
   14.1958  -12.5274   17.4132 H   0  0  0  0  0
   14.3471  -12.3036   20.4255 H   0  0  0  0  0
   13.1205  -11.4380   19.3775 H   0  0  0  0  0
   15.3056  -10.6034   18.1970 H   0  0  0  0  0
   16.0226  -10.9389   19.7842 H   0  0  0  0  0
   13.4097   -9.4395   19.5809 H   0  0  0  0  0
   14.9631   -8.5887   19.3460 H   0  0  0  0  0
   15.3981   -9.9583   21.6351 H   0  0  0  0  0
   12.3985   -7.3209   22.3184 H   0  0  0  0  0
   12.6932   -7.8401   20.6557 H   0  0  0  0  0
   15.0105   -9.2739   23.6718 H   0  0  0  0  0
   14.7568  -14.8998   20.1029 H   0  0  0  0  0
   17.6332  -14.2934   19.3964 H   0  0  0  0  0
   18.0902  -15.0983   21.8200 H   0  0  0  0  0
   16.3085  -14.8887   22.0578 H   0  0  0  0  0
   16.4383  -12.6121   21.9604 H   0  0  0  0  0
   17.8548  -12.6254   20.8810 H   0  0  0  0  0
   17.7687  -12.3373   23.7196 H   0  0  0  0  0
   19.2159  -12.3793   22.6212 H   0  0  0  0  0
   18.0545  -14.6426   24.1536 H   0  0  0  0  0
   20.6912  -13.3440   22.1865 H   0  0  0  0  0
   21.0654  -16.3872   23.9312 H   0  0  0  0  0
   19.4423  -16.3481   24.6277 H   0  0  0  0  0
   16.3148  -16.8803   20.3526 H   0  0  0  0  0
   18.1077  -16.6395   20.3528 H   0  0  0  0  0
   15.2182  -17.2474   18.3523 H   0  0  0  0  0
   17.1363  -18.6251   16.6893 H   0  0  0  0  0
   14.7578  -19.3524   17.2750 H   0  0  0  0  0
   15.3398  -19.6223   15.5661 H   0  0  0  0  0
   14.1601  -17.5788   14.9408 H   0  0  0  0  0
   13.4653  -17.5291   16.5980 H   0  0  0  0  0
   13.0487  -20.4937   17.2946 H   0  0  0  0  0
   11.8259  -19.2244   17.5493 H   0  0  0  0  0
   11.3718  -20.7514   16.7536 H   0  0  0  0  0
   15.5719  -15.5040   16.2138 H   0  0  0  0  0
   16.1526  -15.5232   13.3571 H   0  0  0  0  0
   14.2933  -14.1614   14.2774 H   0  0  0  0  0
   15.4535  -13.2151   15.2415 H   0  0  0  0  0
   15.4830  -13.1156   13.4638 H   0  0  0  0  0
   17.6837  -14.2943   16.3024 H   0  0  0  0  0
   19.6071  -12.6012   14.7957 H   0  0  0  0  0
   20.6453  -12.4211   17.0816 H   0  0  0  0  0
   19.1238  -13.2239   17.6612 H   0  0  0  0  0
   18.6078  -11.4287   15.0812 H   0  0  0  0  0
   23.6133  -16.8010   16.2579 H   0  0  0  0  0
   21.9379  -16.0006   17.8625 H   0  0  0  0  0
   20.6912  -17.2532   17.8167 H   0  0  0  0  0
   22.0465  -15.8983   15.4276 H   0  0  0  0  0
   19.0799  -15.9290   15.9618 H   0  0  0  0  0
   20.0737  -18.2265   15.4726 H   0  0  0  0  0
   21.8527  -18.4856   15.4151 H   0  0  0  0  0
   19.0117  -17.2255   13.6810 H   0  0  0  0  0
   20.1780  -18.1245   11.2307 H   0  0  0  0  0
   17.8394  -16.2457   11.6218 H   0  0  0  0  0
   17.7852  -18.0585   11.4911 H   0  0  0  0  0
   18.7060  -16.1491    9.3399 H   0  0  0  0  0
   19.7521  -18.3808    9.2605 H   0  0  0  0  0
   18.1470  -19.1466    9.3517 H   0  0  0  0  0
   18.5976  -18.1915    7.9179 H   0  0  0  0  0
   16.1003  -17.6476    9.5551 H   0  0  0  0  0
   16.3344  -15.8857    9.6653 H   0  0  0  0  0
   16.6698  -16.7346    8.1363 H   0  0  0  0  0
   19.8288  -14.7540   12.4939 H   0  0  0  0  0
   21.0098  -13.6218   10.1217 H   0  0  0  0  0
   21.3038  -12.3154   12.7836 H   0  0  0  0  0
   19.6812  -12.4828   11.9984 H   0  0  0  0  0
   22.2412   -9.5727   10.8857 H   0  0  0  0  0
   22.5208  -10.6360   12.2685 H   0  0  0  0  0
   24.5824  -12.6423   13.3359 H   0  0  0  0  0
   24.6641  -14.0134   14.4693 H   0  0  0  0  0
   26.0923  -13.5718   13.5016 H   0  0  0  0  0
   24.8383  -14.2068   11.4182 H   0  0  0  0  0
   22.4765  -15.1397   13.0765 H   0  0  0  0  0
   24.6104  -16.4870   13.3284 H   0  0  0  0  0
   26.2278  -15.7415   12.9814 H   0  0  0  0  0
   23.5264  -17.6223   11.7156 H   0  0  0  0  0
   25.0517  -19.1271    9.9751 H   0  0  0  0  0
   22.7958  -19.2471    8.6029 H   0  0  0  0  0
   22.1736  -18.3805   10.1071 H   0  0  0  0  0
   21.8565  -20.3370   10.9914 H   0  0  0  0  0
   23.6526  -20.5697   10.9582 H   0  0  0  0  0
   22.0660  -23.5067    9.3046 H   0  0  0  0  0
   22.0327  -22.7812   10.9151 H   0  0  0  0  0
   23.4667  -16.0255    9.1680 H   0  0  0  0  0
   25.0832  -16.0264    6.6580 H   0  0  0  0  0
   23.4482  -14.3311    5.8044 H   0  0  0  0  0
   22.4343  -14.7055    7.2855 H   0  0  0  0  0
   21.2345  -16.7781    7.4529 H   0  0  0  0  0
   23.5711  -15.9041    3.9757 H   0  0  0  0  0
   20.1575  -18.6593    6.2677 H   0  0  0  0  0
   22.4782  -17.7846    2.7781 H   0  0  0  0  0
   20.9503  -19.4419    2.9149 H   0  0  0  0  0
   23.8989  -13.1829    6.9293 H   0  0  0  0  0
  2  1  1  0  0  0
  3  2  1  0  0  0
  2  5  1  0  0  0
  3  4  2  0  0  0
  6  3  1  0  0  0
  7  6  1  0  0  0
  8  7  1  0  0  0
  7 10  1  0  0  0
  8  9  2  0  0  0
 15  8  1  0  0  0
 10 11  1  0  0  0
 11 12  1  0  0  0
 12 13  1  0  0  0
 12 14  2  0  0  0
 16 15  1  0  0  0
 16 17  1  0  0  0
 22 16  1  0  0  0
 17 18  1  0  0  0
 18 19  1  0  0  0
 19 20  2  0  0  0
 19 21  1  0  0  0
 23 22  1  0  0  0
 23 24  2  0  0  0
 25 23  1  0  0  0
 26 25  1  0  0  0
 27 26  1  0  0  0
 26 29  1  0  0  0
 27 28  2  0  0  0
 33 27  1  0  0  0
 29 30  1  0  0  0
 29 31  1  0  0  0
 30 32  1  0  0  0
 34 33  1  0  0  0
 35 34  1  0  0  0
 35 36  2  0  0  0
 37 35  1  0  0  0
 38 37  1  0  0  0
 39 38  1  0  0  0
 38 41  1  0  0  0
 39 40  2  0  0  0
 42 39  1  0  0  0
 43 42  1  0  0  0
 43 44  1  0  0  0
 45 43  1  0  0  0
 44 48  1  0  0  0
 46 45  1  0  0  0
 46 47  2  0  0  0
 52 46  1  0  0  0
 48 49  1  0  0  0
 49 50  1  0  0  0
 49 51  2  0  0  0
 53 52  1  0  0  0
 54 53  1  0  0  0
 53 56  1  0  0  0
 54 55  2  0  0  0
 60 54  1  0  0  0
 56 57  1  0  0  0
 57 58  1  0  0  0
 57 59  1  0  0  0
 61 60  1  0  0  0
 62 61  1  0  0  0
 61 64  1  0  0  0
 62 63  2  0  0  0
 71 62  1  0  0  0
 64 65  1  0  0  0
 65 66  1  0  0  0
 66 67  1  0  0  0
 67 68  1  0  0  0
 68 69  1  0  0  0
 68 70  2  0  0  0
 72 71  1  0  0  0
 72 73  1  0  0  0
 82 72  1  0  0  0
 73 74  1  0  0  0
 74 75  1  0  0  0
 75 76  1  0  0  0
 76 77  1  0  0  0
 77 78  2  0  0  0
 77 79  1  0  0  0
 80 81  2  0  0  0
 80 82  1  0  0  0
 83 80  1  0  0  0
 84 83  1  0  0  0
 85 84  1  0  0  0
 84 87  1  0  0  0
 85 86  2  0  0  0
 91 85  1  0  0  0
 87 88  1  0  0  0
 88 89  1  0  0  0
 89 90  1  0  0  0
 92 91  1  0  0  0
 93 92  1  0  0  0
 92 95  1  0  0  0
 93 94  2  0  0  0
 96 93  1  0  0  0
 97 96  1  0  0  0
 98 97  1  0  0  0
 97100  1  0  0  0
 98 99  2  0  0  0
109 98  1  0  0  0
100101  1  0  0  0
101102  1  0  0  0
101103  2  0  0  0
105104  1  0  0  0
105106  2  0  0  0
107105  1  0  0  0
108107  1  0  0  0
108109  1  0  0  0
110108  1  0  0  0
111110  1  0  0  0
111112  2  0  0  0
113111  1  0  0  0
114113  1  0  0  0
115114  1  0  0  0
114117  1  0  0  0
115116  2  0  0  0
121115  1  0  0  0
117118  1  0  0  0
118119  1  0  0  0
118120  1  0  0  0
122121  1  0  0  0
123122  1  0  0  0
122125  1  0  0  0
123124  2  0  0  0
131123  1  0  0  0
125126  1  0  0  0
126127  2  0  0  0
126128  1  0  0  0
130129  1  0  0  0
130131  1  0  0  0
130132  1  0  0  0
132133  1  0  0  0
133134  2  0  0  0
133135  1  0  0  0
135136  1  0  0  0
136137  1  0  0  0
136139  1  0  0  0
137138  2  0  0  0
137144  1  0  0  0
139140  1  0  0  0
140141  1  0  0  0
141142  2  0  0  0
141143  1  0  0  0
144145  1  0  0  0
145146  1  0  0  0
145148  1  0  0  0
146147  2  0  0  0
148149  1  0  0  0
149150  4  0  0  0
149151  4  0  0  0
150152  4  0  0  0
151153  4  0  0  0
152154  4  0  0  0
153154  4  0  0  0
154155  1  0  0  0
146156  1  0  0  0
  1157  1  0  0  0
  1158  1  0  0  0
  1159  1  0  0  0
  2160  1  0  0  0
  5161  1  0  0  0
  5162  1  0  0  0
  5163  1  0  0  0
  6164  1  0  0  0
  7165  1  0  0  0
 10166  1  0  0  0
 10167  1  0  0  0
 11168  1  0  0  0
 11169  1  0  0  0
 13170  1  0  0  0
 15171  1  0  0  0
 16172  1  0  0  0
 17173  1  0  0  0
 17174  1  0  0  0
 18175  1  0  0  0
 18176  1  0  0  0
 21177  1  0  0  0
 22178  1  0  0  0
 22179  1  0  0  0
 25180  1  0  0  0
 26181  1  0  0  0
 29182  1  0  0  0
 30183  1  0  0  0
 30184  1  0  0  0
 31185  1  0  0  0
 31186  1  0  0  0
 31187  1  0  0  0
 32188  1  0  0  0
 32189  1  0  0  0
 32190  1  0  0  0
 33191  1  0  0  0
 34192  1  0  0  0
 34193  1  0  0  0
 37194  1  0  0  0
 38195  1  0  0  0
 41196  1  0  0  0
 41197  1  0  0  0
 41198  1  0  0  0
 42199  1  0  0  0
 43200  1  0  0  0
 44201  1  0  0  0
 44202  1  0  0  0
 45203  1  0  0  0
 45204  1  0  0  0
 48205  1  0  0  0
 48206  1  0  0  0
 50207  1  0  0  0
 50208  1  0  0  0
 52209  1  0  0  0
 53210  1  0  0  0
 56211  1  0  0  0
 56212  1  0  0  0
 57213  1  0  0  0
 58214  1  0  0  0
 58215  1  0  0  0
 58216  1  0  0  0
 59217  1  0  0  0
 59218  1  0  0  0
 59219  1  0  0  0
 60220  1  0  0  0
 61221  1  0  0  0
 64222  1  0  0  0
 64223  1  0  0  0
 65224  1  0  0  0
 65225  1  0  0  0
 66226  1  0  0  0
 66227  1  0  0  0
 67228  1  0  0  0
 69229  1  0  0  0
 69230  1  0  0  0
 70231  1  0  0  0
 71232  1  0  0  0
 72233  1  0  0  0
 73234  1  0  0  0
 73235  1  0  0  0
 74236  1  0  0  0
 74237  1  0  0  0
 75238  1  0  0  0
 75239  1  0  0  0
 76240  1  0  0  0
 78241  1  0  0  0
 79242  1  0  0  0
 79243  1  0  0  0
 82244  1  0  0  0
 82245  1  0  0  0
 83246  1  0  0  0
 84247  1  0  0  0
 87248  1  0  0  0
 87249  1  0  0  0
 88250  1  0  0  0
 88251  1  0  0  0
 90252  1  0  0  0
 90253  1  0  0  0
 90254  1  0  0  0
 91255  1  0  0  0
 92256  1  0  0  0
 95257  1  0  0  0
 95258  1  0  0  0
 95259  1  0  0  0
 96260  1  0  0  0
 97261  1  0  0  0
100262  1  0  0  0
100263  1  0  0  0
102264  1  0  0  0
104265  1  0  0  0
107266  1  0  0  0
107267  1  0  0  0
108268  1  0  0  0
109269  1  0  0  0
110270  1  0  0  0
110271  1  0  0  0
113272  1  0  0  0
114273  1  0  0  0
117274  1  0  0  0
117275  1  0  0  0
118276  1  0  0  0
119277  1  0  0  0
119278  1  0  0  0
119279  1  0  0  0
120280  1  0  0  0
120281  1  0  0  0
120282  1  0  0  0
121283  1  0  0  0
122284  1  0  0  0
125285  1  0  0  0
125286  1  0  0  0
128287  1  0  0  0
128288  1  0  0  0
129289  1  0  0  0
129290  1  0  0  0
129291  1  0  0  0
130292  1  0  0  0
131293  1  0  0  0
132294  1  0  0  0
132295  1  0  0  0
135296  1  0  0  0
136297  1  0  0  0
139298  1  0  0  0
139299  1  0  0  0
140300  1  0  0  0
140301  1  0  0  0
143302  1  0  0  0
143303  1  0  0  0
144304  1  0  0  0
145305  1  0  0  0
148306  1  0  0  0
148307  1  0  0  0
150308  1  0  0  0
151309  1  0  0  0
152310  1  0  0  0
153311  1  0  0  0
155312  1  0  0  0
156313  1  0  0  0
M  END
$$$$
