5fsb_ligand
  -I-interpret- 

 29 29  0  0  0  0  0  0  0  0999 V2000
  -27.4670   -1.6850   53.3920 O   0  0  0  0  0
  -27.0000   -2.1350   54.6750 C   0  0  0  0  0
  -25.5910   -2.7300   54.4990 C   0  0  0  0  0
  -25.5580   -3.5850   53.4480 O   0  0  0  0  0
  -24.5880   -1.6040   54.4530 C   0  0  0  0  0
  -23.3090   -2.2300   54.3570 O   0  0  0  0  0
  -22.5410   -1.9480   53.2300 C   0  0  0  0  0
  -27.0460   -1.0430   55.6860 C   0  0  0  0  0
  -28.4020   -0.4170   55.6180 C   0  0  0  0  0
  -25.9980   -0.0670   55.6220 O   0  0  0  0  0
  -24.7740   -0.8020   55.7030 C   0  0  0  0  0
  -23.4150    0.6020   55.7980 Se  0  0  0  0  0
  -23.7800    1.4490   54.2450 C   0  0  0  0  0
  -27.4247   -2.4106   52.7648 H   0  0  0  0  0
  -27.6591   -2.9126   55.0611 H   0  0  0  0  0
  -25.3123   -3.3489   55.3519 H   0  0  0  0  0
  -26.2279   -4.2623   53.5667 H   0  0  0  0  0
  -24.7008   -0.9200   53.6118 H   0  0  0  0  0
  -23.0829   -2.2568   52.3361 H   0  0  0  0  0
  -22.3438   -0.8769   53.1850 H   0  0  0  0  0
  -21.5974   -2.4903   53.2899 H   0  0  0  0  0
  -26.8631   -1.5048   56.6562 H   0  0  0  0  0
  -28.5258    0.2705   56.4547 H   0  0  0  0  0
  -28.5022    0.1288   54.6798 H   0  0  0  0  0
  -29.1632   -1.1955   55.6700 H   0  0  0  0  0
  -24.7371   -1.4954   56.5432 H   0  0  0  0  0
  -23.6542    0.7536   53.4151 H   0  0  0  0  0
  -24.8074    1.8125   54.2636 H   0  0  0  0  0
  -23.0978    2.2902   54.1224 H   0  0  0  0  0
  1  2  1  0  0  0
  2  3  1  0  0  0
  2  8  1  0  0  0
  3  4  1  0  0  0
  3  5  1  0  0  0
  5  6  1  0  0  0
  5 11  1  0  0  0
  6  7  1  0  0  0
  8  9  1  0  0  0
  8 10  1  0  0  0
 10 11  1  0  0  0
 11 12  1  0  0  0
 12 13  1  0  0  0
  1 14  1  0  0  0
  2 15  1  0  0  0
  3 16  1  0  0  0
  4 17  1  0  0  0
  5 18  1  0  0  0
  7 19  1  0  0  0
  7 20  1  0  0  0
  7 21  1  0  0  0
  8 22  1  0  0  0
  9 23  1  0  0  0
  9 24  1  0  0  0
  9 25  1  0  0  0
 11 26  1  0  0  0
 13 27  1  0  0  0
 13 28  1  0  0  0
 13 29  1  0  0  0
M  END
$$$$
