6fky_ligand
  -I-interpret- 

162165  0  0  0  0  0  0  0  0999 V2000
   32.8660   23.7820    9.8280 O   0  0  0  0  0
   31.7690   24.3510    9.8940 C   0  0  0  0  0
   31.5160   25.4850   10.8600 C   0  0  0  0  0
   32.5250   25.2890   11.9370 N   0  0  0  0  0
   32.6710   26.1400   12.9640 C   0  0  0  0  0
   32.0290   27.1740   13.1180 O   0  0  0  0  0
   33.6370   25.7630   13.8740 C   0  0  0  0  0
   34.6950   24.9780   13.4420 C   0  0  0  0  0
   35.6740   24.5790   14.3290 C   0  0  0  0  0
   35.5710   24.9790   15.6540 C   0  0  0  0  0
   34.5110   25.7640   16.0920 C   0  0  0  0  0
   33.5340   26.1580   15.1950 C   0  0  0  0  0
   30.7280   24.0030    9.1490 N   0  0  0  0  0
   30.7980   22.8560    8.2780 C   0  0  0  0  0
   31.6080   23.1730    7.0320 C   0  0  0  0  0
   31.2400   24.0170    6.2280 O   0  0  0  0  0
   29.4010   22.3550    7.8850 C   0  0  0  0  0
   29.5170   21.0920    7.0430 C   0  0  0  0  0
   28.5710   22.0910    9.1300 C   0  0  0  0  0
   32.7290   22.4830    6.9010 N   0  0  0  0  0
   33.5810   22.5930    5.7370 C   0  0  0  0  0
   32.8320   22.0720    4.5210 C   0  0  0  0  0
   32.1240   21.0730    4.5990 O   0  0  0  0  0
   34.8310   21.7520    5.9610 C   0  0  0  0  0
   36.1670   22.3960    5.6190 C   0  0  0  0  0
   36.5050   23.4950    6.6110 C   0  0  0  0  0
   37.2500   21.3330    5.6190 C   0  0  0  0  0
   33.0000   22.7550    3.3950 N   0  0  0  0  0
   32.3130   22.4110    2.1550 C   0  0  0  0  0
   32.9070   21.1390    1.5080 C   0  0  0  0  0
   34.0770   21.1030    1.1180 O   0  0  0  0  0
   32.4320   23.5910    1.2060 C   0  0  0  0  0
   32.0790   23.1690   -0.2080 C   0  0  0  0  0
   31.5890   24.4000   -0.9600 C   0  0  0  0  0
   30.8040   23.9340   -2.1710 C   0  0  0  0  0
   31.5750   24.1450   -3.4000 N   0  0  0  0  0
   32.0660   20.1100    1.4270 N   0  0  0  0  0
   32.4070   18.7920    0.8860 C   0  0  0  0  0
   33.0430   17.9440    1.9830 C   0  0  0  0  0
   33.5920   16.8730    1.7240 O   0  0  0  0  0
   33.3080   18.9010   -0.3420 C   0  0  0  0  0
   32.5850   19.3860   -1.5950 C   0  0  0  0  0
   31.7360   18.3190   -2.2730 C   0  0  0  0  0
   30.9050   18.6880   -3.1320 O   0  0  0  0  0
   31.8940   17.1190   -1.9590 O   0  0  0  0  0
   32.9280   18.4320    3.2180 N   0  0  0  0  0
   33.5670   17.8140    4.3680 C   0  0  0  0  0
   35.0860   17.9390    4.2380 C   0  0  0  0  0
   35.8330   17.1900    4.8620 O   0  0  0  0  0
   33.1640   16.3470    4.4780 C   0  0  0  0  0
   31.6710   16.0990    4.6000 C   0  0  0  0  0
   30.9060   16.7740    5.5410 C   0  0  0  0  0
   31.0330   15.1670    3.7920 C   0  0  0  0  0
   29.5460   16.5390    5.6640 C   0  0  0  0  0
   29.6780   14.9240    3.9080 C   0  0  0  0  0
   28.9400   15.6110    4.8460 C   0  0  0  0  0
   27.5920   15.3700    4.9740 O   0  0  0  0  0
   35.5330   18.8960    3.4260 N   0  0  0  0  0
   36.9560   19.0920    3.1580 C   0  0  0  0  0
   37.5030   18.1220    2.1210 C   0  0  0  0  0
   38.7150   17.9070    2.0440 O   0  0  0  0  0
   36.6110   17.5490    1.3140 N   0  0  0  0  0
   36.9700   16.4770    0.3780 C   0  0  0  0  0
   38.2240   15.7450    0.8330 C   0  0  0  0  0
   38.2570   14.5160    0.8550 O   0  0  0  0  0
   37.1980   16.9950   -1.0580 C   0  0  0  0  0
   37.9330   15.9480   -1.8850 C   0  0  0  0  0
   35.8740   17.3520   -1.7220 C   0  0  0  0  0
   39.2210   16.3730    1.1850 O   0  0  0  0  0
   30.9530   24.5920   -4.4950 C   0  0  0  0  0
   29.7460   24.8450   -4.5280 O   0  0  0  0  0
   31.8340   24.7720   -5.7290 C   0  0  0  0  0
   30.9710   25.3960   -6.8270 C   0  0  0  0  0
   31.5230   26.7770   -7.1600 C   0  0  0  0  0
   31.2640   27.2290   -8.2860 O   0  0  0  0  0
   32.1700   27.3600   -6.2660 O   0  0  0  0  0
   29.2840   25.5880   -6.2520 S   0  0  0  0  0
   28.5340   23.9090   -6.4410 C   0  0  0  0  0
   27.7110   23.7370   -7.5720 C   0  0  0  0  0
   26.7800   24.7040   -7.9590 C   0  0  0  0  0
   25.9680   24.5290   -9.0830 C   0  0  0  0  0
   26.0810   23.3710   -9.8260 C   0  0  0  0  0
   27.0080   22.4010   -9.4430 C   0  0  0  0  0
   27.8190   22.5750   -8.3240 C   0  0  0  0  0
   30.4972   25.4723   11.2473 H   0  0  0  0  0
   31.6136   26.4593   10.3810 H   0  0  0  0  0
   33.1326   24.4710   11.8921 H   0  0  0  0  0
   34.7538   24.6745   12.3967 H   0  0  0  0  0
   36.5097   23.9633   13.9963 H   0  0  0  0  0
   36.3371   24.6712   16.3657 H   0  0  0  0  0
   34.4497   26.0678   17.1370 H   0  0  0  0  0
   32.6952   26.7709   15.5250 H   0  0  0  0  0
   29.8696   24.5522    9.1927 H   0  0  0  0  0
   31.2972   22.0608    8.8317 H   0  0  0  0  0
   28.9024   23.1225    7.2930 H   0  0  0  0  0
   30.0871   21.3100    6.1399 H   0  0  0  0  0
   30.0266   20.3190    7.6181 H   0  0  0  0  0
   28.5201   20.7459    6.7702 H   0  0  0  0  0
   29.0642   21.3344    9.7402 H   0  0  0  0  0
   28.4728   23.0136    9.7020 H   0  0  0  0  0
   27.5827   21.7362    8.8377 H   0  0  0  0  0
   33.0036   21.8481    7.6506 H   0  0  0  0  0
   33.8607   23.6338    5.5743 H   0  0  0  0  0
   34.7354   20.8936    5.2961 H   0  0  0  0  0
   34.8644   21.5474    7.0311 H   0  0  0  0  0
   36.1011   22.8470    4.6289 H   0  0  0  0  0
   35.7283   24.2592    6.5832 H   0  0  0  0  0
   36.5645   23.0719    7.6138 H   0  0  0  0  0
   37.4640   23.9399    6.3456 H   0  0  0  0  0
   37.3071   20.8743    6.6061 H   0  0  0  0  0
   37.0102   20.5718    4.8766 H   0  0  0  0  0
   38.2079   21.7920    5.3743 H   0  0  0  0  0
   33.6354   23.5529    3.3970 H   0  0  0  0  0
   31.2662   22.1982    2.3717 H   0  0  0  0  0
   33.4584   23.9575    1.2217 H   0  0  0  0  0
   31.7446   24.3744    1.5251 H   0  0  0  0  0
   31.3013   22.4055   -0.1894 H   0  0  0  0  0
   32.9537   22.7486   -0.7043 H   0  0  0  0  0
   32.4365   25.0091   -1.2744 H   0  0  0  0  0
   30.9551   25.0066   -0.3132 H   0  0  0  0  0
   29.8784   24.5062   -2.2328 H   0  0  0  0  0
   30.5922   22.8700   -2.0659 H   0  0  0  0  0
   31.1144   20.2496    1.7666 H   0  0  0  0  0
   31.4930   18.3019    0.5505 H   0  0  0  0  0
   33.6912   17.9028   -0.5537 H   0  0  0  0  0
   34.0844   19.6305   -0.1118 H   0  0  0  0  0
   33.3482   19.6940   -2.3097 H   0  0  0  0  0
   31.9130   20.1882   -1.2902 H   0  0  0  0  0
   30.9427   19.6430   -3.2226 H   0  0  0  0  0
   32.3691   19.2730    3.3619 H   0  0  0  0  0
   33.2414   18.3262    5.2734 H   0  0  0  0  0
   33.6223   15.9623    5.3890 H   0  0  0  0  0
   33.4895   15.8615    3.5580 H   0  0  0  0  0
   31.3841   17.5027    6.1956 H   0  0  0  0  0
   31.6129   14.6162    3.0515 H   0  0  0  0  0
   28.9596   17.0848    6.4031 H   0  0  0  0  0
   29.1954   14.1921    3.2603 H   0  0  0  0  0
   27.3255   14.7027    4.3374 H   0  0  0  0  0
   34.8579   19.5138    2.9754 H   0  0  0  0  0
   37.4963   18.9229    4.0894 H   0  0  0  0  0
   37.0853   20.1022    2.7695 H   0  0  0  0  0
   35.6425   17.8672    1.3480 H   0  0  0  0  0
   36.1207   15.7939    0.3705 H   0  0  0  0  0
   37.8085   17.8963   -1.0027 H   0  0  0  0  0
   38.8978   15.7350   -1.4247 H   0  0  0  0  0
   37.3385   15.0353   -1.9247 H   0  0  0  0  0
   38.0868   16.3272   -2.8953 H   0  0  0  0  0
   35.2397   16.4665   -1.7641 H   0  0  0  0  0
   35.3764   18.1296   -1.1425 H   0  0  0  0  0
   36.0619   17.7143   -2.7327 H   0  0  0  0  0
   39.0462   17.3143    1.1146 H   0  0  0  0  0
   32.2297   23.8108   -6.0569 H   0  0  0  0  0
   32.6822   25.4171   -5.4996 H   0  0  0  0  0
   30.9867   24.7488   -7.7039 H   0  0  0  0  0
   32.2277   26.7935   -5.4931 H   0  0  0  0  0
   27.8999   23.7519   -5.5685 H   0  0  0  0  0
   29.3624   23.2091   -6.5502 H   0  0  0  0  0
   26.6846   25.6165   -7.3705 H   0  0  0  0  0
   25.2524   25.2994   -9.3702 H   0  0  0  0  0
   25.4525   23.2160  -10.7029 H   0  0  0  0  0
   27.0994   21.4882  -10.0317 H   0  0  0  0  0
   28.5345   21.8031   -8.0403 H   0  0  0  0  0
  1  2  2  0  0  0
  2  3  1  0  0  0
  2 13  1  0  0  0
  3  4  1  0  0  0
  4  5  1  0  0  0
  5  6  2  0  0  0
  5  7  1  0  0  0
  7  8  4  0  0  0
  7 12  4  0  0  0
  8  9  4  0  0  0
  9 10  4  0  0  0
 10 11  4  0  0  0
 11 12  4  0  0  0
 13 14  1  0  0  0
 14 15  1  0  0  0
 14 17  1  0  0  0
 15 16  2  0  0  0
 15 20  1  0  0  0
 17 18  1  0  0  0
 17 19  1  0  0  0
 20 21  1  0  0  0
 21 22  1  0  0  0
 21 24  1  0  0  0
 22 23  2  0  0  0
 22 28  1  0  0  0
 24 25  1  0  0  0
 25 26  1  0  0  0
 25 27  1  0  0  0
 28 29  1  0  0  0
 29 30  1  0  0  0
 29 32  1  0  0  0
 30 31  2  0  0  0
 30 37  1  0  0  0
 32 33  1  0  0  0
 33 34  1  0  0  0
 34 35  1  0  0  0
 35 36  1  0  0  0
 36 70  2  0  0  0
 37 38  1  0  0  0
 38 39  1  0  0  0
 38 41  1  0  0  0
 39 40  2  0  0  0
 39 46  1  0  0  0
 41 42  1  0  0  0
 42 43  1  0  0  0
 43 44  1  0  0  0
 43 45  2  0  0  0
 46 47  1  0  0  0
 47 48  1  0  0  0
 47 50  1  0  0  0
 48 49  2  0  0  0
 48 58  1  0  0  0
 50 51  1  0  0  0
 51 52  4  0  0  0
 51 53  4  0  0  0
 52 54  4  0  0  0
 53 55  4  0  0  0
 54 56  4  0  0  0
 55 56  4  0  0  0
 56 57  1  0  0  0
 58 59  1  0  0  0
 59 60  1  0  0  0
 60 61  2  0  0  0
 60 62  1  0  0  0
 62 63  1  0  0  0
 63 64  1  0  0  0
 63 66  1  0  0  0
 64 65  2  0  0  0
 64 69  1  0  0  0
 66 67  1  0  0  0
 66 68  1  0  0  0
 70 71  1  0  0  0
 70 72  1  0  0  0
 71 77  1  0  0  0
 72 73  1  0  0  0
 73 74  1  0  0  0
 73 77  1  0  0  0
 74 75  2  0  0  0
 74 76  1  0  0  0
 77 78  1  0  0  0
 78 79  1  0  0  0
 79 80  4  0  0  0
 79 84  4  0  0  0
 80 81  4  0  0  0
 81 82  4  0  0  0
 82 83  4  0  0  0
 83 84  4  0  0  0
  3 85  1  0  0  0
  3 86  1  0  0  0
  4 87  1  0  0  0
  8 88  1  0  0  0
  9 89  1  0  0  0
 10 90  1  0  0  0
 11 91  1  0  0  0
 12 92  1  0  0  0
 13 93  1  0  0  0
 14 94  1  0  0  0
 17 95  1  0  0  0
 18 96  1  0  0  0
 18 97  1  0  0  0
 18 98  1  0  0  0
 19 99  1  0  0  0
 19100  1  0  0  0
 19101  1  0  0  0
 20102  1  0  0  0
 21103  1  0  0  0
 24104  1  0  0  0
 24105  1  0  0  0
 25106  1  0  0  0
 26107  1  0  0  0
 26108  1  0  0  0
 26109  1  0  0  0
 27110  1  0  0  0
 27111  1  0  0  0
 27112  1  0  0  0
 28113  1  0  0  0
 29114  1  0  0  0
 32115  1  0  0  0
 32116  1  0  0  0
 33117  1  0  0  0
 33118  1  0  0  0
 34119  1  0  0  0
 34120  1  0  0  0
 35121  1  0  0  0
 35122  1  0  0  0
 37123  1  0  0  0
 38124  1  0  0  0
 41125  1  0  0  0
 41126  1  0  0  0
 42127  1  0  0  0
 42128  1  0  0  0
 44129  1  0  0  0
 46130  1  0  0  0
 47131  1  0  0  0
 50132  1  0  0  0
 50133  1  0  0  0
 52134  1  0  0  0
 53135  1  0  0  0
 54136  1  0  0  0
 55137  1  0  0  0
 57138  1  0  0  0
 58139  1  0  0  0
 59140  1  0  0  0
 59141  1  0  0  0
 62142  1  0  0  0
 63143  1  0  0  0
 66144  1  0  0  0
 67145  1  0  0  0
 67146  1  0  0  0
 67147  1  0  0  0
 68148  1  0  0  0
 68149  1  0  0  0
 68150  1  0  0  0
 69151  1  0  0  0
 72152  1  0  0  0
 72153  1  0  0  0
 73154  1  0  0  0
 76155  1  0  0  0
 78156  1  0  0  0
 78157  1  0  0  0
 80158  1  0  0  0
 81159  1  0  0  0
 82160  1  0  0  0
 83161  1  0  0  0
 84162  1  0  0  0
M  END
$$$$
