### 
### Created by X-TOOL on Wed Jan  1 15:39:37 2020
### 

@<TRIPOS>MOLECULE
6fky_ligand
  159   162     1     0     0
SMALL
GAST_HUCK


@<TRIPOS>ATOM
      1 O          32.8660   23.7820    9.8280 O.2       1 GZB        -0.3947
      2 C          31.7690   24.3510    9.8940 C.2       1 GZB         0.2007
      3 CA         31.5160   25.4850   10.8600 C.3       1 GZB         0.1197
      4 N          32.5250   25.2890   11.9370 N.am      1 GZB        -0.2676
      5 CAE        32.6710   26.1400   12.9640 C.2       1 GZB         0.2070
      6 OAF        32.0290   27.1740   13.1180 O.2       1 GZB        -0.3845
      7 CAG        33.6370   25.7630   13.8740 C.ar      1 GZB         0.0500
      8 CAH        34.6950   24.9780   13.4420 C.ar      1 GZB        -0.0419
      9 CAI        35.6740   24.5790   14.3290 C.ar      1 GZB        -0.0562
     10 CAJ        35.5710   24.9790   15.6540 C.ar      1 GZB        -0.0575
     11 CAK        34.5110   25.7640   16.0920 C.ar      1 GZB        -0.0562
     12 CAL        33.5340   26.1580   15.1950 C.ar      1 GZB        -0.0419
     13 N          30.7280   24.0030    9.1490 N.am      1 VAL        -0.2637
     14 CA         30.7980   22.8560    8.2780 C.3       1 VAL         0.1332
     15 C          31.6080   23.1730    7.0320 C.2       1 VAL         0.2041
     16 O          31.2400   24.0170    6.2280 O.2       1 VAL        -0.3944
     17 CB         29.4010   22.3550    7.8850 C.3       1 VAL        -0.0063
     18 CG1        29.5170   21.0920    7.0430 C.3       1 VAL        -0.0584
     19 CG2        28.5710   22.0910    9.1300 C.3       1 VAL        -0.0584
     20 N          32.7290   22.4830    6.9010 N.am      1 LEU        -0.2637
     21 CA         33.5810   22.5930    5.7370 C.3       1 LEU         0.1312
     22 C          32.8320   22.0720    4.5210 C.2       1 LEU         0.2039
     23 O          32.1240   21.0730    4.5990 O.2       1 LEU        -0.3944
     24 CB         34.8310   21.7520    5.9610 C.3       1 LEU        -0.0101
     25 CG         36.1670   22.3960    5.6190 C.3       1 LEU        -0.0425
     26 CD1        36.5050   23.4950    6.6110 C.3       1 LEU        -0.0625
     27 CD2        37.2500   21.3330    5.6190 C.3       1 LEU        -0.0625
     28 N          33.0000   22.7550    3.3950 N.am      1 LYS        -0.2637
     29 CA         32.3130   22.4110    2.1550 C.3       1 LYS         0.1310
     30 C          32.9070   21.1390    1.5080 C.2       1 LYS         0.2039
     31 O          34.0770   21.1030    1.1180 O.2       1 LYS        -0.3944
     32 CB         32.4320   23.5910    1.2060 C.3       1 LYS        -0.0123
     33 CG         32.0790   23.1690   -0.2080 C.3       1 LYS        -0.0464
     34 CD         31.5890   24.4000   -0.9600 C.3       1 LYS        -0.0230
     35 CE         30.8040   23.9340   -2.1710 C.3       1 LYS         0.0953
     36 NZ         31.5750   24.1450   -3.4000 N.2       1 LYS        -0.1113
     37 N          32.0660   20.1100    1.4270 N.am      1 GLU        -0.2636
     38 CA         32.4070   18.7920    0.8860 C.3       1 GLU         0.1325
     39 C          33.0430   17.9440    1.9830 C.2       1 GLU         0.2041
     40 O          33.5920   16.8730    1.7240 O.2       1 GLU        -0.3944
     41 CB         33.3080   18.9010   -0.3420 C.3       1 GLU        -0.0008
     42 CG         32.5850   19.3860   -1.5950 C.3       1 GLU         0.0044
     43 CD         31.7360   18.3190   -2.2730 C.2       1 GLU         0.0350
     44 OE1        30.9050   18.6880   -3.1320 O.co2     1 GLU        -0.5690
     45 OE2        31.8940   17.1190   -1.9590 O.co2     1 GLU        -0.5690
     46 N          32.9280   18.4320    3.2180 N.am      1 TYR        -0.2621
     47 CA         33.5670   17.8140    4.3680 C.3       1 TYR         0.1390
     48 C          35.0860   17.9390    4.2380 C.2       1 TYR         0.2055
     49 O          35.8330   17.1900    4.8620 O.2       1 TYR        -0.3942
     50 CB         33.1640   16.3470    4.4780 C.3       1 TYR         0.0163
     51 CG         31.6710   16.0990    4.6000 C.ar      1 TYR        -0.0493
     52 CD1        30.9060   16.7740    5.5410 C.ar      1 TYR        -0.0685
     53 CD2        31.0330   15.1670    3.7920 C.ar      1 TYR        -0.0685
     54 CE1        29.5460   16.5390    5.6640 C.ar      1 TYR        -0.0398
     55 CE2        29.6780   14.9240    3.9080 C.ar      1 TYR        -0.0398
     56 CZ         28.9400   15.6110    4.8460 C.ar      1 TYR         0.0805
     57 OH         27.5920   15.3700    4.9740 O.3       1 TYR        -0.3376
     58 N          35.5330   18.8960    3.4260 N.am      1 GLY        -0.2663
     59 CA         36.9560   19.0920    3.1580 C.3       1 GLY         0.1201
     60 C          37.5030   18.1220    2.1210 C.2       1 GLY         0.2002
     61 O          38.7150   17.9070    2.0440 O.2       1 GLY        -0.3947
     62 N          36.6110   17.5490    1.3140 N.am      1 VAL        -0.2695
     63 CA         36.9700   16.4770    0.3780 C.3       1 VAL         0.0966
     64 C          38.2240   15.7450    0.8330 C.2       1 VAL         0.0603
     65 O          38.2570   14.5160    0.8550 O.co2     1 VAL        -0.5666
     66 CB         37.1980   16.9950   -1.0580 C.3       1 VAL        -0.0118
     67 CG1        37.9330   15.9480   -1.8850 C.3       1 VAL        -0.0590
     68 CG2        35.8740   17.3520   -1.7220 C.3       1 VAL        -0.0590
     69 OXT        39.2210   16.3730    1.1850 O.co2     1 VAL        -0.5666
     70 CAJ        30.9530   24.5920   -4.4950 C.2       1 E9N         0.3606
     71 OAL        29.7460   24.8450   -4.5280 O.3       1 E9N        -0.1020
     72 CAK        31.8340   24.7720   -5.7290 C.3       1 E9N         0.1291
     73 CAM        30.9710   25.3960   -6.8270 C.3       1 E9N         0.1300
     74 CAN        31.5230   26.7770   -7.1600 C.2       1 E9N         0.0582
     75 OAP        31.2640   27.2290   -8.2860 O.co2     1 E9N        -0.5671
     76 OAO        32.1700   27.3600   -6.2660 O.co2     1 E9N        -0.5671
     77 SAQ        29.2840   25.5880   -6.2520 S.3       1 E9N         0.0591
     78 CAR        28.5340   23.9090   -6.4410 C.3       1 E9N         0.0676
     79 CAW        27.7110   23.7370   -7.5720 C.ar      1 E9N        -0.0284
     80 CAV        26.7800   24.7040   -7.9590 C.ar      1 E9N        -0.0593
     81 CAU        25.9680   24.5290   -9.0830 C.ar      1 E9N        -0.0685
     82 CAT        26.0810   23.3710   -9.8260 C.ar      1 E9N        -0.0687
     83 CAS        27.0080   22.4010   -9.4430 C.ar      1 E9N        -0.0685
     84 CAX        27.8190   22.5750   -8.3240 C.ar      1 E9N        -0.0593
     85 H1         30.4960   25.4282   11.2678 H         1 GZB         0.0763
     86 H2         31.6594   26.4568   10.3650 H         1 GZB         0.0763
     87 H3         33.1207   24.4870   11.8930 H         1 GZB         0.1874
     88 H4         34.7535   24.6762   12.4025 H         1 GZB         0.0669
     89 H5         36.5051   23.9667   13.9982 H         1 GZB         0.0629
     90 H6         36.3329   24.6729   16.3617 H         1 GZB         0.0653
     91 H7         34.4500   26.0661   17.1313 H         1 GZB         0.0629
     92 H8         32.6999   26.7676   15.5232 H         1 GZB         0.0669
     93 H9         29.8864   24.5414    9.1919 H         1 VAL         0.1883
     94 H10        31.3082   22.0484    8.8234 H         1 VAL         0.0802
     95 H11        28.9018   23.1320    7.2875 H         1 VAL         0.0343
     96 H12        28.5114   20.7417    6.7670 H         1 VAL         0.0234
     97 H13        30.0311   20.3110    7.6224 H         1 VAL         0.0234
     98 H14        30.0921   21.3107    6.1312 H         1 VAL         0.0234
     99 H15        28.4985   23.0135    9.7247 H         1 VAL         0.0234
    100 H16        29.0509   21.3043    9.7307 H         1 VAL         0.0234
    101 H17        27.5627   21.7641    8.8360 H         1 VAL         0.0234
    102 H18        32.9982   21.8605    7.6359 H         1 LEU         0.1883
    103 H19        33.8627   23.6443    5.5778 H         1 LEU         0.0800
    104 H20        34.7340   20.8435    5.3484 H         1 LEU         0.0315
    105 H21        34.8587   21.4754    7.0253 H         1 LEU         0.0315
    106 H22        36.1013   22.8381    4.6139 H         1 LEU         0.0298
    107 H23        37.4727   23.9449    6.3442 H         1 LEU         0.0232
    108 H24        36.5654   23.0693    7.6235 H         1 LEU         0.0232
    109 H25        35.7219   24.2670    6.5839 H         1 LEU         0.0232
    110 H26        36.9906   20.5453    4.8963 H         1 LEU         0.0232
    111 H27        37.3338   20.8949    6.6245 H         1 LEU         0.0232
    112 H28        38.2106   21.7882    5.3361 H         1 LEU         0.0232
    113 H29        33.6230   23.5373    3.3970 H         1 LYS         0.1883
    114 H30        31.2506   22.2281    2.3739 H         1 LYS         0.0800
    115 H31        33.4650   23.9685    1.2245 H         1 LYS         0.0312
    116 H32        31.7449   24.3869    1.5291 H         1 LYS         0.0312
    117 H33        31.2860   22.4071   -0.1829 H         1 LYS         0.0268
    118 H34        32.9682   22.7565   -0.7071 H         1 LYS         0.0268
    119 H35        32.4485   25.0052   -1.2838 H         1 LYS         0.0292
    120 H36        30.9417   25.0027   -0.3060 H         1 LYS         0.0292
    121 H37        29.8639   24.5018   -2.2325 H         1 LYS         0.0632
    122 H38        30.5790   22.8625   -2.0652 H         1 LYS         0.0632
    123 H39        31.1330   20.2469    1.7599 H         1 GLU         0.1883
    124 H40        31.4747   18.3000    0.5719 H         1 GLU         0.0801
    125 H41        33.7332   17.9080   -0.5495 H         1 GLU         0.0330
    126 H42        34.1200   19.6074   -0.1148 H         1 GLU         0.0330
    127 H43        33.3387   19.7372   -2.3151 H         1 GLU         0.0433
    128 H44        31.9288   20.2227   -1.3136 H         1 GLU         0.0433
    129 H45        32.3800   19.2565    3.3591 H         1 TYR         0.1885
    130 H46        33.2431   18.3382    5.2792 H         1 TYR         0.0821
    131 H47        33.6539   15.9243    5.3676 H         1 TYR         0.0453
    132 H48        33.5240   15.8259    3.5787 H         1 TYR         0.0453
    133 H49        31.3814   17.4987    6.1920 H         1 TYR         0.0530
    134 H50        31.6097   14.6192    3.0555 H         1 TYR         0.0530
    135 H51        28.9628   17.0818    6.3990 H         1 TYR         0.0525
    136 H52        29.1981   14.1961    3.2638 H         1 TYR         0.0525
    137 H53        27.2365   15.9222    5.6604 H         1 TYR         0.2458
    138 H54        34.8712   19.5017    2.9842 H         1 GLY         0.1881
    139 H55        37.5123   18.9526    4.0966 H         1 GLY         0.0763
    140 H56        37.1060   20.1184    2.7918 H         1 GLY         0.0763
    141 H57        35.6615   17.8610    1.3473 H         1 VAL         0.1875
    142 H58        36.1363   15.7597    0.3561 H         1 VAL         0.0729
    143 H59        37.8187   17.9017   -1.0072 H         1 VAL         0.0336
    144 H60        38.0888   16.3295   -2.9049 H         1 VAL         0.0234
    145 H61        37.3340   15.0263   -1.9259 H         1 VAL         0.0234
    146 H62        38.9070   15.7321   -1.4215 H         1 VAL         0.0234
    147 H63        35.3524   18.1080   -1.1167 H         1 VAL         0.0234
    148 H64        35.2486   16.4505   -1.8012 H         1 VAL         0.0234
    149 H65        36.0650   17.7553   -2.7274 H         1 VAL         0.0234
    150 H66        32.2167   23.7960   -6.0621 H         1 LYS         0.0809
    151 H67        32.6786   25.4360   -5.4931 H         1 LYS         0.0809
    152 H68        30.9892   24.7563   -7.7216 H         1 LYS         0.0695
    153 H69        27.9273   23.7059   -5.5462 H         1 LYS         0.0590
    154 H70        29.3527   23.1769   -6.5029 H         1 LYS         0.0590
    155 H71        26.6851   25.6115   -7.3737 H         1 LYS         0.0557
    156 H72        25.2563   25.2952   -9.3686 H         1 LYS         0.0599
    157 H73        25.4559   23.2169  -10.6981 H         1 LYS         0.0559
    158 H74        27.0989   21.4932  -10.0284 H         1 LYS         0.0599
    159 H75        28.5305   21.8074   -8.0419 H         1 LYS         0.0557
@<TRIPOS>BOND
     1    1    2 2  
     2    2    3 1  
     3    2   13 am 
     4    3    4 1  
     5    4    5 am 
     6    5    6 2  
     7    5    7 1  
     8    7    8 ar 
     9    7   12 ar 
    10    8    9 ar 
    11    9   10 ar 
    12   10   11 ar 
    13   11   12 ar 
    14   13   14 1  
    15   14   15 1  
    16   14   17 1  
    17   15   16 2  
    18   15   20 am 
    19   17   18 1  
    20   17   19 1  
    21   20   21 1  
    22   21   22 1  
    23   21   24 1  
    24   22   23 2  
    25   22   28 am 
    26   24   25 1  
    27   25   26 1  
    28   25   27 1  
    29   28   29 1  
    30   29   30 1  
    31   29   32 1  
    32   30   31 2  
    33   30   37 am 
    34   32   33 1  
    35   33   34 1  
    36   34   35 1  
    37   35   36 1  
    38   36   70 2  
    39   37   38 1  
    40   38   39 1  
    41   38   41 1  
    42   39   40 2  
    43   39   46 am 
    44   41   42 1  
    45   42   43 1  
    46   43   44 ar 
    47   43   45 ar 
    48   46   47 1  
    49   47   48 1  
    50   47   50 1  
    51   48   49 2  
    52   48   58 am 
    53   50   51 1  
    54   51   52 ar 
    55   51   53 ar 
    56   52   54 ar 
    57   53   55 ar 
    58   54   56 ar 
    59   55   56 ar 
    60   56   57 1  
    61   58   59 1  
    62   59   60 1  
    63   60   61 2  
    64   60   62 am 
    65   62   63 1  
    66   63   64 1  
    67   63   66 1  
    68   64   65 ar 
    69   64   69 ar 
    70   66   67 1  
    71   66   68 1  
    72   70   71 1  
    73   70   72 1  
    74   71   77 1  
    75   72   73 1  
    76   73   74 1  
    77   73   77 1  
    78   74   75 ar 
    79   74   76 ar 
    80   77   78 1  
    81   78   79 1  
    82   79   80 ar 
    83   79   84 ar 
    84   80   81 ar 
    85   81   82 ar 
    86   82   83 ar 
    87   83   84 ar 
    88    3   85 1  
    89    3   86 1  
    90    4   87 1  
    91    8   88 1  
    92    9   89 1  
    93   10   90 1  
    94   11   91 1  
    95   12   92 1  
    96   13   93 1  
    97   14   94 1  
    98   17   95 1  
    99   18   96 1  
   100   18   97 1  
   101   18   98 1  
   102   19   99 1  
   103   19  100 1  
   104   19  101 1  
   105   20  102 1  
   106   21  103 1  
   107   24  104 1  
   108   24  105 1  
   109   25  106 1  
   110   26  107 1  
   111   26  108 1  
   112   26  109 1  
   113   27  110 1  
   114   27  111 1  
   115   27  112 1  
   116   28  113 1  
   117   29  114 1  
   118   32  115 1  
   119   32  116 1  
   120   33  117 1  
   121   33  118 1  
   122   34  119 1  
   123   34  120 1  
   124   35  121 1  
   125   35  122 1  
   126   37  123 1  
   127   38  124 1  
   128   41  125 1  
   129   41  126 1  
   130   42  127 1  
   131   42  128 1  
   132   46  129 1  
   133   47  130 1  
   134   50  131 1  
   135   50  132 1  
   136   52  133 1  
   137   53  134 1  
   138   54  135 1  
   139   55  136 1  
   140   57  137 1  
   141   58  138 1  
   142   59  139 1  
   143   59  140 1  
   144   62  141 1  
   145   63  142 1  
   146   66  143 1  
   147   67  144 1  
   148   67  145 1  
   149   67  146 1  
   150   68  147 1  
   151   68  148 1  
   152   68  149 1  
   153   72  150 1  
   154   72  151 1  
   155   73  152 1  
   156   78  153 1  
   157   78  154 1  
   158   80  155 1  
   159   81  156 1  
   160   82  157 1  
   161   83  158 1  
   162   84  159 1  
@<TRIPOS>SUBSTRUCTURE
     1 GZB         1

