2bqw_ligand
  -I-interpret- 

 62 65  0  0  0  0  0  0  0  0999 V2000
    3.3080   10.3150   25.1190 C   0  0  0  0  0
    4.3610    9.2950   25.1870 C   0  0  0  0  0
    4.8340    8.6550   23.9310 C   0  0  0  0  0
    4.2640    9.0330   22.6300 C   0  0  0  0  0
    3.2350   10.0650   22.5880 C   0  0  0  0  0
    2.7490   10.7040   23.8140 C   0  0  0  0  0
    5.7610    7.6690   23.6630 N   0  0  0  0  0
    5.7980    7.4410   22.3590 C   0  0  0  0  0
    4.8910    8.2390   21.6710 C   0  0  0  0  0
    6.7300    6.6690   21.7310 C   0  0  0  0  0
    6.2790    5.9310   20.7060 N   0  0  0  0  0
    7.2490    4.9750   20.1930 C   0  0  0  0  0
    6.6140    3.5920   20.3280 C   0  0  0  0  0
    7.4960    2.5350   19.6990 C   0  0  0  0  0
    7.7350    2.8910   18.2770 N   0  3  0  0  0
    8.4670    4.1860   18.1620 C   0  0  0  0  0
    7.5780    5.2820   18.7280 C   0  0  0  0  0
    8.3450    1.7110   17.6080 C   0  0  0  0  0
    9.7140    1.3050   18.2200 C   0  0  0  0  0
    8.4930    2.0220   16.1240 C   0  0  0  0  0
    6.5940    7.0300   24.6770 C   0  0  0  0  0
    7.7290    7.9920   24.9440 C   0  0  0  0  0
   10.3430    7.1570   27.4100 C   0  0  0  0  0
   11.7850    7.1400   27.6250 C   0  0  0  0  0
    9.7700    7.6550   26.1670 C   0  0  0  0  0
   12.6660    7.6150   26.5700 C   0  0  0  0  0
   12.1000    8.1340   25.3290 C   0  0  0  0  0
   10.6680    8.1520   25.1310 C   0  0  0  0  0
    8.4270    7.5680   26.0170 N   0  0  0  0  0
    7.9420    8.9770   24.2280 O   0  0  0  0  0
   14.3360    7.5000   26.7280 Cl  0  0  0  0  0
    7.9000    6.6950   22.1320 O   0  0  0  0  0
    2.9409   10.7832   26.0323 H   0  0  0  0  0
    4.7913    9.0099   26.1470 H   0  0  0  0  0
    2.8194   10.3669   21.6267 H   0  0  0  0  0
    1.9732   11.4677   23.7595 H   0  0  0  0  0
    4.7070    8.2430   20.5967 H   0  0  0  0  0
    5.3400    6.0308   20.3204 H   0  0  0  0  0
    8.1852    5.0268   20.7489 H   0  0  0  0  0
    5.6502    3.5954   19.8189 H   0  0  0  0  0
    6.4896    3.3631   21.3864 H   0  0  0  0  0
    7.0056    1.5633   19.7580 H   0  0  0  0  0
    8.4462    2.4842   20.2306 H   0  0  0  0  0
    6.8694    3.0842   17.7733 H   0  0  0  0  0
    8.7017    4.3938   17.1180 H   0  0  0  0  0
    9.4044    4.1385   18.7162 H   0  0  0  0  0
    8.0991    6.2374   18.6672 H   0  0  0  0  0
    6.6535    5.3306   18.1526 H   0  0  0  0  0
    7.6855    0.8565   17.7593 H   0  0  0  0  0
   10.4129    2.1363   18.1273 H   0  0  0  0  0
    9.5805    1.0566   19.2729 H   0  0  0  0  0
   10.1058    0.4382   17.6877 H   0  0  0  0  0
    7.5111    2.2268   15.6973 H   0  0  0  0  0
    9.1341    2.8947   15.9991 H   0  0  0  0  0
    8.9394    1.1662   15.6175 H   0  0  0  0  0
    6.9653    6.0643   24.3341 H   0  0  0  0  0
    6.0264    6.8249   25.5847 H   0  0  0  0  0
    9.6812    6.7900   28.1945 H   0  0  0  0  0
   12.1979    6.7755   28.5656 H   0  0  0  0  0
   12.7602    8.5100   24.5474 H   0  0  0  0  0
   10.2561    8.5403   24.1995 H   0  0  0  0  0
    7.8985    7.1459   26.7805 H   0  0  0  0  0
  2  1  4  0  0  0
  1  6  4  0  0  0
  3  2  4  0  0  0
  3  4  4  0  0  0
  7  3  4  0  0  0
  4  5  4  0  0  0
  9  4  4  0  0  0
  5  6  4  0  0  0
  7  8  4  0  0  0
 21  7  1  0  0  0
  8  9  4  0  0  0
  8 10  1  0  0  0
 10 11  1  0  0  0
 10 32  2  0  0  0
 11 12  1  0  0  0
 12 13  1  0  0  0
 12 17  1  0  0  0
 13 14  1  0  0  0
 14 15  1  0  0  0
 16 15  1  0  0  0
 15 18  1  0  0  0
 17 16  1  0  0  0
 18 19  1  0  0  0
 18 20  1  0  0  0
 22 21  1  0  0  0
 29 22  1  0  0  0
 22 30  2  0  0  0
 23 24  4  0  0  0
 25 23  4  0  0  0
 24 26  4  0  0  0
 25 28  4  0  0  0
 25 29  1  0  0  0
 26 27  4  0  0  0
 26 31  1  0  0  0
 27 28  4  0  0  0
  1 33  1  0  0  0
  2 34  1  0  0  0
  5 35  1  0  0  0
  6 36  1  0  0  0
  9 37  1  0  0  0
 11 38  1  0  0  0
 12 39  1  0  0  0
 13 40  1  0  0  0
 13 41  1  0  0  0
 14 42  1  0  0  0
 14 43  1  0  0  0
 15 44  1  0  0  0
 16 45  1  0  0  0
 16 46  1  0  0  0
 17 47  1  0  0  0
 17 48  1  0  0  0
 18 49  1  0  0  0
 19 50  1  0  0  0
 19 51  1  0  0  0
 19 52  1  0  0  0
 20 53  1  0  0  0
 20 54  1  0  0  0
 20 55  1  0  0  0
 21 56  1  0  0  0
 21 57  1  0  0  0
 23 58  1  0  0  0
 24 59  1  0  0  0
 27 60  1  0  0  0
 28 61  1  0  0  0
 29 62  1  0  0  0
M  END
$$$$
