4u2w_ligand
  -I-interpret- 

224230  0  0  0  0  0  0  0  0999 V2000
   -4.6260  -10.7950   11.1170 N   0  3  0  0  0
   -5.7330  -11.8030   10.9750 C   0  0  0  0  0
   -7.1060  -11.1500   10.6920 C   0  0  0  0  0
   -7.2010   -9.9300   10.5360 O   0  0  0  0  0
   -8.1830  -11.9620   10.7270 N   0  0  0  0  0
   -9.4960  -11.4340   10.5120 C   0  0  0  0  0
  -10.0130  -10.7280   11.6940 C   0  0  0  0  0
   -9.9980  -11.2950   12.8190 O   0  0  0  0  0
  -10.4360  -12.6170   10.2590 C   0  0  0  0  0
  -12.1150  -12.0950    9.7250 S   0  0  0  0  0
  -10.5730   -9.5660   11.5030 N   0  0  0  0  0
  -11.1710   -8.8000   12.5240 C   0  0  0  0  0
  -12.4080   -8.1250   12.0070 C   0  0  0  0  0
  -12.4310   -7.5250   10.9040 O   0  0  0  0  0
  -10.2370   -7.6690   13.1040 C   0  0  0  0  0
   -9.0280   -8.2390   13.7930 C   0  0  0  0  0
   -7.8190   -8.6230   13.2850 C   0  0  0  0  0
   -9.0080   -8.7090   15.1830 C   0  0  0  0  0
   -7.0160   -9.1910   14.2530 N   0  0  0  0  0
   -7.7220   -9.3330   15.4120 C   0  0  0  0  0
   -9.8930   -8.8870   16.1990 C   0  0  0  0  0
   -7.3220   -9.8850   16.6530 C   0  0  0  0  0
   -9.5190   -9.3200   17.4180 C   0  0  0  0  0
   -8.2260   -9.8610   17.6660 C   0  0  0  0  0
  -13.4560   -8.1070   12.8440 N   0  0  0  0  0
  -14.5780   -7.2590   12.5900 C   0  0  0  0  0
  -14.1620   -5.8060   12.7560 C   0  0  0  0  0
  -13.2140   -5.4720   13.4450 O   0  0  0  0  0
  -15.7940   -7.5570   13.4800 C   0  0  0  0  0
  -15.4620   -7.1900   14.8030 O   0  0  0  0  0
  -16.2170   -8.9600   13.3800 C   0  0  0  0  0
  -14.9330   -4.9050   12.1380 N   0  0  0  0  0
  -14.6080   -3.4730   12.1270 C   0  0  0  0  0
  -15.3810   -2.6280   13.2110 C   0  0  0  0  0
  -15.6740   -1.4940   13.0000 O   0  0  0  0  0
  -14.6760   -2.9250   10.7440 C   0  0  0  0  0
  -13.4800   -3.4610    9.9630 C   0  0  0  0  0
  -13.5270   -3.0310    8.5210 C   0  0  0  0  0
  -12.3620   -3.6310    7.7910 C   0  0  0  0  0
  -12.4530   -3.2490    6.2980 N   0  3  0  0  0
  -15.6240   -3.2380   14.3590 N   0  0  0  0  0
  -16.2960   -2.6290   15.5010 C   0  0  0  0  0
  -15.2780   -2.0830   16.4770 C   0  0  0  0  0
  -14.0950   -2.4340   16.4190 O   0  0  0  0  0
  -17.2100   -3.6870   16.1330 C   0  0  0  0  0
  -16.4900   -4.8970   16.3220 O   0  0  0  0  0
  -15.7800   -1.3160   17.4410 N   0  0  0  0  0
  -15.0550   -0.9940   18.6630 C   0  0  0  0  0
  -15.6300   -1.8220   19.8180 C   0  0  0  0  0
  -16.7580   -1.5880   20.1940 O   0  0  0  0  0
  -15.2250    0.4270   19.0900 C   0  0  0  0  0
  -14.8490    1.3640   18.0180 C   0  0  0  0  0
  -14.4650    0.7020   20.3310 C   0  0  0  0  0
  -13.5050    1.2510   17.4980 C   0  0  0  0  0
  -14.9360   -2.7930   20.3490 N   0  0  0  0  0
  -13.6170   -3.2530   19.9510 C   0  0  0  0  0
  -13.7480   -4.2420   18.7800 C   0  0  0  0  0
  -14.8800   -4.8080   18.5430 O   0  0  0  0  0
  -13.1750   -4.0460   21.1840 C   0  0  0  0  0
  -14.4140   -4.6330   21.6960 C   0  0  0  0  0
  -15.4820   -3.5800   21.4660 C   0  0  0  0  0
  -12.6810   -4.5380   18.0850 N   0  0  0  0  0
  -12.7420   -5.5490   17.0330 C   0  0  0  0  0
  -12.9270   -6.9440   17.6340 C   0  0  0  0  0
  -12.3980   -7.2200   18.7170 O   0  0  0  0  0
  -11.3820   -5.4100   16.3500 C   0  0  0  0  0
  -10.4840   -4.8130   17.3900 C   0  0  0  0  0
  -11.3650   -3.8960   18.1580 C   0  0  0  0  0
  -13.5980   -7.8040   16.8630 N   0  0  0  0  0
  -13.8820   -9.1800   17.2390 C   0  0  0  0  0
  -13.1700  -10.1090   16.2900 C   0  0  0  0  0
  -13.1060   -9.8410   15.0950 O   0  0  0  0  0
  -15.4360   -9.4100   17.2810 C   0  0  0  0  0
  -16.1930   -8.3760   18.0810 C   0  0  0  0  0
  -12.6160  -11.2050   16.7550 N   0  0  0  0  0
  -11.9490  -12.1460   15.8380 C   0  0  0  0  0
  -12.9200  -12.8950   14.9960 C   0  0  0  0  0
  -14.0460  -13.1860   15.4120 O   0  0  0  0  0
  -11.2350  -13.0910   16.8130 C   0  0  0  0  0
  -12.1100  -13.0930   18.0280 C   0  0  0  0  0
  -12.6800  -11.6980   18.1530 C   0  0  0  0  0
  -12.4690  -13.3080   13.8020 N   0  0  0  0  0
  -13.2780  -14.0530   12.8970 C   0  0  0  0  0
  -12.4720  -15.1100   12.2590 C   0  0  0  0  0
  -11.2470  -15.1080   12.2470 O   0  0  0  0  0
  -14.0100  -13.1230   11.9320 C   0  0  0  0  0
  -13.1440  -11.6310   11.4020 S   0  0  0  0  0
  -13.1790  -16.1550   11.7640 N   0  0  0  0  0
  -12.5370  -17.3100   11.1720 C   0  0  0  0  0
  -11.5090  -17.9440   12.1200 C   0  0  0  0  0
  -10.4770  -18.4170   11.7070 O   0  0  0  0  0
  -11.9650  -17.0860    9.7620 C   0  0  0  0  0
  -13.0020  -16.5860    8.8390 C   0  0  0  0  0
  -13.9460  -17.4110    8.2190 C   0  0  0  0  0
  -13.1100  -15.2410    8.5660 C   0  0  0  0  0
  -14.9260  -16.8410    7.3840 C   0  0  0  0  0
  -14.0540  -14.6960    7.7340 C   0  0  0  0  0
  -14.9750  -15.4980    7.1910 C   0  0  0  0  0
  -11.9100  -18.0440   13.3960 N   0  0  0  0  0
  -11.1620  -18.7160   14.4060 C   0  0  0  0  0
  -11.3000  -20.2320   14.2470 C   0  0  0  0  0
  -12.4650  -20.6980   14.0400 O   0  0  0  0  0
  -11.5720  -18.2300   15.8550 C   0  0  0  0  0
  -10.7870  -18.9100   16.9300 C   0  0  0  0  0
  -11.4310  -16.7560   15.9960 C   0  0  0  0  0
  -10.2140  -20.9380   14.2460 N   0  0  0  0  0
  -10.2850  -22.3790   14.0450 C   0  0  0  0  0
  -10.7180  -23.1100   15.3160 C   0  0  0  0  0
  -10.5650  -22.5950   16.4210 O   0  0  0  0  0
   -8.9350  -22.8960   13.6190 C   0  0  0  0  0
   -8.3760  -22.1140   12.4340 C   0  0  0  0  0
  -11.2270  -24.2270   15.2570 O   0  0  0  0  0
   -3.7479  -11.2799   11.3018 H   0  0  0  0  0
   -4.5441  -10.2579   10.2537 H   0  0  0  0  0
   -4.8379  -10.1659   11.8914 H   0  0  0  0  0
   -5.8104  -12.3483   11.9156 H   0  0  0  0  0
   -5.4902  -12.4485   10.1309 H   0  0  0  0  0
   -8.0608  -12.9584   10.9078 H   0  0  0  0  0
   -9.4454  -10.7347    9.6775 H   0  0  0  0  0
  -10.5400  -13.1656   11.1951 H   0  0  0  0  0
  -10.0049  -13.2197    9.4596 H   0  0  0  0  0
  -10.5787   -9.1878   10.5557 H   0  0  0  0  0
  -11.3899   -9.5095   13.3220 H   0  0  0  0  0
  -10.8078   -7.0953   13.8342 H   0  0  0  0  0
   -9.8971   -7.0480   12.2752 H   0  0  0  0  0
   -7.5249   -8.4962   12.2431 H   0  0  0  0  0
  -10.9463   -8.6709   16.0202 H   0  0  0  0  0
   -6.3285  -10.3120   16.7897 H   0  0  0  0  0
  -10.2297   -9.2540   18.2418 H   0  0  0  0  0
   -7.9663  -10.2489   18.6510 H   0  0  0  0  0
  -13.4521   -8.7048   13.6704 H   0  0  0  0  0
  -14.8937   -7.4579   11.5659 H   0  0  0  0  0
  -16.6520   -6.9746   13.1442 H   0  0  0  0  0
  -16.2085   -7.3674   15.3800 H   0  0  0  0  0
  -16.4862   -9.1843   12.3478 H   0  0  0  0  0
  -15.3982   -9.6082   13.6924 H   0  0  0  0  0
  -17.0794   -9.1250   14.0258 H   0  0  0  0  0
  -15.7750   -5.2231   11.6582 H   0  0  0  0  0
  -13.5707   -3.3753   12.4473 H   0  0  0  0  0
  -14.6505   -1.8356   10.7697 H   0  0  0  0  0
  -15.6058   -3.2303   10.2640 H   0  0  0  0  0
  -13.5028   -4.5501   10.0000 H   0  0  0  0  0
  -12.5687   -3.0661   10.4121 H   0  0  0  0  0
  -13.4765   -1.9438    8.4610 H   0  0  0  0  0
  -14.4581   -3.3709    8.0674 H   0  0  0  0  0
  -12.3828   -4.7159    7.8946 H   0  0  0  0  0
  -11.4304   -3.2518    8.2111 H   0  0  0  0  0
  -11.6631   -3.6543    5.7958 H   0  0  0  0  0
  -13.3250   -3.6078    5.9090 H   0  0  0  0  0
  -12.4309   -2.2334    6.2062 H   0  0  0  0  0
  -15.3186   -4.2067   14.4526 H   0  0  0  0  0
  -16.9072   -1.7818   15.1897 H   0  0  0  0  0
  -18.0567   -3.8719   15.4719 H   0  0  0  0  0
  -17.5650   -3.3253   17.0980 H   0  0  0  0  0
  -17.0680   -5.5536   16.7175 H   0  0  0  0  0
  -16.7181   -0.9348   17.3187 H   0  0  0  0  0
  -14.0054   -1.1965   18.4496 H   0  0  0  0  0
  -16.2831    0.5823   19.3010 H   0  0  0  0  0
  -14.9197    2.3611   18.4526 H   0  0  0  0  0
  -15.5135    1.1457   17.1820 H   0  0  0  0  0
  -14.8251    0.0512   21.1278 H   0  0  0  0  0
  -13.4058    0.5129   20.1563 H   0  0  0  0  0
  -14.6067    1.7437   20.6190 H   0  0  0  0  0
  -12.7899    1.4194   18.3032 H   0  0  0  0  0
  -13.3597    0.2532   17.0840 H   0  0  0  0  0
  -13.3556    1.9955   16.7160 H   0  0  0  0  0
  -12.9460   -2.4492   19.6481 H   0  0  0  0  0
  -12.6821   -3.4153   21.9238 H   0  0  0  0  0
  -12.4305   -4.8040   20.9406 H   0  0  0  0  0
  -14.3282   -4.8932   22.7510 H   0  0  0  0  0
  -14.6553   -5.5664   21.1875 H   0  0  0  0  0
  -16.4581   -4.0103   21.2420 H   0  0  0  0  0
  -15.6776   -2.9762   22.3522 H   0  0  0  0  0
  -13.5779   -5.4166   16.3461 H   0  0  0  0  0
  -11.4397   -4.7844   15.4593 H   0  0  0  0  0
  -11.0076   -6.3708   15.9969 H   0  0  0  0  0
   -9.6362   -4.2903   16.9472 H   0  0  0  0  0
  -10.0321   -5.5742   18.0260 H   0  0  0  0  0
  -11.0264   -3.7562   19.1846 H   0  0  0  0  0
  -11.3716   -2.8856   17.7492 H   0  0  0  0  0
  -13.9311   -7.4761   15.9564 H   0  0  0  0  0
  -13.5087   -9.3930   18.2407 H   0  0  0  0  0
  -15.6058  -10.3746   17.7594 H   0  0  0  0  0
  -15.7979   -9.3510   16.2545 H   0  0  0  0  0
  -15.8394   -8.3858   19.1120 H   0  0  0  0  0
  -16.0263   -7.3898   17.6477 H   0  0  0  0  0
  -17.2576   -8.6090   18.0585 H   0  0  0  0  0
  -11.2897  -11.6506   15.1253 H   0  0  0  0  0
  -10.2203  -12.7617   17.0369 H   0  0  0  0  0
  -11.1054  -14.0903   16.3973 H   0  0  0  0  0
  -11.5401  -13.3615   18.9175 H   0  0  0  0  0
  -12.9061  -13.8315   17.9329 H   0  0  0  0  0
  -13.6877  -11.6817   18.5682 H   0  0  0  0  0
  -12.1302  -11.0710   18.8549 H   0  0  0  0  0
  -11.5120  -13.0802   13.5325 H   0  0  0  0  0
  -14.0722  -14.5720   13.4336 H   0  0  0  0  0
  -14.8928  -12.7764   12.4692 H   0  0  0  0  0
  -14.1727  -13.7070   11.0261 H   0  0  0  0  0
  -14.1976  -16.1269   11.8100 H   0  0  0  0  0
  -13.3450  -18.0265   11.0241 H   0  0  0  0  0
  -11.5911  -18.0371    9.3830 H   0  0  0  0  0
  -11.1675  -16.3455    9.8235 H   0  0  0  0  0
  -13.9232  -18.4886    8.3812 H   0  0  0  0  0
  -12.3991  -14.5656    9.0420 H   0  0  0  0  0
  -15.6525  -17.4843    6.8876 H   0  0  0  0  0
  -14.0533  -13.6274    7.5192 H   0  0  0  0  0
  -15.7743  -15.0691    6.5866 H   0  0  0  0  0
  -12.7981  -17.6160   13.6576 H   0  0  0  0  0
  -10.1096  -18.4609   14.2818 H   0  0  0  0  0
  -12.6203  -18.5030   15.9763 H   0  0  0  0  0
  -10.9552  -19.9856   16.8759 H   0  0  0  0  0
   -9.7265  -18.6994   16.7922 H   0  0  0  0  0
  -11.1089  -18.5391   17.9031 H   0  0  0  0  0
  -10.3937  -16.4728   15.8172 H   0  0  0  0  0
  -12.0749  -16.2596   15.2700 H   0  0  0  0  0
  -11.7214  -16.4593   17.0038 H   0  0  0  0  0
   -9.3105  -20.4856   14.3857 H   0  0  0  0  0
  -11.0296  -22.5682   13.2718 H   0  0  0  0  0
   -9.0464  -23.9381   13.3195 H   0  0  0  0  0
   -8.2465  -22.7864   14.4569 H   0  0  0  0  0
   -9.0585  -22.2009   11.5885 H   0  0  0  0  0
   -8.2695  -21.0650   12.7103 H   0  0  0  0  0
   -7.4021  -22.5195   12.1596 H   0  0  0  0  0
  -11.2844  -24.5032   14.3394 H   0  0  0  0  0
  1  2  1  0  0  0
  2  3  1  0  0  0
  3  4  2  0  0  0
  3  5  1  0  0  0
  5  6  1  0  0  0
  6  7  1  0  0  0
  6  9  1  0  0  0
  7  8  2  0  0  0
  7 11  1  0  0  0
  9 10  1  0  0  0
 10 87  1  0  0  0
 11 12  1  0  0  0
 12 13  1  0  0  0
 12 15  1  0  0  0
 13 14  2  0  0  0
 13 25  1  0  0  0
 15 16  1  0  0  0
 16 17  4  0  0  0
 16 18  4  0  0  0
 17 19  4  0  0  0
 18 20  4  0  0  0
 18 21  4  0  0  0
 19 20  4  0  0  0
 20 22  4  0  0  0
 21 23  4  0  0  0
 22 24  4  0  0  0
 23 24  4  0  0  0
 25 26  1  0  0  0
 26 27  1  0  0  0
 26 29  1  0  0  0
 27 28  2  0  0  0
 27 32  1  0  0  0
 29 30  1  0  0  0
 29 31  1  0  0  0
 32 33  1  0  0  0
 33 34  1  0  0  0
 33 36  1  0  0  0
 34 35  2  0  0  0
 34 41  1  0  0  0
 36 37  1  0  0  0
 37 38  1  0  0  0
 38 39  1  0  0  0
 39 40  1  0  0  0
 41 42  1  0  0  0
 42 43  1  0  0  0
 42 45  1  0  0  0
 43 44  2  0  0  0
 43 47  1  0  0  0
 45 46  1  0  0  0
 47 48  1  0  0  0
 48 49  1  0  0  0
 48 51  1  0  0  0
 49 50  2  0  0  0
 49 55  1  0  0  0
 51 52  1  0  0  0
 51 53  1  0  0  0
 52 54  1  0  0  0
 55 56  1  0  0  0
 55 61  1  0  0  0
 56 57  1  0  0  0
 56 59  1  0  0  0
 57 58  2  0  0  0
 57 62  1  0  0  0
 59 60  1  0  0  0
 60 61  1  0  0  0
 62 63  1  0  0  0
 62 68  1  0  0  0
 63 64  1  0  0  0
 63 66  1  0  0  0
 64 65  2  0  0  0
 64 69  1  0  0  0
 66 67  1  0  0  0
 67 68  1  0  0  0
 69 70  1  0  0  0
 70 71  1  0  0  0
 70 73  1  0  0  0
 71 72  2  0  0  0
 71 75  1  0  0  0
 73 74  1  0  0  0
 75 76  1  0  0  0
 75 81  1  0  0  0
 76 77  1  0  0  0
 76 79  1  0  0  0
 77 78  2  0  0  0
 77 82  1  0  0  0
 79 80  1  0  0  0
 80 81  1  0  0  0
 82 83  1  0  0  0
 83 84  1  0  0  0
 83 86  1  0  0  0
 84 85  2  0  0  0
 84 88  1  0  0  0
 86 87  1  0  0  0
 88 89  1  0  0  0
 89 90  1  0  0  0
 89 92  1  0  0  0
 90 91  2  0  0  0
 90 99  1  0  0  0
 92 93  1  0  0  0
 93 94  4  0  0  0
 93 95  4  0  0  0
 94 96  4  0  0  0
 95 97  4  0  0  0
 96 98  4  0  0  0
 97 98  4  0  0  0
 99100  1  0  0  0
100101  1  0  0  0
100103  1  0  0  0
101102  2  0  0  0
101106  1  0  0  0
103104  1  0  0  0
103105  1  0  0  0
106107  1  0  0  0
107108  1  0  0  0
107110  1  0  0  0
108109  2  0  0  0
108112  1  0  0  0
110111  1  0  0  0
  1113  1  0  0  0
  1114  1  0  0  0
  1115  1  0  0  0
  2116  1  0  0  0
  2117  1  0  0  0
  5118  1  0  0  0
  6119  1  0  0  0
  9120  1  0  0  0
  9121  1  0  0  0
 11122  1  0  0  0
 12123  1  0  0  0
 15124  1  0  0  0
 15125  1  0  0  0
 17126  1  0  0  0
 21127  1  0  0  0
 22128  1  0  0  0
 23129  1  0  0  0
 24130  1  0  0  0
 25131  1  0  0  0
 26132  1  0  0  0
 29133  1  0  0  0
 30134  1  0  0  0
 31135  1  0  0  0
 31136  1  0  0  0
 31137  1  0  0  0
 32138  1  0  0  0
 33139  1  0  0  0
 36140  1  0  0  0
 36141  1  0  0  0
 37142  1  0  0  0
 37143  1  0  0  0
 38144  1  0  0  0
 38145  1  0  0  0
 39146  1  0  0  0
 39147  1  0  0  0
 40148  1  0  0  0
 40149  1  0  0  0
 40150  1  0  0  0
 41151  1  0  0  0
 42152  1  0  0  0
 45153  1  0  0  0
 45154  1  0  0  0
 46155  1  0  0  0
 47156  1  0  0  0
 48157  1  0  0  0
 51158  1  0  0  0
 52159  1  0  0  0
 52160  1  0  0  0
 53161  1  0  0  0
 53162  1  0  0  0
 53163  1  0  0  0
 54164  1  0  0  0
 54165  1  0  0  0
 54166  1  0  0  0
 56167  1  0  0  0
 59168  1  0  0  0
 59169  1  0  0  0
 60170  1  0  0  0
 60171  1  0  0  0
 61172  1  0  0  0
 61173  1  0  0  0
 63174  1  0  0  0
 66175  1  0  0  0
 66176  1  0  0  0
 67177  1  0  0  0
 67178  1  0  0  0
 68179  1  0  0  0
 68180  1  0  0  0
 69181  1  0  0  0
 70182  1  0  0  0
 73183  1  0  0  0
 73184  1  0  0  0
 74185  1  0  0  0
 74186  1  0  0  0
 74187  1  0  0  0
 76188  1  0  0  0
 79189  1  0  0  0
 79190  1  0  0  0
 80191  1  0  0  0
 80192  1  0  0  0
 81193  1  0  0  0
 81194  1  0  0  0
 82195  1  0  0  0
 83196  1  0  0  0
 86197  1  0  0  0
 86198  1  0  0  0
 88199  1  0  0  0
 89200  1  0  0  0
 92201  1  0  0  0
 92202  1  0  0  0
 94203  1  0  0  0
 95204  1  0  0  0
 96205  1  0  0  0
 97206  1  0  0  0
 98207  1  0  0  0
 99208  1  0  0  0
100209  1  0  0  0
103210  1  0  0  0
104211  1  0  0  0
104212  1  0  0  0
104213  1  0  0  0
105214  1  0  0  0
105215  1  0  0  0
105216  1  0  0  0
106217  1  0  0  0
107218  1  0  0  0
110219  1  0  0  0
110220  1  0  0  0
111221  1  0  0  0
111222  1  0  0  0
111223  1  0  0  0
112224  1  0  0  0
M  END
$$$$
