### 
### Created by X-TOOL on Mon Sep 10 21:13:20 2018
### 

@<TRIPOS>MOLECULE
4u2w_ligand
  224   230     1     0     0
SMALL
GAST_HUCK


@<TRIPOS>ATOM
      1 N          -4.6260  -10.7950   11.1170 N.4       1 GLY         0.2357
      2 CA         -5.7330  -11.8030   10.9750 C.3       1 GLY         0.0545
      3 C          -7.1060  -11.1500   10.6920 C.2       1 GLY         0.2237
      4 O          -7.2010   -9.9300   10.5360 O.2       1 GLY        -0.3910
      5 N          -8.1830  -11.9620   10.7270 N.am      1 CYS        -0.2604
      6 CA         -9.4960  -11.4340   10.5120 C.3       1 CYS         0.1408
      7 C         -10.0130  -10.7280   11.6940 C.2       1 CYS         0.2048
      8 O          -9.9980  -11.2950   12.8190 O.2       1 CYS        -0.3944
      9 CB        -10.4360  -12.6170   10.2590 C.3       1 CYS         0.0443
     10 SG        -12.1150  -12.0950    9.7250 S.3       1 CYS        -0.0882
     11 N         -10.5730   -9.5660   11.5030 N.am      1 TRP        -0.2626
     12 CA        -11.1710   -8.8000   12.5240 C.3       1 TRP         0.1352
     13 C         -12.4080   -8.1250   12.0070 C.2       1 TRP         0.2052
     14 O         -12.4310   -7.5250   10.9040 O.2       1 TRP        -0.3942
     15 CB        -10.2370   -7.6690   13.1040 C.3       1 TRP         0.0042
     16 CG         -9.0280   -8.2390   13.7930 C.2       1 TRP        -0.0418
     17 CD1        -7.8190   -8.6230   13.2850 C.2       1 TRP         0.0167
     18 CD2        -9.0080   -8.7090   15.1830 C.ar      1 TRP        -0.0214
     19 NE1        -7.0160   -9.1910   14.2530 N.pl3     1 TRP        -0.2890
     20 CE2        -7.7220   -9.3330   15.4120 C.ar      1 TRP         0.0603
     21 CE3        -9.8930   -8.8870   16.1990 C.ar      1 TRP        -0.0747
     22 CZ2        -7.3220   -9.8850   16.6530 C.ar      1 TRP        -0.0443
     23 CZ3        -9.5190   -9.3200   17.4180 C.ar      1 TRP        -0.0792
     24 CH2        -8.2260   -9.8610   17.6660 C.ar      1 TRP        -0.0768
     25 N         -13.4560   -8.1070   12.8440 N.am      1 THR        -0.2612
     26 CA        -14.5780   -7.2590   12.5900 C.3       1 THR         0.1565
     27 C         -14.1620   -5.8060   12.7560 C.2       1 THR         0.2065
     28 O         -13.2140   -5.4720   13.4450 O.2       1 THR        -0.3943
     29 CB        -15.7940   -7.5570   13.4800 C.3       1 THR         0.0924
     30 OG1       -15.4620   -7.1900   14.8030 O.3       1 THR        -0.3874
     31 CG2       -16.2170   -8.9600   13.3800 C.3       1 THR        -0.0346
     32 N         -14.9330   -4.9050   12.1380 N.am      1 LYS        -0.2637
     33 CA        -14.6080   -3.4730   12.1270 C.3       1 LYS         0.1310
     34 C         -15.3810   -2.6280   13.2110 C.2       1 LYS         0.2040
     35 O         -15.6740   -1.4940   13.0000 O.2       1 LYS        -0.3944
     36 CB        -14.6760   -2.9250   10.7440 C.3       1 LYS        -0.0122
     37 CG        -13.4800   -3.4610    9.9630 C.3       1 LYS        -0.0440
     38 CD        -13.5270   -3.0310    8.5210 C.3       1 LYS        -0.0124
     39 CE        -12.3620   -3.6310    7.7910 C.3       1 LYS        -0.0354
     40 NZ        -12.4530   -3.2490    6.2980 N.4       1 LYS         0.2185
     41 N         -15.6240   -3.2380   14.3590 N.am      1 SER        -0.2616
     42 CA        -16.2960   -2.6290   15.5010 C.3       1 SER         0.1539
     43 C         -15.2780   -2.0830   16.4770 C.2       1 SER         0.2062
     44 O         -14.0950   -2.4340   16.4190 O.2       1 SER        -0.3943
     45 CB        -17.2100   -3.6870   16.1330 C.3       1 SER         0.0843
     46 OG        -16.4900   -4.8970   16.3220 O.3       1 SER        -0.3903
     47 N         -15.7800   -1.3160   17.4410 N.am      1 ILE        -0.2634
     48 CA        -15.0550   -0.9940   18.6630 C.3       1 ILE         0.1337
     49 C         -15.6300   -1.8220   19.8180 C.2       1 ILE         0.2067
     50 O         -16.7580   -1.5880   20.1940 O.2       1 ILE        -0.3942
     51 CB        -15.2250    0.4270   19.0900 C.3       1 ILE        -0.0037
     52 CG1       -14.8490    1.3640   18.0180 C.3       1 ILE        -0.0491
     53 CG2       -14.4650    0.7020   20.3310 C.3       1 ILE        -0.0582
     54 CD1       -13.5050    1.2510   17.4980 C.3       1 ILE        -0.0648
     55 N         -14.9360   -2.7930   20.3490 N.am      1 PRO        -0.2498
     56 CA        -13.6170   -3.2530   19.9510 C.3       1 PRO         0.1340
     57 C         -13.7480   -4.2420   18.7800 C.2       1 PRO         0.2066
     58 O         -14.8800   -4.8080   18.5430 O.2       1 PRO        -0.3942
     59 CB        -13.1750   -4.0460   21.1840 C.3       1 PRO        -0.0104
     60 CG        -14.4140   -4.6330   21.6960 C.3       1 PRO        -0.0281
     61 CD        -15.4820   -3.5800   21.4660 C.3       1 PRO         0.0369
     62 N         -12.6810   -4.5380   18.0850 N.am      1 PRO        -0.2498
     63 CA        -12.7420   -5.5490   17.0330 C.3       1 PRO         0.1338
     64 C         -12.9270   -6.9440   17.6340 C.2       1 PRO         0.2041
     65 O         -12.3980   -7.2200   18.7170 O.2       1 PRO        -0.3944
     66 CB        -11.3820   -5.4100   16.3500 C.3       1 PRO        -0.0104
     67 CG        -10.4840   -4.8130   17.3900 C.3       1 PRO        -0.0281
     68 CD        -11.3650   -3.8960   18.1580 C.3       1 PRO         0.0369
     69 N         -13.5980   -7.8040   16.8630 N.am      1 ARG        -0.2637
     70 CA        -13.8820   -9.1800   17.2390 C.3       1 ARG         0.1309
     71 C         -13.1700  -10.1090   16.2900 C.2       1 ARG         0.2064
     72 O         -13.1060   -9.8410   15.0950 O.2       1 ARG        -0.3942
     73 CB        -15.4360   -9.4100   17.2810 C.3       1 ARG        -0.0152
     74 CG        -16.1930   -8.3760   18.0810 C.3       1 ARG        -0.0610
     75 N         -12.6160  -11.2050   16.7550 N.am      1 PRO        -0.2498
     76 CA        -11.9490  -12.1460   15.8380 C.3       1 PRO         0.1338
     77 C         -12.9200  -12.8950   14.9960 C.2       1 PRO         0.2041
     78 O         -14.0460  -13.1860   15.4120 O.2       1 PRO        -0.3944
     79 CB        -11.2350  -13.0910   16.8130 C.3       1 PRO        -0.0104
     80 CG        -12.1100  -13.0930   18.0280 C.3       1 PRO        -0.0281
     81 CD        -12.6800  -11.6980   18.1530 C.3       1 PRO         0.0369
     82 N         -12.4690  -13.3080   13.8020 N.am      1 CYS        -0.2629
     83 CA        -13.2780  -14.0530   12.8970 C.3       1 CYS         0.1406
     84 C         -12.4720  -15.1100   12.2590 C.2       1 CYS         0.2049
     85 O         -11.2470  -15.1080   12.2470 O.2       1 CYS        -0.3943
     86 CB        -14.0100  -13.1230   11.9320 C.3       1 CYS         0.0443
     87 SG        -13.1440  -11.6310   11.4020 S.3       1 CYS        -0.0882
     88 N         -13.1790  -16.1550   11.7640 N.am      1 PHE        -0.2619
     89 CA        -12.5370  -17.3100   11.1720 C.3       1 PHE         0.1404
     90 C         -11.5090  -17.9440   12.1200 C.2       1 PHE         0.2060
     91 O         -10.4770  -18.4170   11.7070 O.2       1 PHE        -0.3942
     92 CB        -11.9650  -17.0860    9.7620 C.3       1 PHE         0.0214
     93 CG        -13.0020  -16.5860    8.8390 C.ar      1 PHE        -0.0386
     94 CD1       -13.9460  -17.4110    8.2190 C.ar      1 PHE        -0.0601
     95 CD2       -13.1100  -15.2410    8.5660 C.ar      1 PHE        -0.0601
     96 CE1       -14.9260  -16.8410    7.3840 C.ar      1 PHE        -0.0686
     97 CE2       -14.0540  -14.6960    7.7340 C.ar      1 PHE        -0.0686
     98 CZ        -14.9750  -15.4980    7.1910 C.ar      1 PHE        -0.0687
     99 N         -11.9100  -18.0440   13.3960 N.am      1 VAL        -0.2633
    100 CA        -11.1620  -18.7160   14.4060 C.3       1 VAL         0.1332
    101 C         -11.3000  -20.2320   14.2470 C.2       1 VAL         0.2036
    102 O         -12.4650  -20.6980   14.0400 O.2       1 VAL        -0.3944
    103 CB        -11.5720  -18.2300   15.8550 C.3       1 VAL        -0.0063
    104 CG1       -10.7870  -18.9100   16.9300 C.3       1 VAL        -0.0584
    105 CG2       -11.4310  -16.7560   15.9960 C.3       1 VAL        -0.0584
    106 N         -10.2140  -20.9380   14.2460 N.am      1 LYS        -0.2695
    107 CA        -10.2850  -22.3790   14.0450 C.3       1 LYS         0.0941
    108 C         -10.7180  -23.1100   15.3160 C.2       1 LYS         0.0601
    109 O         -10.5650  -22.5950   16.4210 O.co2     1 LYS        -0.5666
    110 CB         -8.9350  -22.8960   13.6190 C.3       1 LYS        -0.0208
    111 CG         -8.3760  -22.1140   12.4340 C.3       1 LYS        -0.0616
    112 OXT       -11.2270  -24.2270   15.2570 O.co2     1 LYS        -0.5666
    113 H1         -3.7576  -11.2731   11.2996 H         1 GLY         0.2012
    114 H2         -4.8343  -10.1727   11.8821 H         1 GLY         0.2012
    115 H3         -4.5440  -10.2636   10.2644 H         1 GLY         0.2012
    116 H4         -5.8043  -12.3804   11.9085 H         1 GLY         0.1061
    117 H5         -5.4876  -12.4796   10.1431 H         1 GLY         0.1061
    118 H6         -8.0632  -12.9388   10.9043 H         1 CYS         0.1885
    119 H7         -9.4839  -10.7541    9.6474 H         1 CYS         0.0808
    120 H8        -10.5281  -13.1972   11.1890 H         1 CYS         0.0432
    121 H9         -9.9990  -13.2507    9.4732 H         1 CYS         0.0432
    122 H10       -10.5786   -9.1952   10.5743 H         1 TRP         0.1884
    123 H11       -11.4442   -9.4818   13.3428 H         1 TRP         0.0815
    124 H12       -10.8100   -7.0710   13.8280 H         1 TRP         0.0397
    125 H13        -9.9042   -7.0240   12.2775 H         1 TRP         0.0397
    126 H14        -7.5252   -8.4964   12.2440 H         1 TRP         0.0795
    127 H15        -6.0323   -9.4662   14.1206 H         1 TRP         0.2216
    128 H16       -10.9405   -8.6721   16.0212 H         1 TRP         0.0540
    129 H17        -6.3339  -10.3096   16.7890 H         1 TRP         0.0541
    130 H18       -10.2258   -9.2544   18.2373 H         1 TRP         0.0510
    131 H19        -7.9677  -10.2468   18.6456 H         1 TRP         0.0530
    132 H20       -13.4522   -8.6931   13.6542 H         1 THR         0.1884
    133 H21       -14.8847   -7.4159   11.5454 H         1 THR         0.0826
    134 H22       -16.6341   -6.9308   13.1453 H         1 THR         0.0639
    135 H23       -15.2522   -6.2638   14.8304 H         1 THR         0.2101
    136 H24       -17.0874   -9.1278   14.0314 H         1 THR         0.0257
    137 H25       -15.3915   -9.6152   13.6950 H         1 THR         0.0257
    138 H26       -16.4890   -9.1877   12.3388 H         1 THR         0.0257
    139 H27       -15.7585   -5.2168   11.6676 H         1 LYS         0.1883
    140 H28       -13.5494   -3.4065   12.4185 H         1 LYS         0.0800
    141 H29       -14.6383   -1.8261   10.7760 H         1 LYS         0.0312
    142 H30       -15.6108   -3.2460   10.2612 H         1 LYS         0.0312
    143 H31       -13.4862   -4.5600   10.0089 H         1 LYS         0.0269
    144 H32       -12.5547   -3.0801   10.4198 H         1 LYS         0.0269
    145 H33       -13.4731   -1.9339    8.4619 H         1 LYS         0.0317
    146 H34       -14.4657   -3.3771    8.0639 H         1 LYS         0.0317
    147 H35       -12.3869   -4.7259    7.8936 H         1 LYS         0.0813
    148 H36       -11.4231   -3.2443    8.2139 H         1 LYS         0.0813
    149 H37       -11.6728   -3.6490    5.8007 H         1 LYS         0.1994
    150 H38       -12.4312   -2.2455    6.2060 H         1 LYS         0.1994
    151 H39       -13.3144   -3.6032    5.9124 H         1 LYS         0.1994
    152 H40       -15.3246   -4.1877   14.4508 H         1 SER         0.1884
    153 H41       -16.9176   -1.7925   15.1491 H         1 SER         0.0823
    154 H42       -18.0670   -3.8725   15.4688 H         1 SER         0.0606
    155 H43       -17.5720   -3.3223   17.1056 H         1 SER         0.0606
    156 H44       -15.7503   -4.7376   16.8964 H         1 SER         0.2097
    157 H45       -16.6997   -0.9423   17.3211 H         1 ILE         0.1883
    158 H46       -13.9876   -1.2162   18.5173 H         1 ILE         0.0803
    159 H47       -16.2915    0.5835   19.3092 H         1 ILE         0.0345
    160 H48       -14.9698    2.3846   18.4100 H         1 ILE         0.0267
    161 H49       -15.5445    1.2083   17.1802 H         1 ILE         0.0267
    162 H50       -14.7667   -0.0120   21.1115 H         1 ILE         0.0235
    163 H51       -14.6756    1.7269   20.6705 H         1 ILE         0.0235
    164 H52       -13.3883    0.5953   20.1329 H         1 ILE         0.0235
    165 H53       -13.3529    2.0019   16.7087 H         1 ILE         0.0230
    166 H54       -13.3570    0.2444   17.0799 H         1 ILE         0.0230
    167 H55       -12.7823    1.4208   18.3097 H         1 ILE         0.0230
    168 H56       -12.9360   -2.4250   19.7048 H         1 PRO         0.0802
    169 H57       -12.7196   -3.3813   21.9328 H         1 PRO         0.0313
    170 H58       -12.4569   -4.8315   20.9060 H         1 PRO         0.0313
    171 H59       -14.3193   -4.8575   22.7687 H         1 PRO         0.0287
    172 H60       -14.6583   -5.5552   21.1485 H         1 PRO         0.0287
    173 H61       -16.4412   -4.0432   21.1915 H         1 PRO         0.0524
    174 H62       -15.6194   -2.9545   22.3603 H         1 PRO         0.0524
    175 H63       -13.5608   -5.3413   16.3285 H         1 PRO         0.0802
    176 H64       -11.4547   -4.7468   15.4754 H         1 PRO         0.0313
    177 H65       -11.0060   -6.3941   16.0337 H         1 PRO         0.0313
    178 H66        -9.6596   -4.2571   16.9195 H         1 PRO         0.0287
    179 H67       -10.0723   -5.5956   18.0442 H         1 PRO         0.0287
    180 H68       -11.0276   -3.8100   19.2014 H         1 PRO         0.0524
    181 H69       -11.3893   -2.8976   17.6970 H         1 PRO         0.0524
    182 H70       -13.9246   -7.4825   15.9742 H         1 ARG         0.1883
    183 H71       -13.4867   -9.3580   18.2499 H         1 ARG         0.0800
    184 H72       -15.6268  -10.3978   17.7257 H         1 ARG         0.0310
    185 H73       -15.8154   -9.3931   16.2486 H         1 ARG         0.0310
    186 H74       -17.2676   -8.6101   18.0590 H         1 ARG         0.0232
    187 H75       -16.0257   -7.3802   17.6447 H         1 ARG         0.0232
    188 H76       -15.8371   -8.3849   19.1218 H         1 ARG         0.0232
    189 H77       -11.2313  -11.6231   15.1889 H         1 PRO         0.0802
    190 H78       -10.2304  -12.7147   17.0562 H         1 PRO         0.0313
    191 H79       -11.1548  -14.1025   16.3881 H         1 PRO         0.0313
    192 H80       -11.5185  -13.3426   18.9212 H         1 PRO         0.0287
    193 H81       -12.9221  -13.8254   17.9096 H         1 PRO         0.0287
    194 H82       -13.7167  -11.7225   18.5199 H         1 PRO         0.0524
    195 H83       -12.0684  -11.0762   18.8233 H         1 PRO         0.0524
    196 H84       -11.5307  -13.0847   13.5378 H         1 CYS         0.1884
    197 H85       -14.0537  -14.5618   13.4882 H         1 CYS         0.0808
    198 H86       -14.9430  -12.8070   12.4215 H         1 CYS         0.0432
    199 H87       -14.2483  -13.7048   11.0294 H         1 CYS         0.0432
    200 H88       -14.1776  -16.1274   11.8091 H         1 PHE         0.1885
    201 H89       -13.3352  -18.0566   11.0477 H         1 PHE         0.0823
    202 H90       -11.5726  -18.0393    9.3783 H         1 PHE         0.0474
    203 H91       -11.1496  -16.3498    9.8183 H         1 PHE         0.0474
    204 H92       -13.9233  -18.4827    8.3803 H         1 PHE         0.0557
    205 H93       -12.4030  -14.5693    9.0394 H         1 PHE         0.0557
    206 H94       -15.6485  -17.4808    6.8904 H         1 PHE         0.0599
    207 H95       -14.0533  -13.6332    7.5204 H         1 PHE         0.0599
    208 H96       -15.7699  -15.0715    6.5899 H         1 PHE         0.0559
    209 H97       -12.7807  -17.6244   13.6525 H         1 VAL         0.1883
    210 H98       -10.1016  -18.4613   14.2624 H         1 VAL         0.0802
    211 H99       -12.6321  -18.4854   15.9999 H         1 VAL         0.0343
    212 H100      -11.1110  -18.5365   17.9126 H         1 VAL         0.0234
    213 H101       -9.7164  -18.6982   16.7921 H         1 VAL         0.0234
    214 H102      -10.9559  -19.9956   16.8765 H         1 VAL         0.0234
    215 H103      -12.0085  -16.2551   15.2051 H         1 VAL         0.0234
    216 H104      -10.3702  -16.4789   15.9068 H         1 VAL         0.0234
    217 H105      -11.8100  -16.4439   16.9803 H         1 VAL         0.0234
    218 H106       -9.3282  -20.4945   14.3830 H         1 LYS         0.1875
    219 H107      -11.0180  -22.5866   13.2515 H         1 LYS         0.0726
    220 H108       -9.0329  -23.9537   13.3331 H         1 LYS         0.0303
    221 H109       -8.2371  -22.8079   14.4646 H         1 LYS         0.0303
    222 H110       -7.3931  -22.5223   12.1561 H         1 LYS         0.0232
    223 H111       -8.2680  -21.0551   12.7116 H         1 LYS         0.0232
    224 H112       -9.0638  -22.2009   11.5800 H         1 LYS         0.0232
@<TRIPOS>BOND
     1    1    2 1  
     2    2    3 1  
     3    3    4 2  
     4    3    5 am 
     5    5    6 1  
     6    6    7 1  
     7    6    9 1  
     8    7    8 2  
     9    7   11 am 
    10    9   10 1  
    11   10   87 1  
    12   11   12 1  
    13   12   13 1  
    14   12   15 1  
    15   13   14 2  
    16   13   25 am 
    17   15   16 1  
    18   16   17 2  
    19   16   18 1  
    20   17   19 1  
    21   18   20 ar 
    22   18   21 ar 
    23   19   20 1  
    24   20   22 ar 
    25   21   23 ar 
    26   22   24 ar 
    27   23   24 ar 
    28   25   26 1  
    29   26   27 1  
    30   26   29 1  
    31   27   28 2  
    32   27   32 am 
    33   29   30 1  
    34   29   31 1  
    35   32   33 1  
    36   33   34 1  
    37   33   36 1  
    38   34   35 2  
    39   34   41 am 
    40   36   37 1  
    41   37   38 1  
    42   38   39 1  
    43   39   40 1  
    44   41   42 1  
    45   42   43 1  
    46   42   45 1  
    47   43   44 2  
    48   43   47 am 
    49   45   46 1  
    50   47   48 1  
    51   48   49 1  
    52   48   51 1  
    53   49   50 2  
    54   49   55 am 
    55   51   52 1  
    56   51   53 1  
    57   52   54 1  
    58   55   56 1  
    59   55   61 1  
    60   56   57 1  
    61   56   59 1  
    62   57   58 2  
    63   57   62 am 
    64   59   60 1  
    65   60   61 1  
    66   62   63 1  
    67   62   68 1  
    68   63   64 1  
    69   63   66 1  
    70   64   65 2  
    71   64   69 am 
    72   66   67 1  
    73   67   68 1  
    74   69   70 1  
    75   70   71 1  
    76   70   73 1  
    77   71   72 2  
    78   71   75 am 
    79   73   74 1  
    80   75   76 1  
    81   75   81 1  
    82   76   77 1  
    83   76   79 1  
    84   77   78 2  
    85   77   82 am 
    86   79   80 1  
    87   80   81 1  
    88   82   83 1  
    89   83   84 1  
    90   83   86 1  
    91   84   85 2  
    92   84   88 am 
    93   86   87 1  
    94   88   89 1  
    95   89   90 1  
    96   89   92 1  
    97   90   91 2  
    98   90   99 am 
    99   92   93 1  
   100   93   94 ar 
   101   93   95 ar 
   102   94   96 ar 
   103   95   97 ar 
   104   96   98 ar 
   105   97   98 ar 
   106   99  100 1  
   107  100  101 1  
   108  100  103 1  
   109  101  102 2  
   110  101  106 am 
   111  103  104 1  
   112  103  105 1  
   113  106  107 1  
   114  107  108 1  
   115  107  110 1  
   116  108  109 ar 
   117  108  112 ar 
   118  110  111 1  
   119    1  113 1  
   120    1  114 1  
   121    1  115 1  
   122    2  116 1  
   123    2  117 1  
   124    5  118 1  
   125    6  119 1  
   126    9  120 1  
   127    9  121 1  
   128   11  122 1  
   129   12  123 1  
   130   15  124 1  
   131   15  125 1  
   132   17  126 1  
   133   19  127 1  
   134   21  128 1  
   135   22  129 1  
   136   23  130 1  
   137   24  131 1  
   138   25  132 1  
   139   26  133 1  
   140   29  134 1  
   141   30  135 1  
   142   31  136 1  
   143   31  137 1  
   144   31  138 1  
   145   32  139 1  
   146   33  140 1  
   147   36  141 1  
   148   36  142 1  
   149   37  143 1  
   150   37  144 1  
   151   38  145 1  
   152   38  146 1  
   153   39  147 1  
   154   39  148 1  
   155   40  149 1  
   156   40  150 1  
   157   40  151 1  
   158   41  152 1  
   159   42  153 1  
   160   45  154 1  
   161   45  155 1  
   162   46  156 1  
   163   47  157 1  
   164   48  158 1  
   165   51  159 1  
   166   52  160 1  
   167   52  161 1  
   168   53  162 1  
   169   53  163 1  
   170   53  164 1  
   171   54  165 1  
   172   54  166 1  
   173   54  167 1  
   174   56  168 1  
   175   59  169 1  
   176   59  170 1  
   177   60  171 1  
   178   60  172 1  
   179   61  173 1  
   180   61  174 1  
   181   63  175 1  
   182   66  176 1  
   183   66  177 1  
   184   67  178 1  
   185   67  179 1  
   186   68  180 1  
   187   68  181 1  
   188   69  182 1  
   189   70  183 1  
   190   73  184 1  
   191   73  185 1  
   192   74  186 1  
   193   74  187 1  
   194   74  188 1  
   195   76  189 1  
   196   79  190 1  
   197   79  191 1  
   198   80  192 1  
   199   80  193 1  
   200   81  194 1  
   201   81  195 1  
   202   82  196 1  
   203   83  197 1  
   204   86  198 1  
   205   86  199 1  
   206   88  200 1  
   207   89  201 1  
   208   92  202 1  
   209   92  203 1  
   210   94  204 1  
   211   95  205 1  
   212   96  206 1  
   213   97  207 1  
   214   98  208 1  
   215   99  209 1  
   216  100  210 1  
   217  103  211 1  
   218  104  212 1  
   219  104  213 1  
   220  104  214 1  
   221  105  215 1  
   222  105  216 1  
   223  105  217 1  
   224  106  218 1  
   225  107  219 1  
   226  110  220 1  
   227  110  221 1  
   228  111  222 1  
   229  111  223 1  
   230  111  224 1  
@<TRIPOS>SUBSTRUCTURE
     1 GLY         1

