6cpw_ligand
  -I-interpret- 

 82 88  0  0  0  0  0  0  0  0999 V2000
   49.3360   20.0840    7.4280 O   0  0  0  0  0
   49.2980   20.6540    8.5170 C   0  0  0  0  0
   49.2850   21.9990    8.6130 N   0  0  0  0  0
   49.0820   22.8540    7.4490 C   0  0  0  0  0
   47.6370   23.2680    7.4030 C   0  0  0  0  0
   47.2210   23.9270    8.6540 N   0  0  0  0  0
   45.9090   24.4960    8.5790 C   0  0  0  0  0
   45.4380   25.0450    7.3760 C   0  0  0  0  0
   44.1030   25.3620    7.2140 C   0  0  0  0  0
   43.1950   25.2310    8.2630 C   0  0  0  0  0
   41.7430   25.5110    8.0600 C   0  0  0  0  0
   41.3190   25.6400    6.7910 N   0  0  0  0  0
   39.9900   25.7220    6.6220 C   0  0  0  0  0
   39.0910   25.6950    7.6640 C   0  0  0  0  0
   39.6360   25.5710    8.9200 C   0  0  0  0  0
   40.9550   25.4770    9.1480 N   0  0  0  0  0
   43.6850   24.7980    9.4940 C   0  0  0  0  0
   45.0080   24.4100    9.6490 C   0  0  0  0  0
   47.6330   23.2210    9.8830 C   0  0  0  0  0
   49.0890   22.8120    9.8130 C   0  0  0  0  0
   49.1380   19.7870    9.7610 C   0  0  0  0  0
   48.8090   18.3740    9.3870 N   0  3  0  0  0
   47.4250   18.1140    8.9210 C   0  0  0  0  0
   47.3500   16.6070    8.8630 C   0  0  0  0  0
   48.2770   16.1640   10.0080 C   0  0  0  0  0
   48.9400   17.4230   10.5780 C   0  0  0  0  0
   47.1990   15.4420   11.3220 S   0  0  0  0  0
   48.2010   14.9750   12.7390 C   0  0  0  0  0
   49.3260   15.1540    9.5360 C   0  0  0  0  0
   50.4780   15.5040    9.3260 O   0  0  0  0  0
   48.8590   13.9090    9.3110 N   0  0  0  0  0
   49.5830   12.8160    8.7840 C   0  0  0  0  0
   49.0630   11.5360    8.9770 C   0  0  0  0  0
   49.7530   10.4280    8.4900 C   0  0  0  0  0
   49.5580    8.9710    8.5270 C   0  0  0  0  0
   50.5790    8.4220    7.8730 N   0  0  0  0  0
   51.4090    9.4070    7.4380 N   0  0  0  0  0
   50.9530   10.6360    7.7840 C   0  0  0  0  0
   51.4690   11.9070    7.5780 C   0  0  0  0  0
   50.7800   12.9950    8.0880 C   0  0  0  0  0
   48.4720    8.1850    9.1780 C   0  0  0  0  0
   48.0780    6.9510    8.6530 C   0  0  0  0  0
   47.0960    6.1970    9.2740 C   0  0  0  0  0
   46.5110    6.6980   10.4100 C   0  0  0  0  0
   45.5320    5.9680   11.0160 F   0  0  0  0  0
   46.8680    7.9040   10.9640 C   0  0  0  0  0
   47.8570    8.6460   10.3390 C   0  0  0  0  0
   49.3413   22.3109    6.5402 H   0  0  0  0  0
   49.7184   23.7360    7.5212 H   0  0  0  0  0
   47.0273   22.3751    7.2650 H   0  0  0  0  0
   47.5070   23.9736    6.5825 H   0  0  0  0  0
   46.1356   25.2238    6.5578 H   0  0  0  0  0
   43.7530   25.7217    6.2464 H   0  0  0  0  0
   39.6027   25.8147    5.6074 H   0  0  0  0  0
   38.0153   25.7673    7.5035 H   0  0  0  0  0
   38.9612   25.5478    9.7757 H   0  0  0  0  0
   43.0147   24.7635   10.3529 H   0  0  0  0  0
   45.3503   24.0343   10.6132 H   0  0  0  0  0
   47.0231   22.3241    9.9917 H   0  0  0  0  0
   47.4989   23.8910   10.7323 H   0  0  0  0  0
   49.7228   23.6977    9.7702 H   0  0  0  0  0
   49.3574   22.2377   10.6997 H   0  0  0  0  0
   48.3254   20.1883   10.3666 H   0  0  0  0  0
   50.0756   19.7939   10.3168 H   0  0  0  0  0
   49.4747   18.2190    8.6299 H   0  0  0  0  0
   47.2136   18.5802    7.9587 H   0  0  0  0  0
   46.6735   18.5446    9.5828 H   0  0  0  0  0
   47.6562   16.2079    7.8960 H   0  0  0  0  0
   46.3328   16.2321    8.9768 H   0  0  0  0  0
   48.4795   17.7920   11.4944 H   0  0  0  0  0
   49.9653   17.2717   10.9155 H   0  0  0  0  0
   48.9409   14.2361   12.4314 H   0  0  0  0  0
   48.7076   15.8571   13.1307 H   0  0  0  0  0
   47.5601   14.5496   13.5112 H   0  0  0  0  0
   47.8811   13.7386    9.5457 H   0  0  0  0  0
   48.1199   11.4032    9.5071 H   0  0  0  0  0
   52.3983   12.0468    7.0257 H   0  0  0  0  0
   51.1760   14.0003    7.9446 H   0  0  0  0  0
   48.5492    6.5775    7.7439 H   0  0  0  0  0
   46.7954    5.2300    8.8706 H   0  0  0  0  0
   46.3856    8.2672   11.8714 H   0  0  0  0  0
   48.1580    9.6044   10.7622 H   0  0  0  0  0
  1  2  2  0  0  0
  2  3  1  0  0  0
  2 21  1  0  0  0
  3  4  1  0  0  0
  3 20  1  0  0  0
  4  5  1  0  0  0
  5  6  1  0  0  0
  6  7  1  0  0  0
  6 19  1  0  0  0
  7  8  4  0  0  0
  7 18  4  0  0  0
  8  9  4  0  0  0
  9 10  4  0  0  0
 10 11  1  0  0  0
 10 17  4  0  0  0
 11 12  4  0  0  0
 11 16  4  0  0  0
 12 13  4  0  0  0
 13 14  4  0  0  0
 14 15  4  0  0  0
 15 16  4  0  0  0
 17 18  4  0  0  0
 19 20  1  0  0  0
 21 22  1  0  0  0
 22 23  1  0  0  0
 22 26  1  0  0  0
 23 24  1  0  0  0
 24 25  1  0  0  0
 25 26  1  0  0  0
 25 27  1  0  0  0
 25 29  1  0  0  0
 27 28  1  0  0  0
 29 30  2  0  0  0
 29 31  1  0  0  0
 31 32  1  0  0  0
 32 33  4  0  0  0
 32 40  4  0  0  0
 33 34  4  0  0  0
 34 35  4  0  0  0
 34 38  4  0  0  0
 35 36  4  0  0  0
 35 41  1  0  0  0
 36 37  4  0  0  0
 37 38  4  0  0  0
 38 39  4  0  0  0
 39 40  4  0  0  0
 41 42  4  0  0  0
 41 47  4  0  0  0
 42 43  4  0  0  0
 43 44  4  0  0  0
 44 45  1  0  0  0
 44 46  4  0  0  0
 46 47  4  0  0  0
  4 48  1  0  0  0
  4 49  1  0  0  0
  5 50  1  0  0  0
  5 51  1  0  0  0
  8 52  1  0  0  0
  9 53  1  0  0  0
 13 54  1  0  0  0
 14 55  1  0  0  0
 15 56  1  0  0  0
 17 57  1  0  0  0
 18 58  1  0  0  0
 19 59  1  0  0  0
 19 60  1  0  0  0
 20 61  1  0  0  0
 20 62  1  0  0  0
 21 63  1  0  0  0
 21 64  1  0  0  0
 22 65  1  0  0  0
 23 66  1  0  0  0
 23 67  1  0  0  0
 24 68  1  0  0  0
 24 69  1  0  0  0
 26 70  1  0  0  0
 26 71  1  0  0  0
 28 72  1  0  0  0
 28 73  1  0  0  0
 28 74  1  0  0  0
 31 75  1  0  0  0
 33 76  1  0  0  0
 39 77  1  0  0  0
 40 78  1  0  0  0
 42 79  1  0  0  0
 43 80  1  0  0  0
 46 81  1  0  0  0
 47 82  1  0  0  0
M  END
$$$$
