5brn_ligand
  -I-interpret- 

 36 37  0  0  0  0  0  0  0  0999 V2000
  -14.8330   15.3860  -19.4730 N   0  0  0  0  0
  -14.6860   14.5030  -18.4210 C   0  0  0  0  0
  -14.5180   12.5750  -17.1350 C   0  0  0  0  0
  -14.3480   14.5870  -16.0220 C   0  0  0  0  0
  -14.7520   16.6180  -18.9930 C   0  0  0  0  0
  -19.0000   20.8970  -21.5620 O   0  0  0  0  0
  -18.0650   19.8820  -22.1850 P   0  0  0  0  0
  -16.6540   20.3920  -22.0930 O   0  0  0  0  0
  -18.4460   19.6930  -23.6400 O   0  0  0  0  0
  -18.2220   18.2820  -21.2800 C   0  0  0  0  0
  -17.3480   17.1580  -21.8700 C   0  0  0  0  0
  -17.1140   16.1980  -20.8570 O   0  0  0  0  0
  -16.4930   15.0330  -21.3000 C   0  0  0  0  0
  -17.1920   13.8020  -20.7370 C   0  0  0  0  0
  -18.0190   13.2490  -21.7680 O   0  0  0  0  0
  -15.0230   15.0210  -20.8780 C   0  0  0  0  0
  -14.6800   13.1530  -18.3090 N   0  0  0  0  0
  -14.3530   13.2580  -15.9990 N   0  0  0  0  0
  -14.1710   15.3180  -14.8120 O   0  0  0  0  0
  -14.5190   15.2800  -17.2660 C   0  0  0  0  0
  -14.5650   16.5840  -17.6570 N   0  0  0  0  0
  -14.5188   11.4860  -17.0892 H   0  0  0  0  0
  -14.8257   17.5269  -19.5902 H   0  0  0  0  0
  -19.9028   20.5756  -21.6184 H   0  0  0  0  0
  -19.3475   19.3673  -23.6939 H   0  0  0  0  0
  -19.2617   17.9632  -21.3535 H   0  0  0  0  0
  -17.8932   18.4505  -20.2545 H   0  0  0  0  0
  -16.4013   17.5671  -22.2229 H   0  0  0  0  0
  -17.8568   16.6934  -22.7146 H   0  0  0  0  0
  -16.5566   15.0096  -22.3879 H   0  0  0  0  0
  -17.7997   14.0766  -19.8748 H   0  0  0  0  0
  -16.4552   13.0674  -20.4120 H   0  0  0  0  0
  -18.4693   12.4704  -21.4323 H   0  0  0  0  0
  -14.6451   14.0077  -21.0136 H   0  0  0  0  0
  -14.4947   15.7540  -21.4877 H   0  0  0  0  0
  -14.2312   12.7612  -15.1165 H   0  0  0  0  0
  1  2  4  0  0  0
  1  5  4  0  0  0
 16  1  1  0  0  0
  2 17  1  0  0  0
  2 20  4  0  0  0
 17  3  2  0  0  0
  3 18  1  0  0  0
  4 18  1  0  0  0
  4 19  2  0  0  0
 20  4  1  0  0  0
  5 21  4  0  0  0
  7  6  1  0  0  0
  7  8  2  0  0  0
  7  9  1  0  0  0
 10  7  1  0  0  0
 11 10  1  0  0  0
 12 11  1  0  0  0
 13 12  1  0  0  0
 13 14  1  0  0  0
 13 16  1  0  0  0
 14 15  1  0  0  0
 20 21  4  0  0  0
  3 22  1  0  0  0
  5 23  1  0  0  0
  6 24  1  0  0  0
  9 25  1  0  0  0
 10 26  1  0  0  0
 10 27  1  0  0  0
 11 28  1  0  0  0
 11 29  1  0  0  0
 13 30  1  0  0  0
 14 31  1  0  0  0
 14 32  1  0  0  0
 15 33  1  0  0  0
 16 34  1  0  0  0
 16 35  1  0  0  0
 18 36  1  0  0  0
M  END
$$$$
