### 
### Created by X-TOOL on Mon Sep 10 21:13:25 2018
### 

@<TRIPOS>MOLECULE
5brn_ligand
   34    35     1     0     0
SMALL
GAST_HUCK


@<TRIPOS>ATOM
      1 N12       -14.8330   15.3860  -19.4730 N.pl3     1 4X2        -0.2312
      2 C13       -14.6860   14.5030  -18.4210 C.2       1 4X2         0.1334
      3 C15       -14.5180   12.5750  -17.1350 C.2       1 4X2         0.1273
      4 C17       -14.3480   14.5870  -16.0220 C.2       1 4X2         0.2200
      5 C21       -14.7520   16.6180  -18.9930 C.2       1 4X2         0.0980
      6 O01       -19.0000   20.8970  -21.5620 O.co2     1 4X2        -0.5622
      7 P02       -18.0650   19.8820  -22.1850 P.3       1 4X2         0.0600
      8 O03       -16.6540   20.3920  -22.0930 O.co2     1 4X2        -0.5622
      9 O04       -18.4460   19.6930  -23.6400 O.co2     1 4X2        -0.5622
     10 C05       -18.2220   18.2820  -21.2800 C.3       1 4X2         0.0430
     11 C06       -17.3480   17.1580  -21.8700 C.3       1 4X2         0.0631
     12 O07       -17.1140   16.1980  -20.8570 O.3       1 4X2        -0.3701
     13 C08       -16.4930   15.0330  -21.3000 C.3       1 4X2         0.1093
     14 C09       -17.1920   13.8020  -20.7370 C.3       1 4X2         0.0730
     15 O10       -18.0190   13.2490  -21.7680 O.3       1 4X2        -0.3924
     16 C11       -15.0230   15.0210  -20.8780 C.3       1 4X2         0.0878
     17 N14       -14.6800   13.1530  -18.3090 N.2       1 4X2        -0.2684
     18 N16       -14.3530   13.2580  -15.9990 N.am      1 4X2        -0.2042
     19 O18       -14.1710   15.3180  -14.8120 O.2       1 4X2        -0.4066
     20 C19       -14.5190   15.2800  -17.2660 C.2       1 4X2         0.1043
     21 N20       -14.5650   16.5840  -17.6570 N.2       1 4X2        -0.3156
     22 H1        -14.5188   11.4870  -17.0893 H         1 4X2         0.1493
     23 H2        -14.8256   17.5260  -19.5897 H         1 4X2         0.1212
     24 H3        -19.2737   17.9619  -21.3170 H         1 4X2         0.0474
     25 H4        -17.9242   18.4425  -20.2333 H         1 4X2         0.0474
     26 H5        -16.3904   17.5743  -22.2160 H         1 4X2         0.0574
     27 H6        -17.8698   16.6864  -22.7158 H         1 4X2         0.0574
     28 H7        -16.5484   15.0011  -22.3981 H         1 4X2         0.0647
     29 H8        -17.8122   14.0872  -19.8745 H         1 4X2         0.0584
     30 H9        -16.4437   13.0601  -20.4213 H         1 4X2         0.0584
     31 H10       -18.4646   12.4785  -21.4358 H         1 4X2         0.2095
     32 H11       -14.6203   14.0096  -21.0359 H         1 4X2         0.0645
     33 H12       -14.4716   15.7372  -21.5049 H         1 4X2         0.0645
     34 H13       -14.2336   12.7709  -15.1338 H         1 4X2         0.2557
@<TRIPOS>BOND
     1    1    2 1  
     2    1    5 1  
     3   16    1 1  
     4    2   17 1  
     5    2   20 2  
     6   17    3 2  
     7    3   18 am 
     8    4   18 am 
     9    4   19 2  
    10   20    4 1  
    11    5   21 2  
    12    7    6 ar 
    13    7    8 ar 
    14    7    9 ar 
    15   10    7 1  
    16   11   10 1  
    17   12   11 1  
    18   13   12 1  
    19   13   14 1  
    20   13   16 1  
    21   14   15 1  
    22   20   21 1  
    23    3   22 1  
    24    5   23 1  
    25   10   24 1  
    26   10   25 1  
    27   11   26 1  
    28   11   27 1  
    29   13   28 1  
    30   14   29 1  
    31   14   30 1  
    32   15   31 1  
    33   16   32 1  
    34   16   33 1  
    35   18   34 1  
@<TRIPOS>SUBSTRUCTURE
     1 4X2         1

