3k8c_ligand
  -I-interpret- 

 24 23  0  0  0  0  0  0  0  0999 V2000
   43.3420   29.4030   13.9430 O   0  0  0  0  0
   42.8750   29.3410   12.5080 P   0  0  0  0  0
   43.5170   28.2360   11.7370 O   0  0  0  0  0
   42.7470   30.6890   11.8190 O   0  0  0  0  0
   41.3290   28.8380   12.6630 O   0  0  0  0  0
   40.2460   29.7510   12.9070 C   0  0  0  0  0
   39.0120   28.9000   13.1820 C   0  0  0  0  0
   39.2770   28.0340   14.2890 O   0  0  0  0  0
   37.7080   29.6540   13.4520 C   0  0  0  0  0
   37.6510   30.8890   12.7220 O   0  0  0  0  0
   36.5660   28.7040   13.1410 C   0  0  0  0  0
   36.4010   28.1380   12.0600 O   0  0  0  0  0
   35.7500   28.4440   14.1500 N   0  0  0  0  0
   34.7040   27.5710   13.9200 O   0  0  0  0  0
   42.9000   30.1279   14.3911 H   0  0  0  0  0
   42.3212   31.3115   12.4129 H   0  0  0  0  0
   40.0856   30.4029   12.0483 H   0  0  0  0  0
   40.4677   30.4001   13.7541 H   0  0  0  0  0
   38.8392   28.3609   12.2505 H   0  0  0  0  0
   40.0938   27.5550   14.1308 H   0  0  0  0  0
   37.6376   29.9574   14.4965 H   0  0  0  0  0
   36.8228   31.3349   12.9139 H   0  0  0  0  0
   35.8884   28.8729   15.0650 H   0  0  0  0  0
   34.1914   27.4684   14.7252 H   0  0  0  0  0
  1  2  1  0  0  0
  2  3  2  0  0  0
  2  4  1  0  0  0
  2  5  1  0  0  0
  5  6  1  0  0  0
  6  7  1  0  0  0
  7  8  1  0  0  0
  7  9  1  0  0  0
  9 10  1  0  0  0
  9 11  1  0  0  0
 11 12  2  0  0  0
 11 13  1  0  0  0
 13 14  1  0  0  0
  1 15  1  0  0  0
  4 16  1  0  0  0
  6 17  1  0  0  0
  6 18  1  0  0  0
  7 19  1  0  0  0
  8 20  1  0  0  0
  9 21  1  0  0  0
 10 22  1  0  0  0
 13 23  1  0  0  0
 14 24  1  0  0  0
M  END
$$$$
