4aa4_ligand
  -I-interpret- 

 59 63  0  0  0  0  0  0  0  0999 V2000
   -1.6050    4.7270   28.7740 C   0  0  0  0  0
   -1.5040    3.9930   27.4690 N   0  3  0  0  0
   -1.8150    2.5480   27.6680 C   0  0  0  0  0
   -1.7780    1.7820   26.3350 C   0  0  0  0  0
   -2.6960    2.4250   25.3660 N   0  0  0  0  0
   -2.3770    3.8580   25.1680 C   0  0  0  0  0
   -2.4840    4.5830   26.5210 C   0  0  0  0  0
   -2.8100    1.6540   24.1920 C   0  0  0  0  0
   -2.7520    0.2420   24.3080 C   0  0  0  0  0
   -2.8940   -0.5770   23.2110 C   0  0  0  0  0
   -3.0980    0.0220   21.9450 C   0  0  0  0  0
   -3.2000   -0.7290   20.8050 N   0  0  0  0  0
   -3.4150   -0.2360   19.6040 C   0  0  0  0  0
   -3.5370    1.1240   19.4100 N   0  0  0  0  0
   -3.8550    1.6790   18.1540 C   0  0  0  0  0
   -2.9580    2.2330   17.2470 C   0  0  0  0  0
   -3.4820    2.7730   16.0520 C   0  0  0  0  0
   -2.6520    3.3420   15.0770 N   0  0  0  0  0
   -1.3630    2.9840   14.9120 C   0  0  0  0  0
   -0.7530    2.1590   15.5780 O   0  0  0  0  0
   -0.7200    3.6590   13.7990 C   0  0  0  0  0
    0.3680    3.1150   12.9600 C   0  0  0  0  0
    0.5310    4.1100   12.0580 C   0  0  0  0  0
   -0.3270    5.1510   12.3070 O   0  0  0  0  0
   -1.0880    4.8940   13.3380 C   0  0  0  0  0
   -4.8520    2.7340   15.7450 C   0  0  0  0  0
   -5.7200    2.1350   16.6440 C   0  0  0  0  0
   -5.2220    1.6300   17.8510 C   0  0  0  0  0
   -6.2750    1.0140   18.7780 C   0  0  0  0  0
   -3.4080    2.0020   20.4630 C   0  0  0  0  0
   -3.1820    1.4450   21.8280 C   0  0  0  0  0
   -3.0370    2.2510   22.9430 C   0  0  0  0  0
   -3.4780    3.2070   20.2630 O   0  0  0  0  0
   -1.3813    5.7818   28.6144 H   0  0  0  0  0
   -2.6154    4.6244   29.1698 H   0  0  0  0  0
   -0.8914    4.3061   29.4823 H   0  0  0  0  0
   -0.5570    4.0766   27.0995 H   0  0  0  0  0
   -2.8162    2.4627   28.0904 H   0  0  0  0  0
   -1.0673    2.1201   28.3358 H   0  0  0  0  0
   -2.0911    0.7512   26.5010 H   0  0  0  0  0
   -0.7634    1.7968   25.9370 H   0  0  0  0  0
   -3.0777    4.2971   24.4578 H   0  0  0  0  0
   -1.3658    3.9597   24.7740 H   0  0  0  0  0
   -2.2704    5.6433   26.3862 H   0  0  0  0  0
   -3.4924    4.4691   26.9187 H   0  0  0  0  0
   -2.5912   -0.2053   25.2889 H   0  0  0  0  0
   -2.8504   -1.6612   23.3148 H   0  0  0  0  0
   -3.4977   -0.9108   18.7520 H   0  0  0  0  0
   -1.8875    2.2498   17.4515 H   0  0  0  0  0
   -3.0406    4.0592   14.4647 H   0  0  0  0  0
    0.8975    2.1661   13.0451 H   0  0  0  0  0
    1.2506    4.0875   11.2396 H   0  0  0  0  0
   -1.8647    5.5380   13.7505 H   0  0  0  0  0
   -5.2255    3.1668   14.8170 H   0  0  0  0  0
   -6.7824    2.0576   16.4131 H   0  0  0  0  0
   -6.0408   -0.0376   18.9437 H   0  0  0  0  0
   -6.2720    1.5427   19.7312 H   0  0  0  0  0
   -7.2586    1.1002   18.3163 H   0  0  0  0  0
   -3.0983    3.3355   22.8522 H   0  0  0  0  0
  1  2  1  0  0  0
  2  3  1  0  0  0
  2  7  1  0  0  0
  3  4  1  0  0  0
  4  5  1  0  0  0
  5  6  1  0  0  0
  5  8  1  0  0  0
  6  7  1  0  0  0
  8  9  4  0  0  0
  8 32  4  0  0  0
  9 10  4  0  0  0
 10 11  4  0  0  0
 11 12  1  0  0  0
 11 31  4  0  0  0
 12 13  2  0  0  0
 13 14  1  0  0  0
 14 15  1  0  0  0
 14 30  1  0  0  0
 15 16  4  0  0  0
 15 28  4  0  0  0
 16 17  4  0  0  0
 17 18  1  0  0  0
 17 26  4  0  0  0
 18 19  1  0  0  0
 19 20  2  0  0  0
 19 21  1  0  0  0
 21 22  4  0  0  0
 21 25  4  0  0  0
 22 23  4  0  0  0
 23 24  4  0  0  0
 24 25  4  0  0  0
 26 27  4  0  0  0
 27 28  4  0  0  0
 28 29  1  0  0  0
 30 31  1  0  0  0
 30 33  2  0  0  0
 31 32  4  0  0  0
  1 34  1  0  0  0
  1 35  1  0  0  0
  1 36  1  0  0  0
  2 37  1  0  0  0
  3 38  1  0  0  0
  3 39  1  0  0  0
  4 40  1  0  0  0
  4 41  1  0  0  0
  6 42  1  0  0  0
  6 43  1  0  0  0
  7 44  1  0  0  0
  7 45  1  0  0  0
  9 46  1  0  0  0
 10 47  1  0  0  0
 13 48  1  0  0  0
 16 49  1  0  0  0
 18 50  1  0  0  0
 22 51  1  0  0  0
 23 52  1  0  0  0
 25 53  1  0  0  0
 26 54  1  0  0  0
 27 55  1  0  0  0
 29 56  1  0  0  0
 29 57  1  0  0  0
 29 58  1  0  0  0
 32 59  1  0  0  0
M  END
$$$$
