1toi_ligand
  -I-interpret- 

 21 21  0  0  0  0  0  0  0  0999 V2000
   73.2820   53.7340   34.1950 C   0  0  0  0  0
   72.1530   54.1970   34.0410 O   0  0  0  0  0
   73.4290   52.5530   34.7740 O   0  0  0  0  0
   74.5300   54.4900   33.7870 C   0  0  0  0  0
   74.4080   55.0380   32.3640 C   0  0  0  0  0
   74.6950   53.9180   31.3790 C   0  0  0  0  0
   75.9190   53.8980   30.7100 C   0  0  0  0  0
   76.2060   52.8910   29.7890 C   0  0  0  0  0
   75.2750   51.8780   29.5680 C   0  0  0  0  0
   74.0540   51.8800   30.2440 C   0  0  0  0  0
   73.7600   52.8970   31.1500 C   0  0  0  0  0
   74.3626   52.3342   34.8195 H   0  0  0  0  0
   75.3776   53.8057   33.8237 H   0  0  0  0  0
   74.6672   55.3277   34.4707 H   0  0  0  0  0
   75.1224   55.8484   32.2188 H   0  0  0  0  0
   73.4007   55.4219   32.2021 H   0  0  0  0  0
   76.6567   54.6754   30.9087 H   0  0  0  0  0
   77.1512   52.8962   29.2462 H   0  0  0  0  0
   75.5019   51.0787   28.8625 H   0  0  0  0  0
   73.3300   51.0855   30.0631 H   0  0  0  0  0
   72.8070   52.8995   31.6790 H   0  0  0  0  0
  1  2  2  0  0  0
  1  3  1  0  0  0
  1  4  1  0  0  0
  4  5  1  0  0  0
  5  6  1  0  0  0
  6  7  4  0  0  0
  6 11  4  0  0  0
  7  8  4  0  0  0
  8  9  4  0  0  0
  9 10  4  0  0  0
 10 11  4  0  0  0
  3 12  1  0  0  0
  4 13  1  0  0  0
  4 14  1  0  0  0
  5 15  1  0  0  0
  5 16  1  0  0  0
  7 17  1  0  0  0
  8 18  1  0  0  0
  9 19  1  0  0  0
 10 20  1  0  0  0
 11 21  1  0  0  0
M  END
$$$$
