4obo_ligand
  -I-interpret- 

 28 30  0  0  0  0  0  0  0  0999 V2000
  -20.2370  -10.1060   31.0960 Cl  0  0  0  0  0
  -19.5950   -8.2250   27.5310 C   0  0  0  0  0
  -18.6190   -7.3190   27.9570 C   0  0  0  0  0
  -18.1590   -7.2640   29.4490 C   0  0  0  0  0
  -18.6820   -8.1330   30.3820 C   0  0  0  0  0
  -19.6280   -9.0380   29.9590 C   0  0  0  0  0
  -20.0940   -9.1090   28.6160 C   0  0  0  0  0
  -17.1720   -6.2840   29.8570 C   0  0  0  0  0
  -17.1110   -5.0270   29.0250 C   0  0  0  0  0
  -16.1960   -3.9860   29.3300 C   0  0  0  0  0
  -15.3490   -4.1610   30.4370 C   0  0  0  0  0
  -15.4530   -5.4930   31.2620 C   0  0  0  0  0
  -16.3500   -6.4840   30.9440 C   0  0  0  0  0
  -14.5170   -5.5280   32.3220 C   0  0  0  0  0
  -13.6820   -4.4600   32.5210 N   0  0  0  0  0
  -13.6320   -3.3620   31.8420 C   0  0  0  0  0
  -14.4450   -3.2130   30.7840 N   0  0  0  0  0
  -14.4420   -6.5270   33.1070 N   0  0  0  0  0
  -19.9547   -8.2777   26.5034 H   0  0  0  0  0
  -18.1703   -6.6378   27.2340 H   0  0  0  0  0
  -18.3566   -8.1043   31.4219 H   0  0  0  0  0
  -20.8555   -9.8494   28.3711 H   0  0  0  0  0
  -17.7824   -4.9163   28.1735 H   0  0  0  0  0
  -16.1518   -3.0803   28.7251 H   0  0  0  0  0
  -16.4092   -7.3992   31.5331 H   0  0  0  0  0
  -12.9400   -2.5684   32.1239 H   0  0  0  0  0
  -15.0648   -7.3245   32.9785 H   0  0  0  0  0
  -13.7591   -6.5301   33.8646 H   0  0  0  0  0
  6  1  1  0  0  0
  3  2  4  0  0  0
  2  7  4  0  0  0
  4  3  4  0  0  0
  5  4  4  0  0  0
  4  8  1  0  0  0
  5  6  4  0  0  0
  6  7  4  0  0  0
  8  9  4  0  0  0
  8 13  4  0  0  0
  9 10  4  0  0  0
 10 11  4  0  0  0
 11 12  4  0  0  0
 11 17  4  0  0  0
 12 13  4  0  0  0
 12 14  4  0  0  0
 14 15  4  0  0  0
 14 18  1  0  0  0
 15 16  4  0  0  0
 16 17  4  0  0  0
  2 19  1  0  0  0
  3 20  1  0  0  0
  5 21  1  0  0  0
  7 22  1  0  0  0
  9 23  1  0  0  0
 10 24  1  0  0  0
 13 25  1  0  0  0
 16 26  1  0  0  0
 18 27  1  0  0  0
 18 28  1  0  0  0
M  END
$$$$
