4btm_ligand
  -I-interpret- 

 31 33  0  0  0  0  0  0  0  0999 V2000
   -7.2550    9.7830  -32.2190 Br  0  0  0  0  0
   -3.3570    8.4870  -28.5630 C   0  0  0  0  0
   -3.8960    7.7470  -29.6610 O   0  0  0  0  0
   -4.8450    8.4660  -30.3350 C   0  0  0  0  0
   -5.3880    9.4720  -29.9050 O   0  0  0  0  0
   -5.0830    7.8750  -31.6800 C   0  0  0  0  0
   -4.2980    6.8110  -32.0860 C   0  0  0  0  0
   -4.4700    6.2420  -33.3330 C   0  0  0  0  0
   -5.4120    6.7530  -34.1990 C   0  0  0  0  0
   -6.2070    7.7970  -33.8120 C   0  0  0  0  0
   -6.0460    8.3560  -32.5620 C   0  0  0  0  0
   -3.6480    5.1800  -33.7170 N   0  0  0  0  0
   -4.0030    4.1670  -34.6320 C   0  0  0  0  0
   -3.0660    3.1830  -34.9060 C   0  0  0  0  0
   -1.7420    2.9010  -34.4740 C   0  0  0  0  0
   -1.3420    1.7510  -35.1160 C   0  0  0  0  0
   -2.3710    1.3280  -35.9140 N   0  0  0  0  0
   -3.4290    2.1920  -35.7980 C   0  0  0  0  0
   -4.6090    2.0850  -36.4230 N   0  0  0  0  0
   -5.4380    3.0760  -36.0900 C   0  0  0  0  0
   -5.1990    4.0840  -35.2500 N   0  0  0  0  0
   -2.8966    9.4025  -28.9346 H   0  0  0  0  0
   -4.1579    8.7379  -27.8676 H   0  0  0  0  0
   -2.6069    7.8828  -28.0526 H   0  0  0  0  0
   -3.5351    6.4171  -31.4145 H   0  0  0  0  0
   -5.5241    6.3244  -35.1949 H   0  0  0  0  0
   -6.9662    8.1861  -34.4905 H   0  0  0  0  0
   -2.7170    5.1333  -33.3028 H   0  0  0  0  0
   -1.1535    3.4857  -33.7669 H   0  0  0  0  0
   -0.3739    1.2619  -35.0078 H   0  0  0  0  0
   -6.4225    3.0600  -36.5576 H   0  0  0  0  0
 11  1  1  0  0  0
  3  2  1  0  0  0
  4  3  1  0  0  0
  4  5  2  0  0  0
  6  4  1  0  0  0
  6  7  4  0  0  0
  6 11  4  0  0  0
  7  8  4  0  0  0
  8  9  4  0  0  0
  8 12  1  0  0  0
  9 10  4  0  0  0
 10 11  4  0  0  0
 12 13  1  0  0  0
 13 14  4  0  0  0
 13 21  4  0  0  0
 14 15  4  0  0  0
 14 18  4  0  0  0
 15 16  4  0  0  0
 16 17  4  0  0  0
 17 18  4  0  0  0
 18 19  4  0  0  0
 19 20  4  0  0  0
 20 21  4  0  0  0
  2 22  1  0  0  0
  2 23  1  0  0  0
  2 24  1  0  0  0
  7 25  1  0  0  0
  9 26  1  0  0  0
 10 27  1  0  0  0
 12 28  1  0  0  0
 15 29  1  0  0  0
 16 30  1  0  0  0
 20 31  1  0  0  0
M  END
$$$$
