2lko_ligand
  -I-interpret- 

 44 44  0  0  0  0  0  0  0  0999 V2000
  -14.9570    4.5830   -0.1920 C   0  0  0  0  0
  -15.8120    5.7310   -0.2670 O   0  0  0  0  0
  -13.5330    5.0000   -0.5750 C   0  0  0  0  0
  -13.5450    5.5890   -1.8790 O   0  0  0  0  0
  -12.6040    3.7840   -0.5850 C   0  0  0  0  0
  -11.2900    4.1890   -0.9890 O   0  0  0  0  0
  -13.1250    2.7280   -1.5610 C   0  0  0  0  0
  -13.1600    3.2760   -2.8820 O   0  0  0  0  0
  -14.5380    2.2960   -1.1600 C   0  0  0  0  0
  -15.0260    1.3180   -2.0830 O   0  0  0  0  0
  -15.4780    3.5060   -1.1500 C   0  0  0  0  0
  -16.7790    3.0890   -0.7260 O   0  0  0  0  0
  -17.2090    5.7620    0.5370 P   0  0  0  0  0
  -18.3170    5.1140   -0.1990 O   0  0  0  0  0
  -17.5010    7.3130    0.8520 O   0  0  0  0  0
  -16.9170    5.0720    1.9610 O   0  0  0  0  0
  -10.0480    3.1790   -0.8060 P   0  0  0  0  0
   -9.8810    2.2590   -1.9540 O   0  0  0  0  0
  -10.3110    2.4040    0.5810 O   0  0  0  0  0
   -8.7560    4.1060   -0.5530 O   0  0  0  0  0
  -13.1650    2.2980   -4.1620 P   0  0  0  0  0
  -12.5850    2.9290   -5.3680 O   0  0  0  0  0
  -14.6970    1.8470   -4.3700 O   0  0  0  0  0
  -12.3730    0.9720   -3.7090 O   0  0  0  0  0
  -16.4680    0.6400   -1.8500 P   0  0  0  0  0
  -17.5690    1.4030   -2.4780 O   0  0  0  0  0
  -16.6390    0.4990   -0.2550 O   0  0  0  0  0
  -16.3470   -0.8630   -2.4140 O   0  0  0  0  0
  -14.9492    4.1787    0.8202 H   0  0  0  0  0
  -13.1699    5.7196    0.1587 H   0  0  0  0  0
  -14.1266    6.3528   -1.8786 H   0  0  0  0  0
  -12.5701    3.3592    0.4183 H   0  0  0  0  0
  -12.4620    1.8632   -1.5355 H   0  0  0  0  0
  -14.5028    1.8647   -0.1596 H   0  0  0  0  0
  -15.5263    3.9223   -2.1562 H   0  0  0  0  0
  -17.3698    3.8456   -0.7189 H   0  0  0  0  0
  -16.7564    7.6873    1.3285 H   0  0  0  0  0
  -16.1926    5.5292    2.3943 H   0  0  0  0  0
  -10.4118    3.0438    1.2896 H   0  0  0  0  0
   -8.9179    4.6802    0.1991 H   0  0  0  0  0
  -15.0237    1.4453   -3.5616 H   0  0  0  0  0
  -12.7887    0.6042   -2.9257 H   0  0  0  0  0
  -15.9019   -0.0020    0.1017 H   0  0  0  0  0
  -15.6204   -1.3109   -1.9747 H   0  0  0  0  0
  1  2  1  0  0  0
  1  3  1  0  0  0
  1 11  1  0  0  0
  2 13  1  0  0  0
  3  4  1  0  0  0
  3  5  1  0  0  0
  5  6  1  0  0  0
  5  7  1  0  0  0
  6 17  1  0  0  0
  7  8  1  0  0  0
  7  9  1  0  0  0
  8 21  1  0  0  0
  9 10  1  0  0  0
  9 11  1  0  0  0
 10 25  1  0  0  0
 11 12  1  0  0  0
 13 14  2  0  0  0
 13 15  1  0  0  0
 13 16  1  0  0  0
 17 18  2  0  0  0
 17 19  1  0  0  0
 17 20  1  0  0  0
 21 22  2  0  0  0
 21 23  1  0  0  0
 21 24  1  0  0  0
 25 26  2  0  0  0
 25 27  1  0  0  0
 25 28  1  0  0  0
  1 29  1  0  0  0
  3 30  1  0  0  0
  4 31  1  0  0  0
  5 32  1  0  0  0
  7 33  1  0  0  0
  9 34  1  0  0  0
 11 35  1  0  0  0
 12 36  1  0  0  0
 15 37  1  0  0  0
 16 38  1  0  0  0
 19 39  1  0  0  0
 20 40  1  0  0  0
 23 41  1  0  0  0
 24 42  1  0  0  0
 27 43  1  0  0  0
 28 44  1  0  0  0
M  END
$$$$
