### 
### Created by X-TOOL on Mon Sep 10 21:13:08 2018
### 

@<TRIPOS>MOLECULE
2lko_ligand
   36    36     1     0     0
SMALL
GAST_HUCK


@<TRIPOS>ATOM
      1 C1        -14.9570    4.5830   -0.1920 C.3       1 4IP         0.1463
      2 O1        -15.8120    5.7310   -0.2670 O.3       1 4IP        -0.2675
      3 C2        -13.5330    5.0000   -0.5750 C.3       1 4IP         0.1215
      4 O2        -13.5450    5.5890   -1.8790 O.3       1 4IP        -0.3858
      5 C3        -12.6040    3.7840   -0.5850 C.3       1 4IP         0.1509
      6 O3        -11.2900    4.1890   -0.9890 O.3       1 4IP        -0.2672
      7 C4        -13.1250    2.7280   -1.5610 C.3       1 4IP         0.1550
      8 O4        -13.1600    3.2760   -2.8820 O.3       1 4IP        -0.2669
      9 C5        -14.5380    2.2960   -1.1600 C.3       1 4IP         0.1509
     10 O5        -15.0260    1.3180   -2.0830 O.3       1 4IP        -0.2672
     11 C6        -15.4780    3.5060   -1.1500 C.3       1 4IP         0.1215
     12 O6        -16.7790    3.0890   -0.7260 O.3       1 4IP        -0.3858
     13 P1        -17.2090    5.7620    0.5370 P.3       1 4IP         0.2013
     14 O1P       -18.3170    5.1140   -0.1990 O.co2     1 4IP        -0.5537
     15 O2P       -17.5010    7.3130    0.8520 O.co2     1 4IP        -0.5537
     16 O3P       -16.9170    5.0720    1.9610 O.co2     1 4IP        -0.5537
     17 P3        -10.0480    3.1790   -0.8060 P.3       1 4IP         0.2013
     18 O4P        -9.8810    2.2590   -1.9540 O.co2     1 4IP        -0.5537
     19 O5P       -10.3110    2.4040    0.5810 O.co2     1 4IP        -0.5537
     20 O6P        -8.7560    4.1060   -0.5530 O.co2     1 4IP        -0.5537
     21 P4        -13.1650    2.2980   -4.1620 P.3       1 4IP         0.2013
     22 O7P       -12.5850    2.9290   -5.3680 O.co2     1 4IP        -0.5537
     23 O8P       -14.6970    1.8470   -4.3700 O.co2     1 4IP        -0.5537
     24 O9P       -12.3730    0.9720   -3.7090 O.co2     1 4IP        -0.5537
     25 P5        -16.4680    0.6400   -1.8500 P.3       1 4IP         0.2013
     26 OPF       -17.5690    1.4030   -2.4780 O.co2     1 4IP        -0.5537
     27 OPG       -16.6390    0.4990   -0.2550 O.co2     1 4IP        -0.5537
     28 OPH       -16.3470   -0.8630   -2.4140 O.co2     1 4IP        -0.5537
     29 H         -14.9492    4.1787    0.8202 H         1 4IP         0.0703
     30 H         -13.1699    5.7196    0.1587 H         1 4IP         0.0654
     31 H         -13.8744    4.9495   -2.5147 H         1 4IP         0.2100
     32 H         -12.5701    3.3592    0.4183 H         1 4IP         0.0706
     33 H         -12.4620    1.8632   -1.5355 H         1 4IP         0.0710
     34 H         -14.5028    1.8647   -0.1596 H         1 4IP         0.0706
     35 H         -15.5263    3.9223   -2.1562 H         1 4IP         0.0654
     36 H         -17.1146    2.4252   -1.3328 H         1 4IP         0.2100
@<TRIPOS>BOND
     1    1    2 1  
     2    1    3 1  
     3    1   11 1  
     4    2   13 1  
     5    3    4 1  
     6    3    5 1  
     7    5    6 1  
     8    5    7 1  
     9    6   17 1  
    10    7    8 1  
    11    7    9 1  
    12    8   21 1  
    13    9   10 1  
    14    9   11 1  
    15   10   25 1  
    16   11   12 1  
    17   13   14 ar 
    18   13   15 ar 
    19   13   16 ar 
    20   17   18 ar 
    21   17   19 ar 
    22   17   20 ar 
    23   21   22 ar 
    24   21   23 ar 
    25   21   24 ar 
    26   25   26 ar 
    27   25   27 ar 
    28   25   28 ar 
    29    1   29 1  
    30    3   30 1  
    31    4   31 1  
    32    5   32 1  
    33    7   33 1  
    34    9   34 1  
    35   11   35 1  
    36   12   36 1  
@<TRIPOS>SUBSTRUCTURE
     1 4IP         1

