### 
### Created by X-TOOL on Mon Aug  2 16:15:12 2021
### 

@<TRIPOS>MOLECULE
6n7q_ligand
  209   215     1     0     0
SMALL
GAST_HUCK


@<TRIPOS>ATOM
      1 N         123.5220   -8.2400  110.9210 N.am      1 CYS        -0.1024
      2 CA        122.9750   -8.7470  109.6670 C.3       1 CYS         0.2968
      3 C         123.7730   -9.9150  109.0800 C.2       1 CYS         0.2603
      4 O         123.2670  -10.6490  108.2310 O.2       1 CYS        -0.3389
      5 CB        122.8920   -7.6170  108.6440 C.3       1 CYS         0.0543
      6 SG        121.3260   -6.7020  108.6640 S.3       1 CYS        -0.1742
      7 N         125.0180  -10.0780  109.5210 N.am      1 CYS        -0.2596
      8 CA        125.8890  -11.1210  108.9880 C.3       1 CYS         0.1354
      9 C         126.2940  -12.1150  110.0660 C.2       1 CYS         0.2054
     10 O         126.2920  -11.7930  111.2530 O.2       1 CYS        -0.3942
     11 CB        127.1400  -10.5050  108.3600 C.3       1 CYS         0.0044
     12 CG        126.8500   -9.6050  107.2040 C.2       1 CYS        -0.0418
     13 CD1       126.8220   -9.9520  105.8860 C.2       1 CYS         0.0167
     14 CD2       126.5420   -8.2030  107.2580 C.ar      1 CYS        -0.0214
     15 NE1       126.5180   -8.8570  105.1150 N.pl3     1 CYS        -0.2890
     16 CE2       126.3410   -7.7750  105.9300 C.ar      1 CYS         0.0603
     17 CE3       126.4180   -7.2750  108.2960 C.ar      1 CYS        -0.0747
     18 CZ2       126.0220   -6.4530  105.6150 C.ar      1 CYS        -0.0443
     19 CZ3       126.1000   -5.9620  107.9790 C.ar      1 CYS        -0.0792
     20 CH2       125.9070   -5.5650  106.6480 C.ar      1 CYS        -0.0768
     21 N         126.6480  -13.3210  109.6370 N.am      1 CYS        -0.2612
     22 CA        127.1430  -14.3530  110.5360 C.3       1 CYS         0.1565
     23 C         128.5560  -14.7650  110.1350 C.2       1 CYS         0.2065
     24 O         128.8140  -15.0680  108.9690 O.2       1 CYS        -0.3943
     25 CB        126.2240  -15.5820  110.5330 C.3       1 CYS         0.0924
     26 OG1       124.8900  -15.1760  110.8640 O.3       1 CYS        -0.3874
     27 CG2       126.7060  -16.6120  111.5390 C.3       1 CYS        -0.0346
     28 N         129.4690  -14.7630  111.1010 N.am      1 CYS        -0.2613
     29 CA        130.8620  -15.1150  110.8430 C.3       1 CYS         0.1565
     30 C         131.0010  -16.5900  110.4760 C.2       1 CYS         0.2065
     31 O         130.4640  -17.4630  111.1570 O.2       1 CYS        -0.3943
     32 CB        131.7610  -14.8070  112.0580 C.3       1 CYS         0.0924
     33 OG1       131.2600  -15.4880  113.2140 O.3       1 CYS        -0.3874
     34 CG2       131.7940  -13.3110  112.3320 C.3       1 CYS        -0.0346
     35 N         131.7210  -16.8580  109.3920 N.am      1 CYS        -0.2636
     36 CA        131.9240  -18.2230  108.9160 C.3       1 CYS         0.1311
     37 C         132.9310  -18.9800  109.7760 C.2       1 CYS         0.2039
     38 O         132.7890  -20.1820  109.9990 O.2       1 CYS        -0.3944
     39 CB        132.3880  -18.2180  107.4560 C.3       1 CYS        -0.0092
     40 CG        131.3380  -17.7480  106.4590 C.3       1 CYS        -0.0156
     41 CD        131.8610  -17.8200  105.0310 C.3       1 CYS         0.0627
     42 NE        130.7850  -17.7150  104.0490 N.pl3     1 CYS        -0.2723
     43 CZ        130.4450  -16.5900  103.4280 C.cat     1 CYS         0.2882
     44 NH1       131.1000  -15.4660  103.6820 N.pl3     1 CYS        -0.2849
     45 NH2       129.4500  -16.5880  102.5500 N.pl3     1 CYS        -0.2849
     46 N         133.9500  -18.2720  110.2530 N.am      1 CYS        -0.2637
     47 CA        135.0040  -18.8900  111.0510 C.3       1 CYS         0.1317
     48 C         134.6150  -18.9630  112.5240 C.2       1 CYS         0.2040
     49 O         133.9930  -18.0440  113.0590 O.2       1 CYS        -0.3944
     50 CB        136.3190  -18.1240  110.8850 C.3       1 CYS        -0.0034
     51 CG        136.8340  -18.0960  109.4530 C.3       1 CYS        -0.0024
     52 SD        138.4450  -17.3040  109.2820 S.3       1 CYS        -0.1639
     53 CE        138.0310  -15.6040  109.6570 C.3       1 CYS        -0.0181
     54 N         134.9860  -20.0630  113.1720 N.am      1 CYS        -0.2616
     55 CA        134.6240  -20.3000  114.5650 C.3       1 CYS         0.1541
     56 C         135.4180  -19.4060  115.5160 C.2       1 CYS         0.2087
     57 O         136.5920  -19.1270  115.2730 O.2       1 CYS        -0.3941
     58 CB        134.8350  -21.7730  114.9220 C.3       1 CYS         0.0843
     59 OG        133.9190  -22.6000  114.2240 O.3       1 CYS        -0.3903
     60 N         134.7760  -18.9480  116.6050 N.am      1 CYS        -0.2498
     61 CA        133.3710  -19.2120  116.9390 C.3       1 CYS         0.1340
     62 C         132.4020  -18.3250  116.1580 C.2       1 CYS         0.2066
     63 O         132.6390  -17.1240  116.0270 O.2       1 CYS        -0.3942
     64 CB        133.3090  -18.9040  118.4360 C.3       1 CYS        -0.0104
     65 CG        134.3440  -17.8540  118.6320 C.3       1 CYS        -0.0281
     66 CD        135.4530  -18.1680  117.6570 C.3       1 CYS         0.0369
     67 N         131.3190  -18.9190  115.6360 N.am      1 CYS        -0.2498
     68 CA        130.3320  -18.1740  114.8480 C.3       1 CYS         0.1338
     69 C         129.5130  -17.2030  115.6950 C.2       1 CYS         0.2041
     70 O         128.7270  -17.6270  116.5430 O.2       1 CYS        -0.3944
     71 CB        129.4430  -19.2790  114.2670 C.3       1 CYS        -0.0104
     72 CG        129.5720  -20.4090  115.2300 C.3       1 CYS        -0.0281
     73 CD        130.9830  -20.3500  115.7380 C.3       1 CYS         0.0369
     74 N         129.7110  -15.9080  115.4680 N.am      1 CYS        -0.2637
     75 CA        128.9170  -14.8840  116.1320 C.3       1 CYS         0.1317
     76 C         128.1260  -14.0980  115.0940 C.2       1 CYS         0.2039
     77 O         128.5840  -13.9010  113.9680 O.2       1 CYS        -0.3944
     78 CB        129.8010  -13.9410  116.9540 C.3       1 CYS        -0.0034
     79 CG        130.7680  -13.1040  116.1310 C.3       1 CYS        -0.0024
     80 SD        131.7110  -11.9340  117.1310 S.3       1 CYS        -0.1639
     81 CE        130.3920  -10.9190  117.7910 C.3       1 CYS        -0.0181
     82 N         126.9290  -13.6600  115.4670 N.am      1 CYS        -0.2636
     83 CA        126.0970  -12.8960  114.5500 C.3       1 CYS         0.1330
     84 C         126.2800  -11.4010  114.7690 C.2       1 CYS         0.2041
     85 O         125.9190  -10.8620  115.8150 O.2       1 CYS        -0.3944
     86 CB        124.6230  -13.2750  114.6990 C.3       1 CYS         0.0045
     87 CG        123.7170  -12.6290  113.6560 C.3       1 CYS         0.0412
     88 CD        122.2950  -13.1450  113.7110 C.2       1 CYS         0.1737
     89 OE1       121.6760  -13.1720  114.7720 O.2       1 CYS        -0.3973
     90 NE2       121.7710  -13.5610  112.5630 N.am      1 CYS        -0.3009
     91 N         126.8650  -10.7430  113.7750 N.am      1 CYS        -0.2634
     92 CA        126.9840   -9.2940  113.7770 C.3       1 CYS         0.1337
     93 C         125.7780   -8.7450  113.0340 C.2       1 CYS         0.2066
     94 O         125.7820   -8.7040  111.8010 O.2       1 CYS        -0.3942
     95 CB        128.2770   -8.8310  113.1220 C.3       1 CYS        -0.0037
     96 CG1       129.4660   -9.5380  113.7740 C.3       1 CYS        -0.0491
     97 CG2       128.4180   -7.3330  113.2610 C.3       1 CYS        -0.0582
     98 CD1       130.7800   -9.2860  113.0920 C.3       1 CYS        -0.0648
     99 N         124.7690   -8.2870  113.7990 N.am      1 CYS        -0.2499
    100 CA        123.3590   -8.0960  113.4620 C.3       1 CYS         0.1355
    101 C         122.9540   -8.6020  112.0700 C.2       1 CYS         0.2292
    102 O         122.1280   -9.5120  112.0560 O.2       1 CYS        -0.3943
    103 CB        123.2150   -6.5830  113.5680 C.3       1 CYS        -0.0104
    104 CG        124.2430   -6.1970  114.6840 C.3       1 CYS        -0.0281
    105 CD        125.1050   -7.4250  114.9430 C.3       1 CYS         0.0369
    106 OXT       123.5000   -8.0420  111.1220 O.3       1 CYS        -0.2113
    107 H1        123.0247   -8.0499  107.6415 H         1 CYS         0.0413
    108 H2        123.7076   -6.9076  108.8480 H         1 CYS         0.0413
    109 H3        121.3524   -5.9778  107.9634 H         1 CYS         0.1016
    110 H4        125.3655   -9.4707  110.2354 H         1 CYS         0.1891
    111 H5        125.3364  -11.6636  108.2069 H         1 CYS         0.0817
    112 H6        127.7907  -11.3202  108.0108 H         1 CYS         0.0397
    113 H7        127.6646   -9.9218  109.1311 H         1 CYS         0.0397
    114 H8        127.0130  -10.9524  105.5004 H         1 CYS         0.0795
    115 H9        126.4366   -8.8523  104.0882 H         1 CYS         0.2216
    116 H10       126.5671   -7.5748  109.3270 H         1 CYS         0.0540
    117 H11       125.8708   -6.1416  104.5877 H         1 CYS         0.0541
    118 H12       125.9991   -5.2312  108.7733 H         1 CYS         0.0510
    119 H13       125.6612   -4.5312  106.4335 H         1 CYS         0.0530
    120 H14       126.5717  -13.5274  108.6615 H         1 CYS         0.1884
    121 H15       127.1713  -13.9412  111.5556 H         1 CYS         0.0826
    122 H16       126.2284  -16.0319  109.5292 H         1 CYS         0.0639
    123 H17       124.3195  -15.9356  110.8626 H         1 CYS         0.2101
    124 H18       126.0351  -17.4836  111.5214 H         1 CYS         0.0257
    125 H19       126.7056  -16.1693  112.5460 H         1 CYS         0.0257
    126 H20       127.7264  -16.9295  111.2784 H         1 CYS         0.0257
    127 H21       129.1942  -14.5136  112.0296 H         1 CYS         0.1884
    128 H22       131.2116  -14.5113  109.9925 H         1 CYS         0.0826
    129 H23       132.7822  -15.1562  111.8455 H         1 CYS         0.0639
    130 H24       130.3746  -15.1945  113.3941 H         1 CYS         0.2101
    131 H25       132.4390  -13.1115  113.2004 H         1 CYS         0.0257
    132 H26       130.7750  -12.9542  112.5425 H         1 CYS         0.0257
    133 H27       132.1919  -12.7856  111.4513 H         1 CYS         0.0257
    134 H28       132.1365  -16.1016  108.8868 H         1 CYS         0.1883
    135 H29       130.9602  -18.7501  108.9727 H         1 CYS         0.0800
    136 H30       132.6829  -19.2428  107.1862 H         1 CYS         0.0313
    137 H31       133.2599  -17.5523  107.3753 H         1 CYS         0.0313
    138 H32       131.0657  -16.7073  106.6889 H         1 CYS         0.0301
    139 H33       130.4478  -18.3881  106.5474 H         1 CYS         0.0301
    140 H34       132.3781  -18.7806  104.8900 H         1 CYS         0.0689
    141 H35       132.5703  -16.9947  104.8704 H         1 CYS         0.0689
    142 H36       130.2549  -18.5687  103.8228 H         1 CYS         0.2642
    143 H37       130.8350  -14.5953  103.1998 H         1 CYS         0.2615
    144 H38       131.8740  -15.4633  104.3616 H         1 CYS         0.2615
    145 H39       128.9383  -17.4591  102.3496 H         1 CYS         0.2615
    146 H40       129.1894  -15.7153  102.0689 H         1 CYS         0.2615
    147 H41       133.9954  -17.2918  110.0603 H         1 CYS         0.1883
    148 H42       135.1532  -19.9165  110.6849 H         1 CYS         0.0800
    149 H43       137.0811  -18.6008  111.5189 H         1 CYS         0.0320
    150 H44       136.1615  -17.0874  111.2177 H         1 CYS         0.0320
    151 H45       136.1092  -17.5478  108.8332 H         1 CYS         0.0378
    152 H46       136.9155  -19.1319  109.0922 H         1 CYS         0.0378
    153 H47       138.9366  -14.9831  109.5914 H         1 CYS         0.0340
    154 H48       137.6176  -15.5431  110.6745 H         1 CYS         0.0340
    155 H49       137.2844  -15.2407  108.9355 H         1 CYS         0.0340
    156 H50       135.5302  -20.7493  112.6894 H         1 CYS         0.1884
    157 H51       133.5566  -20.0634  114.6855 H         1 CYS         0.0823
    158 H52       134.6876  -21.9059  116.0039 H         1 CYS         0.0606
    159 H53       135.8608  -22.0652  114.6531 H         1 CYS         0.0606
    160 H54       134.0691  -23.5076  114.4614 H         1 CYS         0.2097
    161 H55       133.1223  -20.2661  116.7467 H         1 CYS         0.0802
    162 H56       133.5441  -19.7999  119.0293 H         1 CYS         0.0313
    163 H57       132.3138  -18.5289  118.7169 H         1 CYS         0.0313
    164 H58       134.7244  -17.8815  119.6638 H         1 CYS         0.0287
    165 H59       133.9227  -16.8596  118.4228 H         1 CYS         0.0287
    166 H60       135.8868  -17.2451  117.2446 H         1 CYS         0.0524
    167 H61       136.2439  -18.7614  118.1390 H         1 CYS         0.0524
    168 H62       130.8296  -17.6117  114.0441 H         1 CYS         0.0802
    169 H63       129.7961  -19.5771  113.2688 H         1 CYS         0.0313
    170 H64       128.3979  -18.9423  114.2009 H         1 CYS         0.0313
    171 H65       129.3864  -21.3677  114.7236 H         1 CYS         0.0287
    172 H66       128.8602  -20.2889  116.0600 H         1 CYS         0.0287
    173 H67       131.0414  -20.6954  116.7807 H         1 CYS         0.0524
    174 H68       131.6530  -20.9579  115.1123 H         1 CYS         0.0524
    175 H69       130.4240  -15.6300  114.8243 H         1 CYS         0.1883
    176 H70       128.2097  -15.3783  116.8142 H         1 CYS         0.0800
    177 H71       130.3871  -14.5479  117.6598 H         1 CYS         0.0320
    178 H72       129.1460  -13.2574  117.5141 H         1 CYS         0.0320
    179 H73       130.1939  -12.5411  115.3803 H         1 CYS         0.0378
    180 H74       131.4724  -13.7793  115.6233 H         1 CYS         0.0378
    181 H75       130.8187  -10.1387  118.4383 H         1 CYS         0.0340
    182 H76       129.7048  -11.5465  118.3775 H         1 CYS         0.0340
    183 H77       129.8422  -10.4481  116.9628 H         1 CYS         0.0340
    184 H78       126.5957  -13.8576  116.3889 H         1 CYS         0.1883
    185 H79       126.4115  -13.1351  113.5234 H         1 CYS         0.0801
    186 H80       124.2827  -12.9615  115.6969 H         1 CYS         0.0337
    187 H81       124.5341  -14.3676  114.6077 H         1 CYS         0.0337
    188 H82       124.1276  -12.8372  112.6570 H         1 CYS         0.0504
    189 H83       123.7031  -11.5426  113.8276 H         1 CYS         0.0504
    190 H84       120.8351  -13.9123  112.5388 H         1 CYS         0.1814
    191 H85       122.3126  -13.5228  111.7232 H         1 CYS         0.1814
    192 H86       127.2345  -11.2593  113.0024 H         1 CYS         0.1883
    193 H87       126.9699   -8.9314  114.8154 H         1 CYS         0.0803
    194 H88       128.2500   -9.0888  112.0530 H         1 CYS         0.0345
    195 H89       129.2729  -10.6208  113.7618 H         1 CYS         0.0267
    196 H90       129.5453   -9.1914  114.8149 H         1 CYS         0.0267
    197 H91       127.5568   -6.8382  112.7881 H         1 CYS         0.0235
    198 H92       129.3453   -7.0047  112.7687 H         1 CYS         0.0235
    199 H93       128.4544   -7.0655  114.3273 H         1 CYS         0.0235
    200 H94       131.5776   -9.8279  113.6212 H         1 CYS         0.0230
    201 H95       130.9987   -8.2080  113.1042 H         1 CYS         0.0230
    202 H96       130.7262   -9.6375  112.0511 H         1 CYS         0.0230
    203 H97       122.7242   -8.5991  114.2062 H         1 CYS         0.0801
    204 H98       122.1922   -6.3047  113.8620 H         1 CYS         0.0313
    205 H99       123.4679   -6.0959  112.6147 H         1 CYS         0.0313
    206 H100      123.7117   -5.9084  115.6029 H         1 CYS         0.0287
    207 H101      124.8710   -5.3599  114.3453 H         1 CYS         0.0287
    208 H102      126.1745   -7.1677  114.9481 H         1 CYS         0.0524
    209 H103      124.8389   -7.9053  115.8961 H         1 CYS         0.0524
@<TRIPOS>BOND
     1    1    2 1  
     2    1  101 am 
     3    1  106 1  
     4    2    3 1  
     5    2    5 1  
     6    2  106 1  
     7    3    4 2  
     8    3    7 am 
     9    5    6 1  
    10    7    8 1  
    11    8    9 1  
    12    8   11 1  
    13    9   10 2  
    14    9   21 am 
    15   11   12 1  
    16   12   13 2  
    17   12   14 1  
    18   13   15 1  
    19   14   16 ar 
    20   14   17 ar 
    21   15   16 1  
    22   16   18 ar 
    23   17   19 ar 
    24   18   20 ar 
    25   19   20 ar 
    26   21   22 1  
    27   22   23 1  
    28   22   25 1  
    29   23   24 2  
    30   23   28 am 
    31   25   26 1  
    32   25   27 1  
    33   28   29 1  
    34   29   30 1  
    35   29   32 1  
    36   30   31 2  
    37   30   35 am 
    38   32   33 1  
    39   32   34 1  
    40   35   36 1  
    41   36   37 1  
    42   36   39 1  
    43   37   38 2  
    44   37   46 am 
    45   39   40 1  
    46   40   41 1  
    47   41   42 1  
    48   42   43 ar 
    49   43   44 ar 
    50   43   45 ar 
    51   46   47 1  
    52   47   48 1  
    53   47   50 1  
    54   48   49 2  
    55   48   54 am 
    56   50   51 1  
    57   51   52 1  
    58   52   53 1  
    59   54   55 1  
    60   55   56 1  
    61   55   58 1  
    62   56   57 2  
    63   56   60 am 
    64   58   59 1  
    65   60   61 1  
    66   60   66 1  
    67   61   62 1  
    68   61   64 1  
    69   62   63 2  
    70   62   67 am 
    71   64   65 1  
    72   65   66 1  
    73   67   68 1  
    74   67   73 1  
    75   68   69 1  
    76   68   71 1  
    77   69   70 2  
    78   69   74 am 
    79   71   72 1  
    80   72   73 1  
    81   74   75 1  
    82   75   76 1  
    83   75   78 1  
    84   76   77 2  
    85   76   82 am 
    86   78   79 1  
    87   79   80 1  
    88   80   81 1  
    89   82   83 1  
    90   83   84 1  
    91   83   86 1  
    92   84   85 2  
    93   84   91 am 
    94   86   87 1  
    95   87   88 1  
    96   88   89 2  
    97   88   90 am 
    98   91   92 1  
    99   92   93 1  
   100   92   95 1  
   101   93   94 2  
   102   93   99 am 
   103   95   96 1  
   104   95   97 1  
   105   96   98 1  
   106   99  100 1  
   107   99  105 1  
   108  100  101 1  
   109  100  103 1  
   110  101  102 2  
   111  103  104 1  
   112  104  105 1  
   113    5  107 1  
   114    5  108 1  
   115    6  109 1  
   116    7  110 1  
   117    8  111 1  
   118   11  112 1  
   119   11  113 1  
   120   13  114 1  
   121   15  115 1  
   122   17  116 1  
   123   18  117 1  
   124   19  118 1  
   125   20  119 1  
   126   21  120 1  
   127   22  121 1  
   128   25  122 1  
   129   26  123 1  
   130   27  124 1  
   131   27  125 1  
   132   27  126 1  
   133   28  127 1  
   134   29  128 1  
   135   32  129 1  
   136   33  130 1  
   137   34  131 1  
   138   34  132 1  
   139   34  133 1  
   140   35  134 1  
   141   36  135 1  
   142   39  136 1  
   143   39  137 1  
   144   40  138 1  
   145   40  139 1  
   146   41  140 1  
   147   41  141 1  
   148   42  142 1  
   149   44  143 1  
   150   44  144 1  
   151   45  145 1  
   152   45  146 1  
   153   46  147 1  
   154   47  148 1  
   155   50  149 1  
   156   50  150 1  
   157   51  151 1  
   158   51  152 1  
   159   53  153 1  
   160   53  154 1  
   161   53  155 1  
   162   54  156 1  
   163   55  157 1  
   164   58  158 1  
   165   58  159 1  
   166   59  160 1  
   167   61  161 1  
   168   64  162 1  
   169   64  163 1  
   170   65  164 1  
   171   65  165 1  
   172   66  166 1  
   173   66  167 1  
   174   68  168 1  
   175   71  169 1  
   176   71  170 1  
   177   72  171 1  
   178   72  172 1  
   179   73  173 1  
   180   73  174 1  
   181   74  175 1  
   182   75  176 1  
   183   78  177 1  
   184   78  178 1  
   185   79  179 1  
   186   79  180 1  
   187   81  181 1  
   188   81  182 1  
   189   81  183 1  
   190   82  184 1  
   191   83  185 1  
   192   86  186 1  
   193   86  187 1  
   194   87  188 1  
   195   87  189 1  
   196   90  190 1  
   197   90  191 1  
   198   91  192 1  
   199   92  193 1  
   200   95  194 1  
   201   96  195 1  
   202   96  196 1  
   203   97  197 1  
   204   97  198 1  
   205   97  199 1  
   206   98  200 1  
   207   98  201 1  
   208   98  202 1  
   209  100  203 1  
   210  103  204 1  
   211  103  205 1  
   212  104  206 1  
   213  104  207 1  
   214  105  208 1  
   215  105  209 1  
@<TRIPOS>SUBSTRUCTURE
     1 CYS         1

