6n7q_ligand
  -I-interpret- 

207213  0  0  0  0  0  0  0  0999 V2000
  123.5220   -8.2400  110.9210 N   0  0  0  0  0
  122.9750   -8.7470  109.6670 C   0  0  0  0  0
  123.7730   -9.9150  109.0800 C   0  0  0  0  0
  123.2670  -10.6490  108.2310 O   0  0  0  0  0
  122.8920   -7.6170  108.6440 C   0  0  0  0  0
  121.3260   -6.7020  108.6640 S   0  0  0  0  0
  125.0180  -10.0780  109.5210 N   0  0  0  0  0
  125.8890  -11.1210  108.9880 C   0  0  0  0  0
  126.2940  -12.1150  110.0660 C   0  0  0  0  0
  126.2920  -11.7930  111.2530 O   0  0  0  0  0
  127.1400  -10.5050  108.3600 C   0  0  0  0  0
  126.8500   -9.6050  107.2040 C   0  0  0  0  0
  126.8220   -9.9520  105.8860 C   0  0  0  0  0
  126.5420   -8.2030  107.2580 C   0  0  0  0  0
  126.5180   -8.8570  105.1150 N   0  0  0  0  0
  126.3410   -7.7750  105.9300 C   0  0  0  0  0
  126.4180   -7.2750  108.2960 C   0  0  0  0  0
  126.0220   -6.4530  105.6150 C   0  0  0  0  0
  126.1000   -5.9620  107.9790 C   0  0  0  0  0
  125.9070   -5.5650  106.6480 C   0  0  0  0  0
  126.6480  -13.3210  109.6370 N   0  0  0  0  0
  127.1430  -14.3530  110.5360 C   0  0  0  0  0
  128.5560  -14.7650  110.1350 C   0  0  0  0  0
  128.8140  -15.0680  108.9690 O   0  0  0  0  0
  126.2240  -15.5820  110.5330 C   0  0  0  0  0
  124.8900  -15.1760  110.8640 O   0  0  0  0  0
  126.7060  -16.6120  111.5390 C   0  0  0  0  0
  129.4690  -14.7630  111.1010 N   0  0  0  0  0
  130.8620  -15.1150  110.8430 C   0  0  0  0  0
  131.0010  -16.5900  110.4760 C   0  0  0  0  0
  130.4640  -17.4630  111.1570 O   0  0  0  0  0
  131.7610  -14.8070  112.0580 C   0  0  0  0  0
  131.2600  -15.4880  113.2140 O   0  0  0  0  0
  131.7940  -13.3110  112.3320 C   0  0  0  0  0
  131.7210  -16.8580  109.3920 N   0  0  0  0  0
  131.9240  -18.2230  108.9160 C   0  0  0  0  0
  132.9310  -18.9800  109.7760 C   0  0  0  0  0
  132.7890  -20.1820  109.9990 O   0  0  0  0  0
  132.3880  -18.2180  107.4560 C   0  0  0  0  0
  131.3380  -17.7480  106.4590 C   0  0  0  0  0
  131.8610  -17.8200  105.0310 C   0  0  0  0  0
  130.7850  -17.7150  104.0490 N   0  0  0  0  0
  130.4450  -16.5900  103.4280 C   0  0  0  0  0
  131.1000  -15.4660  103.6820 N   0  0  0  0  0
  129.4500  -16.5880  102.5500 N   0  0  0  0  0
  133.9500  -18.2720  110.2530 N   0  0  0  0  0
  135.0040  -18.8900  111.0510 C   0  0  0  0  0
  134.6150  -18.9630  112.5240 C   0  0  0  0  0
  133.9930  -18.0440  113.0590 O   0  0  0  0  0
  136.3190  -18.1240  110.8850 C   0  0  0  0  0
  136.8340  -18.0960  109.4530 C   0  0  0  0  0
  138.4450  -17.3040  109.2820 S   0  0  0  0  0
  138.0310  -15.6040  109.6570 C   0  0  0  0  0
  134.9860  -20.0630  113.1720 N   0  0  0  0  0
  134.6240  -20.3000  114.5650 C   0  0  0  0  0
  135.4180  -19.4060  115.5160 C   0  0  0  0  0
  136.5920  -19.1270  115.2730 O   0  0  0  0  0
  134.8350  -21.7730  114.9220 C   0  0  0  0  0
  133.9190  -22.6000  114.2240 O   0  0  0  0  0
  134.7760  -18.9480  116.6050 N   0  0  0  0  0
  133.3710  -19.2120  116.9390 C   0  0  0  0  0
  132.4020  -18.3250  116.1580 C   0  0  0  0  0
  132.6390  -17.1240  116.0270 O   0  0  0  0  0
  133.3090  -18.9040  118.4360 C   0  0  0  0  0
  134.3440  -17.8540  118.6320 C   0  0  0  0  0
  135.4530  -18.1680  117.6570 C   0  0  0  0  0
  131.3190  -18.9190  115.6360 N   0  0  0  0  0
  130.3320  -18.1740  114.8480 C   0  0  0  0  0
  129.5130  -17.2030  115.6950 C   0  0  0  0  0
  128.7270  -17.6270  116.5430 O   0  0  0  0  0
  129.4430  -19.2790  114.2670 C   0  0  0  0  0
  129.5720  -20.4090  115.2300 C   0  0  0  0  0
  130.9830  -20.3500  115.7380 C   0  0  0  0  0
  129.7110  -15.9080  115.4680 N   0  0  0  0  0
  128.9170  -14.8840  116.1320 C   0  0  0  0  0
  128.1260  -14.0980  115.0940 C   0  0  0  0  0
  128.5840  -13.9010  113.9680 O   0  0  0  0  0
  129.8010  -13.9410  116.9540 C   0  0  0  0  0
  130.7680  -13.1040  116.1310 C   0  0  0  0  0
  131.7110  -11.9340  117.1310 S   0  0  0  0  0
  130.3920  -10.9190  117.7910 C   0  0  0  0  0
  126.9290  -13.6600  115.4670 N   0  0  0  0  0
  126.0970  -12.8960  114.5500 C   0  0  0  0  0
  126.2800  -11.4010  114.7690 C   0  0  0  0  0
  125.9190  -10.8620  115.8150 O   0  0  0  0  0
  124.6230  -13.2750  114.6990 C   0  0  0  0  0
  123.7170  -12.6290  113.6560 C   0  0  0  0  0
  122.2950  -13.1450  113.7110 C   0  0  0  0  0
  121.6760  -13.1720  114.7720 O   0  0  0  0  0
  121.7710  -13.5610  112.5630 N   0  0  0  0  0
  126.8650  -10.7430  113.7750 N   0  0  0  0  0
  126.9840   -9.2940  113.7770 C   0  0  0  0  0
  125.7780   -8.7450  113.0340 C   0  0  0  0  0
  125.7820   -8.7040  111.8010 O   0  0  0  0  0
  128.2770   -8.8310  113.1220 C   0  0  0  0  0
  129.4660   -9.5380  113.7740 C   0  0  0  0  0
  128.4180   -7.3330  113.2610 C   0  0  0  0  0
  130.7800   -9.2860  113.0920 C   0  0  0  0  0
  124.7690   -8.2870  113.7990 N   0  0  0  0  0
  123.3590   -8.0960  113.4620 C   0  0  0  0  0
  122.9540   -8.6020  112.0700 C   0  0  0  0  0
  122.1280   -9.5120  112.0560 O   0  0  0  0  0
  123.2150   -6.5830  113.5680 C   0  0  0  0  0
  124.2430   -6.1970  114.6840 C   0  0  0  0  0
  125.1050   -7.4250  114.9430 C   0  0  0  0  0
  123.5000   -8.0420  111.1220 O   0  0  0  0  0
  122.9846   -8.0711  107.6574 H   0  0  0  0  0
  123.6812   -6.9059  108.8881 H   0  0  0  0  0
  121.3608   -5.7465  107.7395 H   0  0  0  0  0
  125.3725   -9.4586  110.2497 H   0  0  0  0  0
  125.3266  -11.6562  108.2229 H   0  0  0  0  0
  127.7557  -11.3243  107.9889 H   0  0  0  0  0
  127.6276   -9.9035  109.1272 H   0  0  0  0  0
  127.0132  -10.9533  105.5001 H   0  0  0  0  0
  126.5680   -7.5764  109.3327 H   0  0  0  0  0
  125.8700   -6.1399  104.5821 H   0  0  0  0  0
  125.9986   -5.2272  108.7777 H   0  0  0  0  0
  125.6599   -4.5255  106.4323 H   0  0  0  0  0
  126.5702  -13.5315  108.6420 H   0  0  0  0  0
  127.1575  -13.9395  111.5444 H   0  0  0  0  0
  126.2401  -16.0318  109.5403 H   0  0  0  0  0
  124.3135  -15.9436  110.8626 H   0  0  0  0  0
  127.7172  -16.9257  111.2797 H   0  0  0  0  0
  126.7052  -16.1721  112.5363 H   0  0  0  0  0
  126.0405  -17.4750  111.5207 H   0  0  0  0  0
  129.1887  -14.5086  112.0482 H   0  0  0  0  0
  131.1880  -14.5040  110.0013 H   0  0  0  0  0
  132.7720  -15.1491  111.8365 H   0  0  0  0  0
  131.8223  -15.2935  113.9674 H   0  0  0  0  0
  132.1884  -12.7916  111.4587 H   0  0  0  0  0
  130.7838  -12.9587  112.5403 H   0  0  0  0  0
  132.4334  -13.1146  113.1926 H   0  0  0  0  0
  132.1448  -16.0865  108.8767 H   0  0  0  0  0
  130.9657  -18.7371  108.9894 H   0  0  0  0  0
  132.6343  -19.2477  107.1969 H   0  0  0  0  0
  133.2236  -17.5213  107.3901 H   0  0  0  0  0
  131.0844  -16.7121  106.6842 H   0  0  0  0  0
  130.4654  -18.3958  106.5423 H   0  0  0  0  0
  132.3531  -18.7832  104.8961 H   0  0  0  0  0
  132.5464  -16.9867  104.8764 H   0  0  0  0  0
  130.2600  -18.5604  103.8250 H   0  0  0  0  0
  131.8664  -15.4633  104.3550 H   0  0  0  0  0
  129.1919  -15.7238  102.0736 H   0  0  0  0  0
  128.9433  -17.4507  102.3515 H   0  0  0  0  0
  133.9963  -17.2722  110.0564 H   0  0  0  0  0
  135.1416  -19.9092  110.6898 H   0  0  0  0  0
  137.0699  -18.6302  111.4916 H   0  0  0  0  0
  136.1356  -17.0925  111.1857 H   0  0  0  0  0
  136.1222  -17.5212  108.8605 H   0  0  0  0  0
  136.9408  -19.1295  109.1234 H   0  0  0  0  0
  137.2911  -15.2453  108.9415 H   0  0  0  0  0
  137.6215  -15.5451  110.6654 H   0  0  0  0  0
  138.9291  -14.9898  109.5917 H   0  0  0  0  0
  135.5411  -20.7630  112.6797 H   0  0  0  0  0
  133.5694  -20.0498  114.6805 H   0  0  0  0  0
  134.6757  -21.9001  115.9928 H   0  0  0  0  0
  135.8488  -22.0594  114.6421 H   0  0  0  0  0
  134.0706  -23.5171  114.4639 H   0  0  0  0  0
  133.0723  -20.2290  116.6850 H   0  0  0  0  0
  133.4962  -19.7870  119.0470 H   0  0  0  0  0
  132.3191  -18.5710  118.7481 H   0  0  0  0  0
  134.7119  -17.8518  119.6580 H   0  0  0  0  0
  133.9339  -16.8600  118.4536 H   0  0  0  0  0
  135.9335  -17.2704  117.2677 H   0  0  0  0  0
  136.2738  -18.7156  118.1202 H   0  0  0  0  0
  130.8021  -17.5452  114.0919 H   0  0  0  0  0
  129.7508  -19.5634  113.2608 H   0  0  0  0  0
  128.4086  -18.9540  114.1557 H   0  0  0  0  0
  129.3613  -21.3654  114.7514 H   0  0  0  0  0
  128.8523  -20.3220  116.0440 H   0  0  0  0  0
  131.0801  -20.7330  116.7539 H   0  0  0  0  0
  131.6621  -20.9828  115.1665 H   0  0  0  0  0
  130.4383  -15.6244  114.8114 H   0  0  0  0  0
  128.2271  -15.3738  116.8191 H   0  0  0  0  0
  130.4025  -14.5642  117.6158 H   0  0  0  0  0
  129.1355  -13.2467  117.4670 H   0  0  0  0  0
  130.1832  -12.5312  115.4113 H   0  0  0  0  0
  131.4764  -13.7835  115.6570 H   0  0  0  0  0
  129.8480  -10.4531  116.9694 H   0  0  0  0  0
  129.7118  -11.5420  118.3718 H   0  0  0  0  0
  130.8160  -10.1462  118.4322 H   0  0  0  0  0
  126.5890  -13.8616  116.4073 H   0  0  0  0  0
  126.4133  -13.1396  113.5357 H   0  0  0  0  0
  124.2937  -12.9268  115.6780 H   0  0  0  0  0
  124.5491  -14.3550  114.5716 H   0  0  0  0  0
  124.1199  -12.8670  112.6716 H   0  0  0  0  0
  123.6906  -11.5577  113.8554 H   0  0  0  0  0
  120.8171  -13.9214  112.5387 H   0  0  0  0  0
  122.3226  -13.5199  111.7060 H   0  0  0  0  0
  127.2419  -11.2696  112.9869 H   0  0  0  0  0
  127.0129   -8.9255  114.8024 H   0  0  0  0  0
  128.2535   -9.0822  112.0616 H   0  0  0  0  0
  129.2741  -10.6095  113.7175 H   0  0  0  0  0
  129.5516   -9.1533  114.7903 H   0  0  0  0  0
  127.5737   -6.8433  112.7758 H   0  0  0  0  0
  128.4352   -7.0675  114.3180 H   0  0  0  0  0
  129.3464   -7.0114  112.7891 H   0  0  0  0  0
  130.7254   -9.6347  112.0607 H   0  0  0  0  0
  130.9955   -8.2176  113.1047 H   0  0  0  0  0
  131.5695   -9.8235  113.6173 H   0  0  0  0  0
  122.7047   -8.6714  114.1169 H   0  0  0  0  0
  122.1980   -6.2756  113.8116 H   0  0  0  0  0
  123.4133   -6.0767  112.6233 H   0  0  0  0  0
  123.7264   -5.8908  115.5937 H   0  0  0  0  0
  124.8582   -5.3553  114.3659 H   0  0  0  0  0
  126.1687   -7.1970  115.0118 H   0  0  0  0  0
  124.9074   -7.8935  115.9071 H   0  0  0  0  0
  1  2  1  0  0  0
  1101  1  0  0  0
  1106  1  0  0  0
  2  3  1  0  0  0
  2  5  1  0  0  0
  2106  1  0  0  0
  3  4  2  0  0  0
  3  7  1  0  0  0
  5  6  1  0  0  0
  7  8  1  0  0  0
  8  9  1  0  0  0
  8 11  1  0  0  0
  9 10  2  0  0  0
  9 21  1  0  0  0
 11 12  1  0  0  0
 12 13  4  0  0  0
 12 14  4  0  0  0
 13 15  4  0  0  0
 14 16  4  0  0  0
 14 17  4  0  0  0
 15 16  4  0  0  0
 16 18  4  0  0  0
 17 19  4  0  0  0
 18 20  4  0  0  0
 19 20  4  0  0  0
 21 22  1  0  0  0
 22 23  1  0  0  0
 22 25  1  0  0  0
 23 24  2  0  0  0
 23 28  1  0  0  0
 25 26  1  0  0  0
 25 27  1  0  0  0
 28 29  1  0  0  0
 29 30  1  0  0  0
 29 32  1  0  0  0
 30 31  2  0  0  0
 30 35  1  0  0  0
 32 33  1  0  0  0
 32 34  1  0  0  0
 35 36  1  0  0  0
 36 37  1  0  0  0
 36 39  1  0  0  0
 37 38  2  0  0  0
 37 46  1  0  0  0
 39 40  1  0  0  0
 40 41  1  0  0  0
 41 42  1  0  0  0
 42 43  1  0  0  0
 43 44  2  0  0  0
 43 45  1  0  0  0
 46 47  1  0  0  0
 47 48  1  0  0  0
 47 50  1  0  0  0
 48 49  2  0  0  0
 48 54  1  0  0  0
 50 51  1  0  0  0
 51 52  1  0  0  0
 52 53  1  0  0  0
 54 55  1  0  0  0
 55 56  1  0  0  0
 55 58  1  0  0  0
 56 57  2  0  0  0
 56 60  1  0  0  0
 58 59  1  0  0  0
 60 61  1  0  0  0
 60 66  1  0  0  0
 61 62  1  0  0  0
 61 64  1  0  0  0
 62 63  2  0  0  0
 62 67  1  0  0  0
 64 65  1  0  0  0
 65 66  1  0  0  0
 67 68  1  0  0  0
 67 73  1  0  0  0
 68 69  1  0  0  0
 68 71  1  0  0  0
 69 70  2  0  0  0
 69 74  1  0  0  0
 71 72  1  0  0  0
 72 73  1  0  0  0
 74 75  1  0  0  0
 75 76  1  0  0  0
 75 78  1  0  0  0
 76 77  2  0  0  0
 76 82  1  0  0  0
 78 79  1  0  0  0
 79 80  1  0  0  0
 80 81  1  0  0  0
 82 83  1  0  0  0
 83 84  1  0  0  0
 83 86  1  0  0  0
 84 85  2  0  0  0
 84 91  1  0  0  0
 86 87  1  0  0  0
 87 88  1  0  0  0
 88 89  2  0  0  0
 88 90  1  0  0  0
 91 92  1  0  0  0
 92 93  1  0  0  0
 92 95  1  0  0  0
 93 94  2  0  0  0
 93 99  1  0  0  0
 95 96  1  0  0  0
 95 97  1  0  0  0
 96 98  1  0  0  0
 99100  1  0  0  0
 99105  1  0  0  0
100101  1  0  0  0
100103  1  0  0  0
101102  2  0  0  0
103104  1  0  0  0
104105  1  0  0  0
  5107  1  0  0  0
  5108  1  0  0  0
  6109  1  0  0  0
  7110  1  0  0  0
  8111  1  0  0  0
 11112  1  0  0  0
 11113  1  0  0  0
 13114  1  0  0  0
 17115  1  0  0  0
 18116  1  0  0  0
 19117  1  0  0  0
 20118  1  0  0  0
 21119  1  0  0  0
 22120  1  0  0  0
 25121  1  0  0  0
 26122  1  0  0  0
 27123  1  0  0  0
 27124  1  0  0  0
 27125  1  0  0  0
 28126  1  0  0  0
 29127  1  0  0  0
 32128  1  0  0  0
 33129  1  0  0  0
 34130  1  0  0  0
 34131  1  0  0  0
 34132  1  0  0  0
 35133  1  0  0  0
 36134  1  0  0  0
 39135  1  0  0  0
 39136  1  0  0  0
 40137  1  0  0  0
 40138  1  0  0  0
 41139  1  0  0  0
 41140  1  0  0  0
 42141  1  0  0  0
 44142  1  0  0  0
 45143  1  0  0  0
 45144  1  0  0  0
 46145  1  0  0  0
 47146  1  0  0  0
 50147  1  0  0  0
 50148  1  0  0  0
 51149  1  0  0  0
 51150  1  0  0  0
 53151  1  0  0  0
 53152  1  0  0  0
 53153  1  0  0  0
 54154  1  0  0  0
 55155  1  0  0  0
 58156  1  0  0  0
 58157  1  0  0  0
 59158  1  0  0  0
 61159  1  0  0  0
 64160  1  0  0  0
 64161  1  0  0  0
 65162  1  0  0  0
 65163  1  0  0  0
 66164  1  0  0  0
 66165  1  0  0  0
 68166  1  0  0  0
 71167  1  0  0  0
 71168  1  0  0  0
 72169  1  0  0  0
 72170  1  0  0  0
 73171  1  0  0  0
 73172  1  0  0  0
 74173  1  0  0  0
 75174  1  0  0  0
 78175  1  0  0  0
 78176  1  0  0  0
 79177  1  0  0  0
 79178  1  0  0  0
 81179  1  0  0  0
 81180  1  0  0  0
 81181  1  0  0  0
 82182  1  0  0  0
 83183  1  0  0  0
 86184  1  0  0  0
 86185  1  0  0  0
 87186  1  0  0  0
 87187  1  0  0  0
 90188  1  0  0  0
 90189  1  0  0  0
 91190  1  0  0  0
 92191  1  0  0  0
 95192  1  0  0  0
 96193  1  0  0  0
 96194  1  0  0  0
 97195  1  0  0  0
 97196  1  0  0  0
 97197  1  0  0  0
 98198  1  0  0  0
 98199  1  0  0  0
 98200  1  0  0  0
100201  1  0  0  0
103202  1  0  0  0
103203  1  0  0  0
104204  1  0  0  0
104205  1  0  0  0
105206  1  0  0  0
105207  1  0  0  0
M  END
$$$$
