3rth_ligand
  -I-interpret- 

 43 45  0  0  0  0  0  0  0  0999 V2000
   69.2350   48.9800   10.2750 C   0  0  0  0  0
   68.5080   48.8100    9.1120 C   0  0  0  0  0
   68.2040   49.9150    8.3220 C   0  0  0  0  0
   67.0100   48.5600    6.8110 C   0  0  0  0  0
   68.0460   47.5470    8.7340 C   0  0  0  0  0
   72.5580   49.8580   12.9710 C   0  0  0  0  0
   70.8070   51.1000   14.1010 C   0  0  0  0  0
   72.7870   47.9170    8.2250 C   0  0  0  0  0
   72.2340   48.7550    7.0540 C   0  0  0  0  0
   72.1570   46.5290    8.1700 C   0  0  0  0  0
   74.3220   47.8770    8.1900 C   0  0  0  0  0
   72.4120   48.5780    9.5040 C   0  0  0  0  0
   72.1220   49.1350   10.6040 C   0  0  0  0  0
   71.7420   49.7790   11.8360 C   0  0  0  0  0
   72.0790   50.5200   14.1060 C   0  0  0  0  0
   69.9920   51.0320   12.9670 C   0  0  0  0  0
   70.4670   50.3640   11.8290 C   0  0  0  0  0
   69.7010   50.2390   10.6590 C   0  0  0  0  0
   67.2850   47.4170    7.5700 C   0  0  0  0  0
   66.2950   48.4540    5.6920 N   0  0  0  0  0
   67.4760   49.7720    7.1950 N   0  0  0  0  0
   68.6510   51.1710    8.7090 C   0  0  0  0  0
   69.4030   51.3430    9.8700 C   0  0  0  0  0
   69.4485   48.1157   10.9038 H   0  0  0  0  0
   68.2771   46.6718    9.3413 H   0  0  0  0  0
   73.5518   49.4102   12.9700 H   0  0  0  0  0
   70.4459   51.6120   14.9929 H   0  0  0  0  0
   72.4856   48.2697    6.1110 H   0  0  0  0  0
   71.1508   48.8345    7.1456 H   0  0  0  0  0
   72.6763   49.7509    7.0809 H   0  0  0  0  0
   71.0742   46.6192    8.2562 H   0  0  0  0  0
   72.4090   46.0544    7.2217 H   0  0  0  0  0
   72.5392   45.9250    8.9929 H   0  0  0  0  0
   74.6512   47.4308    7.2516 H   0  0  0  0  0
   74.7125   48.8917    8.2681 H   0  0  0  0  0
   74.6878   47.2802    9.0256 H   0  0  0  0  0
   72.7006   50.5841   14.9991 H   0  0  0  0  0
   69.0033   51.4908   12.9674 H   0  0  0  0  0
   66.9116   46.4416    7.2581 H   0  0  0  0  0
   65.9503   47.5423    5.3915 H   0  0  0  0  0
   66.0922   49.2846    5.1357 H   0  0  0  0  0
   68.4097   52.0380    8.0941 H   0  0  0  0  0
   69.7540   52.3345   10.1562 H   0  0  0  0  0
  1  2  4  0  0  0
 18  1  4  0  0  0
  2  3  4  0  0  0
  2  5  4  0  0  0
  3 21  4  0  0  0
  3 22  4  0  0  0
 19  4  4  0  0  0
  4 20  1  0  0  0
 21  4  4  0  0  0
  5 19  4  0  0  0
 14  6  4  0  0  0
  6 15  4  0  0  0
  7 15  4  0  0  0
 16  7  4  0  0  0
  8  9  1  0  0  0
  8 10  1  0  0  0
  8 11  1  0  0  0
 12  8  1  0  0  0
 13 12  3  0  0  0
 14 13  1  0  0  0
 17 14  4  0  0  0
 17 16  4  0  0  0
 17 18  1  0  0  0
 18 23  4  0  0  0
 22 23  4  0  0  0
  1 24  1  0  0  0
  5 25  1  0  0  0
  6 26  1  0  0  0
  7 27  1  0  0  0
  9 28  1  0  0  0
  9 29  1  0  0  0
  9 30  1  0  0  0
 10 31  1  0  0  0
 10 32  1  0  0  0
 10 33  1  0  0  0
 11 34  1  0  0  0
 11 35  1  0  0  0
 11 36  1  0  0  0
 15 37  1  0  0  0
 16 38  1  0  0  0
 19 39  1  0  0  0
 20 40  1  0  0  0
 20 41  1  0  0  0
 22 42  1  0  0  0
 23 43  1  0  0  0
M  END
$$$$
