6clv_ligand
  -I-interpret- 

 48 51  0  0  0  0  0  0  0  0999 V2000
   85.4480  123.5060   15.4890 C   0  0  0  0  0
   85.6730  124.7350   14.9430 C   0  0  0  0  0
   86.8960  125.3540   15.1010 N   0  0  0  0  0
   87.8770  124.7490   15.7970 C   0  0  0  0  0
   87.6460  123.4910   16.3540 C   0  0  0  0  0
   86.4520  122.8830   16.2030 N   0  0  0  0  0
   88.7420  122.8010   17.1410 C   0  0  0  0  0
   84.1060  122.8420   15.3090 C   0  0  0  0  0
   84.6180  125.4040   14.1860 N   0  0  0  0  0
   83.0950  123.4840   14.5820 N   0  0  0  0  0
   83.3350  124.7670   14.0130 C   0  0  0  0  0
   83.9010  121.7480   15.7930 O   0  0  0  0  0
   82.3110  125.4180   13.2770 N   0  0  0  0  0
   88.3440  122.6700   18.5020 N   0  0  0  0  0
   88.4210  121.3980   19.1290 C   0  0  0  0  0
   87.6990  121.1470   20.2870 C   0  0  0  0  0
   87.7760  119.9040   20.8980 C   0  0  0  0  0
   88.5720  118.9160   20.3390 C   0  0  0  0  0
   89.2920  119.1690   19.1820 C   0  0  0  0  0
   89.2170  120.4110   18.5740 C   0  0  0  0  0
   88.6990  117.3140   21.0860 S   0  0  0  0  0
   89.9630  116.5310   20.3850 N   0  0  0  0  0
   91.1710  116.2280   21.0690 C   0  0  0  0  0
   87.4770  116.5740   20.9460 O   0  0  0  0  0
   88.8220  117.3830   22.5160 O   0  0  0  0  0
   91.9780  117.0850   21.8030 C   0  0  0  0  0
   93.0660  116.3260   22.2750 C   0  0  0  0  0
   92.9040  115.0540   21.8230 N   0  0  0  0  0
   91.7510  115.0330   21.0930 O   0  0  0  0  0
   91.7640  118.5590   22.0740 C   0  0  0  0  0
   94.2050  116.8370   23.1290 C   0  0  0  0  0
   88.8430  125.2377   15.9241 H   0  0  0  0  0
   89.6549  123.3941   17.0864 H   0  0  0  0  0
   88.9220  121.8119   16.7198 H   0  0  0  0  0
   84.7887  126.3235   13.7788 H   0  0  0  0  0
   81.4042  124.9668   13.1561 H   0  0  0  0  0
   88.0072  123.4810   19.0210 H   0  0  0  0  0
   87.0708  121.9272   20.7169 H   0  0  0  0  0
   87.2147  119.7055   21.8110 H   0  0  0  0  0
   89.9185  118.3888   18.7498 H   0  0  0  0  0
   89.7818  120.6102   17.6633 H   0  0  0  0  0
   89.8757  116.2481   19.4089 H   0  0  0  0  0
   91.7338  119.1003   21.1284 H   0  0  0  0  0
   90.8211  118.6967   22.6032 H   0  0  0  0  0
   92.5836  118.9375   22.6848 H   0  0  0  0  0
   94.7284  117.6314   22.5969 H   0  0  0  0  0
   93.8082  117.2262   24.0666 H   0  0  0  0  0
   94.8964  116.0203   23.3368 H   0  0  0  0  0
  1  2  4  0  0  0
  1  6  4  0  0  0
  1  8  1  0  0  0
  2  3  4  0  0  0
  2  9  1  0  0  0
  3  4  4  0  0  0
  4  5  4  0  0  0
  5  6  4  0  0  0
  5  7  1  0  0  0
  7 14  1  0  0  0
  8 10  1  0  0  0
  8 12  2  0  0  0
  9 11  1  0  0  0
 10 11  4  0  0  0
 11 13  2  0  0  0
 14 15  1  0  0  0
 15 16  4  0  0  0
 15 20  4  0  0  0
 16 17  4  0  0  0
 17 18  4  0  0  0
 18 19  4  0  0  0
 18 21  1  0  0  0
 19 20  4  0  0  0
 21 22  1  0  0  0
 21 24  2  0  0  0
 21 25  2  0  0  0
 22 23  1  0  0  0
 23 26  4  0  0  0
 23 29  4  0  0  0
 26 27  4  0  0  0
 26 30  1  0  0  0
 27 28  4  0  0  0
 27 31  1  0  0  0
 28 29  4  0  0  0
  4 32  1  0  0  0
  7 33  1  0  0  0
  7 34  1  0  0  0
  9 35  1  0  0  0
 13 36  1  0  0  0
 14 37  1  0  0  0
 16 38  1  0  0  0
 17 39  1  0  0  0
 19 40  1  0  0  0
 20 41  1  0  0  0
 22 42  1  0  0  0
 30 43  1  0  0  0
 30 44  1  0  0  0
 30 45  1  0  0  0
 31 46  1  0  0  0
 31 47  1  0  0  0
 31 48  1  0  0  0
M  END
$$$$
