2bkz_ligand
  -I-interpret- 

 38 41  0  0  0  0  0  0  0  0999 V2000
   -8.4480  205.0660  115.1720 C   0  0  0  0  0
   -9.7390  204.5640  114.8570 C   0  0  0  0  0
  -10.7550  205.4590  114.3880 C   0  0  0  0  0
  -10.4350  206.8480  114.2550 C   0  0  0  0  0
   -9.1610  207.3380  114.5650 C   0  0  0  0  0
   -8.1830  206.4490  115.0190 C   0  0  0  0  0
  -11.9510  205.0490  114.0950 N   0  0  0  0  0
  -12.5900  204.9980  112.8000 C   0  0  0  0  0
  -13.9050  204.4870  113.0170 C   0  0  0  0  0
  -14.0260  204.2480  114.4020 C   0  0  0  0  0
  -12.8260  204.5970  115.0240 N   0  0  0  0  0
  -12.1430  205.3610  111.4240 C   0  0  0  0  0
  -14.8570  204.1180  111.8240 C   0  0  0  0  0
  -14.4400  204.6890  110.4200 C   0  0  0  0  0
  -12.9800  205.2250  110.3120 C   0  0  0  0  0
  -10.9410  205.8690  110.9420 C   0  0  0  0  0
  -12.2880  205.6450  109.2060 N   0  0  0  0  0
  -11.0560  206.0340  109.5810 N   0  0  0  0  0
  -15.2650  203.6970  115.1440 C   0  0  0  0  0
  -15.2030  203.5360  116.4660 N   0  0  0  0  0
  -16.3080  203.4050  114.5520 O   0  0  0  0  0
   -6.6210  207.0820  115.3970 S   0  0  0  0  0
   -6.6960  208.0660  116.7540 O   0  0  0  0  0
   -5.5950  205.8990  115.6190 O   0  0  0  0  0
   -6.0670  208.0420  114.0760 N   0  0  0  0  0
   -7.6682  204.3929  115.5283 H   0  0  0  0  0
   -9.9559  203.5020  114.9716 H   0  0  0  0  0
  -11.2009  207.5398  113.9043 H   0  0  0  0  0
   -8.9348  208.3985  114.4538 H   0  0  0  0  0
  -15.8290  204.5521  112.0582 H   0  0  0  0  0
  -14.8350  203.0318  111.7352 H   0  0  0  0  0
  -15.0949  205.5385  110.2263 H   0  0  0  0  0
  -14.5167  203.8607  109.7157 H   0  0  0  0  0
  -10.0589  206.0973  111.5403 H   0  0  0  0  0
  -16.0107  203.1759  116.9743 H   0  0  0  0  0
  -14.3479  203.7729  116.9691 H   0  0  0  0  0
   -5.8530  209.0292  114.2174 H   0  0  0  0  0
   -5.9533  207.6226  113.1532 H   0  0  0  0  0
  1  2  4  0  0  0
  1  6  4  0  0  0
  2  3  4  0  0  0
  3  4  4  0  0  0
  3  7  1  0  0  0
  4  5  4  0  0  0
  5  6  4  0  0  0
  6 22  1  0  0  0
  7  8  4  0  0  0
  7 11  4  0  0  0
  8  9  4  0  0  0
  8 12  1  0  0  0
  9 10  4  0  0  0
  9 13  1  0  0  0
 10 11  4  0  0  0
 10 19  1  0  0  0
 12 15  4  0  0  0
 12 16  4  0  0  0
 13 14  1  0  0  0
 14 15  1  0  0  0
 15 17  4  0  0  0
 16 18  4  0  0  0
 17 18  4  0  0  0
 19 20  1  0  0  0
 19 21  2  0  0  0
 22 23  2  0  0  0
 22 24  2  0  0  0
 22 25  1  0  0  0
  1 26  1  0  0  0
  2 27  1  0  0  0
  4 28  1  0  0  0
  5 29  1  0  0  0
 13 30  1  0  0  0
 13 31  1  0  0  0
 14 32  1  0  0  0
 14 33  1  0  0  0
 16 34  1  0  0  0
 20 35  1  0  0  0
 20 36  1  0  0  0
 25 37  1  0  0  0
 25 38  1  0  0  0
M  END
$$$$
