6npp_ligand
  -I-interpret- 

 35 37  0  0  0  0  0  0  0  0999 V2000
   -6.5350  -36.8770  -16.5770 C   0  0  0  0  0
   -4.8840  -37.7310  -18.0580 C   0  0  0  0  0
  -10.8700  -32.2010  -17.3740 C   0  0  0  0  0
  -11.6020  -33.1330  -18.0920 C   0  0  0  0  0
  -11.4560  -34.3490  -17.4340 C   0  0  0  0  0
   -6.2180  -35.6200  -17.0230 C   0  0  0  0  0
  -11.5030  -30.6370  -14.9150 C   0  0  0  0  0
  -10.0690  -31.0850  -14.7300 C   0  0  0  0  0
   -9.3070  -30.3800  -13.8180 C   0  0  0  0  0
   -7.9970  -30.7140  -13.6000 C   0  0  0  0  0
   -7.4390  -31.7790  -14.2890 C   0  0  0  0  0
   -8.2150  -32.4650  -15.1930 C   0  0  0  0  0
   -9.5310  -32.1470  -15.4540 C   0  0  0  0  0
  -10.6170  -34.1070  -16.3540 C   0  0  0  0  0
   -7.5580  -33.5890  -15.9360 C   0  0  0  0  0
   -6.9680  -34.4640  -16.4330 C   0  0  0  0  0
   -5.2520  -35.3840  -17.9790 C   0  0  0  0  0
   -4.5750  -36.4670  -18.5020 C   0  0  0  0  0
   -5.8640  -37.9520  -17.1120 C   0  0  0  0  0
  -10.2890  -32.8150  -16.3470 N   0  0  0  0  0
  -12.4210  -31.4310  -14.5970 O   0  0  0  0  0
  -11.7110  -29.4880  -15.3930 O   0  0  0  0  0
   -7.3015  -37.0213  -15.8156 H   0  0  0  0  0
   -4.3393  -38.5829  -18.4649 H   0  0  0  0  0
  -10.7845  -31.1406  -17.6114 H   0  0  0  0  0
  -12.1803  -32.9485  -18.9973 H   0  0  0  0  0
  -11.9090  -35.3011  -17.7103 H   0  0  0  0  0
   -9.7523  -29.5512  -13.2676 H   0  0  0  0  0
   -7.3971  -30.1458  -12.8891 H   0  0  0  0  0
   -6.4022  -32.0680  -14.1171 H   0  0  0  0  0
  -10.2820  -34.8509  -15.6312 H   0  0  0  0  0
   -5.0295  -34.3703  -18.3121 H   0  0  0  0  0
   -3.8039  -36.3219  -19.2586 H   0  0  0  0  0
   -6.1035  -38.9662  -16.7925 H   0  0  0  0  0
  -10.8705  -29.0560  -15.5621 H   0  0  0  0  0
  6  1  4  0  0  0
  1 19  4  0  0  0
  2 18  4  0  0  0
 19  2  4  0  0  0
  3  4  4  0  0  0
 20  3  4  0  0  0
  5  4  4  0  0  0
 14  5  4  0  0  0
 16  6  1  0  0  0
  6 17  4  0  0  0
  8  7  1  0  0  0
  7 21  2  0  0  0
  7 22  1  0  0  0
  8  9  4  0  0  0
 13  8  4  0  0  0
 10  9  4  0  0  0
 11 10  4  0  0  0
 12 11  4  0  0  0
 12 13  4  0  0  0
 15 12  1  0  0  0
 13 20  1  0  0  0
 20 14  4  0  0  0
 15 16  3  0  0  0
 17 18  4  0  0  0
  1 23  1  0  0  0
  2 24  1  0  0  0
  3 25  1  0  0  0
  4 26  1  0  0  0
  5 27  1  0  0  0
  9 28  1  0  0  0
 10 29  1  0  0  0
 11 30  1  0  0  0
 14 31  1  0  0  0
 17 32  1  0  0  0
 18 33  1  0  0  0
 19 34  1  0  0  0
 22 35  1  0  0  0
M  END
$$$$
