6hs0_ligand
  -I-interpret- 

 31 32  0  0  0  0  0  0  0  0999 V2000
   11.7650  -20.6440  -16.4570 C   0  0  0  0  0
    8.8570  -23.0230  -16.1740 C   0  0  0  0  0
    7.8580  -23.6020  -17.1460 C   0  0  0  0  0
    7.6970  -24.9660  -17.3260 C   0  0  0  0  0
    6.9690  -22.7600  -17.7930 C   0  0  0  0  0
    6.0250  -23.2430  -18.6580 C   0  0  0  0  0
    5.8730  -24.5800  -18.8400 C   0  0  0  0  0
    6.7120  -25.4310  -18.1740 C   0  0  0  0  0
   10.1200  -22.4600  -16.6780 N   0  3  0  0  0
   12.3330  -20.9350  -17.7700 N   0  3  0  0  0
   10.3140  -21.0580  -16.3150 C   0  0  0  0  0
   10.5070  -22.7100  -18.0520 C   0  0  0  0  0
   11.9450  -22.2550  -18.3250 C   0  0  0  0  0
    6.5120  -27.1310  -18.4760 Cl  0  0  0  0  0
   11.8112  -19.5644  -16.3141 H   0  0  0  0  0
   12.3383  -21.2086  -15.7217 H   0  0  0  0  0
    9.1594  -23.8670  -15.5540 H   0  0  0  0  0
    8.3407  -22.1778  -15.7188 H   0  0  0  0  0
    8.3445  -25.6683  -16.8009 H   0  0  0  0  0
    7.0225  -21.6870  -17.6089 H   0  0  0  0  0
    5.3890  -22.5479  -19.2061 H   0  0  0  0  0
    5.0989  -24.9670  -19.5027 H   0  0  0  0  0
   10.7803  -23.0427  -16.1633 H   0  0  0  0  0
   13.3474  -20.9410  -17.6632 H   0  0  0  0  0
   11.9822  -20.2247  -18.4126 H   0  0  0  0  0
    9.7119  -20.4417  -16.9826 H   0  0  0  0  0
   10.0173  -20.9262  -15.2745 H   0  0  0  0  0
    9.8385  -22.1494  -18.7055 H   0  0  0  0  0
   10.4439  -23.7822  -18.2379 H   0  0  0  0  0
   12.5921  -22.9886  -17.8442 H   0  0  0  0  0
   12.0355  -22.1676  -19.4077 H   0  0  0  0  0
  1 10  1  0  0  0
 11  1  1  0  0  0
  2  3  1  0  0  0
  9  2  1  0  0  0
  3  4  4  0  0  0
  3  5  4  0  0  0
  4  8  4  0  0  0
  5  6  4  0  0  0
  6  7  4  0  0  0
  8  7  4  0  0  0
  8 14  1  0  0  0
  9 11  1  0  0  0
  9 12  1  0  0  0
 10 13  1  0  0  0
 12 13  1  0  0  0
  1 15  1  0  0  0
  1 16  1  0  0  0
  2 17  1  0  0  0
  2 18  1  0  0  0
  4 19  1  0  0  0
  5 20  1  0  0  0
  6 21  1  0  0  0
  7 22  1  0  0  0
  9 23  1  0  0  0
 10 24  1  0  0  0
 10 25  1  0  0  0
 11 26  1  0  0  0
 11 27  1  0  0  0
 12 28  1  0  0  0
 12 29  1  0  0  0
 13 30  1  0  0  0
 13 31  1  0  0  0
M  END
$$$$
