4eqc_ligand
  -I-interpret- 

 68 73  0  0  0  0  0  0  0  0999 V2000
   14.0130   33.3000  -16.9950 C   0  0  0  0  0
   14.0340   34.7360  -16.4710 C   0  0  0  0  0
   13.7180   34.6730  -15.0440 N   0  0  0  0  0
   12.3350   34.7770  -14.6070 C   0  0  0  0  0
   10.6990   37.3820  -13.1100 Cl  0  0  0  0  0
   11.4070   34.8940  -15.3940 O   0  0  0  0  0
    9.9940   35.9140  -12.6770 C   0  0  0  0  0
    8.6480   35.8240  -12.2470 C   0  0  0  0  0
    8.0660   34.5770  -11.8680 C   0  0  0  0  0
    6.6430   34.5730  -11.3580 C   0  0  0  0  0
    5.6170   35.2710  -11.9980 C   0  0  0  0  0
    4.3950   35.1800  -11.4120 N   0  0  0  0  0
    5.9710   33.8080   -9.9500 S   0  0  0  0  0
    4.4240   34.4480  -10.3180 C   0  0  0  0  0
    8.8430   33.3860  -11.9420 C   0  0  0  0  0
   10.1780   33.4680  -12.3420 C   0  0  0  0  0
   10.7770   34.7300  -12.7050 C   0  0  0  0  0
   12.0900   34.7030  -13.1060 C   0  0  0  0  0
   13.0950   34.6100  -12.2070 C   0  0  0  0  0
   14.4990   34.5400  -12.7000 C   0  0  0  0  0
   15.6370   34.4270  -11.9080 C   0  0  0  0  0
   16.9210   34.3580  -12.3900 N   0  0  0  0  0
   14.7580   34.5960  -14.0860 C   0  0  0  0  0
   16.0190   34.5730  -14.5910 N   0  0  0  0  0
   17.0380   34.4380  -13.7530 C   0  0  0  0  0
   18.2080   34.3540  -14.2640 N   0  0  0  0  0
   18.6090   34.2510  -15.5090 C   0  0  0  0  0
   17.9340   33.5500  -16.5210 C   0  0  0  0  0
   18.4610   33.5470  -17.8450 C   0  0  0  0  0
   19.6430   34.2380  -18.1900 C   0  0  0  0  0
   20.3170   34.9120  -17.1620 C   0  0  0  0  0
   19.8110   34.9070  -15.8550 C   0  0  0  0  0
   20.0900   34.3150  -19.4120 N   0  0  0  0  0
   21.3300   33.6500  -19.8710 C   0  0  0  0  0
   19.3640   34.8980  -20.5850 C   0  0  0  0  0
   20.1840   35.4120  -21.8140 C   0  0  0  0  0
   21.3620   34.5920  -22.1970 N   0  3  0  0  0
   22.1730   35.3430  -23.1310 C   0  0  0  0  0
   22.1490   34.3930  -20.9640 C   0  0  0  0  0
   14.7562   32.7086  -16.4603 H   0  0  0  0  0
   13.0234   32.8713  -16.8368 H   0  0  0  0  0
   14.2444   33.2998  -18.0601 H   0  0  0  0  0
   13.3070   35.3514  -17.0010 H   0  0  0  0  0
   15.0114   35.1914  -16.6306 H   0  0  0  0  0
    8.0416   36.7288  -12.2044 H   0  0  0  0  0
    5.7852   35.8497  -12.9063 H   0  0  0  0  0
    3.5436   34.2654   -9.7018 H   0  0  0  0  0
    8.4009   32.4222  -11.6895 H   0  0  0  0  0
   10.7803   32.5604  -12.3810 H   0  0  0  0  0
   12.8816   34.5866  -11.1384 H   0  0  0  0  0
   15.4997   34.3906  -10.8273 H   0  0  0  0  0
   18.9651   34.3700  -13.5806 H   0  0  0  0  0
   17.0133   33.0118  -16.2955 H   0  0  0  0  0
   17.9325   32.9911  -18.6194 H   0  0  0  0  0
   21.2425   35.4445  -17.3811 H   0  0  0  0  0
   20.3663   35.4293  -15.0759 H   0  0  0  0  0
   21.0196   32.7045  -20.3157 H   0  0  0  0  0
   21.9795   33.5849  -18.9980 H   0  0  0  0  0
   18.8664   35.7845  -20.1919 H   0  0  0  0  0
   18.7618   34.0776  -20.9755 H   0  0  0  0  0
   20.5699   36.3930  -21.5369 H   0  0  0  0  0
   19.5051   35.3908  -22.6665 H   0  0  0  0  0
   21.0782   33.7081  -22.6196 H   0  0  0  0  0
   21.5825   35.5766  -24.0169 H   0  0  0  0  0
   22.5050   36.2681  -22.6598 H   0  0  0  0  0
   23.0402   34.7480  -23.4174 H   0  0  0  0  0
   23.0224   33.7884  -21.2084 H   0  0  0  0  0
   22.4309   35.3716  -20.5754 H   0  0  0  0  0
  2  1  1  0  0  0
  3  2  1  0  0  0
  4  3  1  0  0  0
  3 23  1  0  0  0
  4  6  2  0  0  0
 18  4  1  0  0  0
  7  5  1  0  0  0
  7  8  4  0  0  0
 17  7  4  0  0  0
  8  9  4  0  0  0
  9 10  1  0  0  0
 15  9  4  0  0  0
 10 11  4  0  0  0
 10 13  4  0  0  0
 11 12  4  0  0  0
 14 12  4  0  0  0
 13 14  4  0  0  0
 16 15  4  0  0  0
 17 16  4  0  0  0
 17 18  1  0  0  0
 18 19  2  0  0  0
 19 20  1  0  0  0
 20 21  4  0  0  0
 20 23  4  0  0  0
 21 22  4  0  0  0
 22 25  4  0  0  0
 23 24  4  0  0  0
 24 25  4  0  0  0
 25 26  1  0  0  0
 26 27  1  0  0  0
 27 28  4  0  0  0
 27 32  4  0  0  0
 28 29  4  0  0  0
 29 30  4  0  0  0
 30 31  4  0  0  0
 30 33  1  0  0  0
 31 32  4  0  0  0
 33 34  1  0  0  0
 33 35  1  0  0  0
 34 39  1  0  0  0
 35 36  1  0  0  0
 36 37  1  0  0  0
 37 38  1  0  0  0
 37 39  1  0  0  0
  1 40  1  0  0  0
  1 41  1  0  0  0
  1 42  1  0  0  0
  2 43  1  0  0  0
  2 44  1  0  0  0
  8 45  1  0  0  0
 11 46  1  0  0  0
 14 47  1  0  0  0
 15 48  1  0  0  0
 16 49  1  0  0  0
 19 50  1  0  0  0
 21 51  1  0  0  0
 26 52  1  0  0  0
 28 53  1  0  0  0
 29 54  1  0  0  0
 31 55  1  0  0  0
 32 56  1  0  0  0
 34 57  1  0  0  0
 34 58  1  0  0  0
 35 59  1  0  0  0
 35 60  1  0  0  0
 36 61  1  0  0  0
 36 62  1  0  0  0
 37 63  1  0  0  0
 38 64  1  0  0  0
 38 65  1  0  0  0
 38 66  1  0  0  0
 39 67  1  0  0  0
 39 68  1  0  0  0
M  END
$$$$
