5fos_ligand
  -I-interpret- 

261262  0  0  0  0  0  0  0  0999 V2000
   30.4230    6.2420   40.7750 N   0  3  0  0  0
   29.6800    6.9330   39.7270 C   0  0  0  0  0
   29.9810    6.3460   38.3450 C   0  0  0  0  0
   29.1360    6.3970   37.4630 O   0  0  0  0  0
   29.9460    8.4460   39.7650 C   0  0  0  0  0
   29.2250    9.3480   38.7490 C   0  0  0  0  0
   27.9000    9.8970   39.2510 C   0  0  0  0  0
   30.1030   10.4960   38.3620 C   0  0  0  0  0
   31.1690    5.7680   38.1660 N   0  0  0  0  0
   31.4500    4.9680   36.9810 C   0  0  0  0  0
   30.7830    3.5950   37.0380 C   0  0  0  0  0
   30.8070    2.8440   36.0690 O   0  0  0  0  0
   30.1900    3.2650   38.1820 N   0  0  0  0  0
   29.5730    1.9490   38.3860 C   0  0  0  0  0
   28.4040    2.0900   39.3730 C   0  0  0  0  0
   28.1760    3.1780   39.8940 O   0  0  0  0  0
   30.6070    0.9310   38.9030 C   0  0  0  0  0
   30.0650   -0.3920   38.8370 O   0  0  0  0  0
   31.0130    1.2410   40.3460 C   0  0  0  0  0
   27.6850    0.9850   39.6160 N   0  0  0  0  0
   26.5270    0.9580   40.5290 C   0  0  0  0  0
   26.9150    1.3410   41.9360 C   0  0  0  0  0
   28.0250    1.0230   42.4000 O   0  0  0  0  0
   25.8600   -0.4310   40.5710 C   0  0  0  0  0
   25.1970   -0.8180   39.2670 C   0  0  0  0  0
   23.9230   -0.3660   38.9620 C   0  0  0  0  0
   25.8450   -1.6320   38.3490 C   0  0  0  0  0
   23.3410   -0.6730   37.7730 C   0  0  0  0  0
   25.2500   -1.9360   37.1340 C   0  0  0  0  0
   23.9960   -1.4560   36.8490 C   0  0  0  0  0
   25.9820    1.9950   42.6130 N   0  0  0  0  0
   26.0730    2.2200   44.0530 C   0  0  0  0  0
   24.6910    2.1120   44.6800 C   0  0  0  0  0
   23.6700    2.3320   44.0250 O   0  0  0  0  0
   26.7070    3.5690   44.3610 C   0  0  0  0  0
   25.9300    4.7840   43.9320 C   0  0  0  0  0
   26.8410    6.3190   44.2780 S   0  0  0  0  0
   27.1510    6.1410   45.9970 C   0  0  0  0  0
   24.6540    1.7470   45.9550 N   0  0  0  0  0
   23.3780    1.6270   46.6440 C   0  0  0  0  0
   22.7000    2.9940   46.7360 C   0  0  0  0  0
   23.3630    3.9950   46.9450 O   0  0  0  0  0
   23.6130    1.0490   48.0290 C   0  0  0  0  0
   22.5340    0.1130   48.4700 C   0  0  0  0  0
   22.9470   -0.6460   49.7240 C   0  0  0  0  0
   23.0220    0.2170   50.8990 N   0  0  0  0  0
   23.2990   -0.2240   52.1180 C   0  0  0  0  0
   23.5500   -1.5170   52.3190 N   0  0  0  0  0
   23.3270    0.6200   53.1350 N   0  0  0  0  0
   21.3780    3.0320   46.6210 N   0  0  0  0  0
   20.6920    4.2960   46.4320 C   0  0  0  0  0
   20.7480    5.1860   47.6610 C   0  0  0  0  0
   20.6810    6.4070   47.5380 O   0  0  0  0  0
   19.2540    4.0570   45.9970 C   0  0  0  0  0
   20.8870    4.5920   48.8440 N   0  0  0  0  0
   21.0650    5.3940   50.0510 C   0  0  0  0  0
   22.4130    6.1350   50.0290 C   0  0  0  0  0
   22.5030    7.2870   50.4530 O   0  0  0  0  0
   20.8730    4.5490   51.3260 C   0  0  0  0  0
   21.8750    3.4390   51.4690 C   0  0  0  0  0
   22.1400    2.7570   50.4740 O   0  0  0  0  0
   22.4020    3.2390   52.5950 O   0  0  0  0  0
   23.4500    5.4760   49.5240 N   0  0  0  0  0
   24.7660    6.1050   49.3840 C   0  0  0  0  0
   24.7410    7.1500   48.2680 C   0  0  0  0  0
   25.3830    8.2090   48.3670 O   0  0  0  0  0
   25.8350    5.0430   49.1290 C   0  0  0  0  0
   25.8990    3.9480   50.1880 C   0  0  0  0  0
   26.9330    2.8770   49.8660 C   0  0  0  0  0
   27.9290    3.1930   49.1690 O   0  0  0  0  0
   26.7480    1.7120   50.2980 O   0  0  0  0  0
   23.9710    6.8680   47.2230 N   0  0  0  0  0
   23.8300    7.8270   46.1280 C   0  0  0  0  0
   23.1710    9.1240   46.6100 C   0  0  0  0  0
   23.6250   10.2250   46.3050 O   0  0  0  0  0
   23.0390    7.2110   44.9870 C   0  0  0  0  0
   22.8440    8.1330   43.8070 C   0  0  0  0  0
   23.9180    8.5470   43.0360 C   0  0  0  0  0
   21.5770    8.5930   43.4700 C   0  0  0  0  0
   23.7380    9.3930   41.9500 C   0  0  0  0  0
   21.3840    9.4300   42.3930 C   0  0  0  0  0
   22.4680    9.8300   41.6330 C   0  0  0  0  0
   22.2660   10.6760   40.5690 O   0  0  0  0  0
   22.1030    8.9930   47.3840 N   0  0  0  0  0
   21.4400   10.1550   47.9620 C   0  0  0  0  0
   22.4340   11.0280   48.7380 C   0  0  0  0  0
   22.4780   12.2540   48.5650 O   0  0  0  0  0
   20.2850    9.6890   48.8650 C   0  0  0  0  0
   19.3870   10.7660   49.5160 C   0  0  0  0  0
   18.1180   10.0490   49.9730 C   0  0  0  0  0
   20.0170   11.5070   50.6790 C   0  0  0  0  0
   23.2380   10.3860   49.5770 N   0  0  0  0  0
   24.2550   11.0830   50.3680 C   0  0  0  0  0
   25.3220   11.7420   49.5000 C   0  0  0  0  0
   25.7440   12.8710   49.7760 O   0  0  0  0  0
   24.9010   10.0880   51.3180 C   0  0  0  0  0
   23.9580    9.5980   52.3790 C   0  0  0  0  0
   24.6160    8.6180   53.3350 C   0  0  0  0  0
   23.5710    7.9560   54.2330 C   0  0  0  0  0
   24.1730    7.0430   55.2390 N   0  3  0  0  0
   25.7690   11.0280   48.4690 N   0  0  0  0  0
   26.7730   11.5510   47.5450 C   0  0  0  0  0
   26.2680   12.8130   46.8610 C   0  0  0  0  0
   26.9870   13.8070   46.7740 O   0  0  0  0  0
   27.1170   10.4730   46.5000 C   0  0  0  0  0
   27.8440   10.9430   45.2330 C   0  0  0  0  0
   27.8320    9.8360   44.1780 C   0  0  0  0  0
   28.2150   10.3450   42.8030 C   0  0  0  0  0
   29.6620   10.6860   42.7160 N   0  3  0  0  0
   25.0310   12.7830   46.3750 N   0  0  0  0  0
   24.4940   13.9280   45.6490 C   0  0  0  0  0
   24.2390   15.1320   46.5600 C   0  0  0  0  0
   24.1930   16.2730   46.0830 O   0  0  0  0  0
   23.2230   13.5440   44.8810 C   0  0  0  0  0
   23.4850   12.7860   43.5770 C   0  0  0  0  0
   24.5120   13.5110   42.6990 C   0  0  0  0  0
   24.5740   12.9860   41.3410 N   0  0  0  0  0
   23.7860   13.3760   40.3430 C   0  0  0  0  0
   22.8550   14.3010   40.5380 N   0  0  0  0  0
   23.9250   12.8320   39.1450 N   0  0  0  0  0
   24.1050   14.8890   47.8640 N   0  0  0  0  0
   23.9950   15.9800   48.8400 C   0  0  0  0  0
   25.3630   16.5130   49.3100 C   0  0  0  0  0
   25.4390   17.4210   50.1560 O   0  0  0  0  0
   23.1730   15.5290   50.0330 C   0  0  0  0  0
   26.4380   15.9660   48.7530 N   0  0  0  0  0
   30.2277    5.2421   40.7258 H   0  0  0  0  0
   31.4219    6.4014   40.6435 H   0  0  0  0  0
   30.1372    6.6010   41.6859 H   0  0  0  0  0
   28.6182    6.7789   39.9194 H   0  0  0  0  0
   31.0064    8.5532   39.5367 H   0  0  0  0  0
   29.5852    8.7728   40.7403 H   0  0  0  0  0
   29.0097    8.7122   37.8902 H   0  0  0  0  0
   28.0774   10.5366   40.1156 H   0  0  0  0  0
   27.4253   10.4771   38.4596 H   0  0  0  0  0
   27.2502    9.0698   39.5366 H   0  0  0  0  0
   29.6182   11.0732   37.5747 H   0  0  0  0  0
   30.2703   11.1328   39.2307 H   0  0  0  0  0
   31.0579   10.1154   37.9997 H   0  0  0  0  0
   31.8952    5.8881   38.8722 H   0  0  0  0  0
   32.5280    4.8184   36.9214 H   0  0  0  0  0
   31.0581    5.4989   36.1134 H   0  0  0  0  0
   30.1633    3.9469   38.9401 H   0  0  0  0  0
   29.1972    1.5769   37.4329 H   0  0  0  0  0
   31.4920    0.9998   38.2704 H   0  0  0  0  0
   30.7154   -1.0195   39.1608 H   0  0  0  0  0
   31.4514    2.2379   40.3926 H   0  0  0  0  0
   30.1322    1.1997   40.9868 H   0  0  0  0  0
   31.7435    0.5054   40.6826 H   0  0  0  0  0
   27.9520    0.1199   39.1462 H   0  0  0  0  0
   25.8200    1.6875   40.1339 H   0  0  0  0  0
   25.0856   -0.4009   41.3374 H   0  0  0  0  0
   26.6404   -1.1646   40.7736 H   0  0  0  0  0
   23.3809    0.2435   39.6850 H   0  0  0  0  0
   26.8296   -2.0357   38.5848 H   0  0  0  0  0
   22.3437   -0.2949   37.5481 H   0  0  0  0  0
   25.7766   -2.5545   36.4072 H   0  0  0  0  0
   23.5215   -1.6933   35.8968 H   0  0  0  0  0
   25.1707    2.3543   42.1098 H   0  0  0  0  0
   26.7160    1.4527   44.4842 H   0  0  0  0  0
   27.6451    3.5972   43.8067 H   0  0  0  0  0
   26.7858    3.6267   45.4466 H   0  0  0  0  0
   24.9929    4.8072   44.4883 H   0  0  0  0  0
   25.7581    4.7207   42.8575 H   0  0  0  0  0
   26.2031    6.0666   46.5300 H   0  0  0  0  0
   27.7371    5.2379   46.1676 H   0  0  0  0  0
   27.7046    7.0083   46.3568 H   0  0  0  0  0
   25.5219    1.5501   46.4533 H   0  0  0  0  0
   22.7202    0.9602   46.0865 H   0  0  0  0  0
   23.6360    1.8805   48.7334 H   0  0  0  0  0
   24.5453    0.4852   47.9968 H   0  0  0  0  0
   22.3477   -0.6059   47.6721 H   0  0  0  0  0
   21.6380    0.6927   48.6919 H   0  0  0  0  0
   23.9374   -1.0673   49.5518 H   0  0  0  0  0
   22.1962   -1.4124   49.9164 H   0  0  0  0  0
   22.8518    1.2150   50.7751 H   0  0  0  0  0
   23.7636   -1.8552   53.2573 H   0  0  0  0  0
   23.5285   -2.1686   51.5346 H   0  0  0  0  0
   23.1355    1.6100   52.9815 H   0  0  0  0  0
   20.8408    2.1661   46.6659 H   0  0  0  0  0
   21.2185    4.8309   45.6416 H   0  0  0  0  0
   19.2470    3.5039   45.0578 H   0  0  0  0  0
   18.7350    3.4810   46.7631 H   0  0  0  0  0
   18.7533    5.0154   45.8595 H   0  0  0  0  0
   20.8691    3.5741   48.9075 H   0  0  0  0  0
   20.2857    6.1559   50.0682 H   0  0  0  0  0
   19.8851    4.0919   51.2692 H   0  0  0  0  0
   20.9981    5.2140   52.1805 H   0  0  0  0  0
   22.0591    3.8767   53.2253 H   0  0  0  0  0
   23.3271    4.5082   49.2263 H   0  0  0  0  0
   25.0155    6.6164   50.3137 H   0  0  0  0  0
   26.7992    5.5513   49.1354 H   0  0  0  0  0
   25.5875    4.5601   48.1837 H   0  0  0  0  0
   24.9218    3.4670   50.2310 H   0  0  0  0  0
   26.1820    4.4126   51.1325 H   0  0  0  0  0
   25.9331    1.6855   50.8048 H   0  0  0  0  0
   23.4752    5.9774   47.1841 H   0  0  0  0  0
   24.8264    8.0778   45.7641 H   0  0  0  0  0
   22.0496    6.9673   45.3740 H   0  0  0  0  0
   23.6015    6.3471   44.6329 H   0  0  0  0  0
   24.9214    8.2027   43.2863 H   0  0  0  0  0
   20.7197    8.2859   44.0690 H   0  0  0  0  0
   24.5930    9.7095   41.3525 H   0  0  0  0  0
   20.3814    9.7755   42.1409 H   0  0  0  0  0
   21.3301   10.8764   40.4942 H   0  0  0  0  0
   21.7380    8.0607   47.5789 H   0  0  0  0  0
   21.0333   10.7682   47.1579 H   0  0  0  0  0
   20.7615    9.1706   49.6970 H   0  0  0  0  0
   19.6232    9.1179   48.2138 H   0  0  0  0  0
   19.1970   11.5431   48.7757 H   0  0  0  0  0
   17.6263    9.5984   49.1109 H   0  0  0  0  0
   18.3799    9.2717   50.6909 H   0  0  0  0  0
   17.4455   10.7671   50.4422 H   0  0  0  0  0
   20.2736   10.7964   51.4647 H   0  0  0  0  0
   20.9190   12.0154   50.3384 H   0  0  0  0  0
   19.3098   12.2400   51.0670 H   0  0  0  0  0
   23.1446    9.3749   49.6739 H   0  0  0  0  0
   23.7625   11.8822   50.9219 H   0  0  0  0  0
   25.7297   10.5918   51.8154 H   0  0  0  0  0
   25.2200    9.2262   50.7318 H   0  0  0  0  0
   23.1339    9.0836   51.8848 H   0  0  0  0  0
   23.6255   10.4600   52.9574 H   0  0  0  0  0
   25.3267    9.1585   53.9602 H   0  0  0  0  0
   25.1227    7.8463   52.7555 H   0  0  0  0  0
   22.9109    7.3650   53.5981 H   0  0  0  0  0
   23.0443    8.7447   54.7703 H   0  0  0  0  0
   23.4335    6.6310   55.8080 H   0  0  0  0  0
   24.6874    6.3035   54.7605 H   0  0  0  0  0
   24.8099    7.5700   55.8366 H   0  0  0  0  0
   25.4000   10.0889   48.3198 H   0  0  0  0  0
   27.6719   11.8091   48.1050 H   0  0  0  0  0
   26.1628   10.0673   46.1639 H   0  0  0  0  0
   27.7982    9.7820   46.9965 H   0  0  0  0  0
   28.8764   11.1872   45.4831 H   0  0  0  0  0
   27.3365   11.8217   44.8349 H   0  0  0  0  0
   26.8196    9.4362   44.1199 H   0  0  0  0  0
   28.5603    9.0807   44.4732 H   0  0  0  0  0
   27.6397   11.2488   42.6022 H   0  0  0  0  0
   28.0067    9.5578   42.0785 H   0  0  0  0  0
   29.8748   11.0230   41.7771 H   0  0  0  0  0
   29.8803   11.4132   43.3971 H   0  0  0  0  0
   30.2185    9.8546   42.9144 H   0  0  0  0  0
   24.4535   11.9533   46.5109 H   0  0  0  0  0
   25.2553   14.2306   44.9300 H   0  0  0  0  0
   22.7129   14.4707   44.6182 H   0  0  0  0  0
   22.6434   12.8841   45.5265 H   0  0  0  0  0
   22.5478   12.7167   43.0248 H   0  0  0  0  0
   23.8787   11.8003   43.8249 H   0  0  0  0  0
   25.4931   13.3723   43.1531 H   0  0  0  0  0
   24.2145   14.5578   42.6365 H   0  0  0  0  0
   25.2711   12.2686   41.1417 H   0  0  0  0  0
   22.2522   14.5884   39.7670 H   0  0  0  0  0
   22.7421   14.7248   41.4589 H   0  0  0  0  0
   24.6346   12.1161   38.9892 H   0  0  0  0  0
   24.0783   13.9232   48.1909 H   0  0  0  0  0
   23.4951   16.8056   48.3334 H   0  0  0  0  0
   22.1753   15.2446   49.6985 H   0  0  0  0  0
   23.6574   14.6736   50.5039 H   0  0  0  0  0
   23.0979   16.3460   50.7506 H   0  0  0  0  0
   27.3690   16.2892   49.0160 H   0  0  0  0  0
   26.3323   15.2228   48.0624 H   0  0  0  0  0
  1  2  1  0  0  0
  2  3  1  0  0  0
  2  5  1  0  0  0
  3  4  2  0  0  0
  3  9  1  0  0  0
  5  6  1  0  0  0
  6  7  1  0  0  0
  6  8  1  0  0  0
  9 10  1  0  0  0
 10 11  1  0  0  0
 11 12  2  0  0  0
 11 13  1  0  0  0
 13 14  1  0  0  0
 14 15  1  0  0  0
 14 17  1  0  0  0
 15 16  2  0  0  0
 15 20  1  0  0  0
 17 18  1  0  0  0
 17 19  1  0  0  0
 20 21  1  0  0  0
 21 22  1  0  0  0
 21 24  1  0  0  0
 22 23  2  0  0  0
 22 31  1  0  0  0
 24 25  1  0  0  0
 25 26  4  0  0  0
 25 27  4  0  0  0
 26 28  4  0  0  0
 27 29  4  0  0  0
 28 30  4  0  0  0
 29 30  4  0  0  0
 31 32  1  0  0  0
 32 33  1  0  0  0
 32 35  1  0  0  0
 33 34  2  0  0  0
 33 39  1  0  0  0
 35 36  1  0  0  0
 36 37  1  0  0  0
 37 38  1  0  0  0
 39 40  1  0  0  0
 40 41  1  0  0  0
 40 43  1  0  0  0
 41 42  2  0  0  0
 41 50  1  0  0  0
 43 44  1  0  0  0
 44 45  1  0  0  0
 45 46  1  0  0  0
 46 47  1  0  0  0
 47 48  1  0  0  0
 47 49  2  0  0  0
 50 51  1  0  0  0
 51 52  1  0  0  0
 51 54  1  0  0  0
 52 53  2  0  0  0
 52 55  1  0  0  0
 55 56  1  0  0  0
 56 57  1  0  0  0
 56 59  1  0  0  0
 57 58  2  0  0  0
 57 63  1  0  0  0
 59 60  1  0  0  0
 60 61  2  0  0  0
 60 62  1  0  0  0
 63 64  1  0  0  0
 64 65  1  0  0  0
 64 67  1  0  0  0
 65 66  2  0  0  0
 65 72  1  0  0  0
 67 68  1  0  0  0
 68 69  1  0  0  0
 69 70  2  0  0  0
 69 71  1  0  0  0
 72 73  1  0  0  0
 73 74  1  0  0  0
 73 76  1  0  0  0
 74 75  2  0  0  0
 74 84  1  0  0  0
 76 77  1  0  0  0
 77 78  4  0  0  0
 77 79  4  0  0  0
 78 80  4  0  0  0
 79 81  4  0  0  0
 80 82  4  0  0  0
 81 82  4  0  0  0
 82 83  1  0  0  0
 84 85  1  0  0  0
 85 86  1  0  0  0
 85 88  1  0  0  0
 86 87  2  0  0  0
 86 92  1  0  0  0
 88 89  1  0  0  0
 89 90  1  0  0  0
 89 91  1  0  0  0
 92 93  1  0  0  0
 93 94  1  0  0  0
 93 96  1  0  0  0
 94 95  2  0  0  0
 94101  1  0  0  0
 96 97  1  0  0  0
 97 98  1  0  0  0
 98 99  1  0  0  0
 99100  1  0  0  0
101102  1  0  0  0
102103  1  0  0  0
102105  1  0  0  0
103104  2  0  0  0
103110  1  0  0  0
105106  1  0  0  0
106107  1  0  0  0
107108  1  0  0  0
108109  1  0  0  0
110111  1  0  0  0
111112  1  0  0  0
111114  1  0  0  0
112113  2  0  0  0
112121  1  0  0  0
114115  1  0  0  0
115116  1  0  0  0
116117  1  0  0  0
117118  1  0  0  0
118119  1  0  0  0
118120  2  0  0  0
121122  1  0  0  0
122123  1  0  0  0
122125  1  0  0  0
123124  2  0  0  0
123126  1  0  0  0
  1127  1  0  0  0
  1128  1  0  0  0
  1129  1  0  0  0
  2130  1  0  0  0
  5131  1  0  0  0
  5132  1  0  0  0
  6133  1  0  0  0
  7134  1  0  0  0
  7135  1  0  0  0
  7136  1  0  0  0
  8137  1  0  0  0
  8138  1  0  0  0
  8139  1  0  0  0
  9140  1  0  0  0
 10141  1  0  0  0
 10142  1  0  0  0
 13143  1  0  0  0
 14144  1  0  0  0
 17145  1  0  0  0
 18146  1  0  0  0
 19147  1  0  0  0
 19148  1  0  0  0
 19149  1  0  0  0
 20150  1  0  0  0
 21151  1  0  0  0
 24152  1  0  0  0
 24153  1  0  0  0
 26154  1  0  0  0
 27155  1  0  0  0
 28156  1  0  0  0
 29157  1  0  0  0
 30158  1  0  0  0
 31159  1  0  0  0
 32160  1  0  0  0
 35161  1  0  0  0
 35162  1  0  0  0
 36163  1  0  0  0
 36164  1  0  0  0
 38165  1  0  0  0
 38166  1  0  0  0
 38167  1  0  0  0
 39168  1  0  0  0
 40169  1  0  0  0
 43170  1  0  0  0
 43171  1  0  0  0
 44172  1  0  0  0
 44173  1  0  0  0
 45174  1  0  0  0
 45175  1  0  0  0
 46176  1  0  0  0
 48177  1  0  0  0
 48178  1  0  0  0
 49179  1  0  0  0
 50180  1  0  0  0
 51181  1  0  0  0
 54182  1  0  0  0
 54183  1  0  0  0
 54184  1  0  0  0
 55185  1  0  0  0
 56186  1  0  0  0
 59187  1  0  0  0
 59188  1  0  0  0
 62189  1  0  0  0
 63190  1  0  0  0
 64191  1  0  0  0
 67192  1  0  0  0
 67193  1  0  0  0
 68194  1  0  0  0
 68195  1  0  0  0
 71196  1  0  0  0
 72197  1  0  0  0
 73198  1  0  0  0
 76199  1  0  0  0
 76200  1  0  0  0
 78201  1  0  0  0
 79202  1  0  0  0
 80203  1  0  0  0
 81204  1  0  0  0
 83205  1  0  0  0
 84206  1  0  0  0
 85207  1  0  0  0
 88208  1  0  0  0
 88209  1  0  0  0
 89210  1  0  0  0
 90211  1  0  0  0
 90212  1  0  0  0
 90213  1  0  0  0
 91214  1  0  0  0
 91215  1  0  0  0
 91216  1  0  0  0
 92217  1  0  0  0
 93218  1  0  0  0
 96219  1  0  0  0
 96220  1  0  0  0
 97221  1  0  0  0
 97222  1  0  0  0
 98223  1  0  0  0
 98224  1  0  0  0
 99225  1  0  0  0
 99226  1  0  0  0
100227  1  0  0  0
100228  1  0  0  0
100229  1  0  0  0
101230  1  0  0  0
102231  1  0  0  0
105232  1  0  0  0
105233  1  0  0  0
106234  1  0  0  0
106235  1  0  0  0
107236  1  0  0  0
107237  1  0  0  0
108238  1  0  0  0
108239  1  0  0  0
109240  1  0  0  0
109241  1  0  0  0
109242  1  0  0  0
110243  1  0  0  0
111244  1  0  0  0
114245  1  0  0  0
114246  1  0  0  0
115247  1  0  0  0
115248  1  0  0  0
116249  1  0  0  0
116250  1  0  0  0
117251  1  0  0  0
119252  1  0  0  0
119253  1  0  0  0
120254  1  0  0  0
121255  1  0  0  0
122256  1  0  0  0
125257  1  0  0  0
125258  1  0  0  0
125259  1  0  0  0
126260  1  0  0  0
126261  1  0  0  0
M  END
$$$$
