### 
### Created by X-TOOL on Mon Sep 10 21:13:26 2018
### 

@<TRIPOS>MOLECULE
5fos_ligand
  261   262     1     0     0
SMALL
GAST_HUCK


@<TRIPOS>ATOM
      1 N          30.4230    6.2420   40.7750 N.4       1 LEU         0.2379
      2 CA         29.6800    6.9330   39.7270 C.3       1 LEU         0.0652
      3 C          29.9810    6.3460   38.3450 C.2       1 LEU         0.2265
      4 O          29.1360    6.3970   37.4630 O.2       1 LEU        -0.3907
      5 CB         29.9460    8.4460   39.7650 C.3       1 LEU         0.0102
      6 CG         29.2250    9.3480   38.7490 C.3       1 LEU        -0.0394
      7 CD1        27.9000    9.8970   39.2510 C.3       1 LEU        -0.0623
      8 CD2        30.1030   10.4960   38.3620 C.3       1 LEU        -0.0623
      9 N          31.1690    5.7680   38.1660 N.am      1 GLY        -0.2637
     10 CA         31.4500    4.9680   36.9810 C.3       1 GLY         0.1202
     11 C          30.7830    3.5950   37.0380 C.2       1 GLY         0.2008
     12 O          30.8070    2.8440   36.0690 O.2       1 GLY        -0.3947
     13 N          30.1900    3.2650   38.1820 N.am      1 THR        -0.2616
     14 CA         29.5730    1.9490   38.3860 C.3       1 THR         0.1565
     15 C          28.4040    2.0900   39.3730 C.2       1 THR         0.2066
     16 O          28.1760    3.1780   39.8940 O.2       1 THR        -0.3943
     17 CB         30.6070    0.9310   38.9030 C.3       1 THR         0.0924
     18 OG1        30.0650   -0.3920   38.8370 O.3       1 THR        -0.3874
     19 CG2        31.0130    1.2410   40.3460 C.3       1 THR        -0.0346
     20 N          27.6850    0.9850   39.6160 N.am      1 PHE        -0.2619
     21 CA         26.5270    0.9580   40.5290 C.3       1 PHE         0.1404
     22 C          26.9150    1.3410   41.9360 C.2       1 PHE         0.2060
     23 O          28.0250    1.0230   42.4000 O.2       1 PHE        -0.3942
     24 CB         25.8600   -0.4310   40.5710 C.3       1 PHE         0.0214
     25 CG         25.1970   -0.8180   39.2670 C.ar      1 PHE        -0.0386
     26 CD1        23.9230   -0.3660   38.9620 C.ar      1 PHE        -0.0601
     27 CD2        25.8450   -1.6320   38.3490 C.ar      1 PHE        -0.0601
     28 CE1        23.3410   -0.6730   37.7730 C.ar      1 PHE        -0.0686
     29 CE2        25.2500   -1.9360   37.1340 C.ar      1 PHE        -0.0686
     30 CZ         23.9960   -1.4560   36.8490 C.ar      1 PHE        -0.0687
     31 N          25.9820    1.9950   42.6130 N.am      1 MET        -0.2636
     32 CA         26.0730    2.2200   44.0530 C.3       1 MET         0.1317
     33 C          24.6910    2.1120   44.6800 C.2       1 MET         0.2039
     34 O          23.6700    2.3320   44.0250 O.2       1 MET        -0.3944
     35 CB         26.7070    3.5690   44.3610 C.3       1 MET        -0.0034
     36 CG         25.9300    4.7840   43.9320 C.3       1 MET        -0.0024
     37 SD         26.8410    6.3190   44.2780 S.3       1 MET        -0.1639
     38 CE         27.1510    6.1410   45.9970 C.3       1 MET        -0.0181
     39 N          24.6540    1.7470   45.9550 N.am      1 ARG        -0.2637
     40 CA         23.3780    1.6270   46.6440 C.3       1 ARG         0.1311
     41 C          22.7000    2.9940   46.7360 C.2       1 ARG         0.2039
     42 O          23.3630    3.9950   46.9450 O.2       1 ARG        -0.3944
     43 CB         23.6130    1.0490   48.0290 C.3       1 ARG        -0.0092
     44 CG         22.5340    0.1130   48.4700 C.3       1 ARG        -0.0156
     45 CD         22.9470   -0.6460   49.7240 C.3       1 ARG         0.0627
     46 NE         23.0220    0.2170   50.8990 N.pl3     1 ARG        -0.2723
     47 CZ         23.2990   -0.2240   52.1180 C.cat     1 ARG         0.2882
     48 NH1        23.5500   -1.5170   52.3190 N.pl3     1 ARG        -0.2849
     49 NH2        23.3270    0.6200   53.1350 N.pl3     1 ARG        -0.2849
     50 N          21.3780    3.0320   46.6210 N.am      1 ALA        -0.2640
     51 CA         20.6920    4.2960   46.4320 C.3       1 ALA         0.1282
     52 C          20.7480    5.1860   47.6610 C.2       1 ALA         0.2037
     53 O          20.6810    6.4070   47.5380 O.2       1 ALA        -0.3944
     54 CB         19.2540    4.0570   45.9970 C.3       1 ALA        -0.0244
     55 N          20.8870    4.5920   48.8440 N.am      1 ASP        -0.2622
     56 CA         21.0650    5.3940   50.0510 C.3       1 ASP         0.1423
     57 C          22.4130    6.1350   50.0290 C.2       1 ASP         0.2056
     58 O          22.5030    7.2870   50.4530 O.2       1 ASP        -0.3943
     59 CB         20.8730    4.5490   51.3260 C.3       1 ASP         0.0406
     60 CG         21.8750    3.4390   51.4690 C.2       1 ASP         0.0393
     61 OD1        22.1400    2.7570   50.4740 O.co2     1 ASP        -0.5688
     62 OD2        22.4020    3.2390   52.5950 O.co2     1 ASP        -0.5688
     63 N          23.4500    5.4760   49.5240 N.am      1 GLU        -0.2635
     64 CA         24.7660    6.1050   49.3840 C.3       1 GLU         0.1325
     65 C          24.7410    7.1500   48.2680 C.2       1 GLU         0.2041
     66 O          25.3830    8.2090   48.3670 O.2       1 GLU        -0.3944
     67 CB         25.8350    5.0430   49.1290 C.3       1 GLU        -0.0008
     68 CG         25.8990    3.9480   50.1880 C.3       1 GLU         0.0044
     69 CD         26.9330    2.8770   49.8660 C.2       1 GLU         0.0350
     70 OE1        27.9290    3.1930   49.1690 O.co2     1 GLU        -0.5690
     71 OE2        26.7480    1.7120   50.2980 O.co2     1 GLU        -0.5690
     72 N          23.9710    6.8680   47.2230 N.am      1 TYR        -0.2621
     73 CA         23.8300    7.8270   46.1280 C.3       1 TYR         0.1390
     74 C          23.1710    9.1240   46.6100 C.2       1 TYR         0.2057
     75 O          23.6250   10.2250   46.3050 O.2       1 TYR        -0.3942
     76 CB         23.0390    7.2110   44.9870 C.3       1 TYR         0.0163
     77 CG         22.8440    8.1330   43.8070 C.ar      1 TYR        -0.0493
     78 CD1        23.9180    8.5470   43.0360 C.ar      1 TYR        -0.0685
     79 CD2        21.5770    8.5930   43.4700 C.ar      1 TYR        -0.0685
     80 CE1        23.7380    9.3930   41.9500 C.ar      1 TYR        -0.0398
     81 CE2        21.3840    9.4300   42.3930 C.ar      1 TYR        -0.0398
     82 CZ         22.4680    9.8300   41.6330 C.ar      1 TYR         0.0805
     83 OH         22.2660   10.6760   40.5690 O.3       1 TYR        -0.3376
     84 N          22.1030    8.9930   47.3840 N.am      1 LEU        -0.2636
     85 CA         21.4400   10.1550   47.9620 C.3       1 LEU         0.1312
     86 C          22.4340   11.0280   48.7380 C.2       1 LEU         0.2039
     87 O          22.4780   12.2540   48.5650 O.2       1 LEU        -0.3944
     88 CB         20.2850    9.6890   48.8650 C.3       1 LEU        -0.0101
     89 CG         19.3870   10.7660   49.5160 C.3       1 LEU        -0.0425
     90 CD1        18.1180   10.0490   49.9730 C.3       1 LEU        -0.0625
     91 CD2        20.0170   11.5070   50.6790 C.3       1 LEU        -0.0625
     92 N          23.2380   10.3860   49.5770 N.am      1 LYS        -0.2637
     93 CA         24.2550   11.0830   50.3680 C.3       1 LYS         0.1310
     94 C          25.3220   11.7420   49.5000 C.2       1 LYS         0.2039
     95 O          25.7440   12.8710   49.7760 O.2       1 LYS        -0.3944
     96 CB         24.9010   10.0880   51.3180 C.3       1 LYS        -0.0122
     97 CG         23.9580    9.5980   52.3790 C.3       1 LYS        -0.0440
     98 CD         24.6160    8.6180   53.3350 C.3       1 LYS        -0.0124
     99 CE         23.5710    7.9560   54.2330 C.3       1 LYS        -0.0354
    100 NZ         24.1730    7.0430   55.2390 N.4       1 LYS         0.2185
    101 N          25.7690   11.0280   48.4690 N.am      1 LYS        -0.2637
    102 CA         26.7730   11.5510   47.5450 C.3       1 LYS         0.1310
    103 C          26.2680   12.8130   46.8610 C.2       1 LYS         0.2039
    104 O          26.9870   13.8070   46.7740 O.2       1 LYS        -0.3944
    105 CB         27.1170   10.4730   46.5000 C.3       1 LYS        -0.0122
    106 CG         27.8440   10.9430   45.2330 C.3       1 LYS        -0.0440
    107 CD         27.8320    9.8360   44.1780 C.3       1 LYS        -0.0124
    108 CE         28.2150   10.3450   42.8030 C.3       1 LYS        -0.0354
    109 NZ         29.6620   10.6860   42.7160 N.4       1 LYS         0.2185
    110 N          25.0310   12.7830   46.3750 N.am      1 ARG        -0.2637
    111 CA         24.4940   13.9280   45.6490 C.3       1 ARG         0.1311
    112 C          24.2390   15.1320   46.5600 C.2       1 ARG         0.2039
    113 O          24.1930   16.2730   46.0830 O.2       1 ARG        -0.3944
    114 CB         23.2230   13.5440   44.8810 C.3       1 ARG        -0.0092
    115 CG         23.4850   12.7860   43.5770 C.3       1 ARG        -0.0156
    116 CD         24.5120   13.5110   42.6990 C.3       1 ARG         0.0627
    117 NE         24.5740   12.9860   41.3410 N.pl3     1 ARG        -0.2723
    118 CZ         23.7860   13.3760   40.3430 C.cat     1 ARG         0.2882
    119 NH1        22.8550   14.3010   40.5380 N.pl3     1 ARG        -0.2849
    120 NH2        23.9250   12.8320   39.1450 N.pl3     1 ARG        -0.2849
    121 N          24.1050   14.8890   47.8640 N.am      1 ALA        -0.2640
    122 CA         23.9950   15.9800   48.8400 C.3       1 ALA         0.1279
    123 C          25.3630   16.5130   49.3100 C.2       1 ALA         0.1989
    124 O          25.4390   17.4210   50.1560 O.2       1 ALA        -0.3947
    125 CB         23.1730   15.5290   50.0330 C.3       1 ALA        -0.0244
    126 N          26.4380   15.9660   48.7530 N.am      1 NH2        -0.2990
    127 H1         30.2026    6.6518   41.6691 H         1 LEU         0.2015
    128 H2         31.4117    6.3299   40.5997 H         1 LEU         0.2015
    129 H3         30.1681    5.2668   40.7804 H         1 LEU         0.2015
    130 H4         28.6088    6.7798   39.9245 H         1 LEU         0.1098
    131 H5         31.0264    8.5888   39.6153 H         1 LEU         0.0348
    132 H6         29.6650    8.7992   40.7681 H         1 LEU         0.0348
    133 H7         29.0226    8.7435   37.8526 H         1 LEU         0.0299
    134 H8         27.4468   10.5291   38.4732 H         1 LEU         0.0232
    135 H9         28.0712   10.4967   40.1571 H         1 LEU         0.0232
    136 H10        27.2228    9.0627   39.4860 H         1 LEU         0.0232
    137 H11        31.0671   10.1131   37.9961 H         1 LEU         0.0232
    138 H12        30.2726   11.1395   39.2379 H         1 LEU         0.0232
    139 H13        29.6149   11.0794   37.5674 H         1 LEU         0.0232
    140 H14        31.8809    5.8858   38.8583 H         1 GLY         0.1882
    141 H15        32.5380    4.8296   36.8972 H         1 GLY         0.0763
    142 H16        31.0794    5.5050   36.0954 H         1 GLY         0.0763
    143 H17        30.1638    3.9335   38.9253 H         1 THR         0.1884
    144 H18        29.1820    1.5885   37.4232 H         1 THR         0.0826
    145 H19        31.5015    0.9837   38.2649 H         1 THR         0.0639
    146 H20        30.7086   -1.0130   39.1574 H         1 THR         0.2101
    147 H21        31.7503    0.4992   40.6868 H         1 THR         0.0257
    148 H22        30.1249    1.1996   40.9938 H         1 THR         0.0257
    149 H23        31.4556    2.2468   40.3944 H         1 THR         0.0257
    150 H24        27.9468    0.1369   39.1554 H         1 PHE         0.1885
    151 H25        25.7907    1.6869   40.1595 H         1 PHE         0.0823
    152 H26        25.0965   -0.4276   41.3629 H         1 PHE         0.0474
    153 H27        26.6297   -1.1806   40.8069 H         1 PHE         0.0474
    154 H28        23.3838    0.2402   39.6810 H         1 PHE         0.0557
    155 H29        26.8242   -2.0335   38.5835 H         1 PHE         0.0557
    156 H30        22.3492   -0.2970   37.5493 H         1 PHE         0.0599
    157 H31        25.7737   -2.5511   36.4112 H         1 PHE         0.0599
    158 H32        23.5241   -1.6920   35.9021 H         1 PHE         0.0559
    159 H33        25.1867    2.3473   42.1197 H         1 MET         0.1883
    160 H34        26.7119    1.4360   44.4855 H         1 MET         0.0800
    161 H35        27.6851    3.6022   43.8588 H         1 MET         0.0320
    162 H36        26.8514    3.6308   45.4497 H         1 MET         0.0320
    163 H37        24.9739    4.8064   44.4755 H         1 MET         0.0378
    164 H38        25.7360    4.7202   42.8511 H         1 MET         0.0378
    165 H39        27.7096    7.0158   46.3613 H         1 MET         0.0340
    166 H40        27.7425    5.2300   46.1705 H         1 MET         0.0340
    167 H41        26.1951    6.0659   46.5361 H         1 MET         0.0340
    168 H42        25.5049    1.5539   46.4436 H         1 ARG         0.1883
    169 H43        22.7259    0.9456   46.0780 H         1 ARG         0.0800
    170 H44        23.6707    1.8790   48.7485 H         1 ARG         0.0313
    171 H45        24.5677    0.5027   48.0220 H         1 ARG         0.0313
    172 H46        22.3316   -0.6077   47.6640 H         1 ARG         0.0301
    173 H47        21.6223    0.6903   48.6832 H         1 ARG         0.0301
    174 H48        23.9356   -1.0974   49.5539 H         1 ARG         0.0689
    175 H49        22.2096   -1.4395   49.9153 H         1 ARG         0.0689
    176 H50        22.8501    1.2248   50.7739 H         1 ARG         0.2642
    177 H51        23.7651   -1.8586   53.2666 H         1 ARG         0.2615
    178 H52        23.5289   -2.1749   51.5268 H         1 ARG         0.2615
    179 H53        23.1330    1.6196   52.9801 H         1 ARG         0.2615
    180 H54        23.5428    0.2780   54.0823 H         1 ARG         0.2615
    181 H55        20.8513    2.1831   46.6650 H         1 ALA         0.1883
    182 H56        21.2044    4.8301   45.6183 H         1 ALA         0.0797
    183 H57        18.7476    5.0235   45.8579 H         1 ALA         0.0277
    184 H58        18.7290    3.4758   46.7694 H         1 ALA         0.0277
    185 H59        19.2456    3.4989   45.0491 H         1 ALA         0.0277
    186 H60        20.8695    3.5941   48.9062 H         1 ASP         0.1884
    187 H61        20.2760    6.1604   50.0527 H         1 ASP         0.0819
    188 H62        19.8659    4.1072   51.3019 H         1 ASP         0.0478
    189 H63        20.9618    5.2121   52.1992 H         1 ASP         0.0478
    190 H64        23.3295    4.5271   49.2322 H         1 GLU         0.1883
    191 H65        25.0083    6.6165   50.3272 H         1 GLU         0.0801
    192 H66        26.8143    5.5425   49.0909 H         1 GLU         0.0330
    193 H67        25.6262    4.5707   48.1578 H         1 GLU         0.0330
    194 H68        24.9103    3.4715   50.2614 H         1 GLU         0.0433
    195 H69        26.1574    4.4072   51.1536 H         1 GLU         0.0433
    196 H70        23.4849    5.9949   47.1848 H         1 TYR         0.1885
    197 H71        24.8355    8.0732   45.7561 H         1 TYR         0.0821
    198 H72        22.0482    6.9234   45.3686 H         1 TYR         0.0453
    199 H73        23.5731    6.3140   44.6405 H         1 TYR         0.0453
    200 H74        24.9159    8.2045   43.2849 H         1 TYR         0.0530
    201 H75        20.7244    8.2875   44.0657 H         1 TYR         0.0530
    202 H76        24.5883    9.7078   41.3558 H         1 TYR         0.0525
    203 H77        20.3869    9.7736   42.1423 H         1 TYR         0.0525
    204 H78        21.6787   10.2646   39.9459 H         1 TYR         0.2458
    205 H79        21.7452    8.0790   47.5751 H         1 LEU         0.1883
    206 H80        21.0201   10.7592   47.1443 H         1 LEU         0.0800
    207 H81        20.7265    9.0964   49.6798 H         1 LEU         0.0315
    208 H82        19.6333    9.0459   48.2554 H         1 LEU         0.0315
    209 H83        19.1279   11.5104   48.7487 H         1 LEU         0.0298
    210 H84        17.4384   10.7727   50.4468 H         1 LEU         0.0232
    211 H85        18.3809    9.2643   50.6976 H         1 LEU         0.0232
    212 H86        17.6208    9.5938   49.1038 H         1 LEU         0.0232
    213 H87        20.9289   12.0185   50.3371 H         1 LEU         0.0232
    214 H88        20.2742   10.7913   51.4737 H         1 LEU         0.0232
    215 H89        19.3052   12.2489   51.0699 H         1 LEU         0.0232
    216 H90        23.1464    9.3947   49.6720 H         1 LYS         0.1883
    217 H91        23.7589   11.8684   50.9571 H         1 LYS         0.0800
    218 H92        25.7577   10.5747   51.8071 H         1 LYS         0.0312
    219 H93        25.2536    9.2241   50.7354 H         1 LYS         0.0312
    220 H94        23.1077    9.0984   51.8918 H         1 LYS         0.0269
    221 H95        23.5948   10.4622   52.9545 H         1 LYS         0.0269
    222 H96        25.3417    9.1569   53.9619 H         1 LYS         0.0317
    223 H97        25.1373    7.8423   52.7550 H         1 LYS         0.0317
    224 H98        22.8806    7.3774   53.6017 H         1 LYS         0.0813
    225 H99        23.0126    8.7426   54.7617 H         1 LYS         0.0813
    226 H100       23.4430    6.6352   55.8020 H         1 LYS         0.1994
    227 H101       24.8026    7.5627   55.8302 H         1 LYS         0.1994
    228 H102       24.6816    6.3117   54.7673 H         1 LYS         0.1994
    229 H103       25.4072   10.1073   48.3227 H         1 LYS         0.1883
    230 H104       27.6822   11.7992   48.1123 H         1 LYS         0.0800
    231 H105       26.1743   10.0008   46.1866 H         1 LYS         0.0312
    232 H106       27.7561    9.7249   46.9919 H         1 LYS         0.0312
    233 H107       28.8849   11.1954   45.4834 H         1 LYS         0.0269
    234 H108       27.3372   11.8331   44.8319 H         1 LYS         0.0269
    235 H109       26.8202    9.4075   44.1269 H         1 LYS         0.0317
    236 H110       28.5464    9.0549   44.4772 H         1 LYS         0.0317
    237 H111       27.6242   11.2458   42.5808 H         1 LYS         0.0813
    238 H112       27.9888    9.5657   42.0604 H         1 LYS         0.0813
    239 H113       29.8735   11.0192   41.7885 H         1 LYS         0.1994
    240 H114       30.2131    9.8650   42.9118 H         1 LYS         0.1994
    241 H115       29.8789   11.4046   43.3887 H         1 LYS         0.1994
    242 H116       24.4648   11.9696   46.5082 H         1 ARG         0.1883
    243 H117       25.2505   14.2310   44.9102 H         1 ARG         0.0800
    244 H118       22.6733   14.4658   44.6401 H         1 ARG         0.0313
    245 H119       22.6051   12.9080   45.5319 H         1 ARG         0.0313
    246 H120       22.5404   12.6956   43.0207 H         1 ARG         0.0301
    247 H121       23.8663   11.7827   43.8178 H         1 ARG         0.0301
    248 H122       25.5046   13.4052   43.1610 H         1 ARG         0.0689
    249 H123       24.2417   14.5762   42.6507 H         1 ARG         0.0689
    250 H124       25.2780   12.2615   41.1397 H         1 ARG         0.2642
    251 H125       22.2503   14.5955   39.7579 H         1 ARG         0.2615
    252 H126       22.7370   14.7246   41.4694 H         1 ARG         0.2615
    253 H127       24.6456   12.1133   38.9862 H         1 ARG         0.2615
    254 H128       23.3126   13.1272   38.3712 H         1 ARG         0.2615
    255 H129       24.0788   13.9421   48.1845 H         1 ALA         0.1883
    256 H130       23.4647   16.8108   48.3517 H         1 ALA         0.0797
    257 H131       23.0964   16.3527   50.7580 H         1 ALA         0.0277
    258 H132       23.6608   14.6657   50.5092 H         1 ALA         0.0277
    259 H133       22.1658   15.2417   49.6968 H         1 ALA         0.0277
    260 H134       27.3511   16.2736   49.0206 H         1 NH2         0.1815
    261 H135       26.3340   15.2466   48.0662 H         1 NH2         0.1815
@<TRIPOS>BOND
     1    1    2 1  
     2    2    3 1  
     3    2    5 1  
     4    3    4 2  
     5    3    9 am 
     6    5    6 1  
     7    6    7 1  
     8    6    8 1  
     9    9   10 1  
    10   10   11 1  
    11   11   12 2  
    12   11   13 am 
    13   13   14 1  
    14   14   15 1  
    15   14   17 1  
    16   15   16 2  
    17   15   20 am 
    18   17   18 1  
    19   17   19 1  
    20   20   21 1  
    21   21   22 1  
    22   21   24 1  
    23   22   23 2  
    24   22   31 am 
    25   24   25 1  
    26   25   26 ar 
    27   25   27 ar 
    28   26   28 ar 
    29   27   29 ar 
    30   28   30 ar 
    31   29   30 ar 
    32   31   32 1  
    33   32   33 1  
    34   32   35 1  
    35   33   34 2  
    36   33   39 am 
    37   35   36 1  
    38   36   37 1  
    39   37   38 1  
    40   39   40 1  
    41   40   41 1  
    42   40   43 1  
    43   41   42 2  
    44   41   50 am 
    45   43   44 1  
    46   44   45 1  
    47   45   46 1  
    48   46   47 ar 
    49   47   48 ar 
    50   47   49 ar 
    51   50   51 1  
    52   51   52 1  
    53   51   54 1  
    54   52   53 2  
    55   52   55 am 
    56   55   56 1  
    57   56   57 1  
    58   56   59 1  
    59   57   58 2  
    60   57   63 am 
    61   59   60 1  
    62   60   61 ar 
    63   60   62 ar 
    64   63   64 1  
    65   64   65 1  
    66   64   67 1  
    67   65   66 2  
    68   65   72 am 
    69   67   68 1  
    70   68   69 1  
    71   69   70 ar 
    72   69   71 ar 
    73   72   73 1  
    74   73   74 1  
    75   73   76 1  
    76   74   75 2  
    77   74   84 am 
    78   76   77 1  
    79   77   78 ar 
    80   77   79 ar 
    81   78   80 ar 
    82   79   81 ar 
    83   80   82 ar 
    84   81   82 ar 
    85   82   83 1  
    86   84   85 1  
    87   85   86 1  
    88   85   88 1  
    89   86   87 2  
    90   86   92 am 
    91   88   89 1  
    92   89   90 1  
    93   89   91 1  
    94   92   93 1  
    95   93   94 1  
    96   93   96 1  
    97   94   95 2  
    98   94  101 am 
    99   96   97 1  
   100   97   98 1  
   101   98   99 1  
   102   99  100 1  
   103  101  102 1  
   104  102  103 1  
   105  102  105 1  
   106  103  104 2  
   107  103  110 am 
   108  105  106 1  
   109  106  107 1  
   110  107  108 1  
   111  108  109 1  
   112  110  111 1  
   113  111  112 1  
   114  111  114 1  
   115  112  113 2  
   116  112  121 am 
   117  114  115 1  
   118  115  116 1  
   119  116  117 1  
   120  117  118 ar 
   121  118  119 ar 
   122  118  120 ar 
   123  121  122 1  
   124  122  123 1  
   125  122  125 1  
   126  123  124 2  
   127  123  126 am 
   128    1  127 1  
   129    1  128 1  
   130    1  129 1  
   131    2  130 1  
   132    5  131 1  
   133    5  132 1  
   134    6  133 1  
   135    7  134 1  
   136    7  135 1  
   137    7  136 1  
   138    8  137 1  
   139    8  138 1  
   140    8  139 1  
   141    9  140 1  
   142   10  141 1  
   143   10  142 1  
   144   13  143 1  
   145   14  144 1  
   146   17  145 1  
   147   18  146 1  
   148   19  147 1  
   149   19  148 1  
   150   19  149 1  
   151   20  150 1  
   152   21  151 1  
   153   24  152 1  
   154   24  153 1  
   155   26  154 1  
   156   27  155 1  
   157   28  156 1  
   158   29  157 1  
   159   30  158 1  
   160   31  159 1  
   161   32  160 1  
   162   35  161 1  
   163   35  162 1  
   164   36  163 1  
   165   36  164 1  
   166   38  165 1  
   167   38  166 1  
   168   38  167 1  
   169   39  168 1  
   170   40  169 1  
   171   43  170 1  
   172   43  171 1  
   173   44  172 1  
   174   44  173 1  
   175   45  174 1  
   176   45  175 1  
   177   46  176 1  
   178   48  177 1  
   179   48  178 1  
   180   49  179 1  
   181   49  180 1  
   182   50  181 1  
   183   51  182 1  
   184   54  183 1  
   185   54  184 1  
   186   54  185 1  
   187   55  186 1  
   188   56  187 1  
   189   59  188 1  
   190   59  189 1  
   191   63  190 1  
   192   64  191 1  
   193   67  192 1  
   194   67  193 1  
   195   68  194 1  
   196   68  195 1  
   197   72  196 1  
   198   73  197 1  
   199   76  198 1  
   200   76  199 1  
   201   78  200 1  
   202   79  201 1  
   203   80  202 1  
   204   81  203 1  
   205   83  204 1  
   206   84  205 1  
   207   85  206 1  
   208   88  207 1  
   209   88  208 1  
   210   89  209 1  
   211   90  210 1  
   212   90  211 1  
   213   90  212 1  
   214   91  213 1  
   215   91  214 1  
   216   91  215 1  
   217   92  216 1  
   218   93  217 1  
   219   96  218 1  
   220   96  219 1  
   221   97  220 1  
   222   97  221 1  
   223   98  222 1  
   224   98  223 1  
   225   99  224 1  
   226   99  225 1  
   227  100  226 1  
   228  100  227 1  
   229  100  228 1  
   230  101  229 1  
   231  102  230 1  
   232  105  231 1  
   233  105  232 1  
   234  106  233 1  
   235  106  234 1  
   236  107  235 1  
   237  107  236 1  
   238  108  237 1  
   239  108  238 1  
   240  109  239 1  
   241  109  240 1  
   242  109  241 1  
   243  110  242 1  
   244  111  243 1  
   245  114  244 1  
   246  114  245 1  
   247  115  246 1  
   248  115  247 1  
   249  116  248 1  
   250  116  249 1  
   251  117  250 1  
   252  119  251 1  
   253  119  252 1  
   254  120  253 1  
   255  120  254 1  
   256  121  255 1  
   257  122  256 1  
   258  125  257 1  
   259  125  258 1  
   260  125  259 1  
   261  126  260 1  
   262  126  261 1  
@<TRIPOS>SUBSTRUCTURE
     1 LEU         1

