2zm3_ligand
  -I-interpret- 

 48 51  0  0  0  0  0  0  0  0999 V2000
   36.4120   82.2610   56.8940 C   0  0  0  0  0
   36.7360   80.9650   56.4760 C   0  0  0  0  0
   37.0630   79.9590   57.4040 C   0  0  0  0  0
   37.0500   80.2940   58.7630 C   0  0  0  0  0
   36.7270   81.5860   59.1810 C   0  0  0  0  0
   36.4020   82.5830   58.2570 C   0  0  0  0  0
   36.0710   83.9680   58.7570 C   0  0  0  0  0
   34.7390   84.5870   58.3920 N   0  3  0  0  0
   34.1360   85.4140   59.5140 C   0  0  0  0  0
   32.6330   85.3730   59.2770 C   0  0  0  0  0
   32.4320   84.5750   57.9980 C   0  0  0  0  0
   33.6360   83.6560   57.9470 C   0  0  0  0  0
   37.3850   78.6670   56.9450 N   0  0  0  0  0
   38.0200   77.6780   57.6530 C   0  0  0  0  0
   38.5780   76.5060   57.2820 C   0  0  0  0  0
   39.0500   75.5440   58.3050 C   0  0  0  0  0
   39.2090   75.9110   59.6510 C   0  0  0  0  0
   39.6540   74.9990   60.6080 C   0  0  0  0  0
   39.9510   73.6910   60.2410 C   0  0  0  0  0
   39.8020   73.3020   58.9140 C   0  0  0  0  0
   39.3530   74.2220   57.9480 C   0  0  0  0  0
   39.2070   73.7750   56.5440 C   0  0  0  0  0
   39.4700   72.6230   56.2190 O   0  0  0  0  0
   38.7640   74.7250   55.6360 N   0  0  0  0  0
   38.4320   76.0540   55.8620 C   0  0  0  0  0
   38.0540   76.7950   54.9590 O   0  0  0  0  0
   39.8390   75.5820   62.4090 Br  0  0  0  0  0
   36.1662   83.0235   56.1549 H   0  0  0  0  0
   36.7350   80.7306   55.4115 H   0  0  0  0  0
   37.2957   79.5349   59.5056 H   0  0  0  0  0
   36.7283   81.8212   60.2453 H   0  0  0  0  0
   36.8156   84.6164   58.2953 H   0  0  0  0  0
   36.0466   83.8740   59.8427 H   0  0  0  0  0
   35.0279   85.1488   57.5912 H   0  0  0  0  0
   34.5160   86.4356   59.5094 H   0  0  0  0  0
   34.3995   85.0153   60.4936 H   0  0  0  0  0
   32.2203   86.3776   59.1845 H   0  0  0  0  0
   32.1134   84.9109   60.1164 H   0  0  0  0  0
   32.3627   85.2147   57.1182 H   0  0  0  0  0
   31.4913   84.0243   57.9978 H   0  0  0  0  0
   33.5352   82.7672   58.5699 H   0  0  0  0  0
   33.8068   83.2120   56.9663 H   0  0  0  0  0
   37.1183   78.4432   55.9863 H   0  0  0  0  0
   38.0869   77.8773   58.7225 H   0  0  0  0  0
   38.9794   76.9322   59.9551 H   0  0  0  0  0
   40.2978   72.9763   60.9873 H   0  0  0  0  0
   40.0344   72.2784   58.6203 H   0  0  0  0  0
   38.6693   74.4042   54.6724 H   0  0  0  0  0
  1  2  4  0  0  0
  1  6  4  0  0  0
  2  3  4  0  0  0
  3  4  4  0  0  0
  3 13  1  0  0  0
  4  5  4  0  0  0
  5  6  4  0  0  0
  6  7  1  0  0  0
  7  8  1  0  0  0
  8  9  1  0  0  0
  8 12  1  0  0  0
  9 10  1  0  0  0
 10 11  1  0  0  0
 11 12  1  0  0  0
 13 14  1  0  0  0
 14 15  2  0  0  0
 15 16  1  0  0  0
 15 25  1  0  0  0
 16 17  4  0  0  0
 16 21  4  0  0  0
 17 18  4  0  0  0
 18 19  4  0  0  0
 18 27  1  0  0  0
 19 20  4  0  0  0
 20 21  4  0  0  0
 21 22  1  0  0  0
 22 23  2  0  0  0
 22 24  1  0  0  0
 24 25  1  0  0  0
 25 26  2  0  0  0
  1 28  1  0  0  0
  2 29  1  0  0  0
  4 30  1  0  0  0
  5 31  1  0  0  0
  7 32  1  0  0  0
  7 33  1  0  0  0
  8 34  1  0  0  0
  9 35  1  0  0  0
  9 36  1  0  0  0
 10 37  1  0  0  0
 10 38  1  0  0  0
 11 39  1  0  0  0
 11 40  1  0  0  0
 12 41  1  0  0  0
 12 42  1  0  0  0
 13 43  1  0  0  0
 14 44  1  0  0  0
 17 45  1  0  0  0
 19 46  1  0  0  0
 20 47  1  0  0  0
 24 48  1  0  0  0
M  END
$$$$
