3s0j_ligand
  -I-interpret- 

 35 36  0  0  0  0  0  0  0  0999 V2000
   33.9510   24.1830   30.2140 C   0  0  0  0  0
   32.6260   24.4710   30.3150 O   0  0  0  0  0
   34.4360   23.4810   29.1030 C   0  0  0  0  0
   35.7980   23.1840   29.0210 C   0  0  0  0  0
   36.6720   23.6060   30.0250 C   0  0  0  0  0
   38.0010   23.3200   29.9390 O   0  0  0  0  0
   36.1890   24.3100   31.1260 C   0  0  0  0  0
   37.2880   24.8100   32.3690 Cl  0  0  0  0  0
   34.8260   24.6040   31.2230 C   0  0  0  0  0
   33.4670   23.0000   28.0060 C   0  0  0  0  0
   33.8790   23.1900   26.5320 C   0  0  0  0  0
   34.0720   24.5790   26.2470 O   0  0  0  0  0
   32.7930   22.5930   25.6090 C   0  0  0  0  0
   33.2040   22.6700   24.2420 O   0  0  0  0  0
   32.4890   21.1310   25.9830 C   0  0  0  0  0
   31.3320   20.6870   25.2750 O   0  0  0  0  0
   32.2470   20.9720   27.5030 C   0  0  0  0  0
   33.3390   21.5610   28.2470 O   0  0  0  0  0
   32.1360   19.5020   27.9220 C   0  0  0  0  0
   33.2260   18.7530   27.3670 O   0  0  0  0  0
   32.4654   24.9519   31.1302 H   0  0  0  0  0
   36.1804   22.6205   28.1699 H   0  0  0  0  0
   38.4548   23.6797   30.7047 H   0  0  0  0  0
   34.4456   25.1588   32.0807 H   0  0  0  0  0
   32.5671   23.6088   28.0941 H   0  0  0  0  0
   34.8202   22.6703   26.3525 H   0  0  0  0  0
   34.3278   24.6833   25.3276 H   0  0  0  0  0
   31.8829   23.1779   25.7421 H   0  0  0  0  0
   32.5200   22.2958   23.6818 H   0  0  0  0  0
   33.3548   20.5281   25.7092 H   0  0  0  0  0
   31.1447   19.7752   25.5100 H   0  0  0  0  0
   31.3056   21.4762   27.7215 H   0  0  0  0  0
   31.1947   19.0933   27.5544 H   0  0  0  0  0
   32.1699   19.4344   29.0094 H   0  0  0  0  0
   33.1498   17.8339   27.6336 H   0  0  0  0  0
  1  2  1  0  0  0
  1  3  4  0  0  0
  1  9  4  0  0  0
  3  4  4  0  0  0
  3 10  1  0  0  0
  4  5  4  0  0  0
  5  6  1  0  0  0
  5  7  4  0  0  0
  7  8  1  0  0  0
  7  9  4  0  0  0
 10 11  1  0  0  0
 10 18  1  0  0  0
 11 12  1  0  0  0
 11 13  1  0  0  0
 13 14  1  0  0  0
 13 15  1  0  0  0
 15 16  1  0  0  0
 15 17  1  0  0  0
 17 18  1  0  0  0
 17 19  1  0  0  0
 19 20  1  0  0  0
  2 21  1  0  0  0
  4 22  1  0  0  0
  6 23  1  0  0  0
  9 24  1  0  0  0
 10 25  1  0  0  0
 11 26  1  0  0  0
 12 27  1  0  0  0
 13 28  1  0  0  0
 14 29  1  0  0  0
 15 30  1  0  0  0
 16 31  1  0  0  0
 17 32  1  0  0  0
 19 33  1  0  0  0
 19 34  1  0  0  0
 20 35  1  0  0  0
M  END
$$$$
