3sm1_ligand
  -I-interpret- 

 76 75  0  0  0  0  0  0  0  0999 V2000
   -5.5570    2.3350    8.7090 C   0  0  0  0  0
   -6.8630    1.7240    9.2530 C   0  0  0  0  0
   -7.4860    2.5750   10.3510 C   0  0  0  0  0
   -7.9330    1.4430    8.2070 C   0  0  0  0  0
   -5.7340    3.7020    8.0740 C   0  0  0  0  0
   -5.6850    4.7340    8.7490 O   0  0  0  0  0
   -5.9340    3.7530    6.7630 N   0  0  0  0  0
   -6.1770    5.0000    6.0470 C   0  0  0  0  0
   -7.3020    4.6580    5.0550 C   0  0  0  0  0
   -7.1610    3.7640    4.2040 O   0  0  0  0  0
   -4.9380    5.5340    5.2670 C   0  0  0  0  0
   -5.3120    6.6050    4.2230 C   0  0  0  0  0
   -3.8800    6.0900    6.2320 C   0  0  0  0  0
   -8.4030    5.3740    5.1580 N   0  0  0  0  0
   -9.5320    5.1990    4.2360 C   0  0  0  0  0
   -9.8190    6.5530    3.5930 C   0  0  0  0  0
   -9.7560    7.5620    4.2860 O   0  0  0  0  0
  -10.7850    4.7040    5.0200 C   0  0  0  0  0
  -12.0510    4.7800    4.1830 C   0  0  0  0  0
  -10.5830    3.2690    5.5220 C   0  0  0  0  0
  -10.1770    6.5700    2.2950 N   0  0  0  0  0
  -10.5110    7.8280    1.6200 C   0  0  0  0  0
  -10.2050    7.7500    0.1180 C   0  0  0  0  0
   -8.7080    7.5630   -0.1880 C   0  0  0  0  0
   -7.8540    8.7060    0.3530 C   0  0  0  0  0
   -8.4400    7.4010   -1.6930 C   0  0  0  0  0
  -11.9590    8.2280    2.0080 C   0  0  0  0  0
  -12.3420    9.5130    1.5330 O   0  0  0  0  0
  -12.9520    7.1970    1.5080 C   0  0  0  0  0
  -14.3670    7.4150    2.0100 C   0  0  0  0  0
  -14.6740    7.3690    3.3860 O   0  0  0  0  0
  -15.2860    7.4800    1.0490 N   0  0  0  0  0
   -5.1836    1.6644    7.9350 H   0  0  0  0  0
   -4.8795    2.4559    9.5543 H   0  0  0  0  0
   -6.5335    0.7639    9.6501 H   0  0  0  0  0
   -7.8481    3.5098    9.9231 H   0  0  0  0  0
   -8.3182    2.0334   10.8006 H   0  0  0  0  0
   -6.7362    2.7889   11.1126 H   0  0  0  0  0
   -8.7621    0.9092    8.6715 H   0  0  0  0  0
   -8.2920    2.3857    7.7940 H   0  0  0  0  0
   -7.5083    0.8336    7.4093 H   0  0  0  0  0
   -5.9170    2.8817    6.2329 H   0  0  0  0  0
   -6.4255    5.7925    6.7528 H   0  0  0  0  0
   -4.5219    4.6825    4.7285 H   0  0  0  0  0
   -6.0059    6.1780    3.4989 H   0  0  0  0  0
   -5.7828    7.4506    4.7244 H   0  0  0  0  0
   -4.4108    6.9409    3.7101 H   0  0  0  0  0
   -4.3107    6.9083    6.8090 H   0  0  0  0  0
   -3.5549    5.2989    6.9077 H   0  0  0  0  0
   -3.0263    6.4559    5.6615 H   0  0  0  0  0
   -8.4731    6.0703    5.9000 H   0  0  0  0  0
   -9.2924    4.4584    3.4730 H   0  0  0  0  0
  -10.9053    5.3714    5.8734 H   0  0  0  0  0
  -12.2247    5.8132    3.8822 H   0  0  0  0  0
  -11.9368    4.1564    3.2963 H   0  0  0  0  0
  -12.8964    4.4247    4.7722 H   0  0  0  0  0
  -10.4167    2.6079    4.6715 H   0  0  0  0  0
   -9.7180    3.2355    6.1844 H   0  0  0  0  0
  -11.4712    2.9472    6.0657 H   0  0  0  0  0
  -10.2164    5.6943    1.7734 H   0  0  0  0  0
   -9.8748    8.6464    1.9571 H   0  0  0  0  0
  -10.5186    8.6920   -0.3320 H   0  0  0  0  0
  -10.7341    6.8851   -0.2820 H   0  0  0  0  0
   -8.4216    6.6440    0.3233 H   0  0  0  0  0
   -8.1753    9.6439   -0.1001 H   0  0  0  0  0
   -7.9713    8.7648    1.4351 H   0  0  0  0  0
   -6.8075    8.5229    0.1091 H   0  0  0  0  0
   -8.9743    6.5263   -2.0638 H   0  0  0  0  0
   -8.7859    8.2901   -2.2201 H   0  0  0  0  0
   -7.3704    7.2721   -1.8585 H   0  0  0  0  0
  -11.9699    8.2691    3.0972 H   0  0  0  0  0
  -13.2436    9.6982    1.8059 H   0  0  0  0  0
  -12.6233    6.2247    1.8750 H   0  0  0  0  0
  -12.9779    7.2715    0.4209 H   0  0  0  0  0
  -16.2767    7.4991    1.2911 H   0  0  0  0  0
  -14.9995    7.5107    0.0706 H   0  0  0  0  0
  1  2  1  0  0  0
  1  5  1  0  0  0
  2  3  1  0  0  0
  2  4  1  0  0  0
  5  6  2  0  0  0
  5  7  1  0  0  0
  7  8  1  0  0  0
  8  9  1  0  0  0
  8 11  1  0  0  0
  9 10  2  0  0  0
  9 14  1  0  0  0
 11 12  1  0  0  0
 11 13  1  0  0  0
 14 15  1  0  0  0
 15 16  1  0  0  0
 15 18  1  0  0  0
 16 17  2  0  0  0
 16 21  1  0  0  0
 18 19  1  0  0  0
 18 20  1  0  0  0
 21 22  1  0  0  0
 22 23  1  0  0  0
 22 27  1  0  0  0
 23 24  1  0  0  0
 24 25  1  0  0  0
 24 26  1  0  0  0
 27 28  1  0  0  0
 27 29  1  0  0  0
 29 30  1  0  0  0
 30 31  2  0  0  0
 30 32  1  0  0  0
  1 33  1  0  0  0
  1 34  1  0  0  0
  2 35  1  0  0  0
  3 36  1  0  0  0
  3 37  1  0  0  0
  3 38  1  0  0  0
  4 39  1  0  0  0
  4 40  1  0  0  0
  4 41  1  0  0  0
  7 42  1  0  0  0
  8 43  1  0  0  0
 11 44  1  0  0  0
 12 45  1  0  0  0
 12 46  1  0  0  0
 12 47  1  0  0  0
 13 48  1  0  0  0
 13 49  1  0  0  0
 13 50  1  0  0  0
 14 51  1  0  0  0
 15 52  1  0  0  0
 18 53  1  0  0  0
 19 54  1  0  0  0
 19 55  1  0  0  0
 19 56  1  0  0  0
 20 57  1  0  0  0
 20 58  1  0  0  0
 20 59  1  0  0  0
 21 60  1  0  0  0
 22 61  1  0  0  0
 23 62  1  0  0  0
 23 63  1  0  0  0
 24 64  1  0  0  0
 25 65  1  0  0  0
 25 66  1  0  0  0
 25 67  1  0  0  0
 26 68  1  0  0  0
 26 69  1  0  0  0
 26 70  1  0  0  0
 27 71  1  0  0  0
 28 72  1  0  0  0
 29 73  1  0  0  0
 29 74  1  0  0  0
 32 75  1  0  0  0
 32 76  1  0  0  0
M  END
$$$$
