3aqa_ligand
  -I-interpret- 

 39 42  0  0  0  0  0  0  0  0999 V2000
   11.2490   -8.4980   36.0140 C   0  0  0  0  0
    9.5090   -6.4700   34.3110 S   0  0  0  0  0
   15.5250   -4.0930   32.8810 C   0  0  0  0  0
   14.7150   -4.3790   34.0270 C   0  0  0  0  0
   12.3160  -12.0270   33.2810 C   0  0  0  0  0
   11.7890  -11.8860   31.9640 C   0  0  0  0  0
   15.0270   -4.2890   31.5520 C   0  0  0  0  0
   13.3980   -4.8760   33.8680 C   0  0  0  0  0
   12.0890  -11.0350   34.2630 C   0  0  0  0  0
   11.0190  -10.7450   31.6060 C   0  0  0  0  0
    9.1770   -6.6050   30.9020 C   0  0  0  0  0
    9.3830   -8.1120   31.2330 C   0  0  0  0  0
   12.9560   -5.0730   30.3290 N   0  0  0  0  0
   11.7390   -5.5300   32.1180 N   0  0  0  0  0
   10.4850   -6.0480   29.7380 S   0  0  0  0  0
   11.7820   -5.5240   30.7860 C   0  0  0  0  0
   10.1860   -7.9870   33.7540 C   0  0  0  0  0
   13.6990   -4.7850   31.4040 C   0  0  0  0  0
   12.8960   -5.0820   32.5530 C   0  0  0  0  0
   11.3030   -9.8670   33.8990 C   0  0  0  0  0
   10.7680   -9.7250   32.5650 C   0  0  0  0  0
   10.9200   -8.7890   34.5660 N   0  3  0  0  0
   10.0870   -8.5660   32.5100 N   0  0  0  0  0
   11.8080   -7.5644   36.0777 H   0  0  0  0  0
   10.3245   -8.4090   36.5845 H   0  0  0  0  0
   11.8506   -9.3116   36.4192 H   0  0  0  0  0
    8.8411   -5.8926   33.3163 H   0  0  0  0  0
   16.5391   -3.7193   33.0225 H   0  0  0  0  0
   15.1143   -4.2132   35.0276 H   0  0  0  0  0
   12.9015  -12.9108   33.5344 H   0  0  0  0  0
   11.9784  -12.6620   31.2224 H   0  0  0  0  0
   15.6441   -4.0659   30.6817 H   0  0  0  0  0
   12.7799   -5.0968   34.7383 H   0  0  0  0  0
   12.4938  -11.1434   35.2692 H   0  0  0  0  0
   10.6208  -10.6521   30.5956 H   0  0  0  0  0
    9.2353   -6.0204   31.8202 H   0  0  0  0  0
    8.1985   -6.4647   30.4426 H   0  0  0  0  0
   10.0399   -8.4635   30.4373 H   0  0  0  0  0
    8.3679   -8.4918   31.3490 H   0  0  0  0  0
 22  1  1  0  0  0
 17  2  1  0  0  0
  4  3  4  0  0  0
  7  3  4  0  0  0
  8  4  4  0  0  0
  5  6  4  0  0  0
  9  5  4  0  0  0
 10  6  4  0  0  0
 18  7  4  0  0  0
 19  8  4  0  0  0
 20  9  4  0  0  0
 21 10  4  0  0  0
 12 11  1  0  0  0
 11 15  1  0  0  0
 23 12  1  0  0  0
 16 13  4  0  0  0
 13 18  4  0  0  0
 16 14  4  0  0  0
 14 19  4  0  0  0
 15 16  1  0  0  0
 22 17  4  0  0  0
 17 23  4  0  0  0
 19 18  4  0  0  0
 20 21  4  0  0  0
 20 22  4  0  0  0
 21 23  4  0  0  0
  1 24  1  0  0  0
  1 25  1  0  0  0
  1 26  1  0  0  0
  2 27  1  0  0  0
  3 28  1  0  0  0
  4 29  1  0  0  0
  5 30  1  0  0  0
  6 31  1  0  0  0
  7 32  1  0  0  0
  8 33  1  0  0  0
  9 34  1  0  0  0
 10 35  1  0  0  0
 11 36  1  0  0  0
 11 37  1  0  0  0
 12 38  1  0  0  0
 12 39  1  0  0  0
M  END
$$$$
