6hbn_ligand
  -I-interpret- 

 46 49  0  0  0  0  0  0  0  0999 V2000
  -20.2510   17.9990  -30.3090 C   0  0  0  0  0
  -18.6230   16.6220  -29.5280 C   0  0  0  0  0
  -18.5960   16.6420  -30.9440 C   0  0  0  0  0
  -19.8660   17.7520  -32.7790 C   0  0  0  0  0
  -18.6620   18.3850  -33.4820 C   0  0  0  0  0
  -23.1590   20.9540  -35.2790 C   0  0  0  0  0
  -22.3940   20.6790  -34.2410 C   0  0  0  0  0
  -22.9860   20.4950  -32.8430 C   0  0  0  0  0
  -22.2440   19.6490  -30.7460 C   0  0  0  0  0
  -23.2230   20.4450  -30.1400 C   0  0  0  0  0
  -23.3270   20.4880  -28.7370 C   0  0  0  0  0
  -22.4450   19.7430  -27.9540 C   0  0  0  0  0
  -21.4660   18.9510  -28.5560 C   0  0  0  0  0
  -21.3530   18.8950  -29.9570 C   0  0  0  0  0
  -19.6770   17.4840  -29.1400 C   0  0  0  0  0
  -20.4250   16.5430  -33.5210 C   0  0  0  0  0
  -17.5140   15.7730  -31.7180 C   0  0  0  0  0
  -16.8740   14.6800  -30.8330 C   0  0  0  0  0
  -16.5260   15.1150  -29.4310 C   0  0  0  0  0
  -17.6330   15.8040  -28.7380 C   0  0  0  0  0
  -20.4080   18.0510  -27.9690 C   0  0  0  0  0
  -19.5750   17.4620  -31.3800 N   0  0  0  0  0
  -22.1550   19.6090  -32.1400 O   0  0  0  0  0
  -17.7440   15.7540  -27.5590 O   0  0  0  0  0
  -20.2120   17.8330  -26.8160 O   0  0  0  0  0
  -20.6625   18.4959  -32.7966 H   0  0  0  0  0
  -17.8624   17.6488  -33.5641 H   0  0  0  0  0
  -18.9569   18.7156  -34.4779 H   0  0  0  0  0
  -18.3126   19.2396  -32.9027 H   0  0  0  0  0
  -24.2367   21.0546  -35.1503 H   0  0  0  0  0
  -22.7138   21.0807  -36.2658 H   0  0  0  0  0
  -21.3176   20.5808  -34.3822 H   0  0  0  0  0
  -23.9974   20.0940  -32.9095 H   0  0  0  0  0
  -23.0420   21.4530  -32.3261 H   0  0  0  0  0
  -23.9052   21.0319  -30.7550 H   0  0  0  0  0
  -24.0940   21.1012  -28.2640 H   0  0  0  0  0
  -22.5207   19.7796  -26.8672 H   0  0  0  0  0
  -19.6983   15.7312  -33.4897 H   0  0  0  0  0
  -21.3511   16.2220  -33.0442 H   0  0  0  0  0
  -20.6238   16.8146  -34.5577 H   0  0  0  0  0
  -16.7196   16.4444  -32.0438 H   0  0  0  0  0
  -18.0177   15.2765  -32.5474 H   0  0  0  0  0
  -15.9388   14.3940  -31.3143 H   0  0  0  0  0
  -17.6092   13.8806  -30.7404 H   0  0  0  0  0
  -15.6954   15.8173  -29.5019 H   0  0  0  0  0
  -16.2880   14.2184  -28.8587 H   0  0  0  0  0
 14  1  1  0  0  0
  1 15  4  0  0  0
  1 22  4  0  0  0
  3  2  4  0  0  0
 15  2  4  0  0  0
  2 20  1  0  0  0
  3 17  1  0  0  0
 22  3  4  0  0  0
  4  5  1  0  0  0
  4 16  1  0  0  0
 22  4  1  0  0  0
  7  6  2  0  0  0
  8  7  1  0  0  0
 23  8  1  0  0  0
  9 10  4  0  0  0
  9 14  4  0  0  0
  9 23  1  0  0  0
 10 11  4  0  0  0
 11 12  4  0  0  0
 12 13  4  0  0  0
 13 14  4  0  0  0
 13 21  1  0  0  0
 15 21  1  0  0  0
 17 18  1  0  0  0
 18 19  1  0  0  0
 19 20  1  0  0  0
 20 24  2  0  0  0
 21 25  2  0  0  0
  4 26  1  0  0  0
  5 27  1  0  0  0
  5 28  1  0  0  0
  5 29  1  0  0  0
  6 30  1  0  0  0
  6 31  1  0  0  0
  7 32  1  0  0  0
  8 33  1  0  0  0
  8 34  1  0  0  0
 10 35  1  0  0  0
 11 36  1  0  0  0
 12 37  1  0  0  0
 16 38  1  0  0  0
 16 39  1  0  0  0
 16 40  1  0  0  0
 17 41  1  0  0  0
 17 42  1  0  0  0
 18 43  1  0  0  0
 18 44  1  0  0  0
 19 45  1  0  0  0
 19 46  1  0  0  0
M  END
$$$$
