6myn_ligand
  -I-interpret- 

 56 60  0  0  0  0  0  0  0  0999 V2000
   41.8570   23.5020    0.7780 C   0  0  0  0  0
   43.2210   16.3330   -1.4220 C   0  0  0  0  0
   42.2620   18.6620   -0.1500 C   0  0  0  0  0
   41.1800   22.2950    1.4230 C   0  0  0  0  0
   39.6810   22.3370    1.1790 C   0  0  0  0  0
   41.6080   21.0150    0.8210 C   0  0  0  0  0
   41.8910   19.9290    0.4130 C   0  0  0  0  0
   42.3350   18.5840   -1.5350 C   0  0  0  0  0
   42.7770   17.4270   -2.1690 C   0  0  0  0  0
   42.1090   24.7150    1.4520 C   0  0  0  0  0
   43.1520   26.9200    0.5370 C   0  0  0  0  0
   43.1410   16.3860   -0.0330 C   0  0  0  0  0
   42.6420   17.5210    0.5630 C   0  0  0  0  0
   43.7740   15.1090   -2.1310 C   0  0  0  0  0
   44.6910   15.4660   -3.3430 C   0  0  0  0  0
   42.6640   25.5180    0.5320 C   0  0  0  0  0
   43.5090   15.2690   -4.3200 C   0  0  0  0  0
   42.7550   14.6090   -3.2040 C   0  0  0  0  0
   42.5910   17.5140   -3.6280 C   0  0  0  0  0
   41.9750   18.3960   -5.4970 C   0  0  0  0  0
   42.3840   17.1170   -5.8120 C   0  0  0  0  0
   42.3690   16.2690   -6.9910 C   0  0  0  0  0
   42.9480   16.0470   -9.3330 C   0  0  0  0  0
   41.6270   19.4380   -6.4480 C   0  0  0  0  0
   42.4410   17.5170    1.8960 F   0  0  0  0  0
   42.8350   16.5600   -4.5830 N   0  0  0  0  0
   42.0920   18.6250   -4.1360 N   0  0  0  0  0
   42.9700   16.7570   -8.0670 N   0  0  0  0  0
   41.4790   20.6630   -5.9610 N   0  0  0  0  0
   42.2380   23.5620   -0.4670 N   0  0  0  0  0
   41.7870   15.1880   -6.9880 O   0  0  0  0  0
   41.4890   19.1620   -7.6490 O   0  0  0  0  0
   41.2910   22.3490    2.8510 O   0  0  0  0  0
   42.7630   24.8620   -0.6370 O   0  0  0  0  0
   39.2111   21.4813    1.6638 H   0  0  0  0  0
   39.2727   23.2595    1.5918 H   0  0  0  0  0
   39.4875   22.3003    0.1069 H   0  0  0  0  0
   42.0408   19.4445   -2.1358 H   0  0  0  0  0
   41.8982   24.9494    2.4954 H   0  0  0  0  0
   42.3297   27.5887    0.7915 H   0  0  0  0  0
   43.9479   27.0237    1.2745 H   0  0  0  0  0
   43.5355   27.1734   -0.4513 H   0  0  0  0  0
   43.4687   15.5412    0.5728 H   0  0  0  0  0
   44.1341   14.5095   -1.2949 H   0  0  0  0  0
   45.6166   14.9119   -3.4993 H   0  0  0  0  0
   45.2390   16.4082   -3.3442 H   0  0  0  0  0
   43.6669   14.8126   -5.2972 H   0  0  0  0  0
   41.6998   14.8490   -3.0735 H   0  0  0  0  0
   42.5511   13.5404   -3.2722 H   0  0  0  0  0
   43.4137   15.0695   -9.2080 H   0  0  0  0  0
   41.9157   15.9200   -9.6590 H   0  0  0  0  0
   43.4981   16.6203  -10.0792 H   0  0  0  0  0
   43.4583   17.6503   -8.0041 H   0  0  0  0  0
   41.2398   21.4342   -6.5843 H   0  0  0  0  0
   41.6044   20.8338   -4.9632 H   0  0  0  0  0
   40.9952   23.2079    3.1616 H   0  0  0  0  0
  4  1  1  0  0  0
  1 10  4  0  0  0
  1 30  4  0  0  0
  9  2  4  0  0  0
  2 12  4  0  0  0
  2 14  1  0  0  0
  3  7  1  0  0  0
  8  3  4  0  0  0
  3 13  4  0  0  0
  4  5  1  0  0  0
  6  4  1  0  0  0
  4 33  1  0  0  0
  7  6  3  0  0  0
  9  8  4  0  0  0
 19  9  1  0  0  0
 10 16  4  0  0  0
 16 11  1  0  0  0
 12 13  4  0  0  0
 13 25  1  0  0  0
 15 14  1  0  0  0
 18 14  1  0  0  0
 17 15  1  0  0  0
 16 34  4  0  0  0
 17 18  1  0  0  0
 26 17  1  0  0  0
 19 26  4  0  0  0
 27 19  4  0  0  0
 20 21  4  0  0  0
 20 24  1  0  0  0
 20 27  4  0  0  0
 21 22  1  0  0  0
 21 26  4  0  0  0
 22 28  1  0  0  0
 22 31  2  0  0  0
 28 23  1  0  0  0
 24 29  1  0  0  0
 24 32  2  0  0  0
 30 34  4  0  0  0
  5 35  1  0  0  0
  5 36  1  0  0  0
  5 37  1  0  0  0
  8 38  1  0  0  0
 10 39  1  0  0  0
 11 40  1  0  0  0
 11 41  1  0  0  0
 11 42  1  0  0  0
 12 43  1  0  0  0
 14 44  1  0  0  0
 15 45  1  0  0  0
 15 46  1  0  0  0
 17 47  1  0  0  0
 18 48  1  0  0  0
 18 49  1  0  0  0
 23 50  1  0  0  0
 23 51  1  0  0  0
 23 52  1  0  0  0
 28 53  1  0  0  0
 29 54  1  0  0  0
 29 55  1  0  0  0
 33 56  1  0  0  0
M  END
$$$$
