4p0x_ligand
  -I-interpret- 

 49 51  0  0  0  0  0  0  0  0999 V2000
   -8.1760   35.9860  -17.3480 O   0  0  0  0  0
   -8.7460   36.2080  -16.2650 C   0  0  0  0  0
   -8.0240   36.0440  -15.0600 C   0  0  0  0  0
   -6.6360   35.6260  -15.0480 O   0  0  0  0  0
   -8.7150   36.2590  -13.8500 C   0  0  0  0  0
   -8.1390   36.1630  -12.5020 C   0  0  0  0  0
   -8.5770   34.8510  -11.8980 C   0  0  0  0  0
   -6.5970   36.2210  -12.3340 C   0  0  0  0  0
   -6.1220   37.6290  -12.0120 C   0  0  0  0  0
   -6.7940   38.4840  -10.9500 C   0  0  0  0  0
   -8.1180   37.9040  -10.5290 C   0  0  0  0  0
   -7.8140   36.7710   -9.6090 C   0  0  0  0  0
   -8.9490   39.0340   -9.8030 C   0  0  0  0  0
   -8.8440   37.3170  -11.7470 C   0  0  0  0  0
  -10.1740   36.8740  -11.5220 C   0  0  0  0  0
  -10.7060   36.6540  -10.4060 O   0  0  0  0  0
  -10.8310   36.7530  -12.7490 C   0  0  0  0  0
  -10.0780   36.6600  -13.9270 C   0  0  0  0  0
  -10.7190   36.7740  -15.1220 C   0  0  0  0  0
  -10.0840   36.5390  -16.2630 C   0  0  0  0  0
  -10.8110   36.7530  -17.4580 C   0  0  0  0  0
  -11.9110   37.8050  -17.1040 C   0  0  0  0  0
  -11.2810   35.5380  -18.4170 C   0  0  0  0  0
   -6.3249   35.5272  -15.9508 H   0  0  0  0  0
   -8.0926   34.0297  -12.4260 H   0  0  0  0  0
   -8.2947   34.8248  -10.8455 H   0  0  0  0  0
   -9.6590   34.7544  -11.9878 H   0  0  0  0  0
   -6.1364   35.9078  -13.2709 H   0  0  0  0  0
   -6.3153   35.5655  -11.5099 H   0  0  0  0  0
   -6.3047   38.1781  -12.9357 H   0  0  0  0  0
   -5.1169   37.4762  -11.6190 H   0  0  0  0  0
   -6.9689   39.4762  -11.3661 H   0  0  0  0  0
   -6.1424   38.5249  -10.0772 H   0  0  0  0  0
   -7.2137   36.0286  -10.1349 H   0  0  0  0  0
   -7.2605   37.1432   -8.7469 H   0  0  0  0  0
   -8.7463   36.3157   -9.2749 H   0  0  0  0  0
   -8.3991   39.3828   -8.9289 H   0  0  0  0  0
   -9.1069   39.8653  -10.4901 H   0  0  0  0  0
   -9.9124   38.6310   -9.4908 H   0  0  0  0  0
   -8.8327   38.2146  -12.3653 H   0  0  0  0  0
  -11.9200   36.7311  -12.7896 H   0  0  0  0  0
  -11.7699   37.0627  -15.1421 H   0  0  0  0  0
  -10.0789   37.1020  -18.1863 H   0  0  0  0  0
  -12.5515   37.4081  -16.3164 H   0  0  0  0  0
  -11.4360   38.7236  -16.7594 H   0  0  0  0  0
  -12.5101   38.0146  -17.9901 H   0  0  0  0  0
  -10.4045   34.9911  -18.7644 H   0  0  0  0  0
  -11.9319   34.8661  -17.8575 H   0  0  0  0  0
  -11.8222   35.9410  -19.2730 H   0  0  0  0  0
  1  2  2  0  0  0
  2  3  1  0  0  0
  2 20  1  0  0  0
  3  4  1  0  0  0
  3  5  2  0  0  0
  5  6  1  0  0  0
  5 18  1  0  0  0
  6  7  1  0  0  0
  6  8  1  0  0  0
  6 14  1  0  0  0
  8  9  1  0  0  0
  9 10  1  0  0  0
 10 11  1  0  0  0
 11 12  1  0  0  0
 11 13  1  0  0  0
 11 14  1  0  0  0
 14 15  1  0  0  0
 15 16  2  0  0  0
 15 17  1  0  0  0
 17 18  2  0  0  0
 18 19  1  0  0  0
 19 20  2  0  0  0
 20 21  1  0  0  0
 21 22  1  0  0  0
 21 23  1  0  0  0
  4 24  1  0  0  0
  7 25  1  0  0  0
  7 26  1  0  0  0
  7 27  1  0  0  0
  8 28  1  0  0  0
  8 29  1  0  0  0
  9 30  1  0  0  0
  9 31  1  0  0  0
 10 32  1  0  0  0
 10 33  1  0  0  0
 12 34  1  0  0  0
 12 35  1  0  0  0
 12 36  1  0  0  0
 13 37  1  0  0  0
 13 38  1  0  0  0
 13 39  1  0  0  0
 14 40  1  0  0  0
 17 41  1  0  0  0
 19 42  1  0  0  0
 21 43  1  0  0  0
 22 44  1  0  0  0
 22 45  1  0  0  0
 22 46  1  0  0  0
 23 47  1  0  0  0
 23 48  1  0  0  0
 23 49  1  0  0  0
M  END
$$$$
