6fn9_ligand
  -I-interpret- 

 73 74  0  0  0  0  0  0  0  0999 V2000
    4.6530    7.5860    4.3150 O   0  0  0  0  0
    5.4350    8.1230    5.5880 P   0  0  0  0  0
    6.9470    7.7580    5.1910 O   0  0  0  0  0
    5.0300    7.2800    6.7300 O   0  0  0  0  0
    5.2280    9.8360    5.7230 C   0  0  0  0  0
    4.7310   10.3430    6.9230 C   0  0  0  0  0
    4.5380   11.7160    7.0800 C   0  0  0  0  0
    4.8480   12.5860    6.0390 C   0  0  0  0  0
    5.3480   12.0890    4.8380 C   0  0  0  0  0
    5.5390   10.7130    4.6830 C   0  0  0  0  0
    6.0160   10.1500    3.5330 O   0  0  0  0  0
    7.0140   10.9180    2.8320 C   0  0  0  0  0
    8.0870    9.9820    2.2720 C   0  0  0  0  0
    8.7980   10.3510    1.3390 O   0  0  0  0  0
    8.1590    8.7850    2.8880 N   0  0  0  0  0
    9.0760    7.8900    2.5120 C   0  0  0  0  0
   10.0370    7.4970    3.4370 C   0  0  0  0  0
    9.0800    7.3350    1.2350 C   0  0  0  0  0
   10.0560    6.4020    0.8940 C   0  0  0  0  0
   11.0180    6.0130    1.8240 C   0  0  0  0  0
   11.0200    6.5620    3.1070 C   0  0  0  0  0
   11.9730    6.1980    4.0740 C   0  0  0  0  0
   11.6410    6.0350    5.2470 O   0  0  0  0  0
   13.2430    6.0710    3.6580 N   0  0  0  0  0
   14.3310    5.7260    4.5650 C   0  0  0  0  0
   15.0250    7.0560    4.8980 C   0  0  0  0  0
   14.2380    7.8040    5.8380 O   0  0  0  0  0
   14.7020    9.1360    5.9770 C   0  0  0  0  0
   13.8270    9.9850    5.0360 C   0  0  0  0  0
   12.4350    9.7880    5.3480 O   0  0  0  0  0
   11.6610   10.9730    5.2870 C   0  0  0  0  0
   10.4220   10.6560    6.1350 C   0  0  0  0  0
    9.5520   11.7990    6.1950 O   0  0  0  0  0
    8.5520   11.6100    7.1760 C   0  0  0  0  0
    9.0960   12.3550    8.4040 C   0  0  0  0  0
    8.0880   12.3500    9.5630 C   0  0  0  0  0
    7.2630   11.4430    9.6880 O   0  0  0  0  0
    8.2090   13.3900   10.4100 N   0  0  0  0  0
    7.3450   13.5600   11.5900 C   0  0  0  0  0
    4.8919    8.1124    3.5485 H   0  0  0  0  0
    7.2216    8.3008    4.4483 H   0  0  0  0  0
    4.4923    9.6641    7.7417 H   0  0  0  0  0
    4.1444   12.1072    8.0182 H   0  0  0  0  0
    4.6992   13.6585    6.1639 H   0  0  0  0  0
    5.5894   12.7703    4.0221 H   0  0  0  0  0
    7.4757   11.6248    3.5215 H   0  0  0  0  0
    6.5427   11.4588    2.0113 H   0  0  0  0  0
    7.5110    8.5623    3.6436 H   0  0  0  0  0
   10.0226    7.9270    4.4385 H   0  0  0  0  0
    8.3240    7.6289    0.5069 H   0  0  0  0  0
   10.0675    5.9728   -0.1079 H   0  0  0  0  0
   11.7726    5.2764    1.5481 H   0  0  0  0  0
   13.4544    6.2213    2.6715 H   0  0  0  0  0
   15.0225    5.0180    4.1083 H   0  0  0  0  0
   13.9607    5.2327    5.4637 H   0  0  0  0  0
   15.1377    7.6385    3.9836 H   0  0  0  0  0
   16.0018    6.8492    5.3351 H   0  0  0  0  0
   15.7577    9.2174    5.7180 H   0  0  0  0  0
   14.6225    9.4781    7.0089 H   0  0  0  0  0
   14.0101    9.6822    4.0050 H   0  0  0  0  0
   14.0782   11.0378    5.1648 H   0  0  0  0  0
   11.4013   11.2429    4.2634 H   0  0  0  0  0
   12.2053   11.8400    5.6613 H   0  0  0  0  0
   10.7392   10.3970    7.1452 H   0  0  0  0  0
    9.8843    9.8232    5.6817 H   0  0  0  0  0
    8.3654   10.5556    7.3799 H   0  0  0  0  0
    7.5814   11.9899    6.8571 H   0  0  0  0  0
    9.2890   13.3897    8.1207 H   0  0  0  0  0
   10.0044   11.8526    8.7363 H   0  0  0  0  0
    8.9290   14.0888   10.2265 H   0  0  0  0  0
    6.3057   13.6349   11.2700 H   0  0  0  0  0
    7.4620   12.7013   12.2511 H   0  0  0  0  0
    7.6299   14.4692   12.1194 H   0  0  0  0  0
  1  2  1  0  0  0
  2  3  1  0  0  0
  2  4  2  0  0  0
  2  5  1  0  0  0
  5  6  4  0  0  0
  5 10  4  0  0  0
  6  7  4  0  0  0
  7  8  4  0  0  0
  8  9  4  0  0  0
  9 10  4  0  0  0
 10 11  1  0  0  0
 11 12  1  0  0  0
 12 13  1  0  0  0
 13 14  2  0  0  0
 13 15  1  0  0  0
 15 16  1  0  0  0
 16 17  4  0  0  0
 16 18  4  0  0  0
 17 21  4  0  0  0
 18 19  4  0  0  0
 19 20  4  0  0  0
 20 21  4  0  0  0
 21 22  1  0  0  0
 22 23  2  0  0  0
 22 24  1  0  0  0
 24 25  1  0  0  0
 25 26  1  0  0  0
 26 27  1  0  0  0
 27 28  1  0  0  0
 28 29  1  0  0  0
 29 30  1  0  0  0
 30 31  1  0  0  0
 31 32  1  0  0  0
 32 33  1  0  0  0
 33 34  1  0  0  0
 34 35  1  0  0  0
 35 36  1  0  0  0
 36 37  2  0  0  0
 36 38  1  0  0  0
 38 39  1  0  0  0
  1 40  1  0  0  0
  3 41  1  0  0  0
  6 42  1  0  0  0
  7 43  1  0  0  0
  8 44  1  0  0  0
  9 45  1  0  0  0
 12 46  1  0  0  0
 12 47  1  0  0  0
 15 48  1  0  0  0
 17 49  1  0  0  0
 18 50  1  0  0  0
 19 51  1  0  0  0
 20 52  1  0  0  0
 24 53  1  0  0  0
 25 54  1  0  0  0
 25 55  1  0  0  0
 26 56  1  0  0  0
 26 57  1  0  0  0
 28 58  1  0  0  0
 28 59  1  0  0  0
 29 60  1  0  0  0
 29 61  1  0  0  0
 31 62  1  0  0  0
 31 63  1  0  0  0
 32 64  1  0  0  0
 32 65  1  0  0  0
 34 66  1  0  0  0
 34 67  1  0  0  0
 35 68  1  0  0  0
 35 69  1  0  0  0
 38 70  1  0  0  0
 39 71  1  0  0  0
 39 72  1  0  0  0
 39 73  1  0  0  0
M  END
$$$$
