### 
### Created by X-TOOL on Wed Jan  1 15:39:38 2020
### 

@<TRIPOS>MOLECULE
6fn9_ligand
   71    72     1     0     0
SMALL
GAST_HUCK


@<TRIPOS>ATOM
      1 OAF         4.6530    7.5860    4.3150 O.co2     1 DW8        -0.5643
      2 PBO         5.4350    8.1230    5.5880 P.3       1 DW8         0.0783
      3 OAG         6.9470    7.7580    5.1910 O.co2     1 DW8        -0.5643
      4 OAE         5.0300    7.2800    6.7300 O.co2     1 DW8        -0.5643
      5 CBN         5.2280    9.8360    5.7230 C.ar      1 DW8         0.0641
      6 CAN         4.7310   10.3430    6.9230 C.ar      1 DW8        -0.0499
      7 CAI         4.5380   11.7160    7.0800 C.ar      1 DW8        -0.0681
      8 CAH         4.8480   12.5860    6.0390 C.ar      1 DW8        -0.0672
      9 CAM         5.3480   12.0890    4.8380 C.ar      1 DW8        -0.0277
     10 CBM         5.5390   10.7130    4.6830 C.ar      1 DW8         0.1159
     11 OBG         6.0160   10.1500    3.5330 O.3       1 DW8        -0.2925
     12 CAZ         7.0140   10.9180    2.8320 C.3       1 DW8         0.1661
     13 CBI         8.0870    9.9820    2.2720 C.2       1 DW8         0.2347
     14 OAC         8.7980   10.3510    1.3390 O.2       1 DW8        -0.3819
     15 NBC         8.1590    8.7850    2.8880 N.am      1 DW8        -0.2308
     16 CBK         9.0760    7.8900    2.5120 C.ar      1 DW8         0.0717
     17 CAO        10.0370    7.4970    3.4370 C.ar      1 DW8        -0.0215
     18 CAK         9.0800    7.3350    1.2350 C.ar      1 DW8        -0.0369
     19 CAJ        10.0560    6.4020    0.8940 C.ar      1 DW8        -0.0699
     20 CAL        11.0180    6.0130    1.8240 C.ar      1 DW8        -0.0574
     21 CBL        11.0200    6.5620    3.1070 C.ar      1 DW8         0.0363
     22 CBJ        11.9730    6.1980    4.0740 C.2       1 DW8         0.2015
     23 OAD        11.6410    6.0350    5.2470 O.2       1 DW8        -0.3847
     24 NBB        13.2430    6.0710    3.6580 N.am      1 DW8        -0.2841
     25 CAR        14.3310    5.7260    4.5650 C.3       1 DW8         0.0538
     26 CAS        15.0250    7.0560    4.8980 C.3       1 DW8         0.0678
     27 OBD        14.2380    7.8040    5.8380 O.3       1 DW8        -0.3755
     28 CAT        14.7020    9.1360    5.9770 C.3       1 DW8         0.0711
     29 CAU        13.8270    9.9850    5.0360 C.3       1 DW8         0.0711
     30 OBE        12.4350    9.7880    5.3480 O.3       1 DW8        -0.3752
     31 CAV        11.6610   10.9730    5.2870 C.3       1 DW8         0.0711
     32 CAW        10.4220   10.6560    6.1350 C.3       1 DW8         0.0712
     33 OBF         9.5520   11.7990    6.1950 O.3       1 DW8        -0.3752
     34 CAX         8.5520   11.6100    7.1760 C.3       1 DW8         0.0645
     35 CAY         9.0960   12.3550    8.4040 C.3       1 DW8         0.0606
     36 CBH         8.0880   12.3500    9.5630 C.2       1 DW8         0.1779
     37 OAB         7.2630   11.4430    9.6880 O.2       1 DW8        -0.3970
     38 NBA         8.2090   13.3900   10.4100 N.am      1 DW8        -0.2900
     39 CAQ         7.3450   13.5600   11.5900 C.3       1 DW8         0.0195
     40 H1          4.4936    9.6679    7.7372 H         1 DW8         0.0634
     41 H2          4.1465   12.1050    8.0130 H         1 DW8         0.0533
     42 H3          4.7000   13.6526    6.1632 H         1 DW8         0.0616
     43 H4          5.5881   12.7665    4.0266 H         1 DW8         0.0552
     44 H5          7.4792   11.6332    3.5263 H         1 DW8         0.0867
     45 H6          6.5392   11.4659    2.0048 H         1 DW8         0.0867
     46 H7          7.5237    8.5666    3.6288 H         1 DW8         0.2257
     47 H8         10.0227    7.9246    4.4330 H         1 DW8         0.0553
     48 H9          8.3282    7.6273    0.5109 H         1 DW8         0.0537
     49 H10        10.0674    5.9752   -0.1024 H         1 DW8         0.0588
     50 H11        11.7684    5.2804    1.5496 H         1 DW8         0.0539
     51 H12        13.4503    6.2184    2.6909 H         1 DW8         0.1846
     52 H13        15.0352    5.0368    4.0761 H         1 DW8         0.0542
     53 H14        13.9360    5.2591    5.4793 H         1 DW8         0.0542
     54 H15        15.1456    7.6438    3.9761 H         1 DW8         0.0580
     55 H16        16.0138    6.8508    5.3340 H         1 DW8         0.0580
     56 H17        15.7598    9.2059    5.6834 H         1 DW8         0.0583
     57 H18        14.5869    9.4752    7.0170 H         1 DW8         0.0583
     58 H19        14.0132    9.6838    3.9946 H         1 DW8         0.0583
     59 H20        14.0817   11.0477    5.1615 H         1 DW8         0.0583
     60 H21        11.3759   11.2000    4.2491 H         1 DW8         0.0583
     61 H22        12.2158   11.8238    5.7094 H         1 DW8         0.0583
     62 H23        10.7386   10.3873    7.1536 H         1 DW8         0.0583
     63 H24         9.8804    9.8112    5.6844 H         1 DW8         0.0583
     64 H25         8.4156   10.5408    7.3953 H         1 DW8         0.0585
     65 H26         7.5950   12.0420    6.8481 H         1 DW8         0.0585
     66 H27         9.3111   13.3965    8.1230 H         1 DW8         0.0525
     67 H28        10.0236   11.8657    8.7360 H         1 DW8         0.0525
     68 H29         8.9149   14.0751   10.2301 H         1 DW8         0.1847
     69 H30         7.6316   14.4773   12.1251 H         1 DW8         0.0484
     70 H31         7.4622   12.6940   12.2581 H         1 DW8         0.0484
     71 H32         6.2958   13.6357   11.2684 H         1 DW8         0.0484
@<TRIPOS>BOND
     1    1    2 ar 
     2    2    3 ar 
     3    2    4 ar 
     4    2    5 1  
     5    5    6 ar 
     6    5   10 ar 
     7    6    7 ar 
     8    7    8 ar 
     9    8    9 ar 
    10    9   10 ar 
    11   10   11 1  
    12   11   12 1  
    13   12   13 1  
    14   13   14 2  
    15   13   15 am 
    16   15   16 1  
    17   16   17 ar 
    18   16   18 ar 
    19   17   21 ar 
    20   18   19 ar 
    21   19   20 ar 
    22   20   21 ar 
    23   21   22 1  
    24   22   23 2  
    25   22   24 am 
    26   24   25 1  
    27   25   26 1  
    28   26   27 1  
    29   27   28 1  
    30   28   29 1  
    31   29   30 1  
    32   30   31 1  
    33   31   32 1  
    34   32   33 1  
    35   33   34 1  
    36   34   35 1  
    37   35   36 1  
    38   36   37 2  
    39   36   38 am 
    40   38   39 1  
    41    6   40 1  
    42    7   41 1  
    43    8   42 1  
    44    9   43 1  
    45   12   44 1  
    46   12   45 1  
    47   15   46 1  
    48   17   47 1  
    49   18   48 1  
    50   19   49 1  
    51   20   50 1  
    52   24   51 1  
    53   25   52 1  
    54   25   53 1  
    55   26   54 1  
    56   26   55 1  
    57   28   56 1  
    58   28   57 1  
    59   29   58 1  
    60   29   59 1  
    61   31   60 1  
    62   31   61 1  
    63   32   62 1  
    64   32   63 1  
    65   34   64 1  
    66   34   65 1  
    67   35   66 1  
    68   35   67 1  
    69   38   68 1  
    70   39   69 1  
    71   39   70 1  
    72   39   71 1  
@<TRIPOS>SUBSTRUCTURE
     1 DW8         1

