1o3c_ligand
  -I-interpret- 

 40 43  0  0  0  0  0  0  0  0999 V2000
   44.3310   -2.8890   26.5230 C   0  0  0  0  0
   44.7660   -1.5300   26.5360 C   0  0  0  0  0
   44.7590   -0.7320   27.6890 C   0  0  0  0  0
   44.3090   -1.3210   28.8200 C   0  0  0  0  0
   43.8950   -2.5930   28.8680 C   0  0  0  0  0
   43.8820   -3.4230   27.7500 C   0  0  0  0  0
   44.3590   -3.6570   25.3440 C   0  0  0  0  0
   44.1300   -4.9500   25.3840 N   0  0  0  0  0
   44.6110   -3.0680   24.1950 N   0  0  0  0  0
   44.2090   -0.8350   30.0140 N   0  0  0  0  0
   43.5170   -2.9620   30.0840 N   0  0  0  0  0
   43.7440   -1.8260   30.7210 C   0  0  0  0  0
   43.4140   -1.7110   32.0690 C   0  0  0  0  0
   43.0880   -2.8300   32.8300 C   0  0  0  0  0
   42.7560   -2.7150   34.1610 C   0  0  0  0  0
   42.7420   -1.4770   34.7620 C   0  0  0  0  0
   43.0610   -0.2960   34.0580 C   0  0  0  0  0
   43.3940   -0.4630   32.6990 C   0  0  0  0  0
   43.7350    0.5980   31.8960 O   0  0  0  0  0
   43.0140    0.9360   34.7450 C   0  0  0  0  0
   44.0810    1.8250   34.7700 C   0  0  0  0  0
   44.0310    3.0160   35.4770 C   0  0  0  0  0
   42.8900    3.3580   36.1880 C   0  0  0  0  0
   41.8070    2.5030   36.1900 C   0  0  0  0  0
   41.8710    1.3120   35.4770 C   0  0  0  0  0
   45.1212   -1.0906   25.6038 H   0  0  0  0  0
   45.0971    0.3041   27.6744 H   0  0  0  0  0
   43.5355   -4.4541   27.8203 H   0  0  0  0  0
   44.1475   -5.4979   24.5238 H   0  0  0  0  0
   44.6287   -3.6153   23.3344 H   0  0  0  0  0
   44.7887   -2.0641   24.1647 H   0  0  0  0  0
   43.0957   -3.8151   32.3636 H   0  0  0  0  0
   42.5042   -3.6043   34.7388 H   0  0  0  0  0
   42.4757   -1.4062   35.8166 H   0  0  0  0  0
   43.6951    1.4100   32.4065 H   0  0  0  0  0
   44.9866    1.5780   34.2159 H   0  0  0  0  0
   44.8908    3.6860   35.4744 H   0  0  0  0  0
   42.8492    4.2961   36.7415 H   0  0  0  0  0
   40.9065    2.7603   36.7476 H   0  0  0  0  0
   41.0078    0.6465   35.4845 H   0  0  0  0  0
  1  2  4  0  0  0
  1  6  4  0  0  0
  1  7  1  0  0  0
  2  3  4  0  0  0
  3  4  4  0  0  0
  4  5  4  0  0  0
  4 10  4  0  0  0
  5  6  4  0  0  0
  5 11  4  0  0  0
  7  8  2  0  0  0
  7  9  1  0  0  0
 10 12  4  0  0  0
 11 12  4  0  0  0
 12 13  1  0  0  0
 13 14  4  0  0  0
 13 18  4  0  0  0
 14 15  4  0  0  0
 15 16  4  0  0  0
 16 17  4  0  0  0
 17 18  4  0  0  0
 17 20  1  0  0  0
 18 19  1  0  0  0
 20 21  4  0  0  0
 20 25  4  0  0  0
 21 22  4  0  0  0
 22 23  4  0  0  0
 23 24  4  0  0  0
 24 25  4  0  0  0
  2 26  1  0  0  0
  3 27  1  0  0  0
  6 28  1  0  0  0
  8 29  1  0  0  0
  9 30  1  0  0  0
  9 31  1  0  0  0
 14 32  1  0  0  0
 15 33  1  0  0  0
 16 34  1  0  0  0
 19 35  1  0  0  0
 21 36  1  0  0  0
 22 37  1  0  0  0
 23 38  1  0  0  0
 24 39  1  0  0  0
 25 40  1  0  0  0
M  END
$$$$
