5jdc_ligand
  -I-interpret- 

 36 38  0  0  0  0  0  0  0  0999 V2000
  -31.6320  -16.0600   14.7210 C   0  0  0  0  0
  -30.5030  -15.8950   13.8730 C   0  0  0  0  0
  -30.2620  -16.7550   13.0190 O   0  0  0  0  0
  -29.5960  -14.8080   14.0480 C   0  0  0  0  0
  -28.2830  -14.8200   13.5710 C   0  0  0  0  0
  -27.8680  -15.9640   12.8940 O   0  0  0  0  0
  -27.4310  -13.7190   13.7990 C   0  0  0  0  0
  -27.8720  -12.5850   14.5030 C   0  0  0  0  0
  -27.0710  -11.5170   14.7580 O   0  0  0  0  0
  -29.1650  -12.5610   14.9860 C   0  0  0  0  0
  -30.0000  -13.6440   14.7520 C   0  0  0  0  0
  -31.2590  -13.6230   15.2510 O   0  0  0  0  0
  -32.2470  -14.6470   14.8730 C   0  0  0  0  0
  -33.3490  -14.4460   15.7410 C   0  0  0  0  0
  -33.4340  -13.1940   16.4020 C   0  0  0  0  0
  -34.5010  -12.8960   17.2290 C   0  0  0  0  0
  -34.5280  -11.7260   17.9100 O   0  0  0  0  0
  -35.5580  -13.8190   17.3990 C   0  0  0  0  0
  -36.5820  -13.4250   18.2680 O   0  0  0  0  0
  -37.5790  -14.3470   18.7900 C   0  0  0  0  0
  -35.4900  -15.0560   16.7040 C   0  0  0  0  0
  -34.3970  -15.3660   15.8780 C   0  0  0  0  0
  -31.3478  -16.4774   15.6870 H   0  0  0  0  0
  -32.3490  -16.7638   14.2982 H   0  0  0  0  0
  -26.9555  -15.8566   12.6159 H   0  0  0  0  0
  -26.4090  -13.7482   13.4212 H   0  0  0  0  0
  -27.5664  -10.8566   15.2480 H   0  0  0  0  0
  -29.5267  -11.6988   15.5463 H   0  0  0  0  0
  -32.6298  -14.5480   13.8572 H   0  0  0  0  0
  -32.6459  -12.4554   16.2557 H   0  0  0  0  0
  -35.3322  -11.6795   18.4322 H   0  0  0  0  0
  -38.1331  -14.7881   17.9615 H   0  0  0  0  0
  -37.0823  -15.1345   19.3568 H   0  0  0  0  0
  -38.2659  -13.8067   19.4414 H   0  0  0  0  0
  -36.3000  -15.7771   16.8136 H   0  0  0  0  0
  -34.3642  -16.3171   15.3465 H   0  0  0  0  0
  1  2  1  0  0  0
  1 13  1  0  0  0
  2  3  2  0  0  0
  2  4  1  0  0  0
  4  5  4  0  0  0
  4 11  4  0  0  0
  5  6  1  0  0  0
  5  7  4  0  0  0
  7  8  4  0  0  0
  8  9  1  0  0  0
  8 10  4  0  0  0
 10 11  4  0  0  0
 11 12  1  0  0  0
 12 13  1  0  0  0
 13 14  1  0  0  0
 14 15  4  0  0  0
 14 22  4  0  0  0
 15 16  4  0  0  0
 16 17  1  0  0  0
 16 18  4  0  0  0
 18 19  1  0  0  0
 18 21  4  0  0  0
 19 20  1  0  0  0
 21 22  4  0  0  0
  1 23  1  0  0  0
  1 24  1  0  0  0
  6 25  1  0  0  0
  7 26  1  0  0  0
  9 27  1  0  0  0
 10 28  1  0  0  0
 13 29  1  0  0  0
 15 30  1  0  0  0
 17 31  1  0  0  0
 20 32  1  0  0  0
 20 33  1  0  0  0
 20 34  1  0  0  0
 21 35  1  0  0  0
 22 36  1  0  0  0
M  END
$$$$
