3d9v_ligand
  -I-interpret- 

 44 46  0  0  0  0  0  0  0  0999 V2000
   53.4870  101.2470   30.0680 O   0  0  0  0  0
   52.2480  101.9000   30.4060 S   0  0  0  0  0
   51.1900  101.2480   31.1400 O   0  0  0  0  0
   52.7040  103.2520   31.2790 N   0  0  0  0  0
   54.0830  103.7440   31.1800 C   0  0  0  0  0
   54.4110  104.3480   29.8060 C   0  0  0  0  0
   54.6270  104.7030   32.2660 C   0  0  0  0  0
   54.3810  104.1290   33.6210 N   0  3  0  0  0
   53.1150  104.5420   34.1740 C   0  0  0  0  0
   52.0800  103.5830   33.5880 C   0  0  0  0  0
   51.6870  103.9220   32.2070 C   0  0  0  0  0
   51.5610  102.4130   28.8340 C   0  0  0  0  0
   51.2790  101.4510   27.7520 C   0  0  0  0  0
   51.5120   99.9720   27.8050 C   0  0  0  0  0
   52.0450   99.1860   29.0090 C   0  0  0  0  0
   50.7400  102.0040   26.4730 C   0  0  0  0  0
   50.4960  103.4160   26.3280 C   0  0  0  0  0
   50.7670  104.2770   27.3880 C   0  0  0  0  0
   51.2940  103.7870   28.6220 C   0  0  0  0  0
   50.4690  101.0950   25.4020 C   0  0  0  0  0
   50.7220   99.7750   25.5500 N   0  0  0  0  0
   51.2050   99.2280   26.6890 C   0  0  0  0  0
   54.6037  102.8024   31.3539 H   0  0  0  0  0
   53.9368  105.3255   29.7177 H   0  0  0  0  0
   55.4910  104.4564   29.7066 H   0  0  0  0  0
   54.0370  103.6892   29.0223 H   0  0  0  0  0
   54.1178  105.6633   32.1849 H   0  0  0  0  0
   55.6991  104.8375   32.1221 H   0  0  0  0  0
   55.1190  104.4608   34.2421 H   0  0  0  0  0
   54.3704  103.1127   33.5351 H   0  0  0  0  0
   52.8878  105.5776   33.9208 H   0  0  0  0  0
   53.1236  104.5028   35.2633 H   0  0  0  0  0
   51.1863  103.6429   34.2091 H   0  0  0  0  0
   52.5257  102.5885   33.5691 H   0  0  0  0  0
   50.6778  103.5694   31.9942 H   0  0  0  0  0
   51.6818  105.0020   32.0601 H   0  0  0  0  0
   53.0350   99.5571   29.2742 H   0  0  0  0  0
   51.3687   99.3154   29.8540 H   0  0  0  0  0
   52.1088   98.1287   28.7517 H   0  0  0  0  0
   50.1005  103.8092   25.3915 H   0  0  0  0  0
   50.5737  105.3437   27.2743 H   0  0  0  0  0
   51.4971  104.4939   29.4264 H   0  0  0  0  0
   50.0574  101.4676   24.4640 H   0  0  0  0  0
   51.3579   98.1494   26.7243 H   0  0  0  0  0
  1  2  2  0  0  0
  2  3  2  0  0  0
  2  4  1  0  0  0
  2 12  1  0  0  0
  4  5  1  0  0  0
  4 11  1  0  0  0
  5  6  1  0  0  0
  5  7  1  0  0  0
  7  8  1  0  0  0
  8  9  1  0  0  0
  9 10  1  0  0  0
 10 11  1  0  0  0
 12 13  4  0  0  0
 12 19  4  0  0  0
 13 14  4  0  0  0
 13 16  4  0  0  0
 14 15  1  0  0  0
 14 22  4  0  0  0
 16 17  4  0  0  0
 16 20  4  0  0  0
 17 18  4  0  0  0
 18 19  4  0  0  0
 20 21  4  0  0  0
 21 22  4  0  0  0
  5 23  1  0  0  0
  6 24  1  0  0  0
  6 25  1  0  0  0
  6 26  1  0  0  0
  7 27  1  0  0  0
  7 28  1  0  0  0
  8 29  1  0  0  0
  8 30  1  0  0  0
  9 31  1  0  0  0
  9 32  1  0  0  0
 10 33  1  0  0  0
 10 34  1  0  0  0
 11 35  1  0  0  0
 11 36  1  0  0  0
 15 37  1  0  0  0
 15 38  1  0  0  0
 15 39  1  0  0  0
 17 40  1  0  0  0
 18 41  1  0  0  0
 19 42  1  0  0  0
 20 43  1  0  0  0
 22 44  1  0  0  0
M  END
$$$$
