1gu1_ligand
  -I-interpret- 

 22 22  0  0  0  0  0  0  0  0999 V2000
   28.6300   50.9780   58.6370 C   0  0  0  0  0
   27.8860   49.7450   58.5610 C   0  0  0  0  0
   28.4970   48.8030   57.7520 O   0  0  0  0  0
   27.7740   49.1790   59.8430 C   0  0  0  0  0
   26.8960   48.1190   59.9030 O   0  0  0  0  0
   27.4170   50.1340   60.8480 C   0  0  0  0  0
   27.5280   51.5480   60.6290 C   0  0  0  0  0
   28.8440   53.1510   59.6440 C   0  0  0  0  0
   30.0840   53.2610   59.1970 O   0  0  0  0  0
   26.9640   52.5050   58.6850 O   0  0  0  0  0
   28.4370   54.2040   60.3050 O   0  0  0  0  0
   28.0270   52.0020   59.4010 C   0  0  0  0  0
   28.7115   51.3562   57.6180 H   0  0  0  0  0
   29.5761   50.7417   59.1240 H   0  0  0  0  0
   26.9130   49.9980   58.1398 H   0  0  0  0  0
   28.5902   49.1571   56.8646 H   0  0  0  0  0
   28.7770   48.8058   60.0497 H   0  0  0  0  0
   27.1289   47.4736   59.2315 H   0  0  0  0  0
   27.0494   49.7760   61.8096 H   0  0  0  0  0
   27.2299   52.2551   61.4031 H   0  0  0  0  0
   30.3241   52.4615   58.7229 H   0  0  0  0  0
   27.2750   52.8253   57.8351 H   0  0  0  0  0
  1  2  1  0  0  0
 12  1  1  0  0  0
  2  3  1  0  0  0
  2  4  1  0  0  0
  4  5  1  0  0  0
  6  4  1  0  0  0
  7  6  2  0  0  0
 12  7  1  0  0  0
  8  9  1  0  0  0
  8 11  2  0  0  0
  8 12  1  0  0  0
 12 10  1  0  0  0
  1 13  1  0  0  0
  1 14  1  0  0  0
  2 15  1  0  0  0
  3 16  1  0  0  0
  4 17  1  0  0  0
  5 18  1  0  0  0
  6 19  1  0  0  0
  7 20  1  0  0  0
  9 21  1  0  0  0
 10 22  1  0  0  0
M  END
$$$$
