6k04_ligand
  -I-interpret- 

 50 54  0  0  0  0  0  0  0  0999 V2000
    6.6300   71.8700   -2.1990 C   0  0  0  0  0
    7.9630   72.5030   -2.6160 C   0  0  0  0  0
    8.8490   71.9380   -3.7210 C   0  0  0  0  0
    8.3450   70.6910   -4.4400 C   0  0  0  0  0
    7.0700   70.0940   -4.0350 C   0  0  0  0  0
    6.1670   70.6290   -2.9350 C   0  0  0  0  0
    9.2170   70.0840   -5.5510 C   0  0  0  0  0
    8.6020   70.1650   -6.9340 C   0  0  0  0  0
    7.1030   70.0170   -6.9270 C   0  0  0  0  0
    6.6320   68.8310   -6.0700 C   0  0  0  0  0
    6.1380   67.7320   -4.2570 C   0  0  0  0  0
    5.9520   67.3910   -2.7880 C   0  0  0  0  0
    8.4160   73.7270   -1.8740 C   0  0  0  0  0
    7.9010   74.1420   -0.6860 C   0  0  0  0  0
    9.4140   74.5710   -2.2520 C   0  0  0  0  0
    8.3380   76.0300    0.8580 C   0  0  0  0  0
   11.5190   70.4810   -4.7380 C   0  0  0  0  0
   12.8920   70.9960   -5.1100 C   0  0  0  0  0
   14.0440   70.6850   -4.1930 C   0  0  0  0  0
   13.7600   69.8790   -2.9450 C   0  0  0  0  0
   12.3890   69.3810   -2.5660 C   0  0  0  0  0
   11.2400   69.6850   -3.4850 C   0  0  0  0  0
    6.6200   68.9000   -4.7470 N   0  0  0  0  0
    6.1680   67.6340   -6.4410 N   0  0  0  0  0
    5.8640   66.9650   -5.2910 N   0  0  0  0  0
    8.5590   75.2410   -0.3410 N   0  0  0  0  0
    9.5040   75.5100   -1.3200 N   0  0  0  0  0
   10.4630   70.7950   -5.6330 N   0  0  0  0  0
   15.0900   69.5130   -1.8750 Cl  0  0  0  0  0
    6.0323   72.3007   -1.3957 H   0  0  0  0  0
    9.7985   72.4038   -3.9848 H   0  0  0  0  0
    5.2252   70.1399   -2.6860 H   0  0  0  0  0
    9.3347   69.0357   -5.2767 H   0  0  0  0  0
    9.0118   69.3466   -7.5259 H   0  0  0  0  0
    8.8347   71.1488   -7.3417 H   0  0  0  0  0
    6.7779   69.8408   -7.9524 H   0  0  0  0  0
    6.6774   70.9271   -6.5043 H   0  0  0  0  0
    6.9146   67.4439   -2.2793 H   0  0  0  0  0
    5.2611   68.1025   -2.3358 H   0  0  0  0  0
    5.5474   66.3828   -2.6988 H   0  0  0  0  0
    7.0996   73.6626   -0.1238 H   0  0  0  0  0
   10.0245   74.4905   -3.1514 H   0  0  0  0  0
    7.3121   76.3983    0.8651 H   0  0  0  0  0
    8.5083   75.4083    1.7370 H   0  0  0  0  0
    9.0283   76.8735    0.8687 H   0  0  0  0  0
   13.0430   71.5777   -6.0194 H   0  0  0  0  0
   15.0524   71.0301   -4.4212 H   0  0  0  0  0
   12.2348   68.8142   -1.6478 H   0  0  0  0  0
   10.2321   69.3404   -3.2537 H   0  0  0  0  0
   10.5886   71.5251   -6.3341 H   0  0  0  0  0
  2  1  4  0  0  0
  6  1  4  0  0  0
  3  2  4  0  0  0
  2 13  1  0  0  0
  4  3  4  0  0  0
  4  5  4  0  0  0
  7  4  1  0  0  0
  5  6  4  0  0  0
  5 23  1  0  0  0
  7  8  1  0  0  0
 28  7  1  0  0  0
  8  9  1  0  0  0
  9 10  1  0  0  0
 10 23  4  0  0  0
 10 24  4  0  0  0
 11 12  1  0  0  0
 23 11  4  0  0  0
 11 25  4  0  0  0
 13 14  4  0  0  0
 13 15  4  0  0  0
 14 26  4  0  0  0
 15 27  4  0  0  0
 26 16  1  0  0  0
 17 18  4  0  0  0
 17 22  4  0  0  0
 17 28  1  0  0  0
 18 19  4  0  0  0
 19 20  4  0  0  0
 20 21  4  0  0  0
 20 29  1  0  0  0
 21 22  4  0  0  0
 24 25  4  0  0  0
 26 27  4  0  0  0
  1 30  1  0  0  0
  3 31  1  0  0  0
  6 32  1  0  0  0
  7 33  1  0  0  0
  8 34  1  0  0  0
  8 35  1  0  0  0
  9 36  1  0  0  0
  9 37  1  0  0  0
 12 38  1  0  0  0
 12 39  1  0  0  0
 12 40  1  0  0  0
 14 41  1  0  0  0
 15 42  1  0  0  0
 16 43  1  0  0  0
 16 44  1  0  0  0
 16 45  1  0  0  0
 18 46  1  0  0  0
 19 47  1  0  0  0
 21 48  1  0  0  0
 22 49  1  0  0  0
 28 50  1  0  0  0
M  END
$$$$
