3bm8_ligand
  -I-interpret- 

 22 22  0  0  0  0  0  0  0  0999 V2000
   47.6480   16.1380   23.0830 C   0  0  0  0  0
   46.5230   15.6800   23.8190 C   0  0  0  0  0
   47.7110   17.5210   22.7470 C   0  0  0  0  0
   45.4860   16.5800   24.2100 C   0  0  0  0  0
   46.6850   18.4270   23.1310 C   0  0  0  0  0
   45.5750   17.9570   23.8600 C   0  0  0  0  0
   44.5980   18.8760   24.2310 O   0  0  0  0  0
   43.3370   19.3980   23.3640 S   0  0  0  0  0
   42.6230   20.3770   24.1500 O   0  0  0  0  0
   43.7780   20.0330   22.1480 O   0  0  0  0  0
   42.3740   18.3780   23.0350 C   0  0  0  0  0
   41.3400   18.7630   22.0890 C   0  0  0  0  0
   48.4400   15.4514   22.7840 H   0  0  0  0  0
   46.4503   14.6265   24.0891 H   0  0  0  0  0
   48.5658   17.8932   22.1823 H   0  0  0  0  0
   44.6287   16.2139   24.7748 H   0  0  0  0  0
   46.7569   19.4810   22.8625 H   0  0  0  0  0
   41.8622   18.1277   23.9643 H   0  0  0  0  0
   42.9327   17.5679   22.5663 H   0  0  0  0  0
   40.7709   19.5993   22.4951 H   0  0  0  0  0
   41.8027   19.0597   21.1478 H   0  0  0  0  0
   40.6736   17.9177   21.9172 H   0  0  0  0  0
  1  2  4  0  0  0
  1  3  4  0  0  0
  2  4  4  0  0  0
  3  5  4  0  0  0
  4  6  4  0  0  0
  5  6  4  0  0  0
  6  7  1  0  0  0
  7  8  1  0  0  0
  8  9  2  0  0  0
  8 10  2  0  0  0
  8 11  1  0  0  0
 11 12  1  0  0  0
  1 13  1  0  0  0
  2 14  1  0  0  0
  3 15  1  0  0  0
  4 16  1  0  0  0
  5 17  1  0  0  0
 11 18  1  0  0  0
 11 19  1  0  0  0
 12 20  1  0  0  0
 12 21  1  0  0  0
 12 22  1  0  0  0
M  END
$$$$
