5cbs_ligand
  -I-interpret- 

 35 36  0  0  0  0  0  0  0  0999 V2000
   59.9830    0.6430   40.4580 C   0  0  0  0  0
   60.8480    1.2090   41.4140 C   0  0  0  0  0
   61.0430    0.5410   42.6390 C   0  0  0  0  0
   60.3960   -0.6600   42.9120 C   0  0  0  0  0
   59.5490   -1.2130   41.9470 C   0  0  0  0  0
   59.3350   -0.5750   40.7130 C   0  0  0  0  0
   56.6780   -2.3600   37.8550 C   0  0  0  0  0
   56.6630   -0.9790   38.0520 C   0  0  0  0  0
   57.5310   -0.3850   38.9830 C   0  0  0  0  0
   58.4230   -1.1780   39.7220 C   0  0  0  0  0
   58.4150   -2.5670   39.5120 C   0  0  0  0  0
   57.5540   -3.1460   38.5870 C   0  0  0  0  0
   57.5990   -4.5070   38.4460 O   0  0  0  0  0
   61.5320    2.5240   41.1030 C   0  0  0  0  0
   60.8990    3.7430   41.8180 C   0  0  0  0  0
   59.4630    3.9110   41.3880 N   0  3  0  0  0
   60.9860    3.5450   43.3610 C   0  0  0  0  0
   59.8950    3.5890   44.0020 O   0  0  0  0  0
   62.1380    3.3130   43.8270 O   0  0  0  0  0
   59.8152    1.1559   39.5110 H   0  0  0  0  0
   61.7113    0.9719   43.3846 H   0  0  0  0  0
   60.5476   -1.1637   43.8667 H   0  0  0  0  0
   59.0451   -2.1567   42.1555 H   0  0  0  0  0
   56.0051   -2.8180   37.1300 H   0  0  0  0  0
   55.9739   -0.3575   37.4803 H   0  0  0  0  0
   57.5119    0.6946   39.1320 H   0  0  0  0  0
   59.0941   -3.2002   40.0829 H   0  0  0  0  0
   58.2658   -4.8668   39.0355 H   0  0  0  0  0
   61.4393    2.6926   40.0301 H   0  0  0  0  0
   62.5626    2.4438   41.4488 H   0  0  0  0  0
   61.4465    4.6449   41.5445 H   0  0  0  0  0
   59.0583    4.7163   41.8656 H   0  0  0  0  0
   59.4264    4.0587   40.3794 H   0  0  0  0  0
   58.9366    3.0713   41.6292 H   0  0  0  0  0
   59.1767    3.7849   43.3959 H   0  0  0  0  0
  1  2  4  0  0  0
  6  1  4  0  0  0
  2  3  4  0  0  0
  2 14  1  0  0  0
  4  3  4  0  0  0
  5  4  4  0  0  0
  6  5  4  0  0  0
 10  6  1  0  0  0
  8  7  4  0  0  0
  7 12  4  0  0  0
  9  8  4  0  0  0
  9 10  4  0  0  0
 10 11  4  0  0  0
 11 12  4  0  0  0
 12 13  1  0  0  0
 14 15  1  0  0  0
 15 16  1  0  0  0
 15 17  1  0  0  0
 17 18  1  0  0  0
 17 19  2  0  0  0
  1 20  1  0  0  0
  3 21  1  0  0  0
  4 22  1  0  0  0
  5 23  1  0  0  0
  7 24  1  0  0  0
  8 25  1  0  0  0
  9 26  1  0  0  0
 11 27  1  0  0  0
 13 28  1  0  0  0
 14 29  1  0  0  0
 14 30  1  0  0  0
 15 31  1  0  0  0
 16 32  1  0  0  0
 16 33  1  0  0  0
 16 34  1  0  0  0
 18 35  1  0  0  0
M  END
$$$$
