3ohf_ligand
  -I-interpret- 

 91 94  0  0  0  0  0  0  0  0999 V2000
   77.6040   65.9270   82.9510 C   0  0  0  0  0
   82.8170   58.9930   82.9930 C   0  0  0  0  0
   78.2630   65.4710   84.0920 C   0  0  0  0  0
   76.3730   65.3780   82.5730 C   0  0  0  0  0
   83.0230   59.2690   81.6410 C   0  0  0  0  0
   79.0030   59.3280   91.2470 C   0  0  0  0  0
   81.7100   59.5210   83.6610 C   0  0  0  0  0
   77.6750   64.4550   84.8630 C   0  0  0  0  0
   75.8000   64.3690   83.3450 C   0  0  0  0  0
   78.6690   58.4940   90.1740 C   0  0  0  0  0
   82.1260   60.0820   80.9400 C   0  0  0  0  0
   78.0100   60.0620   91.8990 C   0  0  0  0  0
   76.3530   59.1210   90.4300 C   0  0  0  0  0
   79.1860   61.6680   82.2120 C   0  0  0  0  0
   80.8100   60.3370   82.9740 C   0  0  0  0  0
   79.6400   61.0030   83.3380 C   0  0  0  0  0
   76.4450   63.9020   84.4940 C   0  0  0  0  0
   77.3410   58.3890   89.7680 C   0  0  0  0  0
   81.0250   60.6100   81.6210 C   0  0  0  0  0
   76.6800   59.9620   91.4870 C   0  0  0  0  0
   78.9430   61.1160   84.6490 C   0  0  0  0  0
   79.8960   61.8320   79.9120 C   0  0  0  0  0
   83.4480   64.7600   78.9940 C   0  0  0  0  0
   74.9590   62.7920   79.3280 C   0  0  0  0  0
   76.0050   61.9600   92.5850 C   0  0  0  0  0
   75.8030   62.8000   85.3190 C   0  0  0  0  0
   76.9590   57.5020   88.6070 C   0  0  0  0  0
   82.2990   64.1000   79.7590 C   0  0  0  0  0
   76.2870   62.4170   78.6780 C   0  0  0  0  0
   81.0490   64.9820   79.7260 C   0  0  0  0  0
   77.2110   63.6290   78.6620 C   0  0  0  0  0
   79.8270   64.3020   80.3640 C   0  0  0  0  0
   78.6770   63.2600   78.4270 C   0  0  0  0  0
   76.9550   59.4070   86.9900 C   0  0  0  0  0
   76.7320   61.6360   85.7390 C   0  0  0  0  0
   76.0160   60.3800   86.2630 C   0  0  0  0  0
   80.0330   61.4330   81.1840 N   0  0  0  0  0
   77.6260   61.3980   84.6060 N   0  0  0  0  0
   76.1900   58.2540   87.5530 N   0  3  0  0  0
   79.4130   63.0670   79.6750 N   0  0  0  0  0
   79.5550   60.9960   85.6970 O   0  0  0  0  0
   79.7340   60.8730   79.1700 O   0  0  0  0  0
   75.0000   60.8010   87.1730 O   0  0  0  0  0
   75.7010   60.6390   92.0890 O   0  0  0  0  0
   78.0511   66.7176   82.3483 H   0  0  0  0  0
   83.5241   58.3616   83.5310 H   0  0  0  0  0
   79.2230   65.8979   84.3821 H   0  0  0  0  0
   75.8647   65.7382   81.6786 H   0  0  0  0  0
   83.8880   58.8487   81.1279 H   0  0  0  0  0
   80.0399   59.4048   91.5743 H   0  0  0  0  0
   81.5494   59.2965   84.7155 H   0  0  0  0  0
   78.1824   64.0941   85.7576 H   0  0  0  0  0
   74.8418   63.9408   83.0507 H   0  0  0  0  0
   79.4452   57.9288   89.6581 H   0  0  0  0  0
   82.2824   60.2996   79.8835 H   0  0  0  0  0
   78.2739   60.7144   92.7314 H   0  0  0  0  0
   75.3136   59.0317   90.1141 H   0  0  0  0  0
   78.2879   62.2837   82.1618 H   0  0  0  0  0
   83.1515   64.9127   77.9563 H   0  0  0  0  0
   83.6825   65.7212   79.4514 H   0  0  0  0  0
   84.3256   64.1147   79.0313 H   0  0  0  0  0
   75.1376   63.1247   80.3505 H   0  0  0  0  0
   74.4918   63.5960   78.7593 H   0  0  0  0  0
   74.3020   61.9223   79.3370 H   0  0  0  0  0
   76.8043   61.8945   93.3232 H   0  0  0  0  0
   76.3243   62.5930   91.7571 H   0  0  0  0  0
   75.1152   62.3866   93.0480 H   0  0  0  0  0
   75.0276   62.3608   84.6914 H   0  0  0  0  0
   75.4633   63.2684   86.2428 H   0  0  0  0  0
   76.3250   56.6998   88.9847 H   0  0  0  0  0
   77.8739   57.1197   88.1542 H   0  0  0  0  0
   82.6024   63.9580   80.7963 H   0  0  0  0  0
   82.0675   63.1436   79.2902 H   0  0  0  0  0
   76.1079   62.0855   77.6552 H   0  0  0  0  0
   76.7542   61.6138   79.2478 H   0  0  0  0  0
   80.8112   65.1870   78.6822 H   0  0  0  0  0
   81.2629   65.8875   80.2939 H   0  0  0  0  0
   77.1423   64.1118   79.6368 H   0  0  0  0  0
   76.8960   64.2759   77.8432 H   0  0  0  0  0
   78.9949   65.0036   80.3057 H   0  0  0  0  0
   80.0988   64.0317   81.3844 H   0  0  0  0  0
   79.1468   64.0794   77.8829 H   0  0  0  0  0
   78.7028   62.3217   77.8730 H   0  0  0  0  0
   77.4460   59.9360   87.8069 H   0  0  0  0  0
   77.6889   59.0285   86.2785 H   0  0  0  0  0
   77.3022   61.9209   86.6232 H   0  0  0  0  0
   75.6084   59.8470   85.4040 H   0  0  0  0  0
   77.2049   61.4515   83.6785 H   0  0  0  0  0
   75.3439   58.6228   87.9872 H   0  0  0  0  0
   75.9929   57.6073   86.7893 H   0  0  0  0  0
   74.4064   61.4105   86.7284 H   0  0  0  0  0
  3  1  4  0  0  0
  4  1  4  0  0  0
  2  5  4  0  0  0
  7  2  4  0  0  0
  8  3  4  0  0  0
  9  4  4  0  0  0
 11  5  4  0  0  0
 10  6  4  0  0  0
  6 12  4  0  0  0
 15  7  4  0  0  0
 17  8  4  0  0  0
 17  9  4  0  0  0
 18 10  4  0  0  0
 19 11  4  0  0  0
 20 12  4  0  0  0
 18 13  4  0  0  0
 13 20  4  0  0  0
 16 14  4  0  0  0
 14 37  4  0  0  0
 16 15  4  0  0  0
 15 19  4  0  0  0
 21 16  1  0  0  0
 26 17  1  0  0  0
 27 18  1  0  0  0
 19 37  4  0  0  0
 20 44  1  0  0  0
 38 21  1  0  0  0
 21 41  2  0  0  0
 37 22  1  0  0  0
 22 40  1  0  0  0
 22 42  2  0  0  0
 28 23  1  0  0  0
 29 24  1  0  0  0
 44 25  1  0  0  0
 35 26  1  0  0  0
 39 27  1  0  0  0
 30 28  1  0  0  0
 31 29  1  0  0  0
 32 30  1  0  0  0
 33 31  1  0  0  0
 40 32  1  0  0  0
 40 33  1  0  0  0
 36 34  1  0  0  0
 34 39  1  0  0  0
 35 36  1  0  0  0
 35 38  1  0  0  0
 36 43  1  0  0  0
  1 45  1  0  0  0
  2 46  1  0  0  0
  3 47  1  0  0  0
  4 48  1  0  0  0
  5 49  1  0  0  0
  6 50  1  0  0  0
  7 51  1  0  0  0
  8 52  1  0  0  0
  9 53  1  0  0  0
 10 54  1  0  0  0
 11 55  1  0  0  0
 12 56  1  0  0  0
 13 57  1  0  0  0
 14 58  1  0  0  0
 23 59  1  0  0  0
 23 60  1  0  0  0
 23 61  1  0  0  0
 24 62  1  0  0  0
 24 63  1  0  0  0
 24 64  1  0  0  0
 25 65  1  0  0  0
 25 66  1  0  0  0
 25 67  1  0  0  0
 26 68  1  0  0  0
 26 69  1  0  0  0
 27 70  1  0  0  0
 27 71  1  0  0  0
 28 72  1  0  0  0
 28 73  1  0  0  0
 29 74  1  0  0  0
 29 75  1  0  0  0
 30 76  1  0  0  0
 30 77  1  0  0  0
 31 78  1  0  0  0
 31 79  1  0  0  0
 32 80  1  0  0  0
 32 81  1  0  0  0
 33 82  1  0  0  0
 33 83  1  0  0  0
 34 84  1  0  0  0
 34 85  1  0  0  0
 35 86  1  0  0  0
 36 87  1  0  0  0
 38 88  1  0  0  0
 39 89  1  0  0  0
 39 90  1  0  0  0
 43 91  1  0  0  0
M  END
$$$$
