1o2t_ligand
  -I-interpret- 

 45 48  0  0  0  0  0  0  0  0999 V2000
   44.2780   -3.1340   26.0590 C   0  0  0  0  0
   44.6320   -1.7640   26.1090 C   0  0  0  0  0
   44.5840   -1.0180   27.2880 C   0  0  0  0  0
   44.1730   -1.6670   28.4050 C   0  0  0  0  0
   43.8190   -2.9600   28.4280 C   0  0  0  0  0
   43.8590   -3.7220   27.2640 C   0  0  0  0  0
   44.3490   -3.8640   24.8650 C   0  0  0  0  0
   43.9970   -5.1330   24.8270 N   0  0  0  0  0
   44.7820   -3.2510   23.7920 N   0  0  0  0  0
   44.0500   -1.2020   29.6330 N   0  0  0  0  0
   43.3960   -3.2290   29.6720 C   0  0  0  0  0
   43.6260   -2.1350   30.4700 C   0  0  0  0  0
   43.3930   -1.8930   31.8160 C   0  0  0  0  0
   43.0830   -2.9860   32.6260 C   0  0  0  0  0
   42.8380   -2.8490   33.9750 C   0  0  0  0  0
   42.5180   -3.9370   34.7750 O   0  0  0  0  0
   41.1470   -3.9560   35.1580 C   0  0  0  0  0
   42.9000   -1.6070   34.5350 C   0  0  0  0  0
   43.2020   -0.4760   33.8010 C   0  0  0  0  0
   43.4470   -0.6200   32.4130 C   0  0  0  0  0
   43.7190    0.4550   31.5840 O   0  0  0  0  0
   43.2590    0.7010   34.5330 C   0  0  0  0  0
   44.4190    1.4820   34.5830 C   0  0  0  0  0
   44.4820    2.6380   35.3460 C   0  0  0  0  0
   43.3820    3.0290   36.0880 C   0  0  0  0  0
   42.2150    2.2800   36.0650 C   0  0  0  0  0
   42.1600    1.1250   35.2950 C   0  0  0  0  0
   44.9546   -1.2726   25.1911 H   0  0  0  0  0
   44.8635    0.0353   27.3094 H   0  0  0  0  0
   43.5661   -4.7717   27.2873 H   0  0  0  0  0
   44.0596   -5.6537   23.9521 H   0  0  0  0  0
   43.6619   -5.5948   25.6725 H   0  0  0  0  0
   44.8510   -3.7564   22.9087 H   0  0  0  0  0
   42.9426   -4.1653   29.9974 H   0  0  0  0  0
   43.0331   -3.9784   32.1780 H   0  0  0  0  0
   40.9150   -3.0503   35.7183 H   0  0  0  0  0
   40.5225   -4.0028   34.2659 H   0  0  0  0  0
   40.9575   -4.8294   35.7820 H   0  0  0  0  0
   42.7039   -1.5026   35.6021 H   0  0  0  0  0
   43.7296    1.2629   32.1025 H   0  0  0  0  0
   45.2931    1.1745   34.0090 H   0  0  0  0  0
   45.3935    3.2355   35.3611 H   0  0  0  0  0
   43.4328    3.9327   36.6954 H   0  0  0  0  0
   41.3483    2.5949   36.6462 H   0  0  0  0  0
   41.2432    0.5355   35.2826 H   0  0  0  0  0
  1  2  4  0  0  0
  1  6  4  0  0  0
  1  7  1  0  0  0
  2  3  4  0  0  0
  3  4  4  0  0  0
  4  5  4  0  0  0
  4 10  4  0  0  0
  5  6  4  0  0  0
  5 11  4  0  0  0
  7  8  1  0  0  0
  7  9  2  0  0  0
 10 12  4  0  0  0
 12 11  4  0  0  0
 12 13  1  0  0  0
 13 14  4  0  0  0
 13 20  4  0  0  0
 14 15  4  0  0  0
 15 16  1  0  0  0
 15 18  4  0  0  0
 16 17  1  0  0  0
 18 19  4  0  0  0
 19 20  4  0  0  0
 19 22  1  0  0  0
 20 21  1  0  0  0
 22 23  4  0  0  0
 22 27  4  0  0  0
 23 24  4  0  0  0
 24 25  4  0  0  0
 25 26  4  0  0  0
 27 26  4  0  0  0
  2 28  1  0  0  0
  3 29  1  0  0  0
  6 30  1  0  0  0
  8 31  1  0  0  0
  8 32  1  0  0  0
  9 33  1  0  0  0
 11 34  1  0  0  0
 14 35  1  0  0  0
 17 36  1  0  0  0
 17 37  1  0  0  0
 17 38  1  0  0  0
 18 39  1  0  0  0
 21 40  1  0  0  0
 23 41  1  0  0  0
 24 42  1  0  0  0
 25 43  1  0  0  0
 26 44  1  0  0  0
 27 45  1  0  0  0
M  END
$$$$
