3rz0_ligand
  -I-interpret- 

 33 33  0  0  0  0  0  0  0  0999 V2000
   15.3240    0.2730   16.9610 S   0  0  0  0  0
   18.4980    5.2960   13.4880 N   0  0  0  0  0
   16.6560    5.9550   13.6820 O   0  0  0  0  0
   16.9030    3.8300   14.8090 C   0  0  0  0  0
   17.2810    1.7410   15.9160 C   0  0  0  0  0
   17.8050    2.8440   15.2040 C   0  0  0  0  0
   15.9080    1.5890   16.1340 C   0  0  0  0  0
   15.5380    3.7430   15.0770 C   0  0  0  0  0
   15.0400    2.6120   15.7390 C   0  0  0  0  0
   17.3860    5.0480   14.0630 C   0  0  0  0  0
   19.8640    5.2350   13.2870 C   0  0  0  0  0
   13.8810    0.3040   16.8460 O   0  0  0  0  0
   20.0270    6.7430   13.1270 C   0  0  0  0  0
   15.8420    0.2550   18.2990 O   0  0  0  0  0
   19.7290    7.5190   14.4490 C   0  0  0  0  0
   15.8590   -1.0240   16.2840 N   0  0  0  0  0
   20.5120    8.8240   14.6280 C   0  0  0  0  0
   18.2029    5.8972   12.7187 H   0  0  0  0  0
   17.9660    0.9881   16.3059 H   0  0  0  0  0
   18.8678    2.9199   14.9741 H   0  0  0  0  0
   14.8650    4.5456   14.7752 H   0  0  0  0  0
   13.9731    2.5297   15.9465 H   0  0  0  0  0
   20.2253    4.6014   12.4770 H   0  0  0  0  0
   20.4635    4.7428   14.0528 H   0  0  0  0  0
   19.3174    7.0801   12.3714 H   0  0  0  0  0
   21.0611    6.9420   12.8455 H   0  0  0  0  0
   20.0201    6.8635   15.2698 H   0  0  0  0  0
   18.6730    7.7878   14.4236 H   0  0  0  0  0
   15.2075   -1.6819   15.8560 H   0  0  0  0  0
   16.8608   -1.2154   16.2688 H   0  0  0  0  0
   21.5804    8.6082   14.6273 H   0  0  0  0  0
   20.2766    9.5028   13.8083 H   0  0  0  0  0
   20.2340    9.2860   15.5753 H   0  0  0  0  0
  7  1  1  0  0  0
  1 12  2  0  0  0
  1 14  2  0  0  0
  1 16  1  0  0  0
 10  2  1  0  0  0
  2 11  1  0  0  0
 10  3  2  0  0  0
  6  4  4  0  0  0
  4  8  4  0  0  0
  4 10  1  0  0  0
  5  6  4  0  0  0
  5  7  4  0  0  0
  7  9  4  0  0  0
  8  9  4  0  0  0
 11 13  1  0  0  0
 13 15  1  0  0  0
 15 17  1  0  0  0
  2 18  1  0  0  0
  5 19  1  0  0  0
  6 20  1  0  0  0
  8 21  1  0  0  0
  9 22  1  0  0  0
 11 23  1  0  0  0
 11 24  1  0  0  0
 13 25  1  0  0  0
 13 26  1  0  0  0
 15 27  1  0  0  0
 15 28  1  0  0  0
 16 29  1  0  0  0
 16 30  1  0  0  0
 17 31  1  0  0  0
 17 32  1  0  0  0
 17 33  1  0  0  0
M  END
$$$$
