### 
### Created by X-TOOL on Mon Sep 10 21:13:29 2018
### 

@<TRIPOS>MOLECULE
5khg_ligand
   33    35     1     0     0
SMALL
GAST_HUCK


@<TRIPOS>ATOM
      1 O2         14.6470    2.1440   56.6080 O.2       1 CC7        -0.3905
      2 C2         14.5420    2.6760   55.5500 C.2       1 CC7         0.2929
      3 N3         13.2430    2.7020   54.8480 N.am      1 CC7        -0.2085
      4 C4         13.1340    3.3560   53.5670 C.2       1 CC7         0.1080
      5 N4         11.8370    3.3570   52.9120 N.pl3     1 CC7        -0.3235
      6 C5         14.3110    4.0100   52.9360 C.2       1 CC7        -0.0745
      7 C6         15.6190    3.9900   53.6420 C.3       1 CC7         0.0272
      8 N1         15.7070    3.3420   54.9360 N.am      1 CC7        -0.2274
      9 C1'        16.9750    3.2560   55.6760 C.3       1 CC7         0.1757
     10 O4'        17.5140    4.5420   55.8970 O.3       1 CC7        -0.3427
     11 C4'        18.9380    4.4250   55.7760 C.3       1 CC7         0.1235
     12 C5'        19.6360    5.7510   55.7130 C.3       1 CC7         0.1128
     13 O5'        20.9870    5.5330   55.3520 O.3       1 CC7        -0.2514
     14 P          21.3440    4.4050   54.2860 P.3       1 CC7         0.2557
     15 O2P        22.6990    3.9550   54.5550 O.co2     1 CC7        -0.6177
     16 O1P        20.9980    5.1310   52.8590 O.co2     1 CC7        -0.6177
     17 O3'        20.3770    3.0610   54.3680 O.3       1 CC7        -0.2453
     18 C3'        19.0640    3.5240   54.5770 C.3       1 CC7         0.1532
     19 C2'        18.0230    2.4470   54.8940 C.3       1 CC7         0.1362
     20 O2'        18.5390    1.4590   55.7710 O.3       1 CC7        -0.3840
     21 H1         12.4417    2.2677   55.2593 H         1 CC7         0.2267
     22 H2         11.7228    3.8147   51.9964 H         1 CC7         0.1728
     23 H3         11.0318    2.9000   53.3633 H         1 CC7         0.1728
     24 H4         14.2158    4.4983   51.9673 H         1 CC7        -0.0093
     25 H5         15.9254    5.0369   53.7838 H         1 CC7         0.0511
     26 H6         16.3363    3.4847   52.9785 H         1 CC7         0.0511
     27 H7         16.7856    2.7675   56.6432 H         1 CC7         0.0896
     28 H8         19.3408    3.9010   56.6553 H         1 CC7         0.0655
     29 H9         19.5897    6.2414   56.6966 H         1 CC7         0.0647
     30 H10        19.1501    6.3903   54.9613 H         1 CC7         0.0647
     31 H11        18.7630    4.0658   53.6683 H         1 CC7         0.0712
     32 H12        17.6156    1.9863   53.9820 H         1 CC7         0.0672
     33 H13        19.2898    1.0397   55.3672 H         1 CC7         0.2101
@<TRIPOS>BOND
     1    1    2 2  
     2    2    3 am 
     3    2    8 am 
     4    3    4 1  
     5    4    5 1  
     6    4    6 2  
     7    6    7 1  
     8    7    8 1  
     9    8    9 1  
    10    9   10 1  
    11    9   19 1  
    12   10   11 1  
    13   11   12 1  
    14   11   18 1  
    15   12   13 1  
    16   13   14 1  
    17   14   15 ar 
    18   14   16 ar 
    19   14   17 1  
    20   17   18 1  
    21   18   19 1  
    22   19   20 1  
    23    3   21 1  
    24    5   22 1  
    25    5   23 1  
    26    6   24 1  
    27    7   25 1  
    28    7   26 1  
    29    9   27 1  
    30   11   28 1  
    31   12   29 1  
    32   12   30 1  
    33   18   31 1  
    34   19   32 1  
    35   20   33 1  
@<TRIPOS>SUBSTRUCTURE
     1 CC7         1

