5khg_ligand
  -I-interpret- 

 34 36  0  0  0  0  0  0  0  0999 V2000
   14.6470    2.1440   56.6080 O   0  0  0  0  0
   14.5420    2.6760   55.5500 C   0  0  0  0  0
   13.2430    2.7020   54.8480 N   0  0  0  0  0
   13.1340    3.3560   53.5670 C   0  0  0  0  0
   11.8370    3.3570   52.9120 N   0  0  0  0  0
   14.3110    4.0100   52.9360 C   0  0  0  0  0
   15.6190    3.9900   53.6420 C   0  0  0  0  0
   15.7070    3.3420   54.9360 N   0  0  0  0  0
   16.9750    3.2560   55.6760 C   0  0  0  0  0
   17.5140    4.5420   55.8970 O   0  0  0  0  0
   18.9380    4.4250   55.7760 C   0  0  0  0  0
   19.6360    5.7510   55.7130 C   0  0  0  0  0
   20.9870    5.5330   55.3520 O   0  0  0  0  0
   21.3440    4.4050   54.2860 P   0  0  0  0  0
   22.6990    3.9550   54.5550 O   0  0  0  0  0
   20.9980    5.1310   52.8590 O   0  0  0  0  0
   20.3770    3.0610   54.3680 O   0  0  0  0  0
   19.0640    3.5240   54.5770 C   0  0  0  0  0
   18.0230    2.4470   54.8940 C   0  0  0  0  0
   18.5390    1.4590   55.7710 O   0  0  0  0  0
   12.4256    2.2590   55.2676 H   0  0  0  0  0
   11.7237    3.8109   52.0056 H   0  0  0  0  0
   11.0398    2.9038   53.3586 H   0  0  0  0  0
   14.2157    4.4987   51.9664 H   0  0  0  0  0
   15.8507    5.0374   53.8352 H   0  0  0  0  0
   16.2802    3.4151   52.9936 H   0  0  0  0  0
   16.7522    2.7650   56.6233 H   0  0  0  0  0
   19.4479    4.0034   56.6422 H   0  0  0  0  0
   19.5860    6.2434   56.6842 H   0  0  0  0  0
   19.1528    6.3902   54.9741 H   0  0  0  0  0
   20.0675    5.3662   52.8383 H   0  0  0  0  0
   18.8748    4.0095   53.6196 H   0  0  0  0  0
   17.6715    1.9298   54.0012 H   0  0  0  0  0
   19.1984    0.9358   55.3093 H   0  0  0  0  0
  1  2  2  0  0  0
  2  3  1  0  0  0
  2  8  1  0  0  0
  3  4  1  0  0  0
  4  5  1  0  0  0
  4  6  2  0  0  0
  6  7  1  0  0  0
  7  8  1  0  0  0
  8  9  1  0  0  0
  9 10  1  0  0  0
  9 19  1  0  0  0
 10 11  1  0  0  0
 11 12  1  0  0  0
 11 18  1  0  0  0
 12 13  1  0  0  0
 13 14  1  0  0  0
 14 15  2  0  0  0
 14 16  1  0  0  0
 14 17  1  0  0  0
 17 18  1  0  0  0
 18 19  1  0  0  0
 19 20  1  0  0  0
  3 21  1  0  0  0
  5 22  1  0  0  0
  5 23  1  0  0  0
  6 24  1  0  0  0
  7 25  1  0  0  0
  7 26  1  0  0  0
  9 27  1  0  0  0
 11 28  1  0  0  0
 12 29  1  0  0  0
 12 30  1  0  0  0
 16 31  1  0  0  0
 18 32  1  0  0  0
 19 33  1  0  0  0
 20 34  1  0  0  0
M  END
$$$$
