3mwu_ligand
  -I-interpret- 

 53 57  0  0  0  0  0  0  0  0999 V2000
   27.5020    6.5250    6.6360 N   0  0  0  0  0
   27.5800    5.9020    5.4530 C   0  0  0  0  0
   26.9970    6.3600    4.3700 N   0  0  0  0  0
   26.2910    7.5130    4.4150 C   0  0  0  0  0
   26.1750    8.2180    5.5980 C   0  0  0  0  0
   26.8030    7.6770    6.7410 C   0  0  0  0  0
   26.7600    8.2540    7.9370 N   0  0  0  0  0
   25.6070    8.1890    3.5090 N   0  0  0  0  0
   25.0830    9.2300    3.9670 N   0  0  0  0  0
   21.6760    6.2380    0.7530 N   0  3  0  0  0
   24.5690   15.3970    7.9190 C   0  0  0  0  0
   23.6320   14.4160    7.5440 C   0  0  0  0  0
   28.1600   12.3080    6.8320 C   0  0  0  0  0
   27.2250   11.3380    6.4420 C   0  0  0  0  0
   25.9290   15.0880    7.8290 C   0  0  0  0  0
   27.7150   13.5450    7.2960 C   0  0  0  0  0
   24.0770   13.1710    7.0960 C   0  0  0  0  0
   22.8730    5.6400    0.1730 C   0  0  0  0  0
   21.8120    6.4060    2.2220 C   0  0  0  0  0
   24.0360    6.6490    0.3690 C   0  0  0  0  0
   23.0550    7.2520    2.5730 C   0  0  0  0  0
   24.8570   10.4650    6.1340 C   0  0  0  0  0
   25.5050    7.7660    2.1160 C   0  0  0  0  0
   25.8520   11.5850    6.5310 C   0  0  0  0  0
   25.3700    9.3260    5.2670 C   0  0  0  0  0
   26.3660   13.8190    7.3870 C   0  0  0  0  0
   25.4340   12.8490    7.0020 C   0  0  0  0  0
   24.3350    6.7750    1.8730 C   0  0  0  0  0
   28.1514    4.9761    5.3869 H   0  0  0  0  0
   27.2424    7.8261    8.7273 H   0  0  0  0  0
   26.2446    9.1249    8.0649 H   0  0  0  0  0
   20.8843    5.6217    0.5693 H   0  0  0  0  0
   21.5371    7.1572    0.3332 H   0  0  0  0  0
   24.2415   16.3751    8.2714 H   0  0  0  0  0
   22.5643   14.6273    7.6031 H   0  0  0  0  0
   29.2275   12.0960    6.7727 H   0  0  0  0  0
   27.5742   10.3772    6.0639 H   0  0  0  0  0
   26.6673   15.8408    8.1052 H   0  0  0  0  0
   28.4405   14.3036    7.5899 H   0  0  0  0  0
   23.3389   12.4221    6.8088 H   0  0  0  0  0
   22.7217    5.4318   -0.8862 H   0  0  0  0  0
   23.1022    4.6927    0.6610 H   0  0  0  0  0
   21.9209    5.4214    2.6767 H   0  0  0  0  0
   20.9254    6.9167    2.5979 H   0  0  0  0  0
   23.7532    7.6214   -0.0341 H   0  0  0  0  0
   24.9237    6.2959   -0.1557 H   0  0  0  0  0
   23.2172    7.1672    3.6475 H   0  0  0  0  0
   22.8613    8.2727    2.2434 H   0  0  0  0  0
   24.0900   10.9588    5.5374 H   0  0  0  0  0
   24.5565   10.0000    7.0729 H   0  0  0  0  0
   26.4329    7.2585    1.8522 H   0  0  0  0  0
   25.3224    8.6534    1.5100 H   0  0  0  0  0
   24.6404    5.8106    2.2788 H   0  0  0  0  0
  2  1  4  0  0  0
  6  1  4  0  0  0
  3  2  4  0  0  0
  4  3  4  0  0  0
  4  5  4  0  0  0
  8  4  4  0  0  0
  5  6  4  0  0  0
 25  5  4  0  0  0
  6  7  1  0  0  0
  8  9  4  0  0  0
 23  8  1  0  0  0
  9 25  4  0  0  0
 18 10  1  0  0  0
 19 10  1  0  0  0
 11 12  4  0  0  0
 15 11  4  0  0  0
 12 17  4  0  0  0
 14 13  4  0  0  0
 13 16  4  0  0  0
 24 14  4  0  0  0
 26 15  4  0  0  0
 16 26  4  0  0  0
 17 27  4  0  0  0
 20 18  1  0  0  0
 21 19  1  0  0  0
 28 20  1  0  0  0
 28 21  1  0  0  0
 22 24  1  0  0  0
 25 22  1  0  0  0
 23 28  1  0  0  0
 24 27  4  0  0  0
 26 27  4  0  0  0
  2 29  1  0  0  0
  7 30  1  0  0  0
  7 31  1  0  0  0
 10 32  1  0  0  0
 10 33  1  0  0  0
 11 34  1  0  0  0
 12 35  1  0  0  0
 13 36  1  0  0  0
 14 37  1  0  0  0
 15 38  1  0  0  0
 16 39  1  0  0  0
 17 40  1  0  0  0
 18 41  1  0  0  0
 18 42  1  0  0  0
 19 43  1  0  0  0
 19 44  1  0  0  0
 20 45  1  0  0  0
 20 46  1  0  0  0
 21 47  1  0  0  0
 21 48  1  0  0  0
 22 49  1  0  0  0
 22 50  1  0  0  0
 23 51  1  0  0  0
 23 52  1  0  0  0
 28 53  1  0  0  0
M  END
$$$$
