6mj7_ligand
  -I-interpret- 

 27 26  0  0  0  0  0  0  0  0999 V2000
    1.9620    5.4740    5.3660 N   0  3  0  0  0
    1.0360    6.4280    4.7570 C   0  0  0  0  0
   -0.2520    6.5350    5.5580 C   0  0  0  0  0
   -1.0490    7.4470    5.3330 O   0  0  0  0  0
    0.7090    6.0160    3.3220 C   0  0  0  0  0
    0.0350    4.6570    3.2030 C   0  0  0  0  0
   -0.1200    4.2800    1.7420 C   0  0  0  0  0
   -0.8520    3.0300    1.5430 N   0  0  0  0  0
   -0.3160    1.8180    1.6510 C   0  0  0  0  0
    0.9640    1.6810    1.9670 N   0  0  0  0  0
   -1.0560    0.7370    1.4400 N   0  0  0  0  0
   -0.5320    5.7300    6.4390 O   0  0  0  0  0
    2.1682    5.7649    6.3216 H   0  0  0  0  0
    1.5359    4.5473    5.3759 H   0  0  0  0  0
    2.8255    5.4467    4.8238 H   0  0  0  0  0
    1.5253    7.4020    4.7520 H   0  0  0  0  0
   -0.7094    8.0000    4.6256 H   0  0  0  0  0
    1.6534    5.9557    2.7810 H   0  0  0  0  0
    0.0142    6.7560    2.9248 H   0  0  0  0  0
   -0.9500    4.7037    3.6674 H   0  0  0  0  0
    0.6486    3.9077    3.7032 H   0  0  0  0  0
    0.8794    4.1465    1.3279 H   0  0  0  0  0
   -0.6851    5.0744    1.2545 H   0  0  0  0  0
   -1.8419    3.0920    1.3050 H   0  0  0  0  0
    1.5408    2.5067    2.1281 H   0  0  0  0  0
   -0.6391   -0.1903    1.5214 H   0  0  0  0  0
   -2.0418    0.8334    1.1964 H   0  0  0  0  0
  1  2  1  0  0  0
  2  3  1  0  0  0
  2  5  1  0  0  0
  3  4  1  0  0  0
  3 12  2  0  0  0
  5  6  1  0  0  0
  6  7  1  0  0  0
  7  8  1  0  0  0
  8  9  1  0  0  0
  9 10  2  0  0  0
  9 11  1  0  0  0
  1 13  1  0  0  0
  1 14  1  0  0  0
  1 15  1  0  0  0
  2 16  1  0  0  0
  4 17  1  0  0  0
  5 18  1  0  0  0
  5 19  1  0  0  0
  6 20  1  0  0  0
  6 21  1  0  0  0
  7 22  1  0  0  0
  7 23  1  0  0  0
  8 24  1  0  0  0
 10 25  1  0  0  0
 11 26  1  0  0  0
 11 27  1  0  0  0
M  END
$$$$
