5jqb_ligand
  -I-interpret- 

 33 33  0  0  0  0  0  0  0  0999 V2000
  -44.2350   15.9020   -8.1560 C   0  0  0  0  0
  -47.9180   11.1120   -5.8210 C   0  0  0  0  0
  -47.9090   10.8310   -4.3150 C   0  0  0  0  0
  -49.1760   10.0840   -3.9110 C   0  0  0  0  0
  -46.6820   10.0320   -3.8920 C   0  0  0  0  0
  -43.7710   14.4710   -8.1680 C   0  0  0  0  0
  -42.4210   14.2780   -7.4610 C   0  0  0  0  0
  -44.8240   13.6260   -7.5450 C   0  0  0  0  0
  -45.5950   12.7710   -8.3340 C   0  0  0  0  0
  -46.5830   11.9780   -7.7460 C   0  0  0  0  0
  -46.8230   12.0200   -6.3670 C   0  0  0  0  0
  -46.0500   12.8850   -5.5810 C   0  0  0  0  0
  -45.0610   13.6770   -6.1670 C   0  0  0  0  0
  -43.7930   16.7110   -7.3070 O   0  0  0  0  0
  -45.0750   16.2280   -9.0210 O   0  0  0  0  0
  -48.8570   11.6285   -6.0199 H   0  0  0  0  0
  -47.7687   10.1458   -6.3030 H   0  0  0  0  0
  -47.8725   11.7934   -3.8045 H   0  0  0  0  0
  -49.1933    9.1098   -4.3996 H   0  0  0  0  0
  -49.1878    9.9496   -2.8294 H   0  0  0  0  0
  -50.0492   10.6606   -4.2163 H   0  0  0  0  0
  -46.6927    9.8976   -2.8104 H   0  0  0  0  0
  -46.6982    9.0578   -4.3806 H   0  0  0  0  0
  -45.7807   10.5712   -4.1836 H   0  0  0  0  0
  -43.6102   14.1707   -9.2034 H   0  0  0  0  0
  -42.5186   14.5568   -6.4118 H   0  0  0  0  0
  -42.1202   13.2329   -7.5341 H   0  0  0  0  0
  -41.6696   14.9078   -7.9372 H   0  0  0  0  0
  -45.4260   12.7221   -9.4097 H   0  0  0  0  0
  -47.1785   11.3138   -8.3724 H   0  0  0  0  0
  -46.2219   12.9398   -4.5060 H   0  0  0  0  0
  -44.4658   14.3437   -5.5430 H   0  0  0  0  0
  -43.1619   16.2636   -6.7385 H   0  0  0  0  0
  6  1  1  0  0  0
  1 14  1  0  0  0
  1 15  2  0  0  0
  2  3  1  0  0  0
 11  2  1  0  0  0
  3  4  1  0  0  0
  3  5  1  0  0  0
  6  7  1  0  0  0
  8  6  1  0  0  0
  9  8  4  0  0  0
  8 13  4  0  0  0
 10  9  4  0  0  0
 10 11  4  0  0  0
 11 12  4  0  0  0
 12 13  4  0  0  0
  2 16  1  0  0  0
  2 17  1  0  0  0
  3 18  1  0  0  0
  4 19  1  0  0  0
  4 20  1  0  0  0
  4 21  1  0  0  0
  5 22  1  0  0  0
  5 23  1  0  0  0
  5 24  1  0  0  0
  6 25  1  0  0  0
  7 26  1  0  0  0
  7 27  1  0  0  0
  7 28  1  0  0  0
  9 29  1  0  0  0
 10 30  1  0  0  0
 12 31  1  0  0  0
 13 32  1  0  0  0
 14 33  1  0  0  0
M  END
$$$$
