4jx9_ligand
  -I-interpret- 

 29 30  0  0  0  0  0  0  0  0999 V2000
    2.4070   15.9010   31.0260 N   0  0  0  0  0
    2.8060   17.1980   31.3390 C   0  0  0  0  0
    3.6210   17.4470   32.3280 N   0  0  0  0  0
    4.1530   16.4440   33.0410 C   0  0  0  0  0
    3.7850   15.1350   32.7600 C   0  0  0  0  0
    2.9310   14.8900   31.6830 C   0  0  0  0  0
    2.3230   18.1570   30.6760 O   0  0  0  0  0
    4.9530   16.6410   34.0200 O   0  0  0  0  0
    1.4450   15.7230   29.9060 C   0  0  0  0  0
    2.2330   15.3050   28.7630 C   0  0  0  0  0
    1.8840   13.9540   28.9190 C   0  0  0  0  0
    0.4250   13.9670   28.7880 C   0  0  0  0  0
    1.6640   16.1170   27.7590 O   0  0  0  0  0
    2.5680   13.0440   28.3530 O   0  0  0  0  0
    0.3900   14.7280   29.9630 O   0  0  0  0  0
   -0.0810   12.5370   28.5300 C   0  0  0  0  0
    0.0760   12.4530   27.1010 O   0  0  0  0  0
    3.8549   18.4123   32.5601 H   0  0  0  0  0
    4.1568   14.3120   33.3703 H   0  0  0  0  0
    2.7000   13.8663   31.3886 H   0  0  0  0  0
    0.9252   16.6811   29.9014 H   0  0  0  0  0
    3.3062   15.3934   28.5943 H   0  0  0  0  0
    2.1987   13.5703   29.8895 H   0  0  0  0  0
   -0.2285   14.3688   28.0137 H   0  0  0  0  0
    2.1006   15.9422   26.9221 H   0  0  0  0  0
    2.1932   12.1857   28.5638 H   0  0  0  0  0
   -1.0985   12.3565   28.8766 H   0  0  0  0  0
    0.4593   11.7681   29.0823 H   0  0  0  0  0
   -0.2108   11.5880   26.7990 H   0  0  0  0  0
  1  2  1  0  0  0
  1  6  1  0  0  0
  1  9  1  0  0  0
  2  3  1  0  0  0
  2  7  2  0  0  0
  3  4  1  0  0  0
  4  5  1  0  0  0
  4  8  2  0  0  0
  5  6  2  0  0  0
  9 10  1  0  0  0
  9 15  1  0  0  0
 10 11  1  0  0  0
 10 13  1  0  0  0
 11 12  1  0  0  0
 11 14  1  0  0  0
 12 15  1  0  0  0
 12 16  1  0  0  0
 16 17  1  0  0  0
  3 18  1  0  0  0
  5 19  1  0  0  0
  6 20  1  0  0  0
  9 21  1  0  0  0
 10 22  1  0  0  0
 11 23  1  0  0  0
 12 24  1  0  0  0
 13 25  1  0  0  0
 14 26  1  0  0  0
 16 27  1  0  0  0
 16 28  1  0  0  0
 17 29  1  0  0  0
M  END
$$$$
