1vyf_ligand
  -I-interpret- 

 54 53  0  0  0  0  0  0  0  0999 V2000
   16.9920   31.2630    6.3800 C   0  0  0  0  0
   17.7850   32.1150    6.7500 O   0  0  0  0  0
   17.0370   30.9660    5.0900 O   0  0  0  0  0
   16.0230   30.4770    7.2640 C   0  0  0  0  0
   15.4320   31.1480    8.5150 C   0  0  0  0  0
   13.8910   30.9830    8.6210 C   0  0  0  0  0
   13.3540   30.2580    9.8630 C   0  0  0  0  0
   11.9490   29.6720    9.6640 C   0  0  0  0  0
   10.7980   30.6320    9.9340 C   0  0  0  0  0
   10.3790   31.4310    8.7030 C   0  0  0  0  0
    8.9180   31.2450    8.3660 C   0  0  0  0  0
    8.3520   31.7600    7.2640 C   0  0  0  0  0
    9.1040   32.5700    6.2270 C   0  0  0  0  0
    8.3200   33.8070    5.7830 C   0  0  0  0  0
    8.8930   34.4630    4.5180 C   0  0  0  0  0
   10.2260   35.1930    4.7200 C   0  0  0  0  0
   11.4490   34.3300    4.3850 C   0  0  0  0  0
   12.7280   34.8900    5.0180 C   0  0  0  0  0
   13.4420   33.8780    5.9210 C   0  0  0  0  0
   14.4360   33.0810    5.1130 C   0  0  0  0  0
   16.3822   30.2916    4.8950 H   0  0  0  0  0
   16.6104   29.6426    7.6471 H   0  0  0  0  0
   15.1638   30.2755    6.6242 H   0  0  0  0  0
   15.6485   32.2145    8.4536 H   0  0  0  0  0
   15.8779   30.6729    9.3888 H   0  0  0  0  0
   13.5969   30.3714    7.7680 H   0  0  0  0  0
   13.4851   31.9936    8.6665 H   0  0  0  0  0
   13.2953   30.9876   10.6707 H   0  0  0  0  0
   14.0289   29.4297   10.0785 H   0  0  0  0  0
   11.8478   28.8552   10.3787 H   0  0  0  0  0
   11.8764   29.3856    8.6148 H   0  0  0  0  0
   11.1313   31.3422   10.6907 H   0  0  0  0  0
    9.9402   30.0382   10.2497 H   0  0  0  0  0
   10.9681   31.0794    7.8560 H   0  0  0  0  0
   10.5447   32.4875    8.9140 H   0  0  0  0  0
    8.2959   30.6664    9.0489 H   0  0  0  0  0
    7.2879   31.5855    7.1050 H   0  0  0  0  0
    9.2652   31.9381    5.3536 H   0  0  0  0  0
   10.0421   32.9033    6.6709 H   0  0  0  0  0
    8.3735   34.5393    6.5886 H   0  0  0  0  0
    7.3014   33.4902    5.5589 H   0  0  0  0  0
    8.1689   35.2102    4.1932 H   0  0  0  0  0
    9.0760   33.6623    3.8014 H   0  0  0  0  0
   10.2949   35.4665    5.7729 H   0  0  0  0  0
   10.2357   36.0518    4.0488 H   0  0  0  0  0
   11.5769   34.3207    3.3026 H   0  0  0  0  0
   11.2808   33.3278    4.7793 H   0  0  0  0  0
   12.4471   35.7443    5.6339 H   0  0  0  0  0
   13.4105   35.1535    4.2100 H   0  0  0  0  0
   12.7060   33.2011    6.3547 H   0  0  0  0  0
   13.9676   34.4111    6.7132 H   0  0  0  0  0
   13.9129   32.5487    4.3186 H   0  0  0  0  0
   15.1719   33.7562    4.6763 H   0  0  0  0  0
   14.9388   32.3644    5.7624 H   0  0  0  0  0
  1  2  2  0  0  0
  1  3  1  0  0  0
  1  4  1  0  0  0
  4  5  1  0  0  0
  5  6  1  0  0  0
  6  7  1  0  0  0
  7  8  1  0  0  0
  8  9  1  0  0  0
  9 10  1  0  0  0
 10 11  1  0  0  0
 11 12  2  0  0  0
 12 13  1  0  0  0
 13 14  1  0  0  0
 14 15  1  0  0  0
 15 16  1  0  0  0
 16 17  1  0  0  0
 17 18  1  0  0  0
 18 19  1  0  0  0
 19 20  1  0  0  0
  3 21  1  0  0  0
  4 22  1  0  0  0
  4 23  1  0  0  0
  5 24  1  0  0  0
  5 25  1  0  0  0
  6 26  1  0  0  0
  6 27  1  0  0  0
  7 28  1  0  0  0
  7 29  1  0  0  0
  8 30  1  0  0  0
  8 31  1  0  0  0
  9 32  1  0  0  0
  9 33  1  0  0  0
 10 34  1  0  0  0
 10 35  1  0  0  0
 11 36  1  0  0  0
 12 37  1  0  0  0
 13 38  1  0  0  0
 13 39  1  0  0  0
 14 40  1  0  0  0
 14 41  1  0  0  0
 15 42  1  0  0  0
 15 43  1  0  0  0
 16 44  1  0  0  0
 16 45  1  0  0  0
 17 46  1  0  0  0
 17 47  1  0  0  0
 18 48  1  0  0  0
 18 49  1  0  0  0
 19 50  1  0  0  0
 19 51  1  0  0  0
 20 52  1  0  0  0
 20 53  1  0  0  0
 20 54  1  0  0  0
M  END
$$$$
