2vb8_ligand
  -I-interpret- 

 28 28  0  0  0  0  0  0  0  0999 V2000
   38.3000   70.7100   60.5360 S   0  0  0  0  0
   38.5160   71.3010   62.1040 C   0  0  0  0  0
   39.5890   72.0580   62.3000 C   0  0  0  0  0
   40.3110   72.2630   61.1950 C   0  0  0  0  0
   39.7000   71.6830   59.9460 C   0  0  0  0  0
   40.7670   70.8000   59.2740 C   0  0  0  0  0
   40.5880   69.8660   58.2960 C   0  0  0  0  0
   41.7650   69.0970   57.8030 C   0  0  0  0  0
   41.7200   68.1390   56.8690 C   0  0  0  0  0
   37.6930   71.0280   62.9700 O   0  0  0  0  0
   39.9210   72.6500   63.6480 C   0  0  0  0  0
   41.4700   72.9310   61.1720 O   0  0  0  0  0
   39.2100   72.8700   59.0780 C   0  0  0  0  0
   39.2280   69.6090   57.7030 C   0  0  0  0  0
   41.7906   70.9379   59.6222 H   0  0  0  0  0
   42.7372   69.3325   58.2360 H   0  0  0  0  0
   40.7690   67.8707   56.4088 H   0  0  0  0  0
   42.6343   67.6273   56.5687 H   0  0  0  0  0
   40.9083   72.3092   63.9599 H   0  0  0  0  0
   39.9164   73.7377   63.5768 H   0  0  0  0  0
   39.1773   72.3292   64.3774 H   0  0  0  0  0
   41.8076   72.9530   60.2736 H   0  0  0  0  0
   40.0542   73.5170   58.8397 H   0  0  0  0  0
   38.7719   72.4877   58.1560 H   0  0  0  0  0
   38.4605   73.4371   59.6301 H   0  0  0  0  0
   38.5456   69.2854   58.4889 H   0  0  0  0  0
   38.8521   70.5256   57.2484 H   0  0  0  0  0
   39.3052   68.8306   56.9439 H   0  0  0  0  0
  1  2  1  0  0  0
  1  5  1  0  0  0
  2  3  1  0  0  0
  2 10  2  0  0  0
  3  4  2  0  0  0
  3 11  1  0  0  0
  4  5  1  0  0  0
  4 12  1  0  0  0
  5  6  1  0  0  0
  5 13  1  0  0  0
  6  7  2  0  0  0
  7  8  1  0  0  0
  7 14  1  0  0  0
  8  9  2  0  0  0
  6 15  1  0  0  0
  8 16  1  0  0  0
  9 17  1  0  0  0
  9 18  1  0  0  0
 11 19  1  0  0  0
 11 20  1  0  0  0
 11 21  1  0  0  0
 12 22  1  0  0  0
 13 23  1  0  0  0
 13 24  1  0  0  0
 13 25  1  0  0  0
 14 26  1  0  0  0
 14 27  1  0  0  0
 14 28  1  0  0  0
M  END
$$$$
