1xap_ligand
  -I-interpret- 

 54 56  0  0  0  0  0  0  0  0999 V2000
   41.9000   20.3100  101.3100 C   0  0  0  0  0
   42.5580   21.6170  100.8350 C   0  0  0  0  0
   42.0980   22.9050  101.0410 C   0  0  0  0  0
   40.8980   23.4660  101.7400 C   0  0  0  0  0
   40.4810   24.7890  101.3780 C   0  0  0  0  0
   39.3570   25.4000  101.9780 C   0  0  0  0  0
   38.5920   24.7080  102.9640 C   0  0  0  0  0
   37.3890   25.3380  103.5950 C   0  0  0  0  0
   37.0460   26.4750  103.2510 O   0  0  0  0  0
   36.7500   24.7070  104.4460 O   0  0  0  0  0
   39.0060   23.3980  103.3350 C   0  0  0  0  0
   40.1360   22.7910  102.7300 C   0  0  0  0  0
   43.8370   21.4640  100.0480 C   0  0  0  0  0
   44.8810   22.4150  100.1500 C   0  0  0  0  0
   46.0590   22.2660   99.4060 C   0  0  0  0  0
   46.2720   21.1570   98.5230 C   0  0  0  0  0
   45.2180   20.1710   98.4020 C   0  0  0  0  0
   44.0310   20.3570   99.1750 C   0  0  0  0  0
   45.3510   18.9280   97.4770 C   0  0  0  0  0
   44.7910   17.6850   98.2070 C   0  0  0  0  0
   44.5550   19.0970   96.1590 C   0  0  0  0  0
   46.8350   18.6340   97.1030 C   0  0  0  0  0
   47.6340   19.8930   96.6890 C   0  0  0  0  0
   47.6100   21.0590   97.7340 C   0  0  0  0  0
   47.8830   22.3810   96.9760 C   0  0  0  0  0
   48.7720   20.8130   98.7170 C   0  0  0  0  0
   41.8268   20.3159  102.3975 H   0  0  0  0  0
   40.9026   20.2289  100.8779 H   0  0  0  0  0
   42.5060   19.4624  100.9900 H   0  0  0  0  0
   42.7413   23.6692  100.6048 H   0  0  0  0  0
   41.0442   25.3364  100.6222 H   0  0  0  0  0
   39.0714   26.4102  101.6847 H   0  0  0  0  0
   37.1613   23.8505  104.5834 H   0  0  0  0  0
   38.4464   22.8531  104.0953 H   0  0  0  0  0
   40.4259   21.7844  103.0315 H   0  0  0  0  0
   44.7672   23.2718  100.8141 H   0  0  0  0  0
   46.8406   23.0196   99.5020 H   0  0  0  0  0
   43.2362   19.6157   99.0922 H   0  0  0  0  0
   45.3551   17.5195   99.1249 H   0  0  0  0  0
   43.7410   17.8497   98.4490 H   0  0  0  0  0
   44.8835   16.8128   97.5598 H   0  0  0  0  0
   43.4991   19.2389   96.3894 H   0  0  0  0  0
   44.9302   19.9659   95.6183 H   0  0  0  0  0
   44.6775   18.2047   95.5451 H   0  0  0  0  0
   46.8276   17.9573   96.2485 H   0  0  0  0  0
   47.3176   18.2182   97.9875 H   0  0  0  0  0
   47.1731   20.2749   95.7780 H   0  0  0  0  0
   48.6743   19.5862   96.5810 H   0  0  0  0  0
   47.0692   22.5720   96.2765 H   0  0  0  0  0
   47.9493   23.2012   97.6909 H   0  0  0  0  0
   48.8220   22.2974   96.4289 H   0  0  0  0  0
   48.8279   21.6394   99.4256 H   0  0  0  0  0
   48.5992   19.8815   99.2561 H   0  0  0  0  0
   49.7076   20.7448   98.1619 H   0  0  0  0  0
  1  2  1  0  0  0
  2  3  2  0  0  0
  2 13  1  0  0  0
  3  4  1  0  0  0
  4  5  4  0  0  0
  4 12  4  0  0  0
  5  6  4  0  0  0
  6  7  4  0  0  0
  7  8  1  0  0  0
  7 11  4  0  0  0
  8  9  2  0  0  0
  8 10  1  0  0  0
 11 12  4  0  0  0
 13 14  4  0  0  0
 13 18  4  0  0  0
 14 15  4  0  0  0
 15 16  4  0  0  0
 16 17  4  0  0  0
 16 24  1  0  0  0
 17 18  4  0  0  0
 17 19  1  0  0  0
 19 20  1  0  0  0
 19 21  1  0  0  0
 19 22  1  0  0  0
 22 23  1  0  0  0
 23 24  1  0  0  0
 24 25  1  0  0  0
 24 26  1  0  0  0
  1 27  1  0  0  0
  1 28  1  0  0  0
  1 29  1  0  0  0
  3 30  1  0  0  0
  5 31  1  0  0  0
  6 32  1  0  0  0
 10 33  1  0  0  0
 11 34  1  0  0  0
 12 35  1  0  0  0
 14 36  1  0  0  0
 15 37  1  0  0  0
 18 38  1  0  0  0
 20 39  1  0  0  0
 20 40  1  0  0  0
 20 41  1  0  0  0
 21 42  1  0  0  0
 21 43  1  0  0  0
 21 44  1  0  0  0
 22 45  1  0  0  0
 22 46  1  0  0  0
 23 47  1  0  0  0
 23 48  1  0  0  0
 25 49  1  0  0  0
 25 50  1  0  0  0
 25 51  1  0  0  0
 26 52  1  0  0  0
 26 53  1  0  0  0
 26 54  1  0  0  0
M  END
$$$$
