### 
### Created by X-TOOL on Mon Sep 10 21:13:14 2018
### 

@<TRIPOS>MOLECULE
4c4n_ligand
  153   158     1     0     0
SMALL
GAST_HUCK


@<TRIPOS>ATOM
      1 C1         -1.5950    1.3930  -15.6390 C.3       1 IDS         0.1898
      2 C2         -2.8950    1.6780  -14.8890 C.3       1 IDS         0.1633
      3 C3         -2.7200    2.6080  -13.6910 C.3       1 IDS         0.1184
      4 C4         -1.7340    3.7450  -13.9650 C.3       1 IDS         0.1280
      5 C5         -0.4830    3.2270  -14.6700 C.3       1 IDS         0.1424
      6 C6          0.4900    4.3350  -14.9510 C.2       1 IDS         0.0664
      7 O1         -0.7920    0.4960  -14.8630 O.3       1 IDS        -0.3647
      8 O2         -3.8280    2.2550  -15.7970 O.3       1 IDS        -0.2546
      9 O3         -2.2890    1.8280  -12.5690 O.3       1 IDS        -0.3862
     10 O4         -2.3850    4.7610  -14.7460 O.3       1 IDS        -0.3391
     11 O5         -0.8800    2.6030  -15.8870 O.3       1 IDS        -0.3286
     12 O61         0.3360    5.0140  -15.9880 O.co2     1 IDS        -0.5662
     13 O62         1.4210    4.5330  -14.1400 O.co2     1 IDS        -0.5662
     14 S          -3.7110    1.9080  -17.2860 S.o2      1 IDS        -0.0732
     15 O1S        -3.7590    3.1250  -18.0490 O.co2     1 IDS        -0.4611
     16 O2S        -4.9460    0.9250  -17.7190 O.co2     1 IDS        -0.4611
     17 O3S        -2.4610    1.2360  -17.5230 O.co2     1 IDS        -0.4611
     18 C1         -3.0420    5.6620  -13.8330 C.3       1 SGN         0.1821
     19 C2         -3.9710    6.6360  -14.5550 C.3       1 SGN         0.1138
     20 C3         -3.1770    7.5170  -15.5100 C.3       1 SGN         0.1080
     21 C4         -2.0740    8.2220  -14.7240 C.3       1 SGN         0.1179
     22 C5         -1.2580    7.2260  -13.9060 C.3       1 SGN         0.1157
     23 C6         -0.2320    7.9700  -13.0540 C.3       1 SGN         0.1025
     24 N          -5.0500    5.9590  -15.2560 N.am      1 SGN        -0.2705
     25 O3         -4.0520    8.4730  -16.1240 O.3       1 SGN        -0.3871
     26 O4         -1.1870    8.9380  -15.5950 O.3       1 SGN        -0.3400
     27 O5         -2.1090    6.4290  -13.0750 O.3       1 SGN        -0.3411
     28 O6         -0.8850    8.8170  -12.1090 O.3       1 SGN        -0.2631
     29 S1         -6.5310    6.5890  -15.2760 S.o2      1 SGN        -0.1197
     30 O1S        -7.4760    5.6190  -14.7950 O.co2     1 SGN        -0.4676
     31 O2S        -6.5690    7.7570  -14.4360 O.co2     1 SGN        -0.4676
     32 O3S        -6.9340    7.0070  -16.8050 O.co2     1 SGN        -0.4676
     33 S2         -0.5160    8.7140  -10.6230 S.o2      1 SGN        -0.0736
     34 O4S        -1.2830    7.6610  -10.0210 O.co2     1 SGN        -0.4611
     35 O5S        -0.8250   10.1270   -9.8590 O.co2     1 SGN        -0.4611
     36 O6S         0.8850    8.4170  -10.4990 O.co2     1 SGN        -0.4611
     37 C1         -1.0510   10.2770  -15.0760 C.3       1 IDS         0.1927
     38 C2          0.1100   10.9960  -15.7720 C.3       1 IDS         0.1635
     39 C3         -0.2710   11.3410  -17.2110 C.3       1 IDS         0.1184
     40 C4         -1.6600   11.9690  -17.2870 C.3       1 IDS         0.1280
     41 C5         -2.6920   11.1090  -16.5730 C.3       1 IDS         0.1424
     42 C6         -4.0670   11.7160  -16.6730 C.2       1 IDS         0.0664
     43 O2          0.4950   12.1930  -15.0740 O.3       1 IDS        -0.2546
     44 O3         -0.2350   10.1520  -18.0100 O.3       1 IDS        -0.3862
     45 O4         -1.6220   13.2610  -16.6730 O.3       1 IDS        -0.3391
     46 O5         -2.2770   11.0030  -15.2120 O.3       1 IDS        -0.3284
     47 O61        -4.3860   12.3230  -17.7180 O.co2     1 IDS        -0.5662
     48 O62        -4.8450   11.5870  -15.7050 O.co2     1 IDS        -0.5662
     49 S           1.6120   12.2190  -14.0010 S.o2      1 IDS        -0.0732
     50 O1S         1.4430   13.3640  -13.1440 O.co2     1 IDS        -0.4611
     51 O2S         3.1090   12.3090  -14.6680 O.co2     1 IDS        -0.4611
     52 O3S         1.5390   11.0180  -13.2160 O.co2     1 IDS        -0.4611
     53 C1         -1.2670   14.2100  -17.6850 C.3       1 SGN         0.1821
     54 C2         -0.5140   15.3790  -17.0580 C.3       1 SGN         0.1138
     55 C3         -1.4430   16.1650  -16.1500 C.3       1 SGN         0.1080
     56 C4         -2.5530   16.6830  -17.0510 C.3       1 SGN         0.1179
     57 C5         -3.3080   15.4920  -17.6450 C.3       1 SGN         0.1157
     58 C6         -4.4400   15.9380  -18.5690 C.3       1 SGN         0.1025
     59 N           0.6670   14.9230  -16.3560 N.am      1 SGN        -0.2705
     60 O3         -0.7540   17.2410  -15.5090 O.3       1 SGN        -0.3871
     61 O4         -3.4240   17.5690  -16.3330 O.3       1 SGN        -0.3400
     62 O5         -2.4120   14.6750  -18.4040 O.3       1 SGN        -0.3411
     63 O6         -4.1050   17.1870  -19.1840 O.3       1 SGN        -0.2631
     64 S1          2.1040   15.1570  -17.0200 S.o2      1 SGN        -0.1197
     65 O1S         3.1170   15.0290  -16.0120 O.co2     1 SGN        -0.4676
     66 O2S         2.3190   14.1800  -18.0470 O.co2     1 SGN        -0.4676
     67 O3S         2.1530   16.6460  -17.6990 O.co2     1 SGN        -0.4676
     68 S2         -4.1230   17.3730  -20.7110 S.o2      1 SGN        -0.0736
     69 O4S        -3.5510   18.6460  -21.0520 O.co2     1 SGN        -0.4611
     70 O5S        -5.6630   17.3150  -21.2600 O.co2     1 SGN        -0.4611
     71 O6S        -3.3540   16.3260  -21.3170 O.co2     1 SGN        -0.4611
     72 C1         -3.7460   18.6920  -17.1860 C.3       1 IDS         0.1927
     73 C2         -4.9230   19.4900  -16.6040 C.3       1 IDS         0.1635
     74 C3         -4.7030   21.0180  -16.6890 C.3       1 IDS         0.1184
     75 C4         -3.3330   21.4860  -16.1820 C.3       1 IDS         0.1280
     76 C5         -2.3650   20.3040  -16.2110 C.3       1 IDS         0.1424
     77 C6         -0.9240   20.7310  -16.1310 C.2       1 IDS         0.0664
     78 O2         -6.1440   19.1090  -17.2790 O.3       1 IDS        -0.2546
     79 O3         -5.6970   21.6990  -15.9130 O.3       1 IDS        -0.3862
     80 O4         -2.8450   22.5970  -16.9640 O.3       1 IDS        -0.3391
     81 O5         -2.6180   19.5460  -17.3910 O.3       1 IDS        -0.3284
     82 O61        -0.2080   20.6350  -17.1500 O.co2     1 IDS        -0.5662
     83 O62        -0.4880   21.1530  -15.0370 O.co2     1 IDS        -0.5662
     84 S          -6.9540   17.8400  -16.9080 S.o2      1 IDS        -0.0732
     85 O1S        -8.2490   17.8620  -17.5400 O.co2     1 IDS        -0.4611
     86 O2S        -7.1350   17.7540  -15.2840 O.co2     1 IDS        -0.4611
     87 O3S        -6.2610   16.6610  -17.3450 O.co2     1 IDS        -0.4611
     88 C1         -2.5030   23.7130  -16.1050 C.3       1 SGN         0.1821
     89 C2         -3.4790   24.8710  -16.2830 C.3       1 SGN         0.1138
     90 C3         -3.3950   25.3840  -17.7090 C.3       1 SGN         0.1076
     91 C4         -2.0200   26.0100  -17.8300 C.3       1 SGN         0.1113
     92 C5         -0.9550   24.9580  -17.5470 C.3       1 SGN         0.1154
     93 C6          0.3930   25.6840  -17.5750 C.3       1 SGN         0.1024
     94 N          -4.8430   24.5550  -15.9130 N.am      1 SGN        -0.2705
     95 O3         -4.4120   26.3530  -17.9820 O.3       1 SGN        -0.3871
     96 O4         -1.8240   26.5790  -19.1310 O.3       1 SGN        -0.3865
     97 O5         -1.1850   24.2580  -16.3080 O.3       1 SGN        -0.3411
     98 O6          1.4280   24.9610  -16.9120 O.3       1 SGN        -0.2631
     99 S1         -5.6960   25.7050  -15.1960 S.o2      1 SGN        -0.1197
    100 O1S        -7.0920   25.4890  -15.4310 O.co2     1 SGN        -0.4676
    101 O2S        -5.4390   25.6940  -13.7810 O.co2     1 SGN        -0.4676
    102 O3S        -5.2710   27.1610  -15.8090 O.co2     1 SGN        -0.4676
    103 S2          2.9030   25.2910  -17.2090 S.o2      1 SGN        -0.0736
    104 O4S         3.4230   26.1890  -16.2120 O.co2     1 SGN        -0.4611
    105 O5S         3.0200   25.9920  -18.6800 O.co2     1 SGN        -0.4611
    106 O6S         3.6610   24.0710  -17.1910 O.co2     1 SGN        -0.4611
    107 H1         -1.8344    0.9195  -16.6025 H         1 IDS         0.0938
    108 H2         -3.2957    0.7215  -14.5222 H         1 IDS         0.0697
    109 H3         -3.6966    3.0563  -13.4558 H         1 IDS         0.0650
    110 H4         -1.4298    4.1841  -13.0034 H         1 IDS         0.0669
    111 H5          0.0085    2.4836  -14.0252 H         1 IDS         0.0794
    112 H6         -0.5736    0.9049  -14.0338 H         1 IDS         0.2126
    113 H7         -1.4336    1.4575  -12.7522 H         1 IDS         0.2100
    114 H8         -3.6424    5.0558  -13.1387 H         1 IDS         0.0930
    115 H9         -4.4272    7.2863  -13.7941 H         1 IDS         0.0587
    116 H10        -2.7219    6.8920  -16.2925 H         1 IDS         0.0641
    117 H11        -2.5470    8.9390  -14.0369 H         1 IDS         0.0650
    118 H12        -0.7235    6.5592  -14.5985 H         1 IDS         0.0648
    119 H13         0.4058    8.5824  -13.7084 H         1 IDS         0.0610
    120 H14         0.3894    7.2392  -12.5158 H         1 IDS         0.0610
    121 H15        -4.8708    5.0963  -15.7288 H         1 IDS         0.1646
    122 H16        -4.7299    8.0155  -16.6072 H         1 IDS         0.2100
    123 H17        -0.8158   10.2079  -14.0037 H         1 IDS         0.0940
    124 H18         0.9735   10.3148  -15.7909 H         1 IDS         0.0697
    125 H19         0.4613   12.0606  -17.6059 H         1 IDS         0.0650
    126 H20        -1.9492   12.0736  -18.3431 H         1 IDS         0.0669
    127 H21        -2.7145   10.1082  -17.0290 H         1 IDS         0.0794
    128 H22        -0.8791    9.5339  -17.6852 H         1 IDS         0.2100
    129 H23        -0.5972   13.7113  -18.4010 H         1 IDS         0.0930
    130 H24        -0.1851   16.0474  -17.8674 H         1 IDS         0.0587
    131 H25        -1.8632   15.5026  -15.3789 H         1 IDS         0.0641
    132 H26        -2.0979   17.2504  -17.8762 H         1 IDS         0.0650
    133 H27        -3.7319   14.8994  -16.8209 H         1 IDS         0.0648
    134 H28        -5.3635   16.0562  -17.9833 H         1 IDS         0.0610
    135 H29        -4.5951   15.1778  -19.3487 H         1 IDS         0.0610
    136 H30         0.5860   14.4684  -15.4690 H         1 IDS         0.1646
    137 H31        -1.3673   17.7381  -14.9805 H         1 IDS         0.2100
    138 H32        -4.0517   18.2952  -18.1653 H         1 IDS         0.0940
    139 H33        -5.0192   19.2250  -15.5408 H         1 IDS         0.0697
    140 H34        -4.8016   21.3141  -17.7438 H         1 IDS         0.0650
    141 H35        -3.4401   21.8232  -15.1405 H         1 IDS         0.0669
    142 H36        -2.5726   19.6684  -15.3376 H         1 IDS         0.0794
    143 H37        -6.5613   21.4311  -16.2022 H         1 IDS         0.2100
    144 H38        -2.5662   23.3529  -15.0675 H         1 IDS         0.0930
    145 H39        -3.1483   25.6807  -15.6159 H         1 IDS         0.0587
    146 H40        -3.4969   24.5482  -18.4168 H         1 IDS         0.0641
    147 H41        -1.9325   26.8122  -17.0825 H         1 IDS         0.0646
    148 H42        -0.9709   24.2128  -18.3560 H         1 IDS         0.0648
    149 H43         0.2759   26.6603  -17.0819 H         1 IDS         0.0610
    150 H44         0.6878   25.8360  -18.6238 H         1 IDS         0.0610
    151 H45        -5.2365   23.6545  -16.0979 H         1 IDS         0.1646
    152 H46        -4.3418   27.0679  -17.3603 H         1 IDS         0.2100
    153 H47        -2.4941   27.2324  -19.2939 H         1 IDS         0.2100
@<TRIPOS>BOND
     1    1    2 1  
     2    1    7 1  
     3    1   11 1  
     4    2    3 1  
     5    2    8 1  
     6    3    4 1  
     7    3    9 1  
     8    4    5 1  
     9    4   10 1  
    10    5    6 1  
    11    5   11 1  
    12    6   12 ar 
    13    6   13 ar 
    14    8   14 1  
    15   10   18 1  
    16   14   15 ar 
    17   14   16 ar 
    18   14   17 ar 
    19   18   19 1  
    20   18   27 1  
    21   19   20 1  
    22   19   24 1  
    23   20   21 1  
    24   20   25 1  
    25   21   22 1  
    26   21   26 1  
    27   22   23 1  
    28   22   27 1  
    29   23   28 1  
    30   24   29 am 
    31   26   37 1  
    32   28   33 1  
    33   29   30 ar 
    34   29   31 ar 
    35   29   32 ar 
    36   33   34 ar 
    37   33   35 ar 
    38   33   36 ar 
    39   37   38 1  
    40   37   46 1  
    41   38   39 1  
    42   38   43 1  
    43   39   40 1  
    44   39   44 1  
    45   40   41 1  
    46   40   45 1  
    47   41   42 1  
    48   41   46 1  
    49   42   47 ar 
    50   42   48 ar 
    51   43   49 1  
    52   45   53 1  
    53   49   50 ar 
    54   49   51 ar 
    55   49   52 ar 
    56   53   54 1  
    57   53   62 1  
    58   54   55 1  
    59   54   59 1  
    60   55   56 1  
    61   55   60 1  
    62   56   57 1  
    63   56   61 1  
    64   57   58 1  
    65   57   62 1  
    66   58   63 1  
    67   59   64 am 
    68   61   72 1  
    69   63   68 1  
    70   64   65 ar 
    71   64   66 ar 
    72   64   67 ar 
    73   68   69 ar 
    74   68   70 ar 
    75   68   71 ar 
    76   72   73 1  
    77   72   81 1  
    78   73   74 1  
    79   73   78 1  
    80   74   75 1  
    81   74   79 1  
    82   75   76 1  
    83   75   80 1  
    84   76   77 1  
    85   76   81 1  
    86   77   82 ar 
    87   77   83 ar 
    88   78   84 1  
    89   80   88 1  
    90   84   85 ar 
    91   84   86 ar 
    92   84   87 ar 
    93   88   89 1  
    94   88   97 1  
    95   89   90 1  
    96   89   94 1  
    97   90   91 1  
    98   90   95 1  
    99   91   92 1  
   100   91   96 1  
   101   92   93 1  
   102   92   97 1  
   103   93   98 1  
   104   94   99 am 
   105   98  103 1  
   106   99  100 ar 
   107   99  101 ar 
   108   99  102 ar 
   109  103  104 ar 
   110  103  105 ar 
   111  103  106 ar 
   112    1  107 1  
   113    2  108 1  
   114    3  109 1  
   115    4  110 1  
   116    5  111 1  
   117    7  112 1  
   118    9  113 1  
   119   18  114 1  
   120   19  115 1  
   121   20  116 1  
   122   21  117 1  
   123   22  118 1  
   124   23  119 1  
   125   23  120 1  
   126   24  121 1  
   127   25  122 1  
   128   37  123 1  
   129   38  124 1  
   130   39  125 1  
   131   40  126 1  
   132   41  127 1  
   133   44  128 1  
   134   53  129 1  
   135   54  130 1  
   136   55  131 1  
   137   56  132 1  
   138   57  133 1  
   139   58  134 1  
   140   58  135 1  
   141   59  136 1  
   142   60  137 1  
   143   72  138 1  
   144   73  139 1  
   145   74  140 1  
   146   75  141 1  
   147   76  142 1  
   148   79  143 1  
   149   88  144 1  
   150   89  145 1  
   151   90  146 1  
   152   91  147 1  
   153   92  148 1  
   154   93  149 1  
   155   93  150 1  
   156   94  151 1  
   157   95  152 1  
   158   96  153 1  
@<TRIPOS>SUBSTRUCTURE
     1 IDS         1

