4c4n_ligand
  -I-interpret- 

165170  0  0  0  0  0  0  0  0999 V2000
   -1.5950    1.3930  -15.6390 C   0  0  0  0  0
   -2.8950    1.6780  -14.8890 C   0  0  0  0  0
   -2.7200    2.6080  -13.6910 C   0  0  0  0  0
   -1.7340    3.7450  -13.9650 C   0  0  0  0  0
   -0.4830    3.2270  -14.6700 C   0  0  0  0  0
    0.4900    4.3350  -14.9510 C   0  0  0  0  0
   -0.7920    0.4960  -14.8630 O   0  0  0  0  0
   -3.8280    2.2550  -15.7970 O   0  0  0  0  0
   -2.2890    1.8280  -12.5690 O   0  0  0  0  0
   -2.3850    4.7610  -14.7460 O   0  0  0  0  0
   -0.8800    2.6030  -15.8870 O   0  0  0  0  0
    0.3360    5.0140  -15.9880 O   0  0  0  0  0
    1.4210    4.5330  -14.1400 O   0  0  0  0  0
   -3.7110    1.9080  -17.2860 S   0  0  0  0  0
   -3.7590    3.1250  -18.0490 O   0  0  0  0  0
   -4.9460    0.9250  -17.7190 O   0  0  0  0  0
   -2.4610    1.2360  -17.5230 O   0  0  0  0  0
   -3.0420    5.6620  -13.8330 C   0  0  0  0  0
   -3.9710    6.6360  -14.5550 C   0  0  0  0  0
   -3.1770    7.5170  -15.5100 C   0  0  0  0  0
   -2.0740    8.2220  -14.7240 C   0  0  0  0  0
   -1.2580    7.2260  -13.9060 C   0  0  0  0  0
   -0.2320    7.9700  -13.0540 C   0  0  0  0  0
   -5.0500    5.9590  -15.2560 N   0  0  0  0  0
   -4.0520    8.4730  -16.1240 O   0  0  0  0  0
   -1.1870    8.9380  -15.5950 O   0  0  0  0  0
   -2.1090    6.4290  -13.0750 O   0  0  0  0  0
   -0.8850    8.8170  -12.1090 O   0  0  0  0  0
   -6.5310    6.5890  -15.2760 S   0  0  0  0  0
   -7.4760    5.6190  -14.7950 O   0  0  0  0  0
   -6.5690    7.7570  -14.4360 O   0  0  0  0  0
   -6.9340    7.0070  -16.8050 O   0  0  0  0  0
   -0.5160    8.7140  -10.6230 S   0  0  0  0  0
   -1.2830    7.6610  -10.0210 O   0  0  0  0  0
   -0.8250   10.1270   -9.8590 O   0  0  0  0  0
    0.8850    8.4170  -10.4990 O   0  0  0  0  0
   -1.0510   10.2770  -15.0760 C   0  0  0  0  0
    0.1100   10.9960  -15.7720 C   0  0  0  0  0
   -0.2710   11.3410  -17.2110 C   0  0  0  0  0
   -1.6600   11.9690  -17.2870 C   0  0  0  0  0
   -2.6920   11.1090  -16.5730 C   0  0  0  0  0
   -4.0670   11.7160  -16.6730 C   0  0  0  0  0
    0.4950   12.1930  -15.0740 O   0  0  0  0  0
   -0.2350   10.1520  -18.0100 O   0  0  0  0  0
   -1.6220   13.2610  -16.6730 O   0  0  0  0  0
   -2.2770   11.0030  -15.2120 O   0  0  0  0  0
   -4.3860   12.3230  -17.7180 O   0  0  0  0  0
   -4.8450   11.5870  -15.7050 O   0  0  0  0  0
    1.6120   12.2190  -14.0010 S   0  0  0  0  0
    1.4430   13.3640  -13.1440 O   0  0  0  0  0
    3.1090   12.3090  -14.6680 O   0  0  0  0  0
    1.5390   11.0180  -13.2160 O   0  0  0  0  0
   -1.2670   14.2100  -17.6850 C   0  0  0  0  0
   -0.5140   15.3790  -17.0580 C   0  0  0  0  0
   -1.4430   16.1650  -16.1500 C   0  0  0  0  0
   -2.5530   16.6830  -17.0510 C   0  0  0  0  0
   -3.3080   15.4920  -17.6450 C   0  0  0  0  0
   -4.4400   15.9380  -18.5690 C   0  0  0  0  0
    0.6670   14.9230  -16.3560 N   0  0  0  0  0
   -0.7540   17.2410  -15.5090 O   0  0  0  0  0
   -3.4240   17.5690  -16.3330 O   0  0  0  0  0
   -2.4120   14.6750  -18.4040 O   0  0  0  0  0
   -4.1050   17.1870  -19.1840 O   0  0  0  0  0
    2.1040   15.1570  -17.0200 S   0  0  0  0  0
    3.1170   15.0290  -16.0120 O   0  0  0  0  0
    2.3190   14.1800  -18.0470 O   0  0  0  0  0
    2.1530   16.6460  -17.6990 O   0  0  0  0  0
   -4.1230   17.3730  -20.7110 S   0  0  0  0  0
   -3.5510   18.6460  -21.0520 O   0  0  0  0  0
   -5.6630   17.3150  -21.2600 O   0  0  0  0  0
   -3.3540   16.3260  -21.3170 O   0  0  0  0  0
   -3.7460   18.6920  -17.1860 C   0  0  0  0  0
   -4.9230   19.4900  -16.6040 C   0  0  0  0  0
   -4.7030   21.0180  -16.6890 C   0  0  0  0  0
   -3.3330   21.4860  -16.1820 C   0  0  0  0  0
   -2.3650   20.3040  -16.2110 C   0  0  0  0  0
   -0.9240   20.7310  -16.1310 C   0  0  0  0  0
   -6.1440   19.1090  -17.2790 O   0  0  0  0  0
   -5.6970   21.6990  -15.9130 O   0  0  0  0  0
   -2.8450   22.5970  -16.9640 O   0  0  0  0  0
   -2.6180   19.5460  -17.3910 O   0  0  0  0  0
   -0.2080   20.6350  -17.1500 O   0  0  0  0  0
   -0.4880   21.1530  -15.0370 O   0  0  0  0  0
   -6.9540   17.8400  -16.9080 S   0  0  0  0  0
   -8.2490   17.8620  -17.5400 O   0  0  0  0  0
   -7.1350   17.7540  -15.2840 O   0  0  0  0  0
   -6.2610   16.6610  -17.3450 O   0  0  0  0  0
   -2.5030   23.7130  -16.1050 C   0  0  0  0  0
   -3.4790   24.8710  -16.2830 C   0  0  0  0  0
   -3.3950   25.3840  -17.7090 C   0  0  0  0  0
   -2.0200   26.0100  -17.8300 C   0  0  0  0  0
   -0.9550   24.9580  -17.5470 C   0  0  0  0  0
    0.3930   25.6840  -17.5750 C   0  0  0  0  0
   -4.8430   24.5550  -15.9130 N   0  0  0  0  0
   -4.4120   26.3530  -17.9820 O   0  0  0  0  0
   -1.8240   26.5790  -19.1310 O   0  0  0  0  0
   -1.1850   24.2580  -16.3080 O   0  0  0  0  0
    1.4280   24.9610  -16.9120 O   0  0  0  0  0
   -5.6960   25.7050  -15.1960 S   0  0  0  0  0
   -7.0920   25.4890  -15.4310 O   0  0  0  0  0
   -5.4390   25.6940  -13.7810 O   0  0  0  0  0
   -5.2710   27.1610  -15.8090 O   0  0  0  0  0
    2.9030   25.2910  -17.2090 S   0  0  0  0  0
    3.4230   26.1890  -16.2120 O   0  0  0  0  0
    3.0200   25.9920  -18.6800 O   0  0  0  0  0
    3.6610   24.0710  -17.1910 O   0  0  0  0  0
   -1.8307    0.9363  -16.6002 H   0  0  0  0  0
   -3.2517    0.7268  -14.4939 H   0  0  0  0  0
   -3.6792    3.0817  -13.4823 H   0  0  0  0  0
   -1.4148    4.1765  -13.0163 H   0  0  0  0  0
    0.0210    2.5112  -14.0206 H   0  0  0  0  0
   -1.2825   -0.3135  -14.7025 H   0  0  0  0  0
   -2.9185    1.1204  -12.4119 H   0  0  0  0  0
    1.3542    3.9038  -13.4180 H   0  0  0  0  0
   -4.9050    0.1158  -17.2042 H   0  0  0  0  0
   -3.6236    5.0243  -13.1672 H   0  0  0  0  0
   -4.4344    7.2635  -13.7937 H   0  0  0  0  0
   -2.7262    6.9114  -16.2962 H   0  0  0  0  0
   -2.5670    8.9263  -14.0539 H   0  0  0  0  0
   -0.7359    6.5601  -14.5931 H   0  0  0  0  0
    0.3917    8.5820  -13.7056 H   0  0  0  0  0
    0.3754    7.2422  -12.5160 H   0  0  0  0  0
   -4.8672    5.0790  -15.7383 H   0  0  0  0  0
   -3.5481    9.0264  -16.7252 H   0  0  0  0  0
   -6.3071    7.6553  -17.1341 H   0  0  0  0  0
   -0.3100   10.8282  -10.2648 H   0  0  0  0  0
   -0.8245   10.2207  -14.0113 H   0  0  0  0  0
    0.9624   10.3167  -15.7694 H   0  0  0  0  0
    0.4472   12.0687  -17.5888 H   0  0  0  0  0
   -1.9456   12.0507  -18.3357 H   0  0  0  0  0
   -2.7542   10.1233  -17.0341 H   0  0  0  0  0
   -0.4743   10.3681  -18.9142 H   0  0  0  0  0
   -3.6493   12.3073  -18.3334 H   0  0  0  0  0
    3.2467   11.5546  -15.2455 H   0  0  0  0  0
   -0.6184   13.7088  -18.4035 H   0  0  0  0  0
   -0.1722   16.0442  -17.8509 H   0  0  0  0  0
   -1.8368   15.5420  -15.3469 H   0  0  0  0  0
   -2.1239   17.2640  -17.8673 H   0  0  0  0  0
   -3.7314   14.9341  -16.8098 H   0  0  0  0  0
   -5.3531   16.0582  -17.9861 H   0  0  0  0  0
   -4.5895   15.1852  -19.3430 H   0  0  0  0  0
    0.5844   14.4593  -15.4513 H   0  0  0  0  0
   -1.3649   17.7186  -14.9430 H   0  0  0  0  0
    1.4695   16.7132  -18.3698 H   0  0  0  0  0
   -6.0501   16.4659  -21.0346 H   0  0  0  0  0
   -4.0352   18.2912  -18.1575 H   0  0  0  0  0
   -4.9984   19.2481  -15.5439 H   0  0  0  0  0
   -4.7686   21.2563  -17.7506 H   0  0  0  0  0
   -3.4233   21.8419  -15.1557 H   0  0  0  0  0
   -2.5362   19.6896  -15.3271 H   0  0  0  0  0
   -5.5532   22.6464  -15.9712 H   0  0  0  0  0
   -1.1956   21.1475  -14.3882 H   0  0  0  0  0
   -6.2704   17.7396  -14.8671 H   0  0  0  0  0
   -2.5487   23.2808  -15.1054 H   0  0  0  0  0
   -3.1771   25.6546  -15.5880 H   0  0  0  0  0
   -3.5464   24.5774  -18.4263 H   0  0  0  0  0
   -1.9387   26.8145  -17.0991 H   0  0  0  0  0
   -0.9800   24.1740  -18.3038 H   0  0  0  0  0
    0.2688   26.6357  -17.0583 H   0  0  0  0  0
    0.6856   25.8017  -18.6184 H   0  0  0  0  0
   -5.2444   23.6365  -16.1016 H   0  0  0  0  0
   -4.3294   26.6549  -18.8895 H   0  0  0  0  0
   -0.9476   26.9676  -19.1803 H   0  0  0  0  0
   -4.3356   27.3114  -15.6543 H   0  0  0  0  0
    2.6735   25.3943  -19.3465 H   0  0  0  0  0
  1  2  1  0  0  0
  1  7  1  0  0  0
  1 11  1  0  0  0
  2  3  1  0  0  0
  2  8  1  0  0  0
  3  4  1  0  0  0
  3  9  1  0  0  0
  4  5  1  0  0  0
  4 10  1  0  0  0
  5  6  1  0  0  0
  5 11  1  0  0  0
  6 12  2  0  0  0
  6 13  1  0  0  0
  8 14  1  0  0  0
 10 18  1  0  0  0
 14 15  2  0  0  0
 14 16  1  0  0  0
 14 17  2  0  0  0
 18 19  1  0  0  0
 18 27  1  0  0  0
 19 20  1  0  0  0
 19 24  1  0  0  0
 20 21  1  0  0  0
 20 25  1  0  0  0
 21 22  1  0  0  0
 21 26  1  0  0  0
 22 23  1  0  0  0
 22 27  1  0  0  0
 23 28  1  0  0  0
 24 29  1  0  0  0
 26 37  1  0  0  0
 28 33  1  0  0  0
 29 30  2  0  0  0
 29 31  2  0  0  0
 29 32  1  0  0  0
 33 34  2  0  0  0
 33 35  1  0  0  0
 33 36  2  0  0  0
 37 38  1  0  0  0
 37 46  1  0  0  0
 38 39  1  0  0  0
 38 43  1  0  0  0
 39 40  1  0  0  0
 39 44  1  0  0  0
 40 41  1  0  0  0
 40 45  1  0  0  0
 41 42  1  0  0  0
 41 46  1  0  0  0
 42 47  1  0  0  0
 42 48  2  0  0  0
 43 49  1  0  0  0
 45 53  1  0  0  0
 49 50  2  0  0  0
 49 51  1  0  0  0
 49 52  2  0  0  0
 53 54  1  0  0  0
 53 62  1  0  0  0
 54 55  1  0  0  0
 54 59  1  0  0  0
 55 56  1  0  0  0
 55 60  1  0  0  0
 56 57  1  0  0  0
 56 61  1  0  0  0
 57 58  1  0  0  0
 57 62  1  0  0  0
 58 63  1  0  0  0
 59 64  1  0  0  0
 61 72  1  0  0  0
 63 68  1  0  0  0
 64 65  2  0  0  0
 64 66  2  0  0  0
 64 67  1  0  0  0
 68 69  2  0  0  0
 68 70  1  0  0  0
 68 71  2  0  0  0
 72 73  1  0  0  0
 72 81  1  0  0  0
 73 74  1  0  0  0
 73 78  1  0  0  0
 74 75  1  0  0  0
 74 79  1  0  0  0
 75 76  1  0  0  0
 75 80  1  0  0  0
 76 77  1  0  0  0
 76 81  1  0  0  0
 77 82  2  0  0  0
 77 83  1  0  0  0
 78 84  1  0  0  0
 80 88  1  0  0  0
 84 85  2  0  0  0
 84 86  1  0  0  0
 84 87  2  0  0  0
 88 89  1  0  0  0
 88 97  1  0  0  0
 89 90  1  0  0  0
 89 94  1  0  0  0
 90 91  1  0  0  0
 90 95  1  0  0  0
 91 92  1  0  0  0
 91 96  1  0  0  0
 92 93  1  0  0  0
 92 97  1  0  0  0
 93 98  1  0  0  0
 94 99  1  0  0  0
 98103  1  0  0  0
 99100  2  0  0  0
 99101  2  0  0  0
 99102  1  0  0  0
103104  2  0  0  0
103105  1  0  0  0
103106  2  0  0  0
  1107  1  0  0  0
  2108  1  0  0  0
  3109  1  0  0  0
  4110  1  0  0  0
  5111  1  0  0  0
  7112  1  0  0  0
  9113  1  0  0  0
 13114  1  0  0  0
 16115  1  0  0  0
 18116  1  0  0  0
 19117  1  0  0  0
 20118  1  0  0  0
 21119  1  0  0  0
 22120  1  0  0  0
 23121  1  0  0  0
 23122  1  0  0  0
 24123  1  0  0  0
 25124  1  0  0  0
 32125  1  0  0  0
 35126  1  0  0  0
 37127  1  0  0  0
 38128  1  0  0  0
 39129  1  0  0  0
 40130  1  0  0  0
 41131  1  0  0  0
 44132  1  0  0  0
 47133  1  0  0  0
 51134  1  0  0  0
 53135  1  0  0  0
 54136  1  0  0  0
 55137  1  0  0  0
 56138  1  0  0  0
 57139  1  0  0  0
 58140  1  0  0  0
 58141  1  0  0  0
 59142  1  0  0  0
 60143  1  0  0  0
 67144  1  0  0  0
 70145  1  0  0  0
 72146  1  0  0  0
 73147  1  0  0  0
 74148  1  0  0  0
 75149  1  0  0  0
 76150  1  0  0  0
 79151  1  0  0  0
 83152  1  0  0  0
 86153  1  0  0  0
 88154  1  0  0  0
 89155  1  0  0  0
 90156  1  0  0  0
 91157  1  0  0  0
 92158  1  0  0  0
 93159  1  0  0  0
 93160  1  0  0  0
 94161  1  0  0  0
 95162  1  0  0  0
 96163  1  0  0  0
102164  1  0  0  0
105165  1  0  0  0
M  END
$$$$
