3sna_ligand
  -I-interpret- 

 82 82  0  0  0  0  0  0  0  0999 V2000
   21.4660   10.7070   22.9990 C   0  0  0  0  0
   20.5050   11.0540   23.6850 O   0  0  0  0  0
   22.5050   11.7020   22.5310 C   0  0  0  0  0
   21.6380    9.4180   22.6660 N   0  0  0  0  0
   21.3180    8.9060   21.3260 C   0  0  0  0  0
   20.8280    7.4470   21.2800 C   0  0  0  0  0
   21.4600    6.5640   21.8750 O   0  0  0  0  0
   22.5170    9.0820   20.3940 C   0  0  0  0  0
   22.1210    9.6580   19.0710 C   0  0  0  0  0
   21.8720   10.8610   18.9480 O   0  0  0  0  0
   22.0360    8.8030   18.0700 N   0  0  0  0  0
   19.7170    7.2230   20.5570 N   0  0  0  0  0
   19.0130    5.9210   20.4270 C   0  0  0  0  0
   18.8320    5.1250   21.7540 C   0  0  0  0  0
   19.1890    5.6330   22.8270 O   0  0  0  0  0
   19.6410    5.0720   19.3160 C   0  0  0  0  0
   18.8400    3.9320   19.0820 O   0  0  0  0  0
   18.2500    3.9130   21.6720 N   0  0  0  0  0
   18.0230    2.9710   22.8290 C   0  0  0  0  0
   17.5400    1.5720   22.3520 C   0  0  0  0  0
   16.3250    1.3020   22.3120 O   0  0  0  0  0
   16.9940    3.5110   23.8590 C   0  0  0  0  0
   17.5890    4.2890   25.0040 C   0  0  0  0  0
   17.4510    5.6820   25.0610 C   0  0  0  0  0
   18.2450    3.6350   26.0440 C   0  0  0  0  0
   17.9940    6.4200   26.1190 C   0  0  0  0  0
   18.7910    4.3630   27.1210 C   0  0  0  0  0
   18.6650    5.7590   27.1570 C   0  0  0  0  0
   18.4770    0.6870   21.9990 N   0  0  0  0  0
   18.1160   -0.6510   21.5020 C   0  0  0  0  0
   17.6120   -1.5890   22.6120 C   0  0  0  0  0
   18.3930   -2.0740   23.4370 O   0  0  0  0  0
   19.2730   -1.2860   20.7110 C   0  0  0  0  0
   19.2330   -0.9460   19.3270 O   0  0  0  0  0
   14.9440   -3.5150   23.9570 C   0  0  0  0  0
   16.4530   -1.8300   23.0760 N   0  0  0  0  0
   14.3440   -3.9630   25.1760 O   0  0  0  0  0
   15.4150   -2.0680   24.0760 C   0  0  0  0  0
   14.2570   -1.0920   23.8480 C   0  0  0  0  0
   12.7910    0.6050   24.9490 C   0  0  0  0  0
   14.1680   -0.0160   24.9280 C   0  0  0  0  0
   12.1970    0.8160   23.9130 O   0  0  0  0  0
   12.2730    0.9110   26.1300 N   0  0  0  0  0
   22.0252   12.4655   21.9186 H   0  0  0  0  0
   22.9736   12.1703   23.3966 H   0  0  0  0  0
   23.2622   11.1847   21.9418 H   0  0  0  0  0
   22.0029    8.7724   23.3663 H   0  0  0  0  0
   20.4719    9.5050   20.9892 H   0  0  0  0  0
   22.9590    8.1011   20.2194 H   0  0  0  0  0
   23.2183    9.7688   20.8679 H   0  0  0  0  0
   21.7542    9.1272   17.1449 H   0  0  0  0  0
   22.2521    7.8177   18.2212 H   0  0  0  0  0
   19.3224    8.0172   20.0530 H   0  0  0  0  0
   17.9914    6.1720   20.1415 H   0  0  0  0  0
   20.6393    4.7575   19.6204 H   0  0  0  0  0
   19.7073    5.6623   18.4021 H   0  0  0  0  0
   19.2352    3.4020   18.3860 H   0  0  0  0  0
   17.9366    3.6063   20.7511 H   0  0  0  0  0
   18.9955    2.8856   23.3137 H   0  0  0  0  0
   16.4969    2.6431   24.2924 H   0  0  0  0  0
   16.3383    4.1951   23.3203 H   0  0  0  0  0
   16.9116    6.1998   24.2679 H   0  0  0  0  0
   18.3373    2.5491   26.0252 H   0  0  0  0  0
   17.8954    7.5054   26.1357 H   0  0  0  0  0
   19.3105    3.8411   27.9247 H   0  0  0  0  0
   19.0861    6.3265   27.9868 H   0  0  0  0  0
   19.4613    0.9434   22.0754 H   0  0  0  0  0
   17.2780   -0.5087   20.8196 H   0  0  0  0  0
   19.1862   -2.3692   20.7958 H   0  0  0  0  0
   20.2100   -0.9125   21.1240 H   0  0  0  0  0
   19.9704   -1.3624   18.8749 H   0  0  0  0  0
   14.2027   -3.5762   23.1602 H   0  0  0  0  0
   15.8061   -4.1458   23.7400 H   0  0  0  0  0
   15.9113   -1.9018   22.2147 H   0  0  0  0  0
   14.0573   -4.8735   25.0745 H   0  0  0  0  0
   15.8054   -1.9051   25.0806 H   0  0  0  0  0
   13.3294   -1.6640   23.8696 H   0  0  0  0  0
   14.4240   -0.5934   22.8932 H   0  0  0  0  0
   14.9021    0.7607   24.7136 H   0  0  0  0  0
   14.3639   -0.4727   25.8981 H   0  0  0  0  0
   11.3480    1.3373   26.1862 H   0  0  0  0  0
   12.7993    0.7202   26.9826 H   0  0  0  0  0
  1  2  2  0  0  0
  1  3  1  0  0  0
  4  1  1  0  0  0
  5  4  1  0  0  0
  6  5  1  0  0  0
  5  8  1  0  0  0
  6  7  2  0  0  0
 12  6  1  0  0  0
  8  9  1  0  0  0
  9 10  2  0  0  0
  9 11  1  0  0  0
 13 12  1  0  0  0
 14 13  1  0  0  0
 13 16  1  0  0  0
 14 15  2  0  0  0
 18 14  1  0  0  0
 16 17  1  0  0  0
 19 18  1  0  0  0
 20 19  1  0  0  0
 19 22  1  0  0  0
 20 21  2  0  0  0
 29 20  1  0  0  0
 22 23  1  0  0  0
 23 24  4  0  0  0
 23 25  4  0  0  0
 24 26  4  0  0  0
 25 27  4  0  0  0
 26 28  4  0  0  0
 27 28  4  0  0  0
 30 29  1  0  0  0
 31 30  1  0  0  0
 30 33  1  0  0  0
 31 32  2  0  0  0
 36 31  1  0  0  0
 33 34  1  0  0  0
 35 37  1  0  0  0
 38 35  1  0  0  0
 36 38  1  0  0  0
 38 39  1  0  0  0
 39 41  1  0  0  0
 41 40  1  0  0  0
 40 42  2  0  0  0
 40 43  1  0  0  0
  3 44  1  0  0  0
  3 45  1  0  0  0
  3 46  1  0  0  0
  4 47  1  0  0  0
  5 48  1  0  0  0
  8 49  1  0  0  0
  8 50  1  0  0  0
 11 51  1  0  0  0
 11 52  1  0  0  0
 12 53  1  0  0  0
 13 54  1  0  0  0
 16 55  1  0  0  0
 16 56  1  0  0  0
 17 57  1  0  0  0
 18 58  1  0  0  0
 19 59  1  0  0  0
 22 60  1  0  0  0
 22 61  1  0  0  0
 24 62  1  0  0  0
 25 63  1  0  0  0
 26 64  1  0  0  0
 27 65  1  0  0  0
 28 66  1  0  0  0
 29 67  1  0  0  0
 30 68  1  0  0  0
 33 69  1  0  0  0
 33 70  1  0  0  0
 34 71  1  0  0  0
 35 72  1  0  0  0
 35 73  1  0  0  0
 36 74  1  0  0  0
 37 75  1  0  0  0
 38 76  1  0  0  0
 39 77  1  0  0  0
 39 78  1  0  0  0
 41 79  1  0  0  0
 41 80  1  0  0  0
 43 81  1  0  0  0
 43 82  1  0  0  0
M  END
$$$$
