6n7b_ligand
  -I-interpret- 

 41 44  0  0  0  0  0  0  0  0999 V2000
  -22.1880    3.4350   -1.4600 C   0  0  0  0  0
  -29.2730    5.6240   -1.2670 C   0  0  0  0  0
  -21.1450    4.0980   -0.8090 C   0  0  0  0  0
  -20.5010    5.1430   -1.4360 C   0  0  0  0  0
  -26.4710    2.6010   -0.3550 C   0  0  0  0  0
  -20.8800    5.5830   -2.6930 C   0  0  0  0  0
  -21.9270    4.9550   -3.3410 C   0  0  0  0  0
  -22.5800    3.8850   -2.7360 C   0  0  0  0  0
  -24.0640    3.6250   -4.6050 C   0  0  0  0  0
  -27.4150    3.7300   -0.6340 C   0  0  0  0  0
  -28.7720    3.5980   -0.3330 C   0  0  0  0  0
  -21.9430    1.2070   -0.5650 N   0  0  0  0  0
  -25.1520    2.8130   -0.6820 N   0  0  0  0  0
  -22.7520    2.2290   -0.8270 C   0  0  0  0  0
  -29.6880    4.5270   -0.6250 N   0  0  0  0  0
  -26.8750    1.5610    0.1470 O   0  0  0  0  0
  -27.0360    4.9100   -1.3040 C   0  0  0  0  0
  -25.8240    5.3460   -1.7200 N   0  0  0  0  0
  -25.9090    6.5640   -2.3270 N   0  0  0  0  0
  -27.1840    6.9010   -2.2990 C   0  0  0  0  0
  -27.9690    5.9120   -1.6540 C   0  0  0  0  0
  -24.0830    1.8990   -0.5800 C   0  0  0  0  0
  -24.0720    0.5870   -0.1930 C   0  0  0  0  0
  -22.7840    0.2150   -0.1830 N   0  0  0  0  0
  -22.2340   -1.0730    0.2170 C   0  0  0  0  0
  -23.6510    3.2390   -3.2940 O   0  0  0  0  0
  -19.1370    5.8850   -0.6500 Cl  0  0  0  0  0
  -30.0327    6.3665   -1.5113 H   0  0  0  0  0
  -20.8414    3.7900    0.1915 H   0  0  0  0  0
  -20.3586    6.4151   -3.1661 H   0  0  0  0  0
  -22.2416    5.2980   -4.3267 H   0  0  0  0  0
  -24.3413    4.6791   -4.6016 H   0  0  0  0  0
  -23.2434    3.4661   -5.3046 H   0  0  0  0  0
  -24.9216    3.0234   -4.9063 H   0  0  0  0  0
  -29.1026    2.6878    0.1674 H   0  0  0  0  0
  -24.9200    3.7395   -1.0401 H   0  0  0  0  0
  -27.5839    7.8239   -2.7190 H   0  0  0  0  0
  -24.9349   -0.0304    0.0565 H   0  0  0  0  0
  -21.6714   -1.5000   -0.6132 H   0  0  0  0  0
  -21.5729   -0.9344    1.0725 H   0  0  0  0  0
  -23.0476   -1.7450    0.4900 H   0  0  0  0  0
  1  3  4  0  0  0
  1  8  4  0  0  0
 14  1  1  0  0  0
 15  2  4  0  0  0
  2 21  4  0  0  0
  3  4  4  0  0  0
  4  6  4  0  0  0
  4 27  1  0  0  0
  5 10  1  0  0  0
 13  5  1  0  0  0
  5 16  2  0  0  0
  7  6  4  0  0  0
  8  7  4  0  0  0
  8 26  1  0  0  0
 26  9  1  0  0  0
 10 11  4  0  0  0
 10 17  4  0  0  0
 11 15  4  0  0  0
 14 12  4  0  0  0
 12 24  4  0  0  0
 22 13  1  0  0  0
 14 22  4  0  0  0
 17 18  4  0  0  0
 17 21  4  0  0  0
 18 19  4  0  0  0
 19 20  4  0  0  0
 20 21  4  0  0  0
 22 23  4  0  0  0
 23 24  4  0  0  0
 24 25  1  0  0  0
  2 28  1  0  0  0
  3 29  1  0  0  0
  6 30  1  0  0  0
  7 31  1  0  0  0
  9 32  1  0  0  0
  9 33  1  0  0  0
  9 34  1  0  0  0
 11 35  1  0  0  0
 13 36  1  0  0  0
 20 37  1  0  0  0
 23 38  1  0  0  0
 25 39  1  0  0  0
 25 40  1  0  0  0
 25 41  1  0  0  0
M  END
$$$$
