1o3p_ligand
  -I-interpret- 

 44 47  0  0  0  0  0  0  0  0999 V2000
    8.7880    1.4610   24.6060 C   0  0  0  0  0
    9.5720    1.3020   23.4300 C   0  0  0  0  0
   10.2020    2.3670   22.8100 C   0  0  0  0  0
    9.9720    3.6110   23.3310 C   0  0  0  0  0
    9.2090    3.8120   24.4350 C   0  0  0  0  0
    8.5920    2.7660   25.0710 C   0  0  0  0  0
    8.1880    0.3730   25.2350 C   0  0  0  0  0
    7.7520    0.4860   26.4730 N   0  0  0  0  0
    8.0910   -0.7720   24.6100 N   0  0  0  0  0
   10.3730    4.7820   22.9850 N   0  0  0  0  0
    9.1170    5.0700   24.7840 N   0  0  0  0  0
    9.8770    5.6220   23.8530 C   0  0  0  0  0
   10.1130    6.9650   23.7750 C   0  0  0  0  0
    9.7870    7.8200   24.8490 C   0  0  0  0  0
   10.0400    9.1930   24.7850 C   0  0  0  0  0
   10.6290    9.7250   23.6570 C   0  0  0  0  0
   10.9610    8.8870   22.5700 C   0  0  0  0  0
   11.5570    9.3300   21.3960 O   0  0  0  0  0
   10.7210    7.5300   22.6460 C   0  0  0  0  0
   11.1000    6.7680   21.5450 O   0  0  0  0  0
   11.8090   11.0280   19.7310 C   0  0  0  0  0
   11.8600   10.7160   21.2250 C   0  0  0  0  0
   13.2910   10.8790   21.6920 C   0  0  0  0  0
   14.1130   11.3710   20.5140 C   0  0  0  0  0
   13.2440   11.2120   19.2770 C   0  0  0  0  0
    9.6806    0.3056   23.0016 H   0  0  0  0  0
   10.8513    2.2214   21.9467 H   0  0  0  0  0
    7.9523    2.9499   25.9341 H   0  0  0  0  0
    7.3390   -0.3191   26.9437 H   0  0  0  0  0
    7.8274    1.3786   26.9608 H   0  0  0  0  0
    7.6779   -1.5768   25.0812 H   0  0  0  0  0
    9.3292    7.4018   25.7455 H   0  0  0  0  0
    9.7735    9.8393   25.6213 H   0  0  0  0  0
   10.8384   10.7934   23.6046 H   0  0  0  0  0
   11.4957    7.3393   20.8828 H   0  0  0  0  0
   11.3275   10.2195   19.1809 H   0  0  0  0  0
   11.2225   11.9269   19.5411 H   0  0  0  0  0
   11.1710   11.3639   21.7668 H   0  0  0  0  0
   13.6809    9.9274   22.0533 H   0  0  0  0  0
   13.3412   11.5947   22.5126 H   0  0  0  0  0
   15.0346   10.7971   20.4172 H   0  0  0  0  0
   14.4046   12.4121   20.6522 H   0  0  0  0  0
   13.5689   10.3477   18.6978 H   0  0  0  0  0
   13.3275   12.0946   18.6428 H   0  0  0  0  0
  1  2  4  0  0  0
  1  6  4  0  0  0
  1  7  1  0  0  0
  2  3  4  0  0  0
  3  4  4  0  0  0
  4  5  4  0  0  0
  4 10  4  0  0  0
  5  6  4  0  0  0
  5 11  4  0  0  0
  7  8  1  0  0  0
  7  9  2  0  0  0
 10 12  4  0  0  0
 12 11  4  0  0  0
 12 13  1  0  0  0
 13 14  4  0  0  0
 13 19  4  0  0  0
 14 15  4  0  0  0
 15 16  4  0  0  0
 16 17  4  0  0  0
 17 18  1  0  0  0
 17 19  4  0  0  0
 18 22  1  0  0  0
 19 20  1  0  0  0
 22 23  1  0  0  0
 23 24  1  0  0  0
 24 25  1  0  0  0
 25 21  1  0  0  0
 22 21  1  0  0  0
  2 26  1  0  0  0
  3 27  1  0  0  0
  6 28  1  0  0  0
  8 29  1  0  0  0
  8 30  1  0  0  0
  9 31  1  0  0  0
 14 32  1  0  0  0
 15 33  1  0  0  0
 16 34  1  0  0  0
 20 35  1  0  0  0
 21 36  1  0  0  0
 21 37  1  0  0  0
 22 38  1  0  0  0
 23 39  1  0  0  0
 23 40  1  0  0  0
 24 41  1  0  0  0
 24 42  1  0  0  0
 25 43  1  0  0  0
 25 44  1  0  0  0
M  END
$$$$
