5bmm_ligand
  -I-interpret- 

 95 98  0  0  0  0  0  0  0  0999 V2000
  -17.8220   -2.7150   -2.5840 C   0  0  0  0  0
  -18.5000   -1.8800   -3.0910 O   0  0  0  0  0
  -18.4740   -3.9300   -1.9730 C   0  0  0  0  0
  -19.8760   -3.9520   -1.7740 C   0  0  0  0  0
  -20.5570   -5.2360   -1.2130 C   0  0  0  0  0
  -20.3100   -5.6100   -0.0860 O   0  0  0  0  0
  -21.4950   -5.9920   -2.0460 N   0  0  0  0  0
  -22.1080   -7.1620   -1.5370 C   0  0  0  0  0
  -21.3870   -8.3800   -2.1150 C   0  0  0  0  0
  -20.8490   -9.1790   -1.3730 O   0  0  0  0  0
  -23.5800   -7.1850   -1.9340 C   0  0  0  0  0
  -24.4840   -7.8700   -0.8540 C   0  0  0  0  0
  -25.9540   -7.6380   -1.2020 C   0  0  0  0  0
  -26.3900   -6.1970   -0.9710 C   0  0  0  0  0
  -26.0780   -5.7340    0.4430 C   0  0  0  0  0
  -24.5990   -5.9180    0.7790 C   0  0  0  0  0
  -24.1240   -7.3430    0.5330 C   0  0  0  0  0
  -21.3400   -8.5780   -3.5550 N   0  0  0  0  0
  -20.6570   -9.7190   -4.1050 C   0  0  0  0  0
  -19.6370   -9.2210   -5.1550 C   0  0  0  0  0
  -18.6910   -9.9290   -5.4960 O   0  0  0  0  0
  -21.6330  -10.6470   -4.7390 C   0  0  0  0  0
  -22.6760  -11.1480   -3.7300 C   0  0  0  0  0
  -22.4010  -12.2630   -2.9550 C   0  0  0  0  0
  -23.9020  -10.4790   -3.5940 C   0  0  0  0  0
  -23.3480  -12.7230   -2.0350 C   0  0  0  0  0
  -24.8420  -10.9370   -2.6800 C   0  0  0  0  0
  -24.5640  -12.0620   -1.8990 C   0  0  0  0  0
  -25.4750  -12.5060   -1.0120 F   0  0  0  0  0
  -19.8180   -7.8690   -5.7410 N   0  0  0  0  0
  -18.9060   -7.3620   -6.6960 C   0  0  0  0  0
  -18.1310   -6.2240   -6.0210 C   0  0  0  0  0
  -18.7410   -5.3390   -5.4240 O   0  0  0  0  0
  -19.6450   -6.8050   -7.8880 C   0  0  0  0  0
  -20.3230   -7.8790   -8.7850 C   0  0  0  0  0
  -21.6030   -8.3520   -8.4720 C   0  0  0  0  0
  -19.6630   -8.3620   -9.9010 C   0  0  0  0  0
  -22.2090   -9.3070   -9.2800 C   0  0  0  0  0
  -20.2710   -9.3190  -10.7100 C   0  0  0  0  0
  -21.5490   -9.7900  -10.3950 C   0  0  0  0  0
  -22.1710  -10.7750  -11.2280 N   0  0  0  0  0
  -21.6880  -11.0460  -12.3300 O   0  0  0  0  0
  -23.1740  -11.3390  -10.8520 O   0  0  0  0  0
  -16.4060   -2.6630   -2.7320 N   0  0  0  0  0
  -15.5830   -3.6540   -2.1340 C   0  0  0  0  0
  -14.8520   -4.4090   -3.2170 C   0  0  0  0  0
  -15.7530   -5.4270   -3.9360 C   0  0  0  0  0
  -15.9620   -5.1000   -5.4270 C   0  0  0  0  0
  -16.6730   -6.1870   -6.0770 N   0  0  0  0  0
  -14.5660   -2.9990   -1.2130 C   0  0  0  0  0
  -13.3670   -2.8830   -1.5800 O   0  0  0  0  0
  -14.9220   -2.5730   -0.0760 O   0  0  0  0  0
  -17.8677   -4.7889   -1.6853 H   0  0  0  0  0
  -20.4763   -3.0740   -2.0124 H   0  0  0  0  0
  -21.7064   -5.6756   -2.9924 H   0  0  0  0  0
  -22.0418   -7.1781   -0.4491 H   0  0  0  0  0
  -23.6695   -7.7564   -2.8579 H   0  0  0  0  0
  -23.9136   -6.1533   -2.0455 H   0  0  0  0  0
  -24.3125   -8.9464   -0.8438 H   0  0  0  0  0
  -26.5564   -8.2782   -0.5575 H   0  0  0  0  0
  -26.0880   -7.8636   -2.2600 H   0  0  0  0  0
  -27.4678   -6.1362   -1.1220 H   0  0  0  0  0
  -25.8479   -5.5585   -1.6686 H   0  0  0  0  0
  -26.6671   -6.3306    1.1395 H   0  0  0  0  0
  -26.3204   -4.6741    0.5206 H   0  0  0  0  0
  -24.4620   -5.6936    1.8368 H   0  0  0  0  0
  -24.0210   -5.2532    0.1371 H   0  0  0  0  0
  -23.0370   -7.3461    0.6142 H   0  0  0  0  0
  -24.6138   -7.9842    1.2659 H   0  0  0  0  0
  -21.7919   -7.9070   -4.1762 H   0  0  0  0  0
  -20.1402  -10.2587   -3.3114 H   0  0  0  0  0
  -21.0877  -11.5078   -5.1260 H   0  0  0  0  0
  -22.1525  -10.1100   -5.5327 H   0  0  0  0  0
  -21.4479  -12.7808   -3.0623 H   0  0  0  0  0
  -24.1161   -9.6017   -4.2044 H   0  0  0  0  0
  -23.1332  -13.5999   -1.4242 H   0  0  0  0  0
  -25.7953  -10.4197   -2.5720 H   0  0  0  0  0
  -20.6114   -7.2975   -5.4508 H   0  0  0  0  0
  -18.2426   -8.1559   -7.0392 H   0  0  0  0  0
  -18.9104   -6.2898   -8.5068 H   0  0  0  0  0
  -20.4381   -6.1650   -7.5014 H   0  0  0  0  0
  -22.1247   -7.9711   -7.5940 H   0  0  0  0  0
  -18.6671   -7.9935  -10.1471 H   0  0  0  0  0
  -23.2051   -9.6754   -9.0345 H   0  0  0  0  0
  -19.7505   -9.7006  -11.5884 H   0  0  0  0  0
  -15.9804   -1.9089   -3.2711 H   0  0  0  0  0
  -16.2060   -4.3361   -1.5554 H   0  0  0  0  0
  -14.0321   -4.9556   -2.7511 H   0  0  0  0  0
  -14.5053   -3.6862   -3.9555 H   0  0  0  0  0
  -16.7293   -5.4059   -3.4518 H   0  0  0  0  0
  -15.2674   -6.4009   -3.8749 H   0  0  0  0  0
  -14.9915   -4.9685   -5.9055 H   0  0  0  0  0
  -16.5468   -4.1844   -5.5155 H   0  0  0  0  0
  -16.1581   -6.9178   -6.5681 H   0  0  0  0  0
  -15.8598   -2.7373    0.0468 H   0  0  0  0  0
  1  2  2  0  0  0
  1  3  1  0  0  0
  1 44  1  0  0  0
  3  4  2  0  0  0
  4  5  1  0  0  0
  5  6  2  0  0  0
  5  7  1  0  0  0
  7  8  1  0  0  0
  8  9  1  0  0  0
  8 11  1  0  0  0
  9 10  2  0  0  0
  9 18  1  0  0  0
 11 12  1  0  0  0
 12 13  1  0  0  0
 12 17  1  0  0  0
 13 14  1  0  0  0
 14 15  1  0  0  0
 15 16  1  0  0  0
 16 17  1  0  0  0
 18 19  1  0  0  0
 19 20  1  0  0  0
 19 22  1  0  0  0
 20 21  2  0  0  0
 20 30  1  0  0  0
 22 23  1  0  0  0
 23 24  4  0  0  0
 23 25  4  0  0  0
 24 26  4  0  0  0
 25 27  4  0  0  0
 26 28  4  0  0  0
 27 28  4  0  0  0
 28 29  1  0  0  0
 30 31  1  0  0  0
 31 32  1  0  0  0
 31 34  1  0  0  0
 32 33  2  0  0  0
 32 49  1  0  0  0
 34 35  1  0  0  0
 35 36  4  0  0  0
 35 37  4  0  0  0
 36 38  4  0  0  0
 37 39  4  0  0  0
 38 40  4  0  0  0
 39 40  4  0  0  0
 40 41  1  0  0  0
 41 42  2  0  0  0
 41 43  2  0  0  0
 44 45  1  0  0  0
 45 46  1  0  0  0
 45 50  1  0  0  0
 46 47  1  0  0  0
 47 48  1  0  0  0
 48 49  1  0  0  0
 50 51  2  0  0  0
 50 52  1  0  0  0
  3 53  1  0  0  0
  4 54  1  0  0  0
  7 55  1  0  0  0
  8 56  1  0  0  0
 11 57  1  0  0  0
 11 58  1  0  0  0
 12 59  1  0  0  0
 13 60  1  0  0  0
 13 61  1  0  0  0
 14 62  1  0  0  0
 14 63  1  0  0  0
 15 64  1  0  0  0
 15 65  1  0  0  0
 16 66  1  0  0  0
 16 67  1  0  0  0
 17 68  1  0  0  0
 17 69  1  0  0  0
 18 70  1  0  0  0
 19 71  1  0  0  0
 22 72  1  0  0  0
 22 73  1  0  0  0
 24 74  1  0  0  0
 25 75  1  0  0  0
 26 76  1  0  0  0
 27 77  1  0  0  0
 30 78  1  0  0  0
 31 79  1  0  0  0
 34 80  1  0  0  0
 34 81  1  0  0  0
 36 82  1  0  0  0
 37 83  1  0  0  0
 38 84  1  0  0  0
 39 85  1  0  0  0
 44 86  1  0  0  0
 45 87  1  0  0  0
 46 88  1  0  0  0
 46 89  1  0  0  0
 47 90  1  0  0  0
 47 91  1  0  0  0
 48 92  1  0  0  0
 48 93  1  0  0  0
 49 94  1  0  0  0
 52 95  1  0  0  0
M  END
$$$$
