1o44_ligand
  -I-interpret- 

 81 84  0  0  0  0  0  0  0  0999 V2000
   19.2380   25.6410   20.0780 C   0  0  0  0  0
   17.8930   25.3380   19.7920 C   0  0  0  0  0
   17.1740   26.1970   18.9590 C   0  0  0  0  0
   17.7800   27.3790   18.5010 C   0  0  0  0  0
   19.1470   27.7350   18.8420 C   0  0  0  0  0
   19.9080   26.8100   19.5980 C   0  0  0  0  0
   20.0130   24.7630   21.0070 C   0  0  0  0  0
   19.6820   25.2310   22.4180 C   0  0  0  0  0
   20.4390   24.3170   23.3950 C   0  0  0  0  0
   19.6870   23.2400   23.7510 N   0  0  0  0  0
   21.6050   24.5510   23.7760 O   0  0  0  0  0
   20.1280   26.6030   22.6040 N   0  0  0  0  0
   19.3270   27.5010   23.1640 C   0  0  0  0  0
   18.2310   27.2440   23.6430 O   0  0  0  0  0
   19.8660   28.9370   23.0530 C   0  0  0  0  0
   20.2770   22.2460   24.6060 C   0  0  0  0  0
   21.3420   21.4860   23.7860 C   0  0  0  0  0
   22.1520   20.6670   24.5570 N   0  0  0  0  0
   21.4010   21.6200   22.5460 O   0  0  0  0  0
   21.9980   20.4790   26.0080 C   0  0  0  0  0
   20.7350   19.6590   26.1950 C   0  0  0  0  0
   23.1310   19.8210   23.7850 C   0  0  0  0  0
   22.5260   18.4860   23.3530 C   0  0  0  0  0
   19.5230   20.5420   26.3410 C   0  0  0  0  0
   19.1810   21.2930   25.0630 C   0  0  0  0  0
   21.3440   18.4320   22.5190 C   0  0  0  0  0
   20.7050   17.1900   22.2620 C   0  0  0  0  0
   21.3100   16.0440   22.8510 C   0  0  0  0  0
   22.4750   16.0610   23.6400 C   0  0  0  0  0
   23.0840   17.2980   23.9020 C   0  0  0  0  0
   20.6490   14.7260   22.6150 C   0  0  0  0  0
   21.4560   13.5420   22.4670 C   0  0  0  0  0
   20.7990   12.3110   22.1360 C   0  0  0  0  0
   19.4130   12.2830   21.9750 C   0  0  0  0  0
   18.6160   13.4230   22.1370 C   0  0  0  0  0
   19.2250   14.6580   22.4800 C   0  0  0  0  0
   19.8350   29.0420   18.4520 C   0  0  0  0  0
   19.5340   30.2120   19.1050 O   0  0  0  0  0
   20.6260   29.0430   17.5730 O   0  0  0  0  0
   16.9050   28.2340   17.6280 C   0  0  0  0  0
   17.2300   28.4950   16.1580 C   0  0  0  0  0
   17.3650   27.3560   15.5190 O   0  0  0  0  0
   17.4200   29.5550   15.6680 O   0  0  0  0  0
   15.4710   28.5710   17.9940 C   0  0  0  0  0
   14.7690   28.7320   17.0670 O   0  0  0  0  0
   15.1960   28.8440   19.2450 O   0  0  0  0  0
   17.4222   24.4496   20.2130 H   0  0  0  0  0
   16.1526   25.9532   18.6668 H   0  0  0  0  0
   20.9640   26.9825   19.8061 H   0  0  0  0  0
   21.0830   24.8354   20.8120 H   0  0  0  0  0
   19.7450   23.7154   20.8696 H   0  0  0  0  0
   18.6066   25.1873   22.5905 H   0  0  0  0  0
   18.7277   23.1404   23.4191 H   0  0  0  0  0
   21.0629   26.8769   22.3019 H   0  0  0  0  0
   19.1912   29.5303   22.4359 H   0  0  0  0  0
   19.9318   29.3770   24.0481 H   0  0  0  0  0
   20.8557   28.9180   22.5966 H   0  0  0  0  0
   20.7438   22.6983   25.4810 H   0  0  0  0  0
   21.9255   21.4367   26.5235 H   0  0  0  0  0
   22.8636   19.9711   26.4332 H   0  0  0  0  0
   20.8403   19.0629   27.1015 H   0  0  0  0  0
   20.5993   19.0272   25.3172 H   0  0  0  0  0
   23.9833   19.6133   24.4320 H   0  0  0  0  0
   23.4185   20.3690   22.8877 H   0  0  0  0  0
   19.7396   21.2801   27.1133 H   0  0  0  0  0
   18.6746   19.9046   26.5900 H   0  0  0  0  0
   19.0417   20.5525   24.2754 H   0  0  0  0  0
   18.2906   21.8894   25.2621 H   0  0  0  0  0
   20.9427   19.3485   22.0864 H   0  0  0  0  0
   19.8055   17.1186   21.6506 H   0  0  0  0  0
   22.8939   15.1367   24.0377 H   0  0  0  0  0
   23.9789   17.3482   24.5222 H   0  0  0  0  0
   22.5368   13.5807   22.6029 H   0  0  0  0  0
   21.3815   11.3983   22.0103 H   0  0  0  0  0
   18.9335   11.3397   21.7137 H   0  0  0  0  0
   17.5363   13.3622   22.0007 H   0  0  0  0  0
   18.6144   15.5468   22.6393 H   0  0  0  0  0
   18.8794   30.0382   19.7853 H   0  0  0  0  0
   17.5093   28.9439   18.1928 H   0  0  0  0  0
   17.1596   26.6306   16.1134 H   0  0  0  0  0
   15.9487   28.6136   19.7946 H   0  0  0  0  0
  1  2  4  0  0  0
  1  6  4  0  0  0
  1  7  1  0  0  0
  2  3  4  0  0  0
  3  4  4  0  0  0
  4  5  4  0  0  0
  4 40  1  0  0  0
  5  6  4  0  0  0
  5 37  1  0  0  0
  7  8  1  0  0  0
  8  9  1  0  0  0
  8 12  1  0  0  0
  9 10  1  0  0  0
  9 11  2  0  0  0
 10 16  1  0  0  0
 12 13  1  0  0  0
 13 14  2  0  0  0
 13 15  1  0  0  0
 16 17  1  0  0  0
 16 25  1  0  0  0
 17 18  1  0  0  0
 17 19  2  0  0  0
 18 20  1  0  0  0
 18 22  1  0  0  0
 20 21  1  0  0  0
 21 24  1  0  0  0
 22 23  1  0  0  0
 23 26  4  0  0  0
 23 30  4  0  0  0
 24 25  1  0  0  0
 26 27  4  0  0  0
 27 28  4  0  0  0
 28 29  4  0  0  0
 28 31  1  0  0  0
 29 30  4  0  0  0
 31 32  4  0  0  0
 31 36  4  0  0  0
 32 33  4  0  0  0
 33 34  4  0  0  0
 34 35  4  0  0  0
 35 36  4  0  0  0
 37 38  1  0  0  0
 37 39  2  0  0  0
 40 41  1  0  0  0
 40 44  1  0  0  0
 41 42  1  0  0  0
 41 43  2  0  0  0
 44 45  2  0  0  0
 44 46  1  0  0  0
  2 47  1  0  0  0
  3 48  1  0  0  0
  6 49  1  0  0  0
  7 50  1  0  0  0
  7 51  1  0  0  0
  8 52  1  0  0  0
 10 53  1  0  0  0
 12 54  1  0  0  0
 15 55  1  0  0  0
 15 56  1  0  0  0
 15 57  1  0  0  0
 16 58  1  0  0  0
 20 59  1  0  0  0
 20 60  1  0  0  0
 21 61  1  0  0  0
 21 62  1  0  0  0
 22 63  1  0  0  0
 22 64  1  0  0  0
 24 65  1  0  0  0
 24 66  1  0  0  0
 25 67  1  0  0  0
 25 68  1  0  0  0
 26 69  1  0  0  0
 27 70  1  0  0  0
 29 71  1  0  0  0
 30 72  1  0  0  0
 32 73  1  0  0  0
 33 74  1  0  0  0
 34 75  1  0  0  0
 35 76  1  0  0  0
 36 77  1  0  0  0
 38 78  1  0  0  0
 40 79  1  0  0  0
 42 80  1  0  0  0
 46 81  1  0  0  0
M  END
$$$$
