5sxm_ligand
  -I-interpret- 

109109  0  0  0  0  0  0  0  0999 V2000
   35.1130  -20.0590   23.5580 C   0  0  0  0  0
   35.1360  -21.1460   22.9820 O   0  0  0  0  0
   35.3970  -18.7680   22.8480 C   0  0  0  0  0
   34.5300  -19.9310   24.7470 N   0  0  0  0  0
   34.3060  -21.0250   25.6900 C   0  0  0  0  0
   33.3510  -22.0840   25.1370 C   0  0  0  0  0
   33.4750  -23.2630   25.4570 O   0  0  0  0  0
   33.7890  -20.4850   27.0140 C   0  0  0  0  0
   32.4060  -21.6620   24.3020 N   0  0  0  0  0
   31.4170  -22.5860   23.7510 C   0  0  0  0  0
   32.0780  -23.6620   22.8970 C   0  0  0  0  0
   31.5740  -24.7820   22.7920 O   0  0  0  0  0
   30.3520  -21.8330   22.9380 C   0  0  0  0  0
   29.1730  -22.7090   22.4960 C   0  0  0  0  0
   28.1640  -21.9270   21.6550 C   0  0  0  0  0
   27.5850  -20.8090   22.3930 N   0  0  0  0  0
   26.4310  -20.8660   23.0520 C   0  0  0  0  0
   25.7180  -21.9860   23.0540 N   0  0  0  0  0
   25.9830  -19.7990   23.7020 N   0  0  0  0  0
   33.2190  -23.3180   22.3080 N   0  0  0  0  0
   33.9440  -24.2340   21.4370 C   0  0  0  0  0
   34.8480  -25.1900   22.2170 C   0  0  0  0  0
   35.5710  -25.9900   21.6260 O   0  0  0  0  0
   34.7800  -23.4650   20.3910 C   0  0  0  0  0
   35.8290  -22.7400   21.0460 O   0  0  0  0  0
   33.8970  -22.4850   19.6310 C   0  0  0  0  0
   34.8010  -25.1040   23.5430 N   0  0  0  0  0
   35.5670  -26.0030   24.4040 C   0  0  0  0  0
   34.6300  -26.7880   25.3170 C   0  0  0  0  0
   33.5120  -26.3510   25.5960 O   0  0  0  0  0
   36.5710  -25.2160   25.2530 C   0  0  0  0  0
   37.6600  -24.5090   24.4590 C   0  0  0  0  0
   38.6940  -25.4650   23.8950 C   0  0  0  0  0
   38.9490  -26.5110   24.5280 O   0  0  0  0  0
   39.2520  -25.1730   22.8150 O   0  0  0  0  0
   35.0910  -27.9430   25.7870 N   0  0  0  0  0
   34.3090  -28.7500   26.7180 C   0  0  0  0  0
   34.5290  -28.2910   28.1540 C   0  0  0  0  0
   35.6650  -28.2350   28.6250 O   0  0  0  0  0
   34.6780  -30.2440   26.6330 C   0  0  0  0  0
   33.7640  -31.0660   27.5380 C   0  0  0  0  0
   34.5960  -30.7340   25.2010 C   0  0  0  0  0
   33.4380  -27.9640   28.8430 N   0  0  0  0  0
   33.4900  -27.6030   30.2550 C   0  0  0  0  0
   33.6820  -28.8570   31.1010 C   0  0  0  0  0
   32.8560  -29.7690   31.0710 O   0  0  0  0  0
   32.2060  -26.8670   30.6580 C   0  0  0  0  0
   32.0620  -26.5670   32.1380 C   0  0  0  0  0
   33.0130  -25.8140   32.8160 C   0  0  0  0  0
   30.9520  -27.0080   32.8470 C   0  0  0  0  0
   32.8740  -25.5320   34.1630 C   0  0  0  0  0
   30.8050  -26.7310   34.1950 C   0  0  0  0  0
   31.7680  -25.9930   34.8480 C   0  0  0  0  0
   31.6230  -25.7150   36.1890 O   0  0  0  0  0
   34.7850  -28.9050   31.8430 N   0  0  0  0  0
   36.4036  -18.7980   22.4309 H   0  0  0  0  0
   34.6734  -18.6299   22.0446 H   0  0  0  0  0
   35.3195  -17.9416   23.5545 H   0  0  0  0  0
   34.2159  -19.0000   25.0209 H   0  0  0  0  0
   35.2675  -21.5125   25.8512 H   0  0  0  0  0
   32.8077  -20.0350   26.8631 H   0  0  0  0  0
   33.7092  -21.3015   27.7317 H   0  0  0  0  0
   34.4807  -19.7327   27.3931 H   0  0  0  0  0
   32.3709  -20.6764   24.0416 H   0  0  0  0  0
   30.9248  -23.0769   24.5906 H   0  0  0  0  0
   30.8363  -21.4615   22.0349 H   0  0  0  0  0
   29.9502  -21.0479   23.5786 H   0  0  0  0  0
   28.6643  -23.0724   23.3889 H   0  0  0  0  0
   29.5634  -23.5256   21.8887 H   0  0  0  0  0
   27.3571  -22.6042   21.3748 H   0  0  0  0  0
   28.6839  -21.5273   20.7843 H   0  0  0  0  0
   28.0981  -19.9275   22.4042 H   0  0  0  0  0
   24.8296  -22.0241   23.5538 H   0  0  0  0  0
   26.0586  -22.8083   22.5558 H   0  0  0  0  0
   26.5238  -18.9342   23.6965 H   0  0  0  0  0
   33.5982  -22.3852   22.4706 H   0  0  0  0  0
   33.1889  -24.8306   20.9252 H   0  0  0  0  0
   35.2091  -24.1824   19.6916 H   0  0  0  0  0
   36.3450  -22.2642   20.3910 H   0  0  0  0  0
   33.1032  -23.0322   19.1224 H   0  0  0  0  0
   33.4588  -21.7741   20.3315 H   0  0  0  0  0
   34.4990  -21.9495   18.8968 H   0  0  0  0  0
   34.2130  -24.3895   23.9721 H   0  0  0  0  0
   36.1136  -26.6979   23.7665 H   0  0  0  0  0
   37.0690  -25.9354   25.9031 H   0  0  0  0  0
   36.0072  -24.4432   25.7755 H   0  0  0  0  0
   38.1730  -23.8240   25.1341 H   0  0  0  0  0
   37.1840  -24.0007   23.6205 H   0  0  0  0  0
   38.9134  -24.3324   22.4982 H   0  0  0  0  0
   36.0100  -28.2718   25.4908 H   0  0  0  0  0
   33.2646  -28.6193   26.4348 H   0  0  0  0  0
   35.7056  -30.3679   26.9747 H   0  0  0  0  0
   33.8761  -30.7286   28.5684 H   0  0  0  0  0
   32.7290  -30.9353   27.2221 H   0  0  0  0  0
   34.0365  -32.1190   27.4675 H   0  0  0  0  0
   33.5800  -30.5992   24.8298 H   0  0  0  0  0
   35.2888  -30.1631   24.5828 H   0  0  0  0  0
   34.8604  -31.7908   25.1643 H   0  0  0  0  0
   32.5356  -27.9660   28.3675 H   0  0  0  0  0
   34.3347  -26.9356   30.4254 H   0  0  0  0  0
   31.3764  -27.5221   30.3920 H   0  0  0  0  0
   32.2266  -25.9045   30.1469 H   0  0  0  0  0
   33.8832  -25.4392   32.2772 H   0  0  0  0  0
   30.1823  -27.5830   32.3321 H   0  0  0  0  0
   33.6347  -24.9482   34.6813 H   0  0  0  0  0
   29.9321  -27.0947   34.7371 H   0  0  0  0  0
   30.8065  -26.1055   36.5091 H   0  0  0  0  0
   34.9758  -29.7237   32.4207 H   0  0  0  0  0
   35.4400  -28.1231   31.8342 H   0  0  0  0  0
  1  2  2  0  0  0
  1  3  1  0  0  0
  1  4  1  0  0  0
  4  5  1  0  0  0
  5  6  1  0  0  0
  5  8  1  0  0  0
  6  7  2  0  0  0
  6  9  1  0  0  0
  9 10  1  0  0  0
 10 11  1  0  0  0
 10 13  1  0  0  0
 11 12  2  0  0  0
 11 20  1  0  0  0
 13 14  1  0  0  0
 14 15  1  0  0  0
 15 16  1  0  0  0
 16 17  1  0  0  0
 17 18  1  0  0  0
 17 19  2  0  0  0
 20 21  1  0  0  0
 21 22  1  0  0  0
 21 24  1  0  0  0
 22 23  2  0  0  0
 22 27  1  0  0  0
 24 25  1  0  0  0
 24 26  1  0  0  0
 27 28  1  0  0  0
 28 29  1  0  0  0
 28 31  1  0  0  0
 29 30  2  0  0  0
 29 36  1  0  0  0
 31 32  1  0  0  0
 32 33  1  0  0  0
 33 34  2  0  0  0
 33 35  1  0  0  0
 36 37  1  0  0  0
 37 38  1  0  0  0
 37 40  1  0  0  0
 38 39  2  0  0  0
 38 43  1  0  0  0
 40 41  1  0  0  0
 40 42  1  0  0  0
 43 44  1  0  0  0
 44 45  1  0  0  0
 44 47  1  0  0  0
 45 46  2  0  0  0
 45 55  1  0  0  0
 47 48  1  0  0  0
 48 49  4  0  0  0
 48 50  4  0  0  0
 49 51  4  0  0  0
 50 52  4  0  0  0
 51 53  4  0  0  0
 52 53  4  0  0  0
 53 54  1  0  0  0
  3 56  1  0  0  0
  3 57  1  0  0  0
  3 58  1  0  0  0
  4 59  1  0  0  0
  5 60  1  0  0  0
  8 61  1  0  0  0
  8 62  1  0  0  0
  8 63  1  0  0  0
  9 64  1  0  0  0
 10 65  1  0  0  0
 13 66  1  0  0  0
 13 67  1  0  0  0
 14 68  1  0  0  0
 14 69  1  0  0  0
 15 70  1  0  0  0
 15 71  1  0  0  0
 16 72  1  0  0  0
 18 73  1  0  0  0
 18 74  1  0  0  0
 19 75  1  0  0  0
 20 76  1  0  0  0
 21 77  1  0  0  0
 24 78  1  0  0  0
 25 79  1  0  0  0
 26 80  1  0  0  0
 26 81  1  0  0  0
 26 82  1  0  0  0
 27 83  1  0  0  0
 28 84  1  0  0  0
 31 85  1  0  0  0
 31 86  1  0  0  0
 32 87  1  0  0  0
 32 88  1  0  0  0
 35 89  1  0  0  0
 36 90  1  0  0  0
 37 91  1  0  0  0
 40 92  1  0  0  0
 41 93  1  0  0  0
 41 94  1  0  0  0
 41 95  1  0  0  0
 42 96  1  0  0  0
 42 97  1  0  0  0
 42 98  1  0  0  0
 43 99  1  0  0  0
 44100  1  0  0  0
 47101  1  0  0  0
 47102  1  0  0  0
 49103  1  0  0  0
 50104  1  0  0  0
 51105  1  0  0  0
 52106  1  0  0  0
 54107  1  0  0  0
 55108  1  0  0  0
 55109  1  0  0  0
M  END
$$$$
