2x39_ligand
  -I-interpret- 

 48 51  0  0  0  0  0  0  0  0999 V2000
   45.1570   33.2530  111.3780 N   0  0  0  0  0
   43.8220   32.6490  111.4460 C   0  0  0  0  0
   43.6270   31.9480  112.7790 C   0  0  0  0  0
   44.7570   30.9420  113.0720 C   0  0  0  0  0
   44.6610   30.5160  114.5120 N   0  3  0  0  0
   46.1250   31.5980  112.8660 C   0  0  0  0  0
   46.2180   32.2620  111.5160 C   0  0  0  0  0
   44.6570   29.6650  112.2120 C   0  0  0  0  0
   45.6360   29.1720  111.7300 O   0  0  0  0  0
   43.4520   29.1240  112.0350 N   0  0  0  0  0
   43.2720   27.9650  111.1780 C   0  0  0  0  0
   42.5540   28.3240  109.9110 C   0  0  0  0  0
   43.2660   28.5950  108.7430 C   0  0  0  0  0
   42.5980   28.9320  107.5810 C   0  0  0  0  0
   41.2170   28.9990  107.5790 C   0  0  0  0  0
   40.3790   29.4170  106.1230 Cl  0  0  0  0  0
   40.4960   28.7320  108.7270 C   0  0  0  0  0
   41.1590   28.3990  109.8880 C   0  0  0  0  0
   45.4060   34.6120  111.7620 C   0  0  0  0  0
   46.6800   34.8930  112.1080 N   0  0  0  0  0
   46.9510   36.1470  112.4690 C   0  0  0  0  0
   46.1120   37.1850  112.5230 N   0  0  0  0  0
   44.8650   36.8900  112.1650 C   0  0  0  0  0
   43.7990   37.7250  112.1150 N   0  0  0  0  0
   42.7190   37.0440  111.7100 C   0  0  0  0  0
   43.0980   35.7670  111.4990 C   0  0  0  0  0
   44.4200   35.6370  111.7750 C   0  0  0  0  0
   43.7204   31.9195  110.6425 H   0  0  0  0  0
   43.0715   33.4328  111.3433 H   0  0  0  0  0
   42.6847   31.4014  112.7424 H   0  0  0  0  0
   43.6301   32.7030  113.5652 H   0  0  0  0  0
   44.7236   31.3376  115.1133 H   0  0  0  0  0
   43.7690   30.0464  114.6677 H   0  0  0  0  0
   45.4256   29.8762  114.7278 H   0  0  0  0  0
   46.8920   30.8258  112.9258 H   0  0  0  0  0
   46.2647   32.3570  113.6357 H   0  0  0  0  0
   47.1856   32.7551  111.4231 H   0  0  0  0  0
   46.1106   31.5084  110.7358 H   0  0  0  0  0
   42.6445   29.5296  112.5081 H   0  0  0  0  0
   42.6758   27.2276  111.7155 H   0  0  0  0  0
   44.2549   27.5719  110.9182 H   0  0  0  0  0
   44.3546   28.5408  108.7465 H   0  0  0  0  0
   43.1575   29.1441  106.6699 H   0  0  0  0  0
   39.4073   28.7846  108.7142 H   0  0  0  0  0
   40.5911   28.1926  110.7952 H   0  0  0  0  0
   47.9830   36.3503  112.7550 H   0  0  0  0  0
   41.7158   37.4485  111.5754 H   0  0  0  0  0
   42.4438   34.9640  111.1594 H   0  0  0  0  0
  1  2  1  0  0  0
  1  7  1  0  0  0
  1 19  1  0  0  0
  2  3  1  0  0  0
  3  4  1  0  0  0
  4  5  1  0  0  0
  4  6  1  0  0  0
  4  8  1  0  0  0
  6  7  1  0  0  0
  8  9  2  0  0  0
  8 10  1  0  0  0
 10 11  1  0  0  0
 11 12  1  0  0  0
 12 13  4  0  0  0
 12 18  4  0  0  0
 13 14  4  0  0  0
 14 15  4  0  0  0
 15 16  1  0  0  0
 15 17  4  0  0  0
 17 18  4  0  0  0
 19 20  4  0  0  0
 19 27  4  0  0  0
 20 21  4  0  0  0
 21 22  4  0  0  0
 22 23  4  0  0  0
 23 24  4  0  0  0
 23 27  4  0  0  0
 24 25  4  0  0  0
 25 26  4  0  0  0
 26 27  4  0  0  0
  2 28  1  0  0  0
  2 29  1  0  0  0
  3 30  1  0  0  0
  3 31  1  0  0  0
  5 32  1  0  0  0
  5 33  1  0  0  0
  5 34  1  0  0  0
  6 35  1  0  0  0
  6 36  1  0  0  0
  7 37  1  0  0  0
  7 38  1  0  0  0
 10 39  1  0  0  0
 11 40  1  0  0  0
 11 41  1  0  0  0
 13 42  1  0  0  0
 14 43  1  0  0  0
 17 44  1  0  0  0
 18 45  1  0  0  0
 21 46  1  0  0  0
 25 47  1  0  0  0
 26 48  1  0  0  0
M  END
$$$$
