6ee6_ligand
  -I-interpret- 

 50 52  0  0  0  0  0  0  0  0999 V2000
  166.3980  226.8440   11.9880 N   0  0  0  0  0
  165.7720  228.1470   12.3310 C   0  0  0  0  0
  164.8130  228.4850   11.1960 C   0  0  0  0  0
  163.9460  227.6910   10.8270 O   0  0  0  0  0
  164.5840  229.8460   15.3980 C   0  0  0  0  0
  164.6180  227.4900   15.8460 C   0  0  0  0  0
  165.0200  229.5820   14.0990 C   0  0  0  0  0
  165.0630  227.2320   14.5380 C   0  0  0  0  0
  164.8950  229.8390   18.3490 C   0  0  0  0  0
  162.9090  228.4830   18.2830 C   0  0  0  0  0
  168.5960  226.2360    7.6210 C   0  0  0  0  0
  169.6540  225.1340    7.8450 C   0  0  0  0  0
  167.9140  226.3840    8.9840 C   0  0  0  0  0
  169.2240  224.4730    9.1530 C   0  0  0  0  0
  168.2280  225.3870   11.3140 C   0  0  0  0  0
  167.7320  226.7220   11.8780 C   0  0  0  0  0
  164.6840  230.1240   19.7010 C   0  0  0  0  0
  162.7010  228.7890   19.6330 C   0  0  0  0  0
  164.3560  228.7960   16.2840 C   0  0  0  0  0
  163.9930  229.0440   17.6170 C   0  0  0  0  0
  165.2660  228.2880   13.6520 C   0  0  0  0  0
  163.5780  229.6050   20.3340 C   0  0  0  0  0
  168.9020  225.7120    9.9540 C   0  0  0  0  0
  165.5530  230.9210   20.4600 F   0  0  0  0  0
  161.6730  228.3240   20.2680 F   0  0  0  0  0
  163.3530  229.8530   21.6560 F   0  0  0  0  0
  165.0840  229.6460   10.5800 N   0  0  0  0  0
  168.5340  227.6210   12.1350 O   0  0  0  0  0
  164.2490  229.9830    9.5630 O   0  0  0  0  0
  165.8054  226.0283   11.8334 H   0  0  0  0  0
  166.5468  228.9110   12.3948 H   0  0  0  0  0
  164.4218  230.8748   15.7195 H   0  0  0  0  0
  164.4735  226.6573   16.5344 H   0  0  0  0  0
  165.1725  230.4156   13.4134 H   0  0  0  0  0
  165.2491  226.2071   14.2171 H   0  0  0  0  0
  165.7771  230.2411   17.8507 H   0  0  0  0  0
  162.2282  227.8119   17.7593 H   0  0  0  0  0
  167.8893  225.9740    6.8336 H   0  0  0  0  0
  169.0413  227.1707    7.2801 H   0  0  0  0  0
  170.6659  225.5359    7.8972 H   0  0  0  0  0
  169.6959  224.4259    7.0174 H   0  0  0  0  0
  166.9258  225.9248    9.0091 H   0  0  0  0  0
  167.7170  227.4245    9.2421 H   0  0  0  0  0
  169.9704  223.8179    9.6024 H   0  0  0  0  0
  168.4032  223.7620    9.0589 H   0  0  0  0  0
  167.4038  224.6854   11.1853 H   0  0  0  0  0
  168.9318  224.9104   11.9964 H   0  0  0  0  0
  169.7688  226.3079   10.2398 H   0  0  0  0  0
  165.8671  230.2377   10.8578 H   0  0  0  0  0
  164.5243  230.8235    9.1896 H   0  0  0  0  0
  2  1  1  0  0  0
  1 16  1  0  0  0
  2  3  1  0  0  0
 21  2  1  0  0  0
  3  4  2  0  0  0
  3 27  1  0  0  0
  5  7  4  0  0  0
 19  5  4  0  0  0
  6  8  4  0  0  0
 19  6  4  0  0  0
  7 21  4  0  0  0
  8 21  4  0  0  0
  9 17  4  0  0  0
 20  9  4  0  0  0
 10 18  4  0  0  0
 20 10  4  0  0  0
 12 11  1  0  0  0
 13 11  1  0  0  0
 14 12  1  0  0  0
 23 13  1  0  0  0
 23 14  1  0  0  0
 16 15  1  0  0  0
 15 23  1  0  0  0
 16 28  2  0  0  0
 17 22  4  0  0  0
 17 24  1  0  0  0
 18 22  4  0  0  0
 18 25  1  0  0  0
 19 20  1  0  0  0
 22 26  1  0  0  0
 27 29  1  0  0  0
  1 30  1  0  0  0
  2 31  1  0  0  0
  5 32  1  0  0  0
  6 33  1  0  0  0
  7 34  1  0  0  0
  8 35  1  0  0  0
  9 36  1  0  0  0
 10 37  1  0  0  0
 11 38  1  0  0  0
 11 39  1  0  0  0
 12 40  1  0  0  0
 12 41  1  0  0  0
 13 42  1  0  0  0
 13 43  1  0  0  0
 14 44  1  0  0  0
 14 45  1  0  0  0
 15 46  1  0  0  0
 15 47  1  0  0  0
 23 48  1  0  0  0
 27 49  1  0  0  0
 29 50  1  0  0  0
M  END
$$$$
