5ye8_ligand
  -I-interpret- 

 20 20  0  0  0  0  0  0  0  0999 V2000
  -46.0230  -23.5100   19.6530 C   0  0  0  0  0
  -44.9470  -24.6580   18.8380 S   0  0  0  0  0
  -45.0800  -26.1330   19.5290 N   0  0  0  0  0
  -46.1330  -27.0270   19.2070 C   0  0  0  0  0
  -46.2560  -27.5550   17.9240 C   0  0  0  0  0
  -47.2970  -28.4460   17.6630 C   0  0  0  0  0
  -47.4650  -28.9680   16.4400 F   0  0  0  0  0
  -48.1750  -28.8120   18.6670 C   0  0  0  0  0
  -49.1600  -29.6710   18.3810 F   0  0  0  0  0
  -48.0470  -28.2980   19.9510 C   0  0  0  0  0
  -47.0170  -27.4060   20.2160 C   0  0  0  0  0
  -43.6020  -24.1860   18.9640 O   0  0  0  0  0
  -45.2110  -24.7340   17.4230 O   0  0  0  0  0
  -45.7488  -23.4415   20.7057 H   0  0  0  0  0
  -45.9265  -22.5296   19.1866 H   0  0  0  0  0
  -47.0532  -23.8552   19.5663 H   0  0  0  0  0
  -44.3821  -26.4204   20.2151 H   0  0  0  0  0
  -45.5524  -27.2773   17.1391 H   0  0  0  0  0
  -48.7434  -28.5901   20.7370 H   0  0  0  0  0
  -46.8986  -26.9990   21.2202 H   0  0  0  0  0
  1  2  1  0  0  0
  2  3  1  0  0  0
  2 12  2  0  0  0
  2 13  2  0  0  0
  3  4  1  0  0  0
  4  5  4  0  0  0
  4 11  4  0  0  0
  5  6  4  0  0  0
  6  7  1  0  0  0
  6  8  4  0  0  0
  8  9  1  0  0  0
  8 10  4  0  0  0
 10 11  4  0  0  0
  1 14  1  0  0  0
  1 15  1  0  0  0
  1 16  1  0  0  0
  3 17  1  0  0  0
  5 18  1  0  0  0
 10 19  1  0  0  0
 11 20  1  0  0  0
M  END
$$$$
