1aq1_ligand
  -I-interpret- 

 60 67  0  0  0  0  0  0  0  0999 V2000
   -0.0580   24.6050    8.9150 O   0  0  0  0  0
    1.3300   24.6420    8.6200 C   0  0  0  0  0
    2.1900   24.1630    9.8170 C   0  0  0  0  0
    1.2850   23.8640   11.0150 C   0  0  0  0  0
    0.3990   25.1070   11.3170 C   0  0  0  0  0
   -0.5830   25.1790   10.1000 C   0  0  0  0  0
   -1.7820   24.3150   10.4450 C   0  0  0  0  0
   -1.0180   26.5730    9.8090 N   0  0  0  0  0
   -0.2490   27.3530    8.9070 C   0  0  0  0  0
    0.8600   27.1010    8.2060 C   0  0  0  0  0
    1.4780   28.0810    7.3700 C   0  0  0  0  0
    0.7740   29.3740    7.3290 C   0  0  0  0  0
   -0.3120   29.6130    8.0170 C   0  0  0  0  0
   -0.9010   28.6450    8.8630 C   0  0  0  0  0
   -2.0370   28.5990    9.7020 C   0  0  0  0  0
   -2.1080   27.3050   10.3030 C   0  0  0  0  0
   -3.1120   27.0110   11.1730 C   0  0  0  0  0
   -4.0610   27.9440   11.4680 C   0  0  0  0  0
   -4.0150   29.2500   10.8950 C   0  0  0  0  0
   -2.9870   29.5370   10.0290 C   0  0  0  0  0
   -0.7870   31.0610    7.7940 C   0  0  0  0  0
    0.2460   31.4880    6.8730 N   0  0  0  0  0
    1.1910   30.5900    6.5600 C   0  0  0  0  0
    2.1450   30.7330    5.8200 O   0  0  0  0  0
    2.6460   27.5280    6.8110 C   0  0  0  0  0
    2.7410   26.1970    7.3090 C   0  0  0  0  0
    3.7550   25.3170    6.9230 C   0  0  0  0  0
    4.7040   25.7920    6.0470 C   0  0  0  0  0
    4.6280   27.1160    5.5550 C   0  0  0  0  0
    3.6100   27.9460    5.9210 C   0  0  0  0  0
    1.7090   25.9710    8.1520 N   0  0  0  0  0
    1.2830   26.2450   11.2960 O   0  0  0  0  0
    0.7080   27.3650   11.9400 C   0  0  0  0  0
    2.1900   23.5100   12.2490 N   0  3  0  0  0
    2.2190   22.0360   12.4640 C   0  0  0  0  0
    1.5297   23.9373    7.8128 H   0  0  0  0  0
    2.9007   24.9441   10.0869 H   0  0  0  0  0
    2.7285   23.2579    9.5360 H   0  0  0  0  0
    0.6291   23.0207   10.7987 H   0  0  0  0  0
   -0.1357   25.0716   12.2662 H   0  0  0  0  0
   -2.2818   24.7234   11.3233 H   0  0  0  0  0
   -2.4746   24.3042    9.6034 H   0  0  0  0  0
   -1.4477   23.2990   10.6551 H   0  0  0  0  0
   -3.1576   26.0253   11.6360 H   0  0  0  0  0
   -4.8689   27.6880   12.1534 H   0  0  0  0  0
   -4.7715   29.9967   11.1365 H   0  0  0  0  0
   -2.9235   30.5330    9.5907 H   0  0  0  0  0
   -1.6407   31.6003    8.2044 H   0  0  0  0  0
    3.7929   24.2952    7.3005 H   0  0  0  0  0
    5.5204   25.1431    5.7299 H   0  0  0  0  0
    5.3960   27.4788    4.8719 H   0  0  0  0  0
    3.5587   28.9519    5.5043 H   0  0  0  0  0
   -0.2172   27.6387   11.4329 H   0  0  0  0  0
    0.4940   27.1148   12.9791 H   0  0  0  0  0
    1.4056   28.2017   11.9027 H   0  0  0  0  0
    1.8089   23.9602   13.0812 H   0  0  0  0  0
    3.1389   23.8390   12.0710 H   0  0  0  0  0
    1.2067   21.6773   12.6502 H   0  0  0  0  0
    2.6211   21.5484   11.5759 H   0  0  0  0  0
    2.8504   21.8077   13.3227 H   0  0  0  0  0
  1  6  1  0  0  0
  1  2  1  0  0  0
  2 31  1  0  0  0
  2  3  1  0  0  0
  3  4  1  0  0  0
  4 34  1  0  0  0
  4  5  1  0  0  0
  5 32  1  0  0  0
  5  6  1  0  0  0
  6  8  1  0  0  0
  6  7  1  0  0  0
  8 16  4  0  0  0
  8  9  4  0  0  0
  9 14  4  0  0  0
  9 10  4  0  0  0
 10 31  4  0  0  0
 10 11  4  0  0  0
 11 25  4  0  0  0
 11 12  4  0  0  0
 12 23  1  0  0  0
 12 13  4  0  0  0
 13 21  1  0  0  0
 13 14  4  0  0  0
 14 15  4  0  0  0
 15 20  4  0  0  0
 15 16  4  0  0  0
 16 17  4  0  0  0
 17 18  4  0  0  0
 18 19  4  0  0  0
 19 20  4  0  0  0
 21 22  2  0  0  0
 22 23  1  0  0  0
 23 24  2  0  0  0
 25 30  4  0  0  0
 25 26  4  0  0  0
 26 31  4  0  0  0
 26 27  4  0  0  0
 27 28  4  0  0  0
 28 29  4  0  0  0
 29 30  4  0  0  0
 32 33  1  0  0  0
 34 35  1  0  0  0
  2 36  1  0  0  0
  3 37  1  0  0  0
  3 38  1  0  0  0
  4 39  1  0  0  0
  5 40  1  0  0  0
  7 41  1  0  0  0
  7 42  1  0  0  0
  7 43  1  0  0  0
 17 44  1  0  0  0
 18 45  1  0  0  0
 19 46  1  0  0  0
 20 47  1  0  0  0
 21 48  1  0  0  0
 27 49  1  0  0  0
 28 50  1  0  0  0
 29 51  1  0  0  0
 30 52  1  0  0  0
 33 53  1  0  0  0
 33 54  1  0  0  0
 33 55  1  0  0  0
 34 56  1  0  0  0
 34 57  1  0  0  0
 35 58  1  0  0  0
 35 59  1  0  0  0
 35 60  1  0  0  0
M  END
$$$$
