1ny2_ligand
  -I-interpret- 

 62 63  0  0  0  0  0  0  0  0999 V2000
   36.1170   36.3640    4.8030 N   0  3  0  0  0
   35.8490   37.7380    5.2290 C   0  0  0  0  0
   35.7220   38.7130    4.0620 C   0  0  0  0  0
   36.4200   39.8060    4.1540 O   0  0  0  0  0
   36.9400   38.2470    6.2070 C   0  0  0  0  0
   36.5200   38.5600    7.6140 C   0  0  0  0  0
   35.3070   39.3540    7.8150 C   0  0  0  0  0
   35.3310   40.7580    8.0730 N   0  0  0  0  0
   35.3360   41.6330    9.0630 C   0  0  0  0  0
   35.3160   41.3610   10.3820 N   0  0  0  0  0
   35.3690   42.9590    8.7740 N   0  0  0  0  0
   34.7900   38.4870    3.1250 N   0  0  0  0  0
   34.6230   39.3280    1.9390 C   0  0  0  0  0
   33.9030   40.6240    2.1560 C   0  0  0  0  0
   32.8600   40.6840    2.7630 O   0  0  0  0  0
   33.9550   38.4520    0.8680 C   0  0  0  0  0
   34.1710   37.0540    1.3990 C   0  0  0  0  0
   34.0210   37.2510    2.9350 C   0  0  0  0  0
   34.5050   41.6800    1.6430 N   0  0  0  0  0
   33.9040   43.0220    1.5980 C   0  0  0  0  0
   32.8600   43.0590    0.4340 C   0  0  0  0  0
   32.9680   42.4120   -0.6460 O   0  0  0  0  0
   35.1210   43.9260    1.3020 C   0  0  0  0  0
   35.8030   43.0820    0.2180 C   0  0  0  0  0
   35.8080   41.6790    0.8970 C   0  0  0  0  0
   31.8680   43.9370    0.6770 N   0  0  0  0  0
   30.7580   44.2180   -0.2360 C   0  0  0  0  0
   31.1530   45.4580   -1.0650 C   0  0  0  0  0
   32.1810   45.3900   -1.8350 O   0  0  0  0  0
   30.4793   46.5201   -0.9889 O   0  0  0  0  0
   35.3842   36.0589    4.1624 H   0  0  0  0  0
   37.0204   36.3257    4.3310 H   0  0  0  0  0
   36.1325   35.7530    5.6196 H   0  0  0  0  0
   34.8862   37.7043    5.7388 H   0  0  0  0  0
   37.2907   39.1907    5.7892 H   0  0  0  0  0
   37.6609   37.4338    6.2906 H   0  0  0  0  0
   37.3289   39.1623    8.0276 H   0  0  0  0  0
   36.3095   37.5937    8.0722 H   0  0  0  0  0
   34.8884   38.9401    8.7324 H   0  0  0  0  0
   34.8039   39.2873    6.8504 H   0  0  0  0  0
   35.3513   41.2595    7.1851 H   0  0  0  0  0
   35.2944   40.3930   10.7028 H   0  0  0  0  0
   35.3766   43.6454    9.5285 H   0  0  0  0  0
   35.3862   43.2689    7.8024 H   0  0  0  0  0
   35.6075   39.6719    1.6218 H   0  0  0  0  0
   34.3780   38.5991   -0.1257 H   0  0  0  0  0
   32.9022   38.6919    0.7189 H   0  0  0  0  0
   35.1353   36.6331    1.1144 H   0  0  0  0  0
   33.4676   36.3284    0.9906 H   0  0  0  0  0
   32.9878   37.3130    3.2767 H   0  0  0  0  0
   34.3781   36.4093    3.5284 H   0  0  0  0  0
   33.3758   43.3249    2.5021 H   0  0  0  0  0
   35.7455   44.1474    2.1675 H   0  0  0  0  0
   34.8706   44.9424    0.9980 H   0  0  0  0  0
   36.7931   43.4404   -0.0636 H   0  0  0  0  0
   35.2940   43.1050   -0.7456 H   0  0  0  0  0
   35.8939   40.8582    0.1849 H   0  0  0  0  0
   36.6715   41.5179    1.5423 H   0  0  0  0  0
   31.8916   44.4435    1.5621 H   0  0  0  0  0
   29.8401   44.4050    0.3213 H   0  0  0  0  0
   30.5707   43.3642   -0.8872 H   0  0  0  0  0
   32.5711   44.5153   -1.7696 H   0  0  0  0  0
  1  2  1  0  0  0
  2  3  1  0  0  0
  2  5  1  0  0  0
  3  4  2  0  0  0
  3 12  1  0  0  0
  5  6  1  0  0  0
  6  7  1  0  0  0
  7  8  1  0  0  0
  8  9  1  0  0  0
  9 10  2  0  0  0
  9 11  1  0  0  0
 12 13  1  0  0  0
 12 18  1  0  0  0
 13 14  1  0  0  0
 13 16  1  0  0  0
 14 15  2  0  0  0
 14 19  1  0  0  0
 16 17  1  0  0  0
 17 18  1  0  0  0
 19 20  1  0  0  0
 19 25  1  0  0  0
 20 21  1  0  0  0
 20 23  1  0  0  0
 21 22  2  0  0  0
 21 26  1  0  0  0
 23 24  1  0  0  0
 24 25  1  0  0  0
 26 27  1  0  0  0
 27 28  1  0  0  0
 28 29  1  0  0  0
 28 30  2  0  0  0
  1 31  1  0  0  0
  1 32  1  0  0  0
  1 33  1  0  0  0
  2 34  1  0  0  0
  5 35  1  0  0  0
  5 36  1  0  0  0
  6 37  1  0  0  0
  6 38  1  0  0  0
  7 39  1  0  0  0
  7 40  1  0  0  0
  8 41  1  0  0  0
 10 42  1  0  0  0
 11 43  1  0  0  0
 11 44  1  0  0  0
 13 45  1  0  0  0
 16 46  1  0  0  0
 16 47  1  0  0  0
 17 48  1  0  0  0
 17 49  1  0  0  0
 18 50  1  0  0  0
 18 51  1  0  0  0
 20 52  1  0  0  0
 23 53  1  0  0  0
 23 54  1  0  0  0
 24 55  1  0  0  0
 24 56  1  0  0  0
 25 57  1  0  0  0
 25 58  1  0  0  0
 26 59  1  0  0  0
 27 60  1  0  0  0
 27 61  1  0  0  0
 29 62  1  0  0  0
M  END
$$$$
