6o3w_ligand
  -I-interpret- 

193195  0  0  0  0  0  0  0  0999 V2000
  -40.7930   34.0940  -27.9900 N   0  3  0  0  0
  -39.7460   34.6970  -28.8110 C   0  0  0  0  0
  -38.3770   34.4860  -28.1680 C   0  0  0  0  0
  -37.6060   35.4320  -27.9770 O   0  0  0  0  0
  -40.0080   36.1950  -29.0150 C   0  0  0  0  0
  -39.0970   36.8180  -30.0700 C   0  0  0  0  0
  -38.5590   36.0820  -30.9260 O   0  0  0  0  0
  -38.9170   38.0530  -30.0390 O   0  0  0  0  0
  -38.0760   33.2410  -27.8180 N   0  0  0  0  0
  -36.7910   32.9630  -27.2040 C   0  0  0  0  0
  -35.7300   32.8070  -28.2900 C   0  0  0  0  0
  -36.0100   32.8840  -29.4890 O   0  0  0  0  0
  -36.8870   31.7310  -26.3040 C   0  0  0  0  0
  -37.2490   30.4570  -27.0650 C   0  0  0  0  0
  -37.2900   30.4660  -28.3140 O   0  0  0  0  0
  -37.5030   29.4320  -26.3980 O   0  0  0  0  0
  -34.4930   32.5760  -27.8710 N   0  0  0  0  0
  -33.3870   32.3760  -28.7950 C   0  0  0  0  0
  -33.1940   30.8810  -29.0160 C   0  0  0  0  0
  -32.8810   30.1540  -28.0690 O   0  0  0  0  0
  -32.1130   32.9990  -28.2360 C   0  0  0  0  0
  -30.9070   32.7870  -29.1160 C   0  0  0  0  0
  -30.8750   33.3030  -30.4080 C   0  0  0  0  0
  -29.7940   32.1010  -28.6520 C   0  0  0  0  0
  -29.7600   33.1380  -31.2220 C   0  0  0  0  0
  -28.6710   31.9290  -29.4590 C   0  0  0  0  0
  -28.6660   32.4550  -30.7410 C   0  0  0  0  0
  -27.5710   32.2800  -31.5580 O   0  0  0  0  0
  -33.3640   30.4250  -30.2570 N   0  0  0  0  0
  -33.2390   29.0010  -30.5610 C   0  0  0  0  0
  -31.7730   28.6120  -30.7300 C   0  0  0  0  0
  -31.1200   29.0270  -31.6910 O   0  0  0  0  0
  -34.0290   28.6490  -31.8200 C   0  0  0  0  0
  -35.5040   28.3410  -31.5740 C   0  0  0  0  0
  -36.3310   29.5930  -31.3230 C   0  0  0  0  0
  -37.7970   29.2400  -31.1000 C   0  0  0  0  0
  -38.3370   28.4090  -32.2060 N   0  3  0  0  0
  -31.2750   27.7820  -29.8270 N   0  0  0  0  0
  -29.9030   27.3060  -29.8700 C   0  0  0  0  0
  -29.7670   26.1370  -30.8470 C   0  0  0  0  0
  -30.7480   25.4510  -31.1450 O   0  0  0  0  0
  -29.4720   26.8930  -28.4690 C   0  0  0  0  0
  -29.2990   28.0770  -27.5150 C   0  0  0  0  0
  -29.3450   27.6120  -26.0810 C   0  0  0  0  0
  -27.9760   28.7680  -27.8020 C   0  0  0  0  0
  -28.5450   25.8850  -31.3700 N   0  0  0  0  0
  -28.3620   24.8590  -32.4100 C   0  0  0  0  0
  -28.2520   23.4600  -31.8250 C   0  0  0  0  0
  -27.2650   23.1160  -31.1620 O   0  0  0  0  0
  -27.0570   25.2940  -33.0950 C   0  0  0  0  0
  -26.2660   25.9240  -31.9780 C   0  0  0  0  0
  -27.3060   26.6550  -31.1360 C   0  0  0  0  0
  -29.2450   22.6190  -32.1290 N   0  0  0  0  0
  -29.3160   21.2770  -31.5480 C   0  0  0  0  0
  -28.1130   20.4260  -31.9330 C   0  0  0  0  0
  -27.6470   19.6050  -31.1300 O   0  0  0  0  0
  -30.6220   20.6060  -31.9840 C   0  0  0  0  0
  -30.9400   19.2840  -31.2690 C   0  0  0  0  0
  -31.0800   19.4810  -29.4760 S   0  0  0  0  0
  -32.2430   20.8420  -29.3410 C   0  0  0  0  0
  -27.5800   20.6120  -33.1450 N   0  0  0  0  0
  -26.4330   19.8170  -33.5690 C   0  0  0  0  0
  -25.2130   20.0320  -32.6800 C   0  0  0  0  0
  -24.2990   19.2100  -32.7040 O   0  0  0  0  0
  -26.0770   20.1270  -35.0230 C   0  0  0  0  0
  -25.2180   21.3600  -35.2120 C   0  0  0  0  0
  -24.6760   21.4710  -36.6260 C   0  0  0  0  0
  -24.9550   22.4920  -37.2960 O   0  0  0  0  0
  -23.9790   20.5330  -37.0710 O   0  0  0  0  0
  -25.1750   21.1090  -31.8950 N   0  0  0  0  0
  -24.0720   21.3450  -30.9730 C   0  0  0  0  0
  -24.4710   21.1280  -29.5220 C   0  0  0  0  0
  -23.6880   21.4330  -28.6180 O   0  0  0  0  0
  -23.5150   22.7560  -31.1730 C   0  0  0  0  0
  -22.9310   22.9480  -32.5450 C   0  0  0  0  0
  -21.9970   22.0450  -33.0500 C   0  0  0  0  0
  -23.3320   24.0050  -33.3530 C   0  0  0  0  0
  -21.4690   22.2050  -34.3130 C   0  0  0  0  0
  -22.8020   24.1730  -34.6200 C   0  0  0  0  0
  -21.8710   23.2680  -35.0920 C   0  0  0  0  0
  -21.3430   23.4340  -36.3490 O   0  0  0  0  0
  -25.6550   20.5900  -29.2750 N   0  0  0  0  0
  -26.1670   20.3980  -27.9280 C   0  0  0  0  0
  -26.2740   18.9210  -27.5750 C   0  0  0  0  0
  -25.7410   18.4760  -26.5560 O   0  0  0  0  0
  -27.5300   21.1020  -27.7570 C   0  0  0  0  0
  -27.3630   22.6140  -27.9290 C   0  0  0  0  0
  -28.1270   20.7320  -26.4130 C   0  0  0  0  0
  -28.6700   23.3570  -28.0250 C   0  0  0  0  0
  -26.9600   18.1440  -28.4070 N   0  0  0  0  0
  -27.3850   16.8080  -28.0110 C   0  0  0  0  0
  -26.2930   15.7440  -28.2140 C   0  0  0  0  0
  -25.4770   15.8420  -29.1340 O   0  0  0  0  0
  -28.6500   16.3920  -28.7810 C   0  0  0  0  0
  -29.0730   15.0930  -28.3440 O   0  0  0  0  0
  -28.3730   16.3590  -30.2790 C   0  0  0  0  0
  -26.2100   14.7700  -27.4610 O   0  0  0  0  0
  -40.5979   33.1003  -27.8683 H   0  0  0  0  0
  -40.8146   34.5516  -27.0787 H   0  0  0  0  0
  -41.6950   34.2106  -28.4518 H   0  0  0  0  0
  -39.7563   34.2093  -29.7858 H   0  0  0  0  0
  -39.8149   36.6992  -28.0681 H   0  0  0  0  0
  -41.0376   36.3102  -29.3536 H   0  0  0  0  0
  -38.8247   35.1717  -30.7762 H   0  0  0  0  0
  -38.7427   32.4861  -27.9794 H   0  0  0  0  0
  -36.4961   33.7976  -26.5680 H   0  0  0  0  0
  -37.6755   31.9154  -25.5744 H   0  0  0  0  0
  -35.9086   31.5773  -25.8488 H   0  0  0  0  0
  -37.0641   31.3424  -28.6342 H   0  0  0  0  0
  -34.3111   32.5373  -26.8681 H   0  0  0  0  0
  -33.6116   32.8590  -29.7460 H   0  0  0  0  0
  -31.9078   32.5232  -27.2770 H   0  0  0  0  0
  -32.2789   34.0735  -28.1591 H   0  0  0  0  0
  -31.7398   33.8464  -30.7887 H   0  0  0  0  0
  -29.7980   31.6908  -27.6421 H   0  0  0  0  0
  -29.7522   33.5461  -32.2327 H   0  0  0  0  0
  -27.8036   31.3852  -29.0849 H   0  0  0  0  0
  -26.8952   31.7891  -31.0847 H   0  0  0  0  0
  -33.5849   31.0806  -31.0066 H   0  0  0  0  0
  -33.6512   28.4378  -29.7237 H   0  0  0  0  0
  -33.5797   27.7482  -32.2380 H   0  0  0  0  0
  -33.9890   29.5185  -32.4761 H   0  0  0  0  0
  -35.5711   27.7119  -30.6864 H   0  0  0  0  0
  -35.8974   27.8532  -32.4658 H   0  0  0  0  0
  -36.2555   30.2438  -32.1941 H   0  0  0  0  0
  -35.9507   30.0917  -30.4315 H   0  0  0  0  0
  -38.3700   30.1661  -31.0553 H   0  0  0  0  0
  -37.8759   28.6714  -30.1734 H   0  0  0  0  0
  -39.3168   28.1942  -32.0211 H   0  0  0  0  0
  -38.2600   28.9222  -33.0841 H   0  0  0  0  0
  -37.8037   27.5418  -32.2697 H   0  0  0  0  0
  -31.8795   27.4635  -29.0697 H   0  0  0  0  0
  -29.2544   28.1081  -30.2222 H   0  0  0  0  0
  -28.5060   26.3953  -28.5549 H   0  0  0  0  0
  -30.2527   26.2517  -28.0599 H   0  0  0  0  0
  -30.1157   28.7819  -27.6707 H   0  0  0  0  0
  -30.3061   27.1366  -25.8852 H   0  0  0  0  0
  -28.5418   26.8960  -25.9066 H   0  0  0  0  0
  -29.2202   28.4685  -25.4185 H   0  0  0  0  0
  -27.1593   28.0608  -27.6571 H   0  0  0  0  0
  -27.9702   29.1257  -28.8316 H   0  0  0  0  0
  -27.8531   29.6113  -27.1224 H   0  0  0  0  0
  -29.2078   24.7956  -33.0946 H   0  0  0  0  0
  -27.2292   25.9807  -33.9238 H   0  0  0  0  0
  -26.5314   24.4600  -33.5602 H   0  0  0  0  0
  -25.4972   26.5994  -32.3533 H   0  0  0  0  0
  -25.7191   25.1817  -31.3966 H   0  0  0  0  0
  -27.0340   26.6971  -30.0813 H   0  0  0  0  0
  -27.4073   27.7035  -31.4161 H   0  0  0  0  0
  -29.9701   22.9189  -32.7807 H   0  0  0  0  0
  -29.2994   21.3703  -30.4621 H   0  0  0  0  0
  -30.5192   20.3746  -33.0442 H   0  0  0  0  0
  -31.4285   21.2979  -31.7414 H   0  0  0  0  0
  -30.1237   18.5896  -31.4680 H   0  0  0  0  0
  -31.8976   18.9217  -31.6430 H   0  0  0  0  0
  -31.8311   21.7208  -29.8371 H   0  0  0  0  0
  -33.1837   20.5628  -29.8155 H   0  0  0  0  0
  -32.4178   21.0658  -28.2886 H   0  0  0  0  0
  -27.9760   21.3107  -33.7739 H   0  0  0  0  0
  -26.7234   18.7704  -33.4779 H   0  0  0  0  0
  -27.0145   20.3085  -35.5486 H   0  0  0  0  0
  -25.5039   19.2791  -35.3982 H   0  0  0  0  0
  -24.3713   21.2911  -34.5290 H   0  0  0  0  0
  -25.8355   22.2365  -35.0160 H   0  0  0  0  0
  -25.4969   23.0822  -36.7672 H   0  0  0  0  0
  -25.9375   21.7849  -31.9411 H   0  0  0  0  0
  -23.2958   20.6139  -31.1989 H   0  0  0  0  0
  -22.7219   22.9138  -30.4421 H   0  0  0  0  0
  -24.3347   23.4641  -31.0516 H   0  0  0  0  0
  -21.6799   21.2008  -32.4377 H   0  0  0  0  0
  -24.0748   24.7119  -32.9834 H   0  0  0  0  0
  -20.7364   21.4935  -34.6940 H   0  0  0  0  0
  -23.1164   25.0122  -35.2404 H   0  0  0  0  0
  -21.7254   24.2155  -36.7548 H   0  0  0  0  0
  -26.2326   20.2977  -30.0633 H   0  0  0  0  0
  -25.4556   20.8502  -27.2369 H   0  0  0  0  0
  -28.2251   20.7679  -28.5273 H   0  0  0  0  0
  -26.8232   22.7796  -28.8614 H   0  0  0  0  0
  -26.8382   22.9874  -27.0496 H   0  0  0  0  0
  -28.2671   19.6522  -26.3640 H   0  0  0  0  0
  -27.4523   21.0485  -25.6176 H   0  0  0  0  0
  -29.0892   21.2303  -26.2947 H   0  0  0  0  0
  -29.2324   22.9908  -28.8839 H   0  0  0  0  0
  -29.2470   23.1937  -27.1148 H   0  0  0  0  0
  -28.4729   24.4222  -28.1455 H   0  0  0  0  0
  -27.1928   18.4889  -29.3383 H   0  0  0  0  0
  -27.5968   16.8613  -26.9431 H   0  0  0  0  0
  -29.4365   17.1204  -28.5838 H   0  0  0  0  0
  -29.8624   14.8358  -28.8260 H   0  0  0  0  0
  -28.0637   17.3498  -30.6119 H   0  0  0  0  0
  -27.5792   15.6409  -30.4847 H   0  0  0  0  0
  -29.2787   16.0628  -30.8082 H   0  0  0  0  0
  -26.9012   14.8207  -26.7967 H   0  0  0  0  0
  1  2  1  0  0  0
  2  3  1  0  0  0
  2  5  1  0  0  0
  3  4  2  0  0  0
  3  9  1  0  0  0
  5  6  1  0  0  0
  6  7  1  0  0  0
  6  8  2  0  0  0
  9 10  1  0  0  0
 10 11  1  0  0  0
 10 13  1  0  0  0
 11 12  2  0  0  0
 11 17  1  0  0  0
 13 14  1  0  0  0
 14 15  1  0  0  0
 14 16  2  0  0  0
 17 18  1  0  0  0
 18 19  1  0  0  0
 18 21  1  0  0  0
 19 20  2  0  0  0
 19 29  1  0  0  0
 21 22  1  0  0  0
 22 23  4  0  0  0
 22 24  4  0  0  0
 23 25  4  0  0  0
 24 26  4  0  0  0
 25 27  4  0  0  0
 26 27  4  0  0  0
 27 28  1  0  0  0
 29 30  1  0  0  0
 30 31  1  0  0  0
 30 33  1  0  0  0
 31 32  2  0  0  0
 31 38  1  0  0  0
 33 34  1  0  0  0
 34 35  1  0  0  0
 35 36  1  0  0  0
 36 37  1  0  0  0
 38 39  1  0  0  0
 39 40  1  0  0  0
 39 42  1  0  0  0
 40 41  2  0  0  0
 40 46  1  0  0  0
 42 43  1  0  0  0
 43 44  1  0  0  0
 43 45  1  0  0  0
 46 47  1  0  0  0
 46 52  1  0  0  0
 47 48  1  0  0  0
 47 50  1  0  0  0
 48 49  2  0  0  0
 48 53  1  0  0  0
 50 51  1  0  0  0
 51 52  1  0  0  0
 53 54  1  0  0  0
 54 55  1  0  0  0
 54 57  1  0  0  0
 55 56  2  0  0  0
 55 61  1  0  0  0
 57 58  1  0  0  0
 58 59  1  0  0  0
 59 60  1  0  0  0
 61 62  1  0  0  0
 62 63  1  0  0  0
 62 65  1  0  0  0
 63 64  2  0  0  0
 63 70  1  0  0  0
 65 66  1  0  0  0
 66 67  1  0  0  0
 67 68  1  0  0  0
 67 69  2  0  0  0
 70 71  1  0  0  0
 71 72  1  0  0  0
 71 74  1  0  0  0
 72 73  2  0  0  0
 72 82  1  0  0  0
 74 75  1  0  0  0
 75 76  4  0  0  0
 75 77  4  0  0  0
 76 78  4  0  0  0
 77 79  4  0  0  0
 78 80  4  0  0  0
 79 80  4  0  0  0
 80 81  1  0  0  0
 82 83  1  0  0  0
 83 84  1  0  0  0
 83 86  1  0  0  0
 84 85  2  0  0  0
 84 90  1  0  0  0
 86 87  1  0  0  0
 86 88  1  0  0  0
 87 89  1  0  0  0
 90 91  1  0  0  0
 91 92  1  0  0  0
 91 94  1  0  0  0
 92 93  2  0  0  0
 92 97  1  0  0  0
 94 95  1  0  0  0
 94 96  1  0  0  0
  1 98  1  0  0  0
  1 99  1  0  0  0
  1100  1  0  0  0
  2101  1  0  0  0
  5102  1  0  0  0
  5103  1  0  0  0
  7104  1  0  0  0
  9105  1  0  0  0
 10106  1  0  0  0
 13107  1  0  0  0
 13108  1  0  0  0
 15109  1  0  0  0
 17110  1  0  0  0
 18111  1  0  0  0
 21112  1  0  0  0
 21113  1  0  0  0
 23114  1  0  0  0
 24115  1  0  0  0
 25116  1  0  0  0
 26117  1  0  0  0
 28118  1  0  0  0
 29119  1  0  0  0
 30120  1  0  0  0
 33121  1  0  0  0
 33122  1  0  0  0
 34123  1  0  0  0
 34124  1  0  0  0
 35125  1  0  0  0
 35126  1  0  0  0
 36127  1  0  0  0
 36128  1  0  0  0
 37129  1  0  0  0
 37130  1  0  0  0
 37131  1  0  0  0
 38132  1  0  0  0
 39133  1  0  0  0
 42134  1  0  0  0
 42135  1  0  0  0
 43136  1  0  0  0
 44137  1  0  0  0
 44138  1  0  0  0
 44139  1  0  0  0
 45140  1  0  0  0
 45141  1  0  0  0
 45142  1  0  0  0
 47143  1  0  0  0
 50144  1  0  0  0
 50145  1  0  0  0
 51146  1  0  0  0
 51147  1  0  0  0
 52148  1  0  0  0
 52149  1  0  0  0
 53150  1  0  0  0
 54151  1  0  0  0
 57152  1  0  0  0
 57153  1  0  0  0
 58154  1  0  0  0
 58155  1  0  0  0
 60156  1  0  0  0
 60157  1  0  0  0
 60158  1  0  0  0
 61159  1  0  0  0
 62160  1  0  0  0
 65161  1  0  0  0
 65162  1  0  0  0
 66163  1  0  0  0
 66164  1  0  0  0
 68165  1  0  0  0
 70166  1  0  0  0
 71167  1  0  0  0
 74168  1  0  0  0
 74169  1  0  0  0
 76170  1  0  0  0
 77171  1  0  0  0
 78172  1  0  0  0
 79173  1  0  0  0
 81174  1  0  0  0
 82175  1  0  0  0
 83176  1  0  0  0
 86177  1  0  0  0
 87178  1  0  0  0
 87179  1  0  0  0
 88180  1  0  0  0
 88181  1  0  0  0
 88182  1  0  0  0
 89183  1  0  0  0
 89184  1  0  0  0
 89185  1  0  0  0
 90186  1  0  0  0
 91187  1  0  0  0
 94188  1  0  0  0
 95189  1  0  0  0
 96190  1  0  0  0
 96191  1  0  0  0
 96192  1  0  0  0
 97193  1  0  0  0
M  END
$$$$
