### 
### Created by X-TOOL on Mon Aug  2 16:17:06 2021
### 

@<TRIPOS>MOLECULE
6o3w_ligand
  189   191     1     0     0
SMALL
GAST_HUCK


@<TRIPOS>ATOM
      1 N         -40.7930   34.0940  -27.9900 N.4       1 ASP         0.2391
      2 CA        -39.7460   34.6970  -28.8110 C.3       1 ASP         0.0764
      3 C         -38.3770   34.4860  -28.1680 C.2       1 ASP         0.2285
      4 O         -37.6060   35.4320  -27.9770 O.2       1 ASP        -0.3906
      5 CB        -40.0080   36.1950  -29.0150 C.3       1 ASP         0.0607
      6 CG        -39.0970   36.8180  -30.0700 C.2       1 ASP         0.0425
      7 OD1       -38.5590   36.0820  -30.9260 O.co2     1 ASP        -0.5686
      8 OD2       -38.9170   38.0530  -30.0390 O.co2     1 ASP        -0.5686
      9 N         -38.0760   33.2410  -27.8180 N.am      1 ASP        -0.2594
     10 CA        -36.7910   32.9630  -27.2040 C.3       1 ASP         0.1424
     11 C         -35.7300   32.8070  -28.2900 C.2       1 ASP         0.2057
     12 O         -36.0100   32.8840  -29.4890 O.2       1 ASP        -0.3943
     13 CB        -36.8870   31.7310  -26.3040 C.3       1 ASP         0.0406
     14 CG        -37.2490   30.4570  -27.0650 C.2       1 ASP         0.0393
     15 OD1       -37.2900   30.4660  -28.3140 O.co2     1 ASP        -0.5688
     16 OD2       -37.5030   29.4320  -26.3980 O.co2     1 ASP        -0.5688
     17 N         -34.4930   32.5760  -27.8710 N.am      1 ASP        -0.2620
     18 CA        -33.3870   32.3760  -28.7950 C.3       1 ASP         0.1390
     19 C         -33.1940   30.8810  -29.0160 C.2       1 ASP         0.2057
     20 O         -32.8810   30.1540  -28.0690 O.2       1 ASP        -0.3942
     21 CB        -32.1130   32.9990  -28.2360 C.3       1 ASP         0.0163
     22 CG        -30.9070   32.7870  -29.1160 C.ar      1 ASP        -0.0493
     23 CD1       -30.8750   33.3030  -30.4080 C.ar      1 ASP        -0.0685
     24 CD2       -29.7940   32.1010  -28.6520 C.ar      1 ASP        -0.0685
     25 CE1       -29.7600   33.1380  -31.2220 C.ar      1 ASP        -0.0398
     26 CE2       -28.6710   31.9290  -29.4590 C.ar      1 ASP        -0.0398
     27 CZ        -28.6660   32.4550  -30.7410 C.ar      1 ASP         0.0805
     28 OH        -27.5710   32.2800  -31.5580 O.3       1 ASP        -0.3376
     29 N         -33.3640   30.4250  -30.2570 N.am      1 ASP        -0.2636
     30 CA        -33.2390   29.0010  -30.5610 C.3       1 ASP         0.1310
     31 C         -31.7730   28.6120  -30.7300 C.2       1 ASP         0.2039
     32 O         -31.1200   29.0270  -31.6910 O.2       1 ASP        -0.3944
     33 CB        -34.0290   28.6490  -31.8200 C.3       1 ASP        -0.0122
     34 CG        -35.5040   28.3410  -31.5740 C.3       1 ASP        -0.0440
     35 CD        -36.3310   29.5930  -31.3230 C.3       1 ASP        -0.0124
     36 CE        -37.7970   29.2400  -31.1000 C.3       1 ASP        -0.0354
     37 NZ        -38.3370   28.4090  -32.2060 N.4       1 ASP         0.2185
     38 N         -31.2750   27.7820  -29.8270 N.am      1 ASP        -0.2637
     39 CA        -29.9030   27.3060  -29.8700 C.3       1 ASP         0.1314
     40 C         -29.7670   26.1370  -30.8470 C.2       1 ASP         0.2064
     41 O         -30.7480   25.4510  -31.1450 O.2       1 ASP        -0.3942
     42 CB        -29.4720   26.8930  -28.4690 C.3       1 ASP        -0.0101
     43 CG        -29.2990   28.0770  -27.5150 C.3       1 ASP        -0.0425
     44 CD1       -29.3450   27.6120  -26.0810 C.3       1 ASP        -0.0625
     45 CD2       -27.9760   28.7680  -27.8020 C.3       1 ASP        -0.0625
     46 N         -28.5450   25.8850  -31.3700 N.am      1 ASP        -0.2498
     47 CA        -28.3620   24.8590  -32.4100 C.3       1 ASP         0.1338
     48 C         -28.2520   23.4600  -31.8250 C.2       1 ASP         0.2041
     49 O         -27.2650   23.1160  -31.1620 O.2       1 ASP        -0.3944
     50 CB        -27.0570   25.2940  -33.0950 C.3       1 ASP        -0.0104
     51 CG        -26.2660   25.9240  -31.9780 C.3       1 ASP        -0.0281
     52 CD        -27.3060   26.6550  -31.1360 C.3       1 ASP         0.0369
     53 N         -29.2450   22.6190  -32.1290 N.am      1 ASP        -0.2637
     54 CA        -29.3160   21.2770  -31.5480 C.3       1 ASP         0.1317
     55 C         -28.1130   20.4260  -31.9330 C.2       1 ASP         0.2039
     56 O         -27.6470   19.6050  -31.1300 O.2       1 ASP        -0.3944
     57 CB        -30.6220   20.6060  -31.9840 C.3       1 ASP        -0.0034
     58 CG        -30.9400   19.2840  -31.2690 C.3       1 ASP        -0.0024
     59 SD        -31.0800   19.4810  -29.4760 S.3       1 ASP        -0.1639
     60 CE        -32.2430   20.8420  -29.3410 C.3       1 ASP        -0.0181
     61 N         -27.5800   20.6120  -33.1450 N.am      1 ASP        -0.2636
     62 CA        -26.4330   19.8170  -33.5690 C.3       1 ASP         0.1325
     63 C         -25.2130   20.0320  -32.6800 C.2       1 ASP         0.2041
     64 O         -24.2990   19.2100  -32.7040 O.2       1 ASP        -0.3944
     65 CB        -26.0770   20.1270  -35.0230 C.3       1 ASP        -0.0008
     66 CG        -25.2180   21.3600  -35.2120 C.3       1 ASP         0.0044
     67 CD        -24.6760   21.4710  -36.6260 C.2       1 ASP         0.0350
     68 OE1       -24.9550   22.4920  -37.2960 O.co2     1 ASP        -0.5690
     69 OE2       -23.9790   20.5330  -37.0710 O.co2     1 ASP        -0.5690
     70 N         -25.1750   21.1090  -31.8950 N.am      1 ASP        -0.2621
     71 CA        -24.0720   21.3450  -30.9730 C.3       1 ASP         0.1390
     72 C         -24.4710   21.1280  -29.5220 C.2       1 ASP         0.2057
     73 O         -23.6880   21.4330  -28.6180 O.2       1 ASP        -0.3942
     74 CB        -23.5150   22.7560  -31.1730 C.3       1 ASP         0.0163
     75 CG        -22.9310   22.9480  -32.5450 C.ar      1 ASP        -0.0493
     76 CD1       -21.9970   22.0450  -33.0500 C.ar      1 ASP        -0.0685
     77 CD2       -23.3320   24.0050  -33.3530 C.ar      1 ASP        -0.0685
     78 CE1       -21.4690   22.2050  -34.3130 C.ar      1 ASP        -0.0398
     79 CE2       -22.8020   24.1730  -34.6200 C.ar      1 ASP        -0.0398
     80 CZ        -21.8710   23.2680  -35.0920 C.ar      1 ASP         0.0805
     81 OH        -21.3430   23.4340  -36.3490 O.3       1 ASP        -0.3376
     82 N         -25.6550   20.5900  -29.2750 N.am      1 ASP        -0.2633
     83 CA        -26.1670   20.3980  -27.9280 C.3       1 ASP         0.1335
     84 C         -26.2740   18.9210  -27.5750 C.2       1 ASP         0.2037
     85 O         -25.7410   18.4760  -26.5560 O.2       1 ASP        -0.3944
     86 CB        -27.5300   21.1020  -27.7570 C.3       1 ASP        -0.0037
     87 CG1       -27.3630   22.6140  -27.9290 C.3       1 ASP        -0.0491
     88 CG2       -28.1270   20.7320  -26.4130 C.3       1 ASP        -0.0582
     89 CD1       -28.6700   23.3570  -28.0250 C.3       1 ASP        -0.0648
     90 N         -26.9600   18.1440  -28.4070 N.am      1 ASP        -0.2670
     91 CA        -27.3850   16.8080  -28.0110 C.3       1 ASP         0.1198
     92 C         -26.2930   15.7440  -28.2140 C.2       1 ASP         0.0626
     93 O         -25.4770   15.8420  -29.1340 O.co2     1 ASP        -0.5665
     94 CB        -28.6500   16.3920  -28.7810 C.3       1 ASP         0.0869
     95 OG1       -29.0730   15.0930  -28.3440 O.3       1 ASP        -0.3880
     96 CG2       -28.3730   16.3590  -30.2790 C.3       1 ASP        -0.0352
     97 OXT       -26.2100   14.7700  -27.4610 O.co2     1 ASP        -0.5665
     98 H1        -41.6893   34.2415  -28.4270 H         1 ASP         0.2016
     99 H2        -40.7906   34.5197  -27.0763 H         1 ASP         0.2016
    100 H3        -40.6217   33.1047  -27.9002 H         1 ASP         0.2016
    101 H4        -39.7499   34.2055  -29.7951 H         1 ASP         0.1117
    102 H5        -39.8440   36.7136  -28.0589 H         1 ASP         0.0512
    103 H6        -41.0533   36.3290  -29.3303 H         1 ASP         0.0512
    104 H7        -38.7296   32.5009  -27.9763 H         1 ASP         0.1886
    105 H8        -36.5121   33.8210  -26.5747 H         1 ASP         0.0819
    106 H9        -37.6586   31.9141  -25.5417 H         1 ASP         0.0478
    107 H10       -35.9145   31.5803  -25.8126 H         1 ASP         0.0478
    108 H11       -34.3146   32.5380  -26.8878 H         1 ASP         0.1885
    109 H12       -33.6265   32.8555  -29.7556 H         1 ASP         0.0821
    110 H13       -31.9092   32.5524  -27.2516 H         1 ASP         0.0453
    111 H14       -32.2751   34.0809  -28.1213 H         1 ASP         0.0453
    112 H15       -31.7350   33.8434  -30.7867 H         1 ASP         0.0530
    113 H16       -29.7980   31.6931  -27.6477 H         1 ASP         0.0530
    114 H17       -29.7523   33.5439  -32.2271 H         1 ASP         0.0525
    115 H18       -27.8084   31.3881  -29.0869 H         1 ASP         0.0525
    116 H19       -27.4223   31.3513  -31.6917 H         1 ASP         0.2458
    117 H20       -33.5806   31.0677  -30.9919 H         1 ASP         0.1883
    118 H21       -33.6551   28.4293  -29.7184 H         1 ASP         0.0800
    119 H22       -33.5652   27.7645  -32.2810 H         1 ASP         0.0312
    120 H23       -33.9665   29.4998  -32.5144 H         1 ASP         0.0312
    121 H24       -35.5846   27.6840  -30.6955 H         1 ASP         0.0269
    122 H25       -35.9076   27.8238  -32.4569 H         1 ASP         0.0269
    123 H26       -36.2495   30.2594  -32.1944 H         1 ASP         0.0317
    124 H27       -35.9445   30.1072  -30.4307 H         1 ASP         0.0317
    125 H28       -38.3814   30.1696  -31.0347 H         1 ASP         0.0813
    126 H29       -37.8896   28.6816  -30.1568 H         1 ASP         0.0813
    127 H30       -39.3054   28.1961  -32.0243 H         1 ASP         0.1994
    128 H31       -37.8108   27.5516  -32.2699 H         1 ASP         0.1994
    129 H32       -38.2615   28.9152  -33.0744 H         1 ASP         0.1994
    130 H33       -31.8677   27.4697  -29.0845 H         1 ASP         0.1883
    131 H34       -29.2539   28.1250  -30.2133 H         1 ASP         0.0800
    132 H35       -28.5124   26.3603  -28.5418 H         1 ASP         0.0315
    133 H36       -30.2352   26.2186  -28.0535 H         1 ASP         0.0315
    134 H37       -30.1187   28.7914  -27.6813 H         1 ASP         0.0298
    135 H38       -29.2191   28.4755  -25.4113 H         1 ASP         0.0232
    136 H39       -28.5348   26.8894  -25.9037 H         1 ASP         0.0232
    137 H40       -30.3146   27.1320  -25.8821 H         1 ASP         0.0232
    138 H41       -27.9563   29.1015  -28.8500 H         1 ASP         0.0232
    139 H42       -27.1490   28.0645  -27.6255 H         1 ASP         0.0232
    140 H43       -27.8652   29.6381  -27.1382 H         1 ASP         0.0232
    141 H44       -29.1991   24.8796  -33.1233 H         1 ASP         0.0802
    142 H45       -27.2566   26.0224  -33.8947 H         1 ASP         0.0313
    143 H46       -26.5246   24.4270  -33.5132 H         1 ASP         0.0313
    144 H47       -25.5238   26.6305  -32.3780 H         1 ASP         0.0287
    145 H48       -25.7549   25.1539  -31.3815 H         1 ASP         0.0287
    146 H49       -27.0298   26.6409  -30.0713 H         1 ASP         0.0524
    147 H50       -27.4214   27.6963  -31.4712 H         1 ASP         0.0524
    148 H51       -29.9559   22.9130  -32.7679 H         1 ASP         0.1883
    149 H52       -29.3242   21.3759  -30.4525 H         1 ASP         0.0800
    150 H53       -30.5586   20.4040  -33.0634 H         1 ASP         0.0320
    151 H54       -31.4475   21.3066  -31.7899 H         1 ASP         0.0320
    152 H55       -30.1354   18.5650  -31.4829 H         1 ASP         0.0378
    153 H56       -31.8928   18.8940  -31.6563 H         1 ASP         0.0378
    154 H57       -32.4202   21.0689  -28.2793 H         1 ASP         0.0340
    155 H58       -33.1929   20.5615  -29.8195 H         1 ASP         0.0340
    156 H59       -31.8284   21.7296  -29.8413 H         1 ASP         0.0340
    157 H60       -27.9682   21.2970  -33.7615 H         1 ASP         0.1883
    158 H61       -26.7168   18.7564  -33.5019 H         1 ASP         0.0801
    159 H62       -27.0131   20.2719  -35.5822 H         1 ASP         0.0330
    160 H63       -25.5337   19.2638  -35.4349 H         1 ASP         0.0330
    161 H64       -24.3716   21.3128  -34.5111 H         1 ASP         0.0433
    162 H65       -25.8250   22.2512  -34.9945 H         1 ASP         0.0433
    163 H66       -25.9226   21.7716  -31.9402 H         1 ASP         0.1885
    164 H67       -23.2751   20.6251  -31.2113 H         1 ASP         0.0821
    165 H68       -22.7285   22.9355  -30.4252 H         1 ASP         0.0453
    166 H69       -24.3293   23.4816  -31.0302 H         1 ASP         0.0453
    167 H70       -21.6816   21.2055  -32.4411 H         1 ASP         0.0530
    168 H71       -24.0707   24.7081  -32.9854 H         1 ASP         0.0530
    169 H72       -20.7404   21.4974  -34.6919 H         1 ASP         0.0525
    170 H73       -23.1146   25.0076  -35.2370 H         1 ASP         0.0525
    171 H74       -22.0425   23.4072  -36.9912 H         1 ASP         0.2458
    172 H75       -26.2213   20.3035  -30.0478 H         1 ASP         0.1883
    173 H76       -25.4556   20.8606  -27.2281 H         1 ASP         0.0803
    174 H77       -28.2109   20.7437  -28.5431 H         1 ASP         0.0345
    175 H78       -26.7896   22.7983  -28.8495 H         1 ASP         0.0267
    176 H79       -26.8044   23.0029  -27.0649 H         1 ASP         0.0267
    177 H80       -28.2243   19.6385  -26.3436 H         1 ASP         0.0235
    178 H81       -29.1195   21.1955  -26.3125 H         1 ASP         0.0235
    179 H82       -27.4703   21.0935  -25.6080 H         1 ASP         0.0235
    180 H83       -28.4724   24.4322  -28.1467 H         1 ASP         0.0230
    181 H84       -29.2533   23.1930  -27.1069 H         1 ASP         0.0230
    182 H85       -29.2386   22.9884  -28.8915 H         1 ASP         0.0230
    183 H86       -27.1882   18.4821  -29.3200 H         1 ASP         0.1876
    184 H87       -27.6281   16.8408  -26.9387 H         1 ASP         0.0752
    185 H88       -29.4492   17.1204  -28.5792 H         1 ASP         0.0632
    186 H89       -28.3808   14.4636  -28.5090 H         1 ASP         0.2100
    187 H90       -29.2864   16.0602  -30.8142 H         1 ASP         0.0256
    188 H91       -27.5720   15.6346  -30.4879 H         1 ASP         0.0256
    189 H92       -28.0608   17.3584  -30.6163 H         1 ASP         0.0256
@<TRIPOS>BOND
     1    1    2 1  
     2    2    3 1  
     3    2    5 1  
     4    3    4 2  
     5    3    9 am 
     6    5    6 1  
     7    6    7 ar 
     8    6    8 ar 
     9    9   10 1  
    10   10   11 1  
    11   10   13 1  
    12   11   12 2  
    13   11   17 am 
    14   13   14 1  
    15   14   15 ar 
    16   14   16 ar 
    17   17   18 1  
    18   18   19 1  
    19   18   21 1  
    20   19   20 2  
    21   19   29 am 
    22   21   22 1  
    23   22   23 ar 
    24   22   24 ar 
    25   23   25 ar 
    26   24   26 ar 
    27   25   27 ar 
    28   26   27 ar 
    29   27   28 1  
    30   29   30 1  
    31   30   31 1  
    32   30   33 1  
    33   31   32 2  
    34   31   38 am 
    35   33   34 1  
    36   34   35 1  
    37   35   36 1  
    38   36   37 1  
    39   38   39 1  
    40   39   40 1  
    41   39   42 1  
    42   40   41 2  
    43   40   46 am 
    44   42   43 1  
    45   43   44 1  
    46   43   45 1  
    47   46   47 1  
    48   46   52 1  
    49   47   48 1  
    50   47   50 1  
    51   48   49 2  
    52   48   53 am 
    53   50   51 1  
    54   51   52 1  
    55   53   54 1  
    56   54   55 1  
    57   54   57 1  
    58   55   56 2  
    59   55   61 am 
    60   57   58 1  
    61   58   59 1  
    62   59   60 1  
    63   61   62 1  
    64   62   63 1  
    65   62   65 1  
    66   63   64 2  
    67   63   70 am 
    68   65   66 1  
    69   66   67 1  
    70   67   68 ar 
    71   67   69 ar 
    72   70   71 1  
    73   71   72 1  
    74   71   74 1  
    75   72   73 2  
    76   72   82 am 
    77   74   75 1  
    78   75   76 ar 
    79   75   77 ar 
    80   76   78 ar 
    81   77   79 ar 
    82   78   80 ar 
    83   79   80 ar 
    84   80   81 1  
    85   82   83 1  
    86   83   84 1  
    87   83   86 1  
    88   84   85 2  
    89   84   90 am 
    90   86   87 1  
    91   86   88 1  
    92   87   89 1  
    93   90   91 1  
    94   91   92 1  
    95   91   94 1  
    96   92   93 ar 
    97   92   97 ar 
    98   94   95 1  
    99   94   96 1  
   100    1   98 1  
   101    1   99 1  
   102    1  100 1  
   103    2  101 1  
   104    5  102 1  
   105    5  103 1  
   106    9  104 1  
   107   10  105 1  
   108   13  106 1  
   109   13  107 1  
   110   17  108 1  
   111   18  109 1  
   112   21  110 1  
   113   21  111 1  
   114   23  112 1  
   115   24  113 1  
   116   25  114 1  
   117   26  115 1  
   118   28  116 1  
   119   29  117 1  
   120   30  118 1  
   121   33  119 1  
   122   33  120 1  
   123   34  121 1  
   124   34  122 1  
   125   35  123 1  
   126   35  124 1  
   127   36  125 1  
   128   36  126 1  
   129   37  127 1  
   130   37  128 1  
   131   37  129 1  
   132   38  130 1  
   133   39  131 1  
   134   42  132 1  
   135   42  133 1  
   136   43  134 1  
   137   44  135 1  
   138   44  136 1  
   139   44  137 1  
   140   45  138 1  
   141   45  139 1  
   142   45  140 1  
   143   47  141 1  
   144   50  142 1  
   145   50  143 1  
   146   51  144 1  
   147   51  145 1  
   148   52  146 1  
   149   52  147 1  
   150   53  148 1  
   151   54  149 1  
   152   57  150 1  
   153   57  151 1  
   154   58  152 1  
   155   58  153 1  
   156   60  154 1  
   157   60  155 1  
   158   60  156 1  
   159   61  157 1  
   160   62  158 1  
   161   65  159 1  
   162   65  160 1  
   163   66  161 1  
   164   66  162 1  
   165   70  163 1  
   166   71  164 1  
   167   74  165 1  
   168   74  166 1  
   169   76  167 1  
   170   77  168 1  
   171   78  169 1  
   172   79  170 1  
   173   81  171 1  
   174   82  172 1  
   175   83  173 1  
   176   86  174 1  
   177   87  175 1  
   178   87  176 1  
   179   88  177 1  
   180   88  178 1  
   181   88  179 1  
   182   89  180 1  
   183   89  181 1  
   184   89  182 1  
   185   90  183 1  
   186   91  184 1  
   187   94  185 1  
   188   95  186 1  
   189   96  187 1  
   190   96  188 1  
   191   96  189 1  
@<TRIPOS>SUBSTRUCTURE
     1 ASP         1

