6sbt_ligand
  -I-interpret- 

 42 45  0  0  0  0  0  0  0  0999 V2000
    4.7850   28.0270   37.9220 N   0  0  0  0  0
    6.2260   31.5960   36.4270 N   0  0  0  0  0
    7.9170   29.2150   36.3980 C   0  0  0  0  0
    8.6920   28.0460   36.4290 C   0  0  0  0  0
    8.1610   26.8490   36.9470 C   0  0  0  0  0
    3.9380   29.0750   37.9610 C   0  0  0  0  0
    4.4580   30.3950   37.4020 C   0  0  0  0  0
    6.7770   33.4750   35.1210 C   0  0  0  0  0
    7.9950   35.9910   35.0760 C   0  0  0  0  0
    6.6690   34.3460   36.2200 C   0  0  0  0  0
   11.2030   28.3280   36.5130 C   0  0  0  0  0
    6.8510   26.8600   37.4480 C   0  0  0  0  0
    7.5130   33.8840   33.9980 C   0  0  0  0  0
    8.1160   35.1410   33.9790 C   0  0  0  0  0
    7.2730   35.5990   36.1990 C   0  0  0  0  0
    8.9850   25.5520   36.9950 C   0  0  0  0  0
   11.7060   28.0600   34.4980 C   0  0  0  0  0
   10.3310   27.9250   34.5720 C   0  0  0  0  0
    6.0890   28.0280   37.4220 C   0  0  0  0  0
    6.6040   29.2230   36.8990 C   0  0  0  0  0
    6.1160   32.1150   35.1850 C   0  0  0  0  0
    9.3700   25.1540   35.7870 F   0  0  0  0  0
   10.0750   25.7700   37.7290 F   0  0  0  0  0
    8.3200   24.5450   37.5610 F   0  0  0  0  0
    5.7380   30.3620   36.9010 N   0  0  0  0  0
    9.9950   28.1030   35.8940 N   0  0  0  0  0
   12.2280   28.3080   35.6860 N   0  0  0  0  0
    5.5650   31.5900   34.2070 O   0  0  0  0  0
    2.7960   28.9980   38.4200 O   0  0  0  0  0
    3.7050   31.3800   37.4220 O   0  0  0  0  0
    4.4383   27.1435   38.2956 H   0  0  0  0  0
    6.7250   32.1692   37.1073 H   0  0  0  0  0
    8.3387   30.1290   35.9799 H   0  0  0  0  0
    8.4701   36.9718   35.0545 H   0  0  0  0  0
    6.1049   34.0353   37.0994 H   0  0  0  0  0
   11.3022   28.5056   37.5839 H   0  0  0  0  0
    6.4241   25.9465   37.8619 H   0  0  0  0  0
    7.6132   33.2187   33.1404 H   0  0  0  0  0
    8.6831   35.4592   33.1042 H   0  0  0  0  0
    7.1815   36.2678   37.0548 H   0  0  0  0  0
   12.2841   27.9730   33.5780 H   0  0  0  0  0
    9.6495   27.7186   33.7468 H   0  0  0  0  0
  1  6  1  0  0  0
 19  1  1  0  0  0
  2 21  1  0  0  0
 25  2  1  0  0  0
  4  3  4  0  0  0
  3 20  4  0  0  0
  4  5  4  0  0  0
 26  4  1  0  0  0
  5 12  4  0  0  0
  5 16  1  0  0  0
  6  7  1  0  0  0
  6 29  2  0  0  0
  7 25  1  0  0  0
  7 30  2  0  0  0
  8 10  4  0  0  0
  8 13  4  0  0  0
 21  8  1  0  0  0
 14  9  4  0  0  0
 15  9  4  0  0  0
 10 15  4  0  0  0
 11 26  4  0  0  0
 27 11  4  0  0  0
 12 19  4  0  0  0
 13 14  4  0  0  0
 16 22  1  0  0  0
 16 23  1  0  0  0
 16 24  1  0  0  0
 17 18  4  0  0  0
 17 27  4  0  0  0
 18 26  4  0  0  0
 19 20  4  0  0  0
 20 25  1  0  0  0
 21 28  2  0  0  0
  1 31  1  0  0  0
  2 32  1  0  0  0
  3 33  1  0  0  0
  9 34  1  0  0  0
 10 35  1  0  0  0
 11 36  1  0  0  0
 12 37  1  0  0  0
 13 38  1  0  0  0
 14 39  1  0  0  0
 15 40  1  0  0  0
 17 41  1  0  0  0
 18 42  1  0  0  0
M  END
$$$$
