2w10_ligand
  -I-interpret- 

194199  0  0  0  0  0  0  0  0999 V2000
   10.8740   -9.9030    2.4560 N   0  3  0  0  0
    9.4740   -9.6890    2.7920 C   0  0  0  0  0
    8.6720  -10.9730    2.8960 C   0  0  0  0  0
    9.1400  -12.0240    2.4660 O   0  0  0  0  0
    8.9060   -8.8630    1.6010 C   0  0  0  0  0
   10.0040   -8.6900    0.6170 C   0  0  0  0  0
   11.1670   -9.5800    1.0410 C   0  0  0  0  0
    7.4400  -10.8680    3.4160 N   0  0  0  0  0
    6.4960  -11.9630    3.3630 C   0  0  0  0  0
    6.1320  -12.3100    1.9280 C   0  0  0  0  0
    6.3210  -11.4680    1.0060 O   0  0  0  0  0
    5.2380  -11.3970    4.0500 C   0  0  0  0  0
    5.7130  -10.2180    4.8210 C   0  0  0  0  0
    6.8950   -9.7010    4.1270 C   0  0  0  0  0
    5.5340  -13.4950    1.7440 N   0  0  0  0  0
    4.9960  -13.8680    0.4710 C   0  0  0  0  0
    3.8990  -12.8870    0.0540 C   0  0  0  0  0
    3.2210  -12.3200    0.9190 O   0  0  0  0  0
    4.3630  -15.2300    0.7360 C   0  0  0  0  0
    4.9110  -15.7140    2.0110 C   0  0  0  0  0
    5.2580  -14.5100    2.7750 C   0  0  0  0  0
    3.7400  -12.7060   -1.2530 N   0  0  0  0  0
    2.6290  -11.9380   -1.7760 C   0  0  0  0  0
    1.3160  -12.6060   -1.3600 C   0  0  0  0  0
    1.2850  -13.8280   -1.1000 O   0  0  0  0  0
    2.6820  -11.8580   -3.2970 C   0  0  0  0  0
    3.8610  -11.0800   -3.8790 C   0  0  0  0  0
    3.9190  -11.2340   -5.3640 C   0  0  0  0  0
    2.5940  -11.1450   -5.9840 N   0  0  0  0  0
    2.0760  -10.0520   -6.5440 C   0  0  0  0  0
    0.8660  -10.1160   -7.0770 N   0  0  0  0  0
    2.7540   -8.9060   -6.5850 N   0  0  0  0  0
    0.2330  -11.8210   -1.2750 N   0  0  0  0  0
   -1.0850  -12.4690   -1.0840 C   0  0  0  0  0
   -1.4420  -13.2370   -2.3470 C   0  0  0  0  0
   -0.9340  -12.9070   -3.4130 O   0  0  0  0  0
   -2.0430  -11.3070   -0.8740 C   0  0  0  0  0
   -1.2120  -10.0890   -0.7800 C   0  0  0  0  0
    0.1260  -10.3640   -1.3540 C   0  0  0  0  0
   -2.2680  -14.2730   -2.2090 N   0  0  0  0  0
   -2.7750  -15.0100   -3.3460 C   0  0  0  0  0
   -4.2820  -14.8500   -3.5070 C   0  0  0  0  0
   -4.8670  -15.3860   -4.4510 O   0  0  0  0  0
   -2.4580  -16.5070   -3.2260 C   0  0  0  0  0
   -3.0620  -17.0400   -2.0340 O   0  0  0  0  0
   -0.9630  -16.7280   -3.1970 C   0  0  0  0  0
   -4.9440  -14.1060   -2.6250 N   0  0  0  0  0
   -6.3670  -13.8820   -2.8070 C   0  0  0  0  0
   -6.5950  -13.0900   -4.0950 C   0  0  0  0  0
   -5.7310  -12.2750   -4.4880 O   0  0  0  0  0
   -6.9360  -13.1240   -1.6450 C   0  0  0  0  0
   -7.7650  -13.2780   -4.7470 N   0  0  0  0  0
   -8.1130  -12.4020   -5.8760 C   0  0  0  0  0
   -8.1930  -10.9590   -5.4100 C   0  0  0  0  0
   -8.5680  -10.7130   -4.2660 O   0  0  0  0  0
   -9.4820  -12.9100   -6.3110 C   0  0  0  0  0
   -9.4980  -14.3060   -5.8790 C   0  0  0  0  0
   -8.7780  -14.3150   -4.5500 C   0  0  0  0  0
   -7.7970  -10.0240   -6.2610 N   0  0  0  0  0
   -7.7690   -8.6230   -5.8700 C   0  0  0  0  0
   -9.1330   -7.9960   -6.0790 C   0  0  0  0  0
   -9.8360   -8.3110   -7.0510 O   0  0  0  0  0
   -6.7020   -7.8520   -6.6560 C   0  0  0  0  0
   -5.3030   -8.0200   -6.0890 C   0  0  0  0  0
   -4.2220   -7.4270   -6.9410 C   0  0  0  0  0
   -3.8530   -8.3670   -8.0610 C   0  0  0  0  0
   -2.8100   -7.8340   -8.9310 N   0  3  0  0  0
   -9.5340   -7.1120   -5.1660 N   0  0  0  0  0
  -10.7660   -6.3880   -5.4440 C   0  0  0  0  0
  -10.5640   -5.3990   -6.5820 C   0  0  0  0  0
   -9.4300   -5.0720   -6.9120 O   0  0  0  0  0
  -11.0550   -5.6550   -4.1280 C   0  0  0  0  0
   -9.7600   -5.6720   -3.3470 C   0  0  0  0  0
   -8.9360   -6.7780   -3.8590 C   0  0  0  0  0
  -11.6470   -4.9200   -7.1850 N   0  0  0  0  0
  -11.5140   -3.8890   -8.2130 C   0  0  0  0  0
  -11.2500   -2.5260   -7.5920 C   0  0  0  0  0
  -11.5640   -2.3000   -6.4220 O   0  0  0  0  0
  -12.7490   -3.8340   -9.1120 C   0  0  0  0  0
  -12.8040   -4.9120  -10.2070 C   0  0  0  0  0
  -11.4230   -5.5670  -10.4990 C   0  0  0  0  0
  -13.8310   -5.9770   -9.9020 C   0  0  0  0  0
  -10.6100   -1.6360   -8.3490 N   0  0  0  0  0
  -10.6300   -0.2000   -8.0160 C   0  0  0  0  0
  -10.9790    0.6380   -9.2250 C   0  0  0  0  0
  -10.6670    0.2530  -10.3480 O   0  0  0  0  0
   -9.3140    0.2620   -7.3950 C   0  0  0  0  0
   -7.9750   -0.4030   -7.7360 C   0  0  0  0  0
   -7.6490   -0.2830   -9.1840 C   0  0  0  0  0
   -6.9230    0.2650   -6.9060 C   0  0  0  0  0
   11.0889  -10.8886    2.6070 H   0  0  0  0  0
   11.4383   -9.2899    3.0443 H   0  0  0  0  0
    9.4022   -9.2035    3.7653 H   0  0  0  0  0
    8.5458   -7.8937    1.9457 H   0  0  0  0  0
    8.0623   -9.3809    1.1448 H   0  0  0  0  0
   10.3208   -7.6474    0.5879 H   0  0  0  0  0
    9.6620   -8.9692   -0.3796 H   0  0  0  0  0
   11.2504  -10.4734    0.4221 H   0  0  0  0  0
   12.1308   -9.0851    0.9213 H   0  0  0  0  0
    6.9009  -12.8628    3.8262 H   0  0  0  0  0
    4.7652  -12.1366    4.6963 H   0  0  0  0  0
    4.4727  -11.1216    3.3244 H   0  0  0  0  0
    5.9592  -10.5001    5.8447 H   0  0  0  0  0
    4.9356   -9.4562    4.8790 H   0  0  0  0  0
    6.6473   -8.8858    3.4472 H   0  0  0  0  0
    7.6184   -9.2669    4.8172 H   0  0  0  0  0
    5.7496  -13.8768   -0.3165 H   0  0  0  0  0
    4.5899  -15.9259   -0.0717 H   0  0  0  0  0
    3.2773  -15.1486    0.7875 H   0  0  0  0  0
    5.7818  -16.3505    1.8540 H   0  0  0  0  0
    4.1889  -16.3307    2.5461 H   0  0  0  0  0
    4.4570  -14.2051    3.4484 H   0  0  0  0  0
    6.1125  -14.6718    3.4321 H   0  0  0  0  0
    4.4134  -13.1159   -1.9003 H   0  0  0  0  0
    2.6908  -10.9274   -1.3723 H   0  0  0  0  0
    1.7803  -11.3316   -3.6099 H   0  0  0  0  0
    2.7804  -12.8822   -3.6567 H   0  0  0  0  0
    4.7843  -11.4688   -3.4495 H   0  0  0  0  0
    3.7366  -10.0238   -3.6403 H   0  0  0  0  0
    4.3312  -12.2183   -5.5863 H   0  0  0  0  0
    4.5346  -10.4283   -5.7640 H   0  0  0  0  0
    2.0211  -11.9889   -5.9872 H   0  0  0  0  0
    0.3448  -10.9925   -7.0552 H   0  0  0  0  0
    2.3404   -8.0842   -7.0253 H   0  0  0  0  0
    3.6868   -8.8504   -6.1760 H   0  0  0  0  0
   -1.1104  -13.1739   -0.2530 H   0  0  0  0  0
   -2.6335  -11.4471    0.0314 H   0  0  0  0  0
   -2.7523  -11.2325   -1.6983 H   0  0  0  0  0
   -1.1080   -9.7979    0.2652 H   0  0  0  0  0
   -1.6873   -9.2792   -1.3336 H   0  0  0  0  0
    0.2306   -9.9901   -2.3725 H   0  0  0  0  0
    0.9260   -9.8547   -0.8166 H   0  0  0  0  0
   -2.5523  -14.5558   -1.2711 H   0  0  0  0  0
   -2.2766  -14.5935   -4.2213 H   0  0  0  0  0
   -2.8671  -17.0242   -4.0939 H   0  0  0  0  0
   -2.8599  -17.9760   -1.9652 H   0  0  0  0  0
   -0.5223  -16.3437   -4.1169 H   0  0  0  0  0
   -0.5361  -16.2043   -2.3417 H   0  0  0  0  0
   -0.7563  -17.7948   -3.1116 H   0  0  0  0  0
   -4.4564  -13.6966   -1.8281 H   0  0  0  0  0
   -6.8686  -14.8476   -2.8714 H   0  0  0  0  0
   -6.7826  -13.6957   -0.7297 H   0  0  0  0  0
   -6.4345  -12.1599   -1.5611 H   0  0  0  0  0
   -8.0031  -12.9674   -1.8025 H   0  0  0  0  0
   -7.3814  -12.4238   -6.6838 H   0  0  0  0  0
   -9.6366  -12.8093   -7.3853 H   0  0  0  0  0
  -10.2948  -12.3329   -5.8701 H   0  0  0  0  0
   -9.0124  -14.9582   -6.6049 H   0  0  0  0  0
  -10.5147  -14.6885   -5.7892 H   0  0  0  0  0
   -9.4346  -14.1220   -3.7016 H   0  0  0  0  0
   -8.3570  -15.2871   -4.2933 H   0  0  0  0  0
   -7.5080  -10.2898   -7.2024 H   0  0  0  0  0
   -7.5121   -8.5695   -4.8121 H   0  0  0  0  0
   -6.9544   -6.7929   -6.6040 H   0  0  0  0  0
   -6.6950   -8.2424   -7.6737 H   0  0  0  0  0
   -5.1091   -9.0904   -6.0209 H   0  0  0  0  0
   -5.2791   -7.5014   -5.1306 H   0  0  0  0  0
   -3.3416   -7.2514   -6.3229 H   0  0  0  0  0
   -4.5829   -6.4919   -7.3693 H   0  0  0  0  0
   -4.7438   -8.5258   -8.6688 H   0  0  0  0  0
   -3.4747   -9.2858   -7.6128 H   0  0  0  0  0
   -2.6035   -8.5104   -9.6660 H   0  0  0  0  0
   -3.1318   -6.9618   -9.3506 H   0  0  0  0  0
   -1.9682   -7.6585   -8.3825 H   0  0  0  0  0
  -11.5827   -7.0395   -5.7548 H   0  0  0  0  0
  -11.8567   -6.1422   -3.5730 H   0  0  0  0  0
  -11.3920   -4.6346   -4.3107 H   0  0  0  0  0
   -9.9620   -5.8126   -2.2852 H   0  0  0  0  0
   -9.2352   -4.7242   -3.4666 H   0  0  0  0  0
   -7.8869   -6.4968   -3.9503 H   0  0  0  0  0
   -8.9329   -7.6319   -3.1816 H   0  0  0  0  0
  -12.5702   -5.2713   -6.9309 H   0  0  0  0  0
  -10.6572   -4.1571   -8.8312 H   0  0  0  0  0
  -12.7256   -2.8700   -9.6202 H   0  0  0  0  0
  -13.6141   -3.9945   -8.4686 H   0  0  0  0  0
  -13.1068   -4.3834  -11.1109 H   0  0  0  0  0
  -10.7211   -4.8007  -10.8280 H   0  0  0  0  0
  -11.0475   -6.0400   -9.5916 H   0  0  0  0  0
  -11.5364   -6.3176  -11.2812 H   0  0  0  0  0
  -13.5805   -6.4619   -8.9585 H   0  0  0  0  0
  -14.8167   -5.5181   -9.8256 H   0  0  0  0  0
  -13.8342   -6.7167  -10.7026 H   0  0  0  0  0
  -10.0980   -1.9532   -9.1722 H   0  0  0  0  0
  -11.4097   -0.0583   -7.2676 H   0  0  0  0  0
  -11.5072    1.5832   -9.0995 H   0  0  0  0  0
   -9.4429    0.0478   -6.3341 H   0  0  0  0  0
   -9.1973    1.2787   -7.7702 H   0  0  0  0  0
   -8.0287   -1.4698   -7.5186 H   0  0  0  0  0
   -8.4300   -0.7649   -9.7721 H   0  0  0  0  0
   -7.5865    0.7709   -9.4549 H   0  0  0  0  0
   -6.6927   -0.7675   -9.3812 H   0  0  0  0  0
   -6.8948    1.3282   -7.1444 H   0  0  0  0  0
   -7.1581    0.1343   -5.8497 H   0  0  0  0  0
   -5.9530   -0.1829   -7.1218 H   0  0  0  0  0
  1  2  1  0  0  0
  1  7  1  0  0  0
  2  3  1  0  0  0
  2  5  1  0  0  0
  3  4  2  0  0  0
  3  8  1  0  0  0
  5  6  1  0  0  0
  6  7  1  0  0  0
  8  9  1  0  0  0
  8 14  1  0  0  0
  9 10  1  0  0  0
  9 12  1  0  0  0
 10 11  2  0  0  0
 10 15  1  0  0  0
 12 13  1  0  0  0
 13 14  1  0  0  0
 15 16  1  0  0  0
 15 21  1  0  0  0
 16 17  1  0  0  0
 16 19  1  0  0  0
 17 18  2  0  0  0
 17 22  1  0  0  0
 19 20  1  0  0  0
 20 21  1  0  0  0
 22 23  1  0  0  0
 23 24  1  0  0  0
 23 26  1  0  0  0
 24 25  2  0  0  0
 24 33  1  0  0  0
 26 27  1  0  0  0
 27 28  1  0  0  0
 28 29  1  0  0  0
 29 30  1  0  0  0
 30 31  2  0  0  0
 30 32  1  0  0  0
 33 34  1  0  0  0
 33 39  1  0  0  0
 34 35  1  0  0  0
 34 37  1  0  0  0
 35 36  2  0  0  0
 35 40  1  0  0  0
 37 38  1  0  0  0
 38 39  1  0  0  0
 40 41  1  0  0  0
 41 42  1  0  0  0
 41 44  1  0  0  0
 42 43  2  0  0  0
 42 47  1  0  0  0
 44 45  1  0  0  0
 44 46  1  0  0  0
 47 48  1  0  0  0
 48 49  1  0  0  0
 48 51  1  0  0  0
 49 50  2  0  0  0
 49 52  1  0  0  0
 52 53  1  0  0  0
 52 58  1  0  0  0
 53 54  1  0  0  0
 53 56  1  0  0  0
 54 55  2  0  0  0
 54 59  1  0  0  0
 56 57  1  0  0  0
 57 58  1  0  0  0
 59 60  1  0  0  0
 60 61  1  0  0  0
 60 63  1  0  0  0
 61 62  2  0  0  0
 61 68  1  0  0  0
 63 64  1  0  0  0
 64 65  1  0  0  0
 65 66  1  0  0  0
 66 67  1  0  0  0
 68 69  1  0  0  0
 68 74  1  0  0  0
 69 70  1  0  0  0
 69 72  1  0  0  0
 70 71  2  0  0  0
 70 75  1  0  0  0
 72 73  1  0  0  0
 73 74  1  0  0  0
 75 76  1  0  0  0
 76 77  1  0  0  0
 76 79  1  0  0  0
 77 78  2  0  0  0
 77 83  1  0  0  0
 79 80  1  0  0  0
 80 81  1  0  0  0
 80 82  1  0  0  0
 83 84  1  0  0  0
 84 85  1  0  0  0
 84 87  1  0  0  0
 85 86  2  0  0  0
 87 88  1  0  0  0
 88 89  1  0  0  0
 88 90  1  0  0  0
  1 91  1  0  0  0
  1 92  1  0  0  0
  2 93  1  0  0  0
  5 94  1  0  0  0
  5 95  1  0  0  0
  6 96  1  0  0  0
  6 97  1  0  0  0
  7 98  1  0  0  0
  7 99  1  0  0  0
  9100  1  0  0  0
 12101  1  0  0  0
 12102  1  0  0  0
 13103  1  0  0  0
 13104  1  0  0  0
 14105  1  0  0  0
 14106  1  0  0  0
 16107  1  0  0  0
 19108  1  0  0  0
 19109  1  0  0  0
 20110  1  0  0  0
 20111  1  0  0  0
 21112  1  0  0  0
 21113  1  0  0  0
 22114  1  0  0  0
 23115  1  0  0  0
 26116  1  0  0  0
 26117  1  0  0  0
 27118  1  0  0  0
 27119  1  0  0  0
 28120  1  0  0  0
 28121  1  0  0  0
 29122  1  0  0  0
 31123  1  0  0  0
 32124  1  0  0  0
 32125  1  0  0  0
 34126  1  0  0  0
 37127  1  0  0  0
 37128  1  0  0  0
 38129  1  0  0  0
 38130  1  0  0  0
 39131  1  0  0  0
 39132  1  0  0  0
 40133  1  0  0  0
 41134  1  0  0  0
 44135  1  0  0  0
 45136  1  0  0  0
 46137  1  0  0  0
 46138  1  0  0  0
 46139  1  0  0  0
 47140  1  0  0  0
 48141  1  0  0  0
 51142  1  0  0  0
 51143  1  0  0  0
 51144  1  0  0  0
 53145  1  0  0  0
 56146  1  0  0  0
 56147  1  0  0  0
 57148  1  0  0  0
 57149  1  0  0  0
 58150  1  0  0  0
 58151  1  0  0  0
 59152  1  0  0  0
 60153  1  0  0  0
 63154  1  0  0  0
 63155  1  0  0  0
 64156  1  0  0  0
 64157  1  0  0  0
 65158  1  0  0  0
 65159  1  0  0  0
 66160  1  0  0  0
 66161  1  0  0  0
 67162  1  0  0  0
 67163  1  0  0  0
 67164  1  0  0  0
 69165  1  0  0  0
 72166  1  0  0  0
 72167  1  0  0  0
 73168  1  0  0  0
 73169  1  0  0  0
 74170  1  0  0  0
 74171  1  0  0  0
 75172  1  0  0  0
 76173  1  0  0  0
 79174  1  0  0  0
 79175  1  0  0  0
 80176  1  0  0  0
 81177  1  0  0  0
 81178  1  0  0  0
 81179  1  0  0  0
 82180  1  0  0  0
 82181  1  0  0  0
 82182  1  0  0  0
 83183  1  0  0  0
 84184  1  0  0  0
 85185  1  0  0  0
 87186  1  0  0  0
 87187  1  0  0  0
 88188  1  0  0  0
 89189  1  0  0  0
 89190  1  0  0  0
 89191  1  0  0  0
 90192  1  0  0  0
 90193  1  0  0  0
 90194  1  0  0  0
M  END
$$$$
