### 
### Created by X-TOOL on Mon Sep 10 21:12:59 2018
### 

@<TRIPOS>MOLECULE
2w10_ligand
  195   200     1     0     0
SMALL
GAST_HUCK


@<TRIPOS>ATOM
      1 N          10.8740   -9.9030    2.4560 N.4       1 PRO         0.2461
      2 CA          9.4740   -9.6890    2.7920 C.3       1 PRO         0.0671
      3 C           8.6720  -10.9730    2.8960 C.2       1 PRO         0.2293
      4 O           9.1400  -12.0240    2.4660 O.2       1 PRO        -0.3905
      5 CB          8.9060   -8.8630    1.6010 C.3       1 PRO         0.0127
      6 CG         10.0040   -8.6900    0.6170 C.3       1 PRO        -0.0053
      7 CD         11.1670   -9.5800    1.0410 C.3       1 PRO        -0.0313
      8 N           7.4400  -10.8680    3.4160 N.am      1 PRO        -0.2471
      9 CA          6.4960  -11.9630    3.3630 C.3       1 PRO         0.1341
     10 C           6.1320  -12.3100    1.9280 C.2       1 PRO         0.2066
     11 O           6.3210  -11.4680    1.0060 O.2       1 PRO        -0.3942
     12 CB          5.2380  -11.3970    4.0500 C.3       1 PRO        -0.0104
     13 CG          5.7130  -10.2180    4.8210 C.3       1 PRO        -0.0281
     14 CD          6.8950   -9.7010    4.1270 C.3       1 PRO         0.0371
     15 N           5.5340  -13.4950    1.7440 N.am      1 PRO        -0.2498
     16 CA          4.9960  -13.8680    0.4710 C.3       1 PRO         0.1338
     17 C           3.8990  -12.8870    0.0540 C.2       1 PRO         0.2041
     18 O           3.2210  -12.3200    0.9190 O.2       1 PRO        -0.3944
     19 CB          4.3630  -15.2300    0.7360 C.3       1 PRO        -0.0104
     20 CG          4.9110  -15.7140    2.0110 C.3       1 PRO        -0.0281
     21 CD          5.2580  -14.5100    2.7750 C.3       1 PRO         0.0369
     22 N           3.7400  -12.7060   -1.2530 N.am      1 ARG        -0.2637
     23 CA          2.6290  -11.9380   -1.7760 C.3       1 ARG         0.1313
     24 C           1.3160  -12.6060   -1.3600 C.2       1 ARG         0.2064
     25 O           1.2850  -13.8280   -1.1000 O.2       1 ARG        -0.3942
     26 CB          2.6820  -11.8580   -3.2970 C.3       1 ARG        -0.0092
     27 CG          3.8610  -11.0800   -3.8790 C.3       1 ARG        -0.0156
     28 CD          3.9190  -11.2340   -5.3640 C.3       1 ARG         0.0627
     29 NE          2.5940  -11.1450   -5.9840 N.pl3     1 ARG        -0.2723
     30 CZ          2.0760  -10.0520   -6.5440 C.cat     1 ARG         0.2882
     31 NH1         0.8660  -10.1160   -7.0770 N.pl3     1 ARG        -0.2849
     32 NH2         2.7540   -8.9060   -6.5850 N.pl3     1 ARG        -0.2849
     33 N           0.2330  -11.8210   -1.2750 N.am      1 PRO        -0.2498
     34 CA         -1.0850  -12.4690   -1.0840 C.3       1 PRO         0.1338
     35 C          -1.4420  -13.2370   -2.3470 C.2       1 PRO         0.2042
     36 O          -0.9340  -12.9070   -3.4130 O.2       1 PRO        -0.3944
     37 CB         -2.0430  -11.3070   -0.8740 C.3       1 PRO        -0.0104
     38 CG         -1.2120  -10.0890   -0.7800 C.3       1 PRO        -0.0281
     39 CD          0.1260  -10.3640   -1.3540 C.3       1 PRO         0.0369
     40 N          -2.2680  -14.2730   -2.2090 N.am      1 THR        -0.2613
     41 CA         -2.7750  -15.0100   -3.3460 C.3       1 THR         0.1565
     42 C          -4.2820  -14.8500   -3.5070 C.2       1 THR         0.2065
     43 O          -4.8670  -15.3860   -4.4510 O.2       1 THR        -0.3943
     44 CB         -2.4580  -16.5070   -3.2260 C.3       1 THR         0.0924
     45 OG1        -3.0620  -17.0400   -2.0340 O.3       1 THR        -0.3874
     46 CG2        -0.9630  -16.7280   -3.1970 C.3       1 THR        -0.0346
     47 N          -4.9440  -14.1060   -2.6250 N.am      1 ALA        -0.2639
     48 CA         -6.3670  -13.8820   -2.8070 C.3       1 ALA         0.1284
     49 C          -6.5950  -13.0900   -4.0950 C.2       1 ALA         0.2061
     50 O          -5.7310  -12.2750   -4.4880 O.2       1 ALA        -0.3942
     51 CB         -6.9360  -13.1240   -1.6450 C.3       1 ALA        -0.0244
     52 N          -7.7650  -13.2780   -4.7470 N.am      1 PRO        -0.2498
     53 CA         -8.1130  -12.4020   -5.8760 C.3       1 PRO         0.1338
     54 C          -8.1930  -10.9590   -5.4100 C.2       1 PRO         0.2041
     55 O          -8.5680  -10.7130   -4.2660 O.2       1 PRO        -0.3944
     56 CB         -9.4820  -12.9100   -6.3110 C.3       1 PRO        -0.0104
     57 CG         -9.4980  -14.3060   -5.8790 C.3       1 PRO        -0.0281
     58 CD         -8.7780  -14.3150   -4.5500 C.3       1 PRO         0.0369
     59 N          -7.7970  -10.0240   -6.2610 N.am      1 LYS        -0.2637
     60 CA         -7.7690   -8.6230   -5.8700 C.3       1 LYS         0.1312
     61 C          -9.1330   -7.9960   -6.0790 C.2       1 LYS         0.2064
     62 O          -9.8360   -8.3110   -7.0510 O.2       1 LYS        -0.3942
     63 CB         -6.7020   -7.8520   -6.6560 C.3       1 LYS        -0.0122
     64 CG         -5.3030   -8.0200   -6.0890 C.3       1 LYS        -0.0440
     65 CD         -4.2220   -7.4270   -6.9410 C.3       1 LYS        -0.0124
     66 CE         -3.8530   -8.3670   -8.0610 C.3       1 LYS        -0.0354
     67 NZ         -2.8100   -7.8340   -8.9310 N.4       1 LYS         0.2185
     68 N          -9.5340   -7.1120   -5.1660 N.am      1 PRO        -0.2498
     69 CA        -10.7660   -6.3880   -5.4440 C.3       1 PRO         0.1338
     70 C         -10.5640   -5.3990   -6.5820 C.2       1 PRO         0.2041
     71 O          -9.4300   -5.0720   -6.9120 O.2       1 PRO        -0.3944
     72 CB        -11.0550   -5.6550   -4.1280 C.3       1 PRO        -0.0104
     73 CG         -9.7600   -5.6720   -3.3470 C.3       1 PRO        -0.0281
     74 CD         -8.9360   -6.7780   -3.8590 C.3       1 PRO         0.0369
     75 N         -11.6470   -4.9200   -7.1850 N.am      1 LEU        -0.2637
     76 CA        -11.5140   -3.8890   -8.2130 C.3       1 LEU         0.1312
     77 C         -11.2500   -2.5260   -7.5920 C.2       1 LEU         0.2040
     78 O         -11.5640   -2.3000   -6.4220 O.2       1 LEU        -0.3944
     79 CB        -12.7490   -3.8340   -9.1120 C.3       1 LEU        -0.0101
     80 CG        -12.8040   -4.9120  -10.2070 C.3       1 LEU        -0.0425
     81 CD1       -11.4230   -5.5670  -10.4990 C.3       1 LEU        -0.0625
     82 CD2       -13.8310   -5.9770   -9.9020 C.3       1 LEU        -0.0625
     83 N         -10.6100   -1.6360   -8.3490 N.am      1 LEU        -0.2650
     84 CA        -10.6300   -0.2000   -8.0160 C.3       1 LEU         0.1130
     85 C         -10.9790    0.6380   -9.2250 C.2       1 LEU         0.1245
     86 O         -10.6670    0.2530  -10.3480 O.2       1 LEU        -0.3725
     87 CB         -9.3140    0.2620   -7.3950 C.3       1 LEU        -0.0114
     88 CG         -7.9750   -0.4030   -7.7360 C.3       1 LEU        -0.0425
     89 CD1        -7.6490   -0.2830   -9.1840 C.3       1 LEU        -0.0624
     90 CD2        -6.9230    0.2650   -6.9060 C.3       1 LEU        -0.0624
     91 H1         11.1032  -10.8705    2.6219 H         1 PRO         0.2035
     92 H2         11.4426   -9.3169    3.0469 H         1 PRO         0.2035
     93 H3          9.3942   -9.1312    3.7367 H         1 PRO         0.1099
     94 H4          8.5607   -7.8806    1.9555 H         1 PRO         0.0347
     95 H5          8.0665   -9.4011    1.1367 H         1 PRO         0.0347
     96 H6         10.3266   -7.6385    0.5998 H         1 PRO         0.0320
     97 H7          9.6564   -8.9833   -0.3845 H         1 PRO         0.0320
     98 H8         11.2023  -10.4943    0.4305 H         1 PRO         0.0814
     99 H9         12.1228   -9.0428    0.9524 H         1 PRO         0.0814
    100 H10         6.8849  -12.8497    3.8849 H         1 PRO         0.0802
    101 H11         4.7961  -12.1460    4.7236 H         1 PRO         0.0313
    102 H12         4.4927  -11.0930    3.3003 H         1 PRO         0.0313
    103 H13         5.9776  -10.5182    5.8456 H         1 PRO         0.0287
    104 H14         4.9283   -9.4480    4.8556 H         1 PRO         0.0287
    105 H15         6.6144   -8.9087    3.4174 H         1 PRO         0.0524
    106 H16         7.6274   -9.3063    4.8465 H         1 PRO         0.0524
    107 H17         5.7790  -13.9225   -0.2996 H         1 PRO         0.0802
    108 H18         4.6164  -15.9292   -0.0745 H         1 PRO         0.0313
    109 H19         3.2697  -15.1318    0.8071 H         1 PRO         0.0313
    110 H20         5.8064  -16.3284    1.8354 H         1 PRO         0.0287
    111 H21         4.1590  -16.3078    2.5512 H         1 PRO         0.0287
    112 H22         4.4189  -14.1985    3.4144 H         1 PRO         0.0524
    113 H23         6.1478  -14.6859    3.3974 H         1 PRO         0.0524
    114 H24         4.4002  -13.1078   -1.8876 H         1 ARG         0.1883
    115 H25         2.6701  -10.9201   -1.3611 H         1 ARG         0.0800
    116 H26         1.7556  -11.3760   -3.6426 H         1 ARG         0.0313
    117 H27         2.7289  -12.8851   -3.6880 H         1 ARG         0.0313
    118 H28         4.7954  -11.4603   -3.4406 H         1 ARG         0.0301
    119 H29         3.7469  -10.0143   -3.6315 H         1 ARG         0.0301
    120 H30         4.3554  -12.2154   -5.6012 H         1 ARG         0.0689
    121 H31         4.5572  -10.4393   -5.7775 H         1 ARG         0.0689
    122 H32         2.0155  -11.9972   -5.9873 H         1 ARG         0.2642
    123 H33         0.4508   -9.2807   -7.5138 H         1 ARG         0.2615
    124 H34         0.3397  -11.0011   -7.0549 H         1 ARG         0.2615
    125 H35         3.6959   -8.8498   -6.1720 H         1 ARG         0.2615
    126 H36         2.3363   -8.0761   -7.0297 H         1 ARG         0.2615
    127 H37        -1.0820  -13.1440   -0.2155 H         1 PRO         0.0802
    128 H38        -2.6149  -11.4492    0.0548 H         1 PRO         0.0313
    129 H39        -2.7371  -11.2286   -1.7237 H         1 PRO         0.0313
    130 H40        -1.1062   -9.7968    0.2752 H         1 PRO         0.0287
    131 H41        -1.6915   -9.2728   -1.3402 H         1 PRO         0.0287
    132 H42         0.1854  -10.0205   -2.3973 H         1 PRO         0.0524
    133 H43         0.9160   -9.8782   -0.7624 H         1 PRO         0.0524
    134 H44        -2.5467  -14.5503   -1.2895 H         1 THR         0.1884
    135 H45        -2.2843  -14.6181   -4.2491 H         1 THR         0.0826
    136 H46        -2.8754  -17.0290   -4.0997 H         1 THR         0.0639
    137 H47        -2.7180  -16.5840   -1.2749 H         1 THR         0.2101
    138 H48        -0.7531  -17.8043   -3.1109 H         1 THR         0.0257
    139 H49        -0.5309  -16.2000   -2.3341 H         1 THR         0.0257
    140 H50        -0.5170  -16.3406   -4.1249 H         1 THR         0.0257
    141 H51        -4.4659  -13.7046   -1.8437 H         1 ALA         0.1883
    142 H52        -6.8761  -14.8541   -2.8841 H         1 ALA         0.0797
    143 H53        -8.0130  -12.9653   -1.8028 H         1 ALA         0.0277
    144 H54        -6.4307  -12.1507   -1.5593 H         1 ALA         0.0277
    145 H55        -6.7818  -13.6999   -0.7206 H         1 ALA         0.0277
    146 H56        -7.3800  -12.4906   -6.6913 H         1 PRO         0.0802
    147 H57        -9.5965  -12.8378   -7.4026 H         1 PRO         0.0313
    148 H58       -10.2843  -12.3400   -5.8196 H         1 PRO         0.0313
    149 H59        -8.9728  -14.9416   -6.6071 H         1 PRO         0.0287
    150 H60       -10.5321  -14.6618   -5.7604 H         1 PRO         0.0287
    151 H61        -9.4584  -14.0577   -3.7249 H         1 PRO         0.0524
    152 H62        -8.3156  -15.2933   -4.3524 H         1 PRO         0.0524
    153 H63        -7.5137  -10.2846   -7.1839 H         1 LYS         0.1883
    154 H64        -7.5187   -8.5665   -4.8004 H         1 LYS         0.0800
    155 H65        -6.9599   -6.7828   -6.6392 H         1 LYS         0.0312
    156 H66        -6.7038   -8.2134   -7.6949 H         1 LYS         0.0312
    157 H67        -5.1028   -9.0957   -5.9763 H         1 LYS         0.0269
    158 H68        -5.2698   -7.5354   -5.1021 H         1 LYS         0.0269
    159 H69        -3.3341   -7.2391   -6.3195 H         1 LYS         0.0317
    160 H70        -4.5781   -6.4780   -7.3682 H         1 LYS         0.0317
    161 H71        -4.7505   -8.5599   -8.6670 H         1 LYS         0.0813
    162 H72        -3.4961   -9.3110   -7.6234 H         1 LYS         0.0813
    163 H73        -2.6051   -8.5017   -9.6578 H         1 LYS         0.1994
    164 H74        -1.9775   -7.6602   -8.3900 H         1 LYS         0.1994
    165 H75        -3.1269   -6.9720   -9.3463 H         1 LYS         0.1994
    166 H76       -11.5824   -7.0802   -5.6975 H         1 PRO         0.0802
    167 H77       -11.8461   -6.1743   -3.5672 H         1 PRO         0.0313
    168 H78       -11.3668   -4.6193   -4.3281 H         1 PRO         0.0313
    169 H79        -9.9703   -5.8266   -2.2784 H         1 PRO         0.0287
    170 H80        -9.2298   -4.7177   -3.4821 H         1 PRO         0.0287
    171 H81        -7.8902   -6.4594   -3.9802 H         1 PRO         0.0524
    172 H82        -8.9798   -7.6419   -3.1795 H         1 PRO         0.0524
    173 H83       -12.5521   -5.2644   -6.9358 H         1 LEU         0.1883
    174 H84       -10.6492   -4.1498   -8.8408 H         1 LEU         0.0800
    175 H85       -12.7713   -2.8491   -9.6014 H         1 LEU         0.0315
    176 H86       -13.6393   -3.9478   -8.4761 H         1 LEU         0.0315
    177 H87       -13.1220   -4.4066  -11.1308 H         1 LEU         0.0298
    178 H88       -11.5362   -6.3247  -11.2883 H         1 LEU         0.0232
    179 H89       -11.0429   -6.0447   -9.5840 H         1 LEU         0.0232
    180 H90       -10.7137   -4.7946  -10.8312 H         1 LEU         0.0232
    181 H91       -14.8019   -5.5022   -9.6975 H         1 LEU         0.0232
    182 H92       -13.5116   -6.5528   -9.0208 H         1 LEU         0.0232
    183 H93       -13.9274   -6.6515  -10.7656 H         1 LEU         0.0232
    184 H94       -10.1080   -1.9470   -9.1560 H         1 LEU         0.1884
    185 H95       -11.4201   -0.0475   -7.2661 H         1 LEU         0.0790
    186 H96       -11.5067    1.5823   -9.0997 H         1 LEU         0.1373
    187 H97        -9.4370    0.1652   -6.3062 H         1 LEU         0.0316
    188 H98        -9.2057    1.3244   -7.6587 H         1 LEU         0.0316
    189 H99        -8.0247   -1.4705   -7.4755 H         1 LEU         0.0298
    190 H100       -6.6840   -0.7716   -9.3843 H         1 LEU         0.0232
    191 H101       -7.5856    0.7802   -9.4587 H         1 LEU         0.0232
    192 H102       -8.4365   -0.7690   -9.7787 H         1 LEU         0.0232
    193 H103       -7.1793    0.1669   -5.8408 H         1 LEU         0.0232
    194 H104       -6.8671    1.3306   -7.1730 H         1 LEU         0.0232
    195 H105       -5.9498   -0.2118   -7.0943 H         1 LEU         0.0232
@<TRIPOS>BOND
     1    1    2 1  
     2    1    7 1  
     3    2    3 1  
     4    2    5 1  
     5    3    4 2  
     6    3    8 am 
     7    5    6 1  
     8    6    7 1  
     9    8    9 1  
    10    8   14 1  
    11    9   10 1  
    12    9   12 1  
    13   10   11 2  
    14   10   15 am 
    15   12   13 1  
    16   13   14 1  
    17   15   16 1  
    18   15   21 1  
    19   16   17 1  
    20   16   19 1  
    21   17   18 2  
    22   17   22 am 
    23   19   20 1  
    24   20   21 1  
    25   22   23 1  
    26   23   24 1  
    27   23   26 1  
    28   24   25 2  
    29   24   33 am 
    30   26   27 1  
    31   27   28 1  
    32   28   29 1  
    33   29   30 ar 
    34   30   31 ar 
    35   30   32 ar 
    36   33   34 1  
    37   33   39 1  
    38   34   35 1  
    39   34   37 1  
    40   35   36 2  
    41   35   40 am 
    42   37   38 1  
    43   38   39 1  
    44   40   41 1  
    45   41   42 1  
    46   41   44 1  
    47   42   43 2  
    48   42   47 am 
    49   44   45 1  
    50   44   46 1  
    51   47   48 1  
    52   48   49 1  
    53   48   51 1  
    54   49   50 2  
    55   49   52 am 
    56   52   53 1  
    57   52   58 1  
    58   53   54 1  
    59   53   56 1  
    60   54   55 2  
    61   54   59 am 
    62   56   57 1  
    63   57   58 1  
    64   59   60 1  
    65   60   61 1  
    66   60   63 1  
    67   61   62 2  
    68   61   68 am 
    69   63   64 1  
    70   64   65 1  
    71   65   66 1  
    72   66   67 1  
    73   68   69 1  
    74   68   74 1  
    75   69   70 1  
    76   69   72 1  
    77   70   71 2  
    78   70   75 am 
    79   72   73 1  
    80   73   74 1  
    81   75   76 1  
    82   76   77 1  
    83   76   79 1  
    84   77   78 2  
    85   77   83 am 
    86   79   80 1  
    87   80   81 1  
    88   80   82 1  
    89   83   84 1  
    90   84   85 1  
    91   84   87 1  
    92   85   86 2  
    93   87   88 1  
    94   88   89 1  
    95   88   90 1  
    96    1   91 1  
    97    1   92 1  
    98    2   93 1  
    99    5   94 1  
   100    5   95 1  
   101    6   96 1  
   102    6   97 1  
   103    7   98 1  
   104    7   99 1  
   105    9  100 1  
   106   12  101 1  
   107   12  102 1  
   108   13  103 1  
   109   13  104 1  
   110   14  105 1  
   111   14  106 1  
   112   16  107 1  
   113   19  108 1  
   114   19  109 1  
   115   20  110 1  
   116   20  111 1  
   117   21  112 1  
   118   21  113 1  
   119   22  114 1  
   120   23  115 1  
   121   26  116 1  
   122   26  117 1  
   123   27  118 1  
   124   27  119 1  
   125   28  120 1  
   126   28  121 1  
   127   29  122 1  
   128   31  123 1  
   129   31  124 1  
   130   32  125 1  
   131   32  126 1  
   132   34  127 1  
   133   37  128 1  
   134   37  129 1  
   135   38  130 1  
   136   38  131 1  
   137   39  132 1  
   138   39  133 1  
   139   40  134 1  
   140   41  135 1  
   141   44  136 1  
   142   45  137 1  
   143   46  138 1  
   144   46  139 1  
   145   46  140 1  
   146   47  141 1  
   147   48  142 1  
   148   51  143 1  
   149   51  144 1  
   150   51  145 1  
   151   53  146 1  
   152   56  147 1  
   153   56  148 1  
   154   57  149 1  
   155   57  150 1  
   156   58  151 1  
   157   58  152 1  
   158   59  153 1  
   159   60  154 1  
   160   63  155 1  
   161   63  156 1  
   162   64  157 1  
   163   64  158 1  
   164   65  159 1  
   165   65  160 1  
   166   66  161 1  
   167   66  162 1  
   168   67  163 1  
   169   67  164 1  
   170   67  165 1  
   171   69  166 1  
   172   72  167 1  
   173   72  168 1  
   174   73  169 1  
   175   73  170 1  
   176   74  171 1  
   177   74  172 1  
   178   75  173 1  
   179   76  174 1  
   180   79  175 1  
   181   79  176 1  
   182   80  177 1  
   183   81  178 1  
   184   81  179 1  
   185   81  180 1  
   186   82  181 1  
   187   82  182 1  
   188   82  183 1  
   189   83  184 1  
   190   84  185 1  
   191   85  186 1  
   192   87  187 1  
   193   87  188 1  
   194   88  189 1  
   195   89  190 1  
   196   89  191 1  
   197   89  192 1  
   198   90  193 1  
   199   90  194 1  
   200   90  195 1  
@<TRIPOS>SUBSTRUCTURE
     1 PRO         1

