4gh6_ligand
  -I-interpret- 

 53 56  0  0  0  0  0  0  0  0999 V2000
   77.9710   49.7160   40.1730 C   0  0  0  0  0
   79.2390   50.2060   39.8880 C   0  0  0  0  0
   79.7970   49.9920   38.6330 C   0  0  0  0  0
   81.0660   50.4800   38.3440 C   0  0  0  0  0
   81.7760   51.1790   39.3140 C   0  0  0  0  0
   81.2150   51.4020   40.5660 C   0  0  0  0  0
   79.9450   50.9160   40.8530 C   0  0  0  0  0
   79.3990   51.1290   42.0480 N   0  0  0  0  0
   78.3220   51.8900   42.2190 C   0  0  0  0  0
   77.5460   52.5640   41.3610 N   0  0  0  0  0
   79.7680   50.7290   43.0450 N   0  0  0  0  0
   79.0110   51.1510   44.0580 C   0  0  0  0  0
   78.0600   51.9070   43.5190 C   0  0  0  0  0
   77.0140   52.5920   43.9720 C   0  0  0  0  0
   76.8270   52.6130   45.3190 O   0  0  0  0  0
   76.2240   53.2700   43.1270 N   0  0  0  0  0
   76.5000   53.2690   41.8140 C   0  0  0  0  0
   75.8390   54.1010   40.9640 N   0  0  0  0  0
   74.8140   53.4200   40.2150 C   0  0  0  0  0
   73.9860   54.4640   39.4640 C   0  0  0  0  0
   75.4150   52.4340   39.2100 C   0  0  0  0  0
   76.4770   52.6740   38.6380 O   0  0  0  0  0
   74.6270   51.2570   39.0140 N   0  0  0  0  0
   75.0320   50.4630   37.9830 C   0  0  0  0  0
   74.3680   49.2550   37.7980 C   0  0  0  0  0
   74.7260   48.3940   36.7670 C   0  0  0  0  0
   75.7600   48.7430   35.9060 C   0  0  0  0  0
   76.1150   47.8830   34.9130 O   0  0  0  0  0
   75.7320   48.3990   33.6350 C   0  0  0  0  0
   76.4280   49.9500   36.0850 C   0  0  0  0  0
   76.0660   50.8090   37.1190 C   0  0  0  0  0
   77.2499   50.1545   39.4832 H   0  0  0  0  0
   77.9686   48.6316   40.0624 H   0  0  0  0  0
   77.7029   49.9787   41.1963 H   0  0  0  0  0
   79.2393   49.4414   37.8754 H   0  0  0  0  0
   81.5035   50.3152   37.3594 H   0  0  0  0  0
   82.7754   51.5531   39.0919 H   0  0  0  0  0
   81.7704   51.9573   41.3218 H   0  0  0  0  0
   79.1450   50.9221   45.1152 H   0  0  0  0  0
   75.4171   53.7840   43.4807 H   0  0  0  0  0
   76.0460   55.0951   40.8680 H   0  0  0  0  0
   74.1918   52.8548   40.9089 H   0  0  0  0  0
   73.5313   55.1488   40.1799 H   0  0  0  0  0
   74.6337   55.0213   38.7872 H   0  0  0  0  0
   73.2050   53.9634   38.8917 H   0  0  0  0  0
   73.8240   51.0293   39.6004 H   0  0  0  0  0
   73.5557   48.9796   38.4707 H   0  0  0  0  0
   74.1983   47.4495   36.6343 H   0  0  0  0  0
   74.6513   48.5393   33.6103 H   0  0  0  0  0
   76.2277   49.3551   33.4672 H   0  0  0  0  0
   76.0261   47.6944   32.8571 H   0  0  0  0  0
   77.2398   50.2249   35.4116 H   0  0  0  0  0
   76.5933   51.7537   37.2518 H   0  0  0  0  0
  1  2  1  0  0  0
  2  3  4  0  0  0
  2  7  4  0  0  0
  3  4  4  0  0  0
  4  5  4  0  0  0
  5  6  4  0  0  0
  6  7  4  0  0  0
  7  8  1  0  0  0
  8  9  4  0  0  0
  8 11  4  0  0  0
  9 10  1  0  0  0
  9 13  4  0  0  0
 10 17  2  0  0  0
 11 12  4  0  0  0
 12 13  4  0  0  0
 13 14  1  0  0  0
 14 15  2  0  0  0
 14 16  1  0  0  0
 16 17  1  0  0  0
 17 18  1  0  0  0
 18 19  1  0  0  0
 19 20  1  0  0  0
 19 21  1  0  0  0
 21 22  2  0  0  0
 21 23  1  0  0  0
 23 24  1  0  0  0
 24 25  4  0  0  0
 24 31  4  0  0  0
 25 26  4  0  0  0
 26 27  4  0  0  0
 27 28  1  0  0  0
 27 30  4  0  0  0
 28 29  1  0  0  0
 30 31  4  0  0  0
  1 32  1  0  0  0
  1 33  1  0  0  0
  1 34  1  0  0  0
  3 35  1  0  0  0
  4 36  1  0  0  0
  5 37  1  0  0  0
  6 38  1  0  0  0
 12 39  1  0  0  0
 16 40  1  0  0  0
 18 41  1  0  0  0
 19 42  1  0  0  0
 20 43  1  0  0  0
 20 44  1  0  0  0
 20 45  1  0  0  0
 23 46  1  0  0  0
 25 47  1  0  0  0
 26 48  1  0  0  0
 29 49  1  0  0  0
 29 50  1  0  0  0
 29 51  1  0  0  0
 30 52  1  0  0  0
 31 53  1  0  0  0
M  END
$$$$
