2h9t_ligand
  -I-interpret- 

126133  0  0  0  0  0  0  0  0999 V2000
   13.3760    2.6860    9.7380 O   0  0  0  0  0
   12.5970    3.9270    9.5770 S   0  0  0  0  0
   11.6990    4.1120   10.7580 O   0  0  0  0  0
   13.5150    5.0810    9.4410 O   0  0  0  0  0
   11.6150    3.7320    8.3120 C   0  0  0  0  0
   10.9650    4.8250    7.7500 C   0  0  0  0  0
   10.0960    4.6950    6.6820 C   0  0  0  0  0
    9.5040    6.0930    6.0960 S   0  0  0  0  0
   10.2540    7.2630    6.5710 O   0  0  0  0  0
    9.8510    6.1600    4.6840 O   0  0  0  0  0
    8.0480    6.2940    6.2880 O   0  0  0  0  0
   11.4080    2.4520    7.8070 C   0  0  0  0  0
   10.5490    2.2550    6.7360 C   0  0  0  0  0
   10.3530    0.9160    6.2610 C   0  0  0  0  0
   11.1320   -0.4170    6.8480 S   0  0  0  0  0
   12.4890   -0.4360    6.2110 O   0  0  0  0  0
   11.3240   -0.4220    8.3200 O   0  0  0  0  0
   10.4670   -1.6670    6.3830 O   0  0  0  0  0
    9.4780    0.7270    5.1800 C   0  0  0  0  0
    8.8300    1.7980    4.6020 C   0  0  0  0  0
    9.8690    3.3890    6.1620 C   0  0  0  0  0
    9.0320    3.1270    5.0420 C   0  0  0  0  0
    8.2120    4.0730    4.3800 N   0  0  0  0  0
    7.8990    4.1770    3.0760 C   0  0  0  0  0
    8.3900    3.5290    2.1690 O   0  0  0  0  0
    6.8600    5.1580    2.6750 C   0  0  0  0  0
    6.8470    5.5900    1.3590 C   0  0  0  0  0
    5.8720    5.5610    3.5730 C   0  0  0  0  0
    4.9030    6.4700    3.1620 C   0  0  0  0  0
    4.8860    6.9350    1.8440 C   0  0  0  0  0
    3.8130    7.8790    1.4060 C   0  0  0  0  0
    5.8640    6.4850    0.9460 C   0  0  0  0  0
    5.8970    6.9300   -0.3670 N   0  0  0  0  0
    5.0640    6.4760   -1.2940 C   0  0  0  0  0
    4.1890    5.6370   -1.1050 O   0  0  0  0  0
    5.2150    7.1240   -2.6290 C   0  0  0  0  0
    5.4270    8.5080   -2.6260 C   0  0  0  0  0
    5.1100    6.3920   -3.8170 C   0  0  0  0  0
    5.2400    7.0830   -5.0110 C   0  0  0  0  0
    5.4800    8.4740   -5.0160 C   0  0  0  0  0
    5.5810    9.1920   -3.8290 C   0  0  0  0  0
    5.7860   10.5770   -3.7680 N   0  0  0  0  0
    5.9530   11.4100   -4.7750 C   0  0  0  0  0
    5.9690   11.0030   -5.9330 O   0  0  0  0  0
    6.1140   12.7000   -4.4160 N   0  0  0  0  0
    6.2750   13.7550   -5.3550 C   0  0  0  0  0
    5.2170   14.0430   -6.2350 C   0  0  0  0  0
    7.4410   14.5170   -5.4220 C   0  0  0  0  0
    7.5690   15.5240   -6.3610 C   0  0  0  0  0
    6.5240   15.8380   -7.2260 C   0  0  0  0  0
    5.3540   15.0770   -7.1570 C   0  0  0  0  0
    4.2570   15.4040   -8.0920 C   0  0  0  0  0
    4.5580   15.5850   -9.2610 O   0  0  0  0  0
    3.0050   15.5070   -7.6670 N   0  0  0  0  0
    1.9910   15.8400   -8.6270 C   0  0  0  0  0
    1.8840   17.1370   -9.1430 C   0  0  0  0  0
    1.0990   14.8460   -9.0510 C   0  0  0  0  0
    1.2160   13.4610   -8.4660 C   0  0  0  0  0
    0.1040   15.1490   -9.9760 C   0  0  0  0  0
    0.0200   16.4490  -10.5080 C   0  0  0  0  0
    0.9150   17.4300  -10.0960 C   0  0  0  0  0
    0.7720   18.8060  -10.6840 C   0  0  0  0  0
    0.1120   18.9020  -11.7380 O   0  0  0  0  0
    1.3890   19.8440  -10.0850 N   0  0  0  0  0
    1.1920   21.1250  -10.5760 C   0  0  0  0  0
    1.3440   21.3610  -11.9230 C   0  0  0  0  0
    1.1060   22.5980  -12.4820 C   0  0  0  0  0
    0.7100   23.6420  -11.6540 C   0  0  0  0  0
    0.4820   25.0890  -12.3330 S   0  0  0  0  0
    1.2910   25.9900  -11.5030 O   0  0  0  0  0
    1.0290   25.0470  -13.7180 O   0  0  0  0  0
   -0.9640   25.4820  -12.3280 O   0  0  0  0  0
    0.7830   22.1380   -9.6980 C   0  0  0  0  0
    0.5460   23.4210  -10.2730 C   0  0  0  0  0
    0.1190   24.4660   -9.4740 C   0  0  0  0  0
    0.5820   21.9310   -8.2800 C   0  0  0  0  0
    0.8960   20.5670   -7.4260 S   0  0  0  0  0
   -0.1040   19.4650   -7.3210 O   0  0  0  0  0
    2.1560   19.9670   -7.9280 O   0  0  0  0  0
    1.2590   21.1010   -6.0950 O   0  0  0  0  0
    0.1670   23.0160   -7.5170 C   0  0  0  0  0
   -0.0520   24.2560   -8.1070 C   0  0  0  0  0
   -0.5850   25.5240   -7.2570 S   0  0  0  0  0
   -1.5600   26.1700   -8.1860 O   0  0  0  0  0
   -1.3180   25.0640   -6.0260 O   0  0  0  0  0
    0.5390   26.4850   -7.0310 O   0  0  0  0  0
   11.1931    4.9208   10.6503 H   0  0  0  0  0
   11.1462    5.8166    8.1646 H   0  0  0  0  0
    7.5750    5.5205    5.9724 H   0  0  0  0  0
   11.9225    1.6016    8.2544 H   0  0  0  0  0
   12.3929   -0.4332    5.2558 H   0  0  0  0  0
    9.3088   -0.2779    4.7930 H   0  0  0  0  0
    8.1394    1.6145    3.7789 H   0  0  0  0  0
    7.7959    4.7826    4.9831 H   0  0  0  0  0
    7.5982    5.2331    0.6545 H   0  0  0  0  0
    5.8594    5.1666    4.5891 H   0  0  0  0  0
    4.1534    6.8214    3.8710 H   0  0  0  0  0
    2.8396    7.4058    1.5351 H   0  0  0  0  0
    3.8604    8.7859    2.0089 H   0  0  0  0  0
    3.9593    8.1313    0.3557 H   0  0  0  0  0
    6.5879    7.6329   -0.6298 H   0  0  0  0  0
    5.4715    9.0502   -1.6815 H   0  0  0  0  0
    4.9323    5.3167   -3.8036 H   0  0  0  0  0
    5.1561    6.5468   -5.9563 H   0  0  0  0  0
    5.5881    8.9949   -5.9673 H   0  0  0  0  0
    5.8086   10.9883   -2.8349 H   0  0  0  0  0
    6.1206   12.9298   -3.4222 H   0  0  0  0  0
    4.2963   13.4610   -6.1956 H   0  0  0  0  0
    8.2580   14.3172   -4.7287 H   0  0  0  0  0
    8.5036   16.0813   -6.4251 H   0  0  0  0  0
    6.6163   16.6571   -7.9392 H   0  0  0  0  0
    2.7694   15.3540   -6.6864 H   0  0  0  0  0
    2.5612   17.9180   -8.7972 H   0  0  0  0  0
    2.2033   13.0563   -8.6884 H   0  0  0  0  0
    1.0773   13.5112   -7.3860 H   0  0  0  0  0
    0.4516   12.8179   -8.9023 H   0  0  0  0  0
   -0.6066   14.3831  -10.2867 H   0  0  0  0  0
   -0.7478   16.6873  -11.2441 H   0  0  0  0  0
    1.9944   19.6884   -9.2790 H   0  0  0  0  0
    1.6630   20.5430  -12.5689 H   0  0  0  0  0
    1.2261   22.7549  -13.5539 H   0  0  0  0  0
   -1.4617   24.8735  -12.8789 H   0  0  0  0  0
   -0.0819   25.4448   -9.9095 H   0  0  0  0  0
   -0.9357   19.8189   -6.9975 H   0  0  0  0  0
    0.0116   22.8937   -6.4451 H   0  0  0  0  0
   -0.6982   24.6472   -5.4229 H   0  0  0  0  0
  1  2  2  0  0  0
  2  3  1  0  0  0
  2  4  2  0  0  0
  2  5  1  0  0  0
  5  6  4  0  0  0
  5 12  4  0  0  0
  6  7  4  0  0  0
  7  8  1  0  0  0
  7 21  4  0  0  0
  8  9  2  0  0  0
  8 10  2  0  0  0
  8 11  1  0  0  0
 12 13  4  0  0  0
 13 14  4  0  0  0
 13 21  4  0  0  0
 14 15  1  0  0  0
 14 19  4  0  0  0
 15 16  1  0  0  0
 15 17  2  0  0  0
 15 18  2  0  0  0
 19 20  4  0  0  0
 20 22  4  0  0  0
 21 22  4  0  0  0
 22 23  1  0  0  0
 23 24  1  0  0  0
 24 25  2  0  0  0
 24 26  1  0  0  0
 26 27  4  0  0  0
 26 28  4  0  0  0
 27 32  4  0  0  0
 28 29  4  0  0  0
 29 30  4  0  0  0
 30 31  1  0  0  0
 30 32  4  0  0  0
 32 33  1  0  0  0
 33 34  1  0  0  0
 34 35  2  0  0  0
 34 36  1  0  0  0
 36 37  4  0  0  0
 36 38  4  0  0  0
 37 41  4  0  0  0
 38 39  4  0  0  0
 39 40  4  0  0  0
 40 41  4  0  0  0
 41 42  1  0  0  0
 42 43  1  0  0  0
 43 44  2  0  0  0
 43 45  1  0  0  0
 45 46  1  0  0  0
 46 47  4  0  0  0
 46 48  4  0  0  0
 47 51  4  0  0  0
 48 49  4  0  0  0
 49 50  4  0  0  0
 50 51  4  0  0  0
 51 52  1  0  0  0
 52 53  2  0  0  0
 52 54  1  0  0  0
 54 55  1  0  0  0
 55 56  4  0  0  0
 55 57  4  0  0  0
 56 61  4  0  0  0
 57 58  1  0  0  0
 57 59  4  0  0  0
 59 60  4  0  0  0
 60 61  4  0  0  0
 61 62  1  0  0  0
 62 63  2  0  0  0
 62 64  1  0  0  0
 64 65  1  0  0  0
 65 66  4  0  0  0
 65 73  4  0  0  0
 66 67  4  0  0  0
 67 68  4  0  0  0
 68 69  1  0  0  0
 68 74  4  0  0  0
 69 70  2  0  0  0
 69 71  2  0  0  0
 69 72  1  0  0  0
 73 74  4  0  0  0
 73 76  4  0  0  0
 74 75  4  0  0  0
 75 82  4  0  0  0
 76 77  1  0  0  0
 76 81  4  0  0  0
 77 78  1  0  0  0
 77 79  2  0  0  0
 77 80  2  0  0  0
 81 82  4  0  0  0
 82 83  1  0  0  0
 83 84  2  0  0  0
 83 85  1  0  0  0
 83 86  2  0  0  0
  3 87  1  0  0  0
  6 88  1  0  0  0
 11 89  1  0  0  0
 12 90  1  0  0  0
 16 91  1  0  0  0
 19 92  1  0  0  0
 20 93  1  0  0  0
 23 94  1  0  0  0
 27 95  1  0  0  0
 28 96  1  0  0  0
 29 97  1  0  0  0
 31 98  1  0  0  0
 31 99  1  0  0  0
 31100  1  0  0  0
 33101  1  0  0  0
 37102  1  0  0  0
 38103  1  0  0  0
 39104  1  0  0  0
 40105  1  0  0  0
 42106  1  0  0  0
 45107  1  0  0  0
 47108  1  0  0  0
 48109  1  0  0  0
 49110  1  0  0  0
 50111  1  0  0  0
 54112  1  0  0  0
 56113  1  0  0  0
 58114  1  0  0  0
 58115  1  0  0  0
 58116  1  0  0  0
 59117  1  0  0  0
 60118  1  0  0  0
 64119  1  0  0  0
 66120  1  0  0  0
 67121  1  0  0  0
 72122  1  0  0  0
 75123  1  0  0  0
 78124  1  0  0  0
 81125  1  0  0  0
 85126  1  0  0  0
M  END
$$$$
