### 
### Created by X-TOOL on Mon Sep 10 21:12:55 2018
### 

@<TRIPOS>MOLECULE
2h9t_ligand
  120   127     1     0     0
SMALL
GAST_HUCK


@<TRIPOS>ATOM
      1 O35        13.3760    2.6860    9.7380 O.co2     1 SVR        -0.4797
      2 S31        12.5970    3.9270    9.5770 S.o2      1 SVR        -0.1636
      3 O36        11.6990    4.1120   10.7580 O.co2     1 SVR        -0.4797
      4 O34        13.5150    5.0810    9.4410 O.co2     1 SVR        -0.4797
      5 C22        11.6150    3.7320    8.3120 C.ar      1 SVR         0.0494
      6 C18        10.9650    4.8250    7.7500 C.ar      1 SVR        -0.0210
      7 C11        10.0960    4.6950    6.6820 C.ar      1 SVR         0.0599
      8 S17         9.5040    6.0930    6.0960 S.o2      1 SVR        -0.1625
      9 O23        10.2540    7.2630    6.5710 O.co2     1 SVR        -0.4795
     10 O24         9.8510    6.1600    4.6840 O.co2     1 SVR        -0.4795
     11 O25         8.0480    6.2940    6.2880 O.co2     1 SVR        -0.4795
     12 C16        11.4080    2.4520    7.8070 C.ar      1 SVR        -0.0371
     13 C10        10.5490    2.2550    6.7360 C.ar      1 SVR        -0.0062
     14 C15        10.3530    0.9160    6.2610 C.ar      1 SVR         0.0386
     15 S21        11.1320   -0.4170    6.8480 S.o2      1 SVR        -0.1723
     16 O28        12.4890   -0.4360    6.2110 O.co2     1 SVR        -0.4823
     17 O29        11.3240   -0.4220    8.3200 O.co2     1 SVR        -0.4823
     18 O30        10.4670   -1.6670    6.3830 O.co2     1 SVR        -0.4823
     19 C12         9.4780    0.7270    5.1800 C.ar      1 SVR        -0.0595
     20 C7          8.8300    1.7980    4.6020 C.ar      1 SVR        -0.0414
     21 C6          9.8690    3.3890    6.1620 C.ar      1 SVR         0.0350
     22 C3          9.0320    3.1270    5.0420 C.ar      1 SVR         0.0824
     23 N1          8.2120    4.0730    4.3800 N.am      1 SVR        -0.2285
     24 C2          7.8990    4.1770    3.0760 C.2       1 SVR         0.2279
     25 O4          8.3900    3.5290    2.1690 O.2       1 SVR        -0.3740
     26 C5          6.8600    5.1580    2.6750 C.ar      1 SVR         0.0364
     27 C8          6.8470    5.5900    1.3590 C.ar      1 SVR        -0.0272
     28 C9          5.8720    5.5610    3.5730 C.ar      1 SVR        -0.0632
     29 C14         4.9030    6.4700    3.1620 C.ar      1 SVR        -0.0675
     30 C20         4.8860    6.9350    1.8440 C.ar      1 SVR        -0.0191
     31 C27         3.8130    7.8790    1.4060 C.3       1 SVR        -0.0327
     32 C13         5.8640    6.4850    0.9460 C.ar      1 SVR         0.0740
     33 N19         5.8970    6.9300   -0.3670 N.am      1 SVR        -0.2354
     34 C26         5.0640    6.4760   -1.2940 C.2       1 SVR         0.2270
     35 O32         4.1890    5.6370   -1.1050 O.2       1 SVR        -0.3740
     36 C33         5.2150    7.1240   -2.6290 C.ar      1 SVR         0.0419
     37 C37         5.4270    8.5080   -2.6260 C.ar      1 SVR        -0.0214
     38 C38         5.1100    6.3920   -3.8170 C.ar      1 SVR        -0.0571
     39 C40         5.2400    7.0830   -5.0110 C.ar      1 SVR        -0.0701
     40 C42         5.4800    8.4740   -5.0160 C.ar      1 SVR        -0.0372
     41 C39         5.5810    9.1920   -3.8290 C.ar      1 SVR         0.0725
     42 N41         5.7860   10.5770   -3.7680 N.am      1 SVR        -0.2134
     43 C43         5.9530   11.4100   -4.7750 C.2       1 SVR         0.3170
     44 O45         5.9690   11.0030   -5.9330 O.2       1 SVR        -0.3803
     45 N44         6.1140   12.7000   -4.4160 N.am      1 SVR        -0.2134
     46 C46         6.2750   13.7550   -5.3550 C.ar      1 SVR         0.0725
     47 C47         5.2170   14.0430   -6.2350 C.ar      1 SVR        -0.0214
     48 C48         7.4410   14.5170   -5.4220 C.ar      1 SVR        -0.0372
     49 C50         7.5690   15.5240   -6.3610 C.ar      1 SVR        -0.0701
     50 C52         6.5240   15.8380   -7.2260 C.ar      1 SVR        -0.0571
     51 C49         5.3540   15.0770   -7.1570 C.ar      1 SVR         0.0419
     52 C51         4.2570   15.4040   -8.0920 C.2       1 SVR         0.2270
     53 O54         4.5580   15.5850   -9.2610 O.2       1 SVR        -0.3740
     54 N53         3.0050   15.5070   -7.6670 N.am      1 SVR        -0.2354
     55 C55         1.9910   15.8400   -8.6270 C.ar      1 SVR         0.0740
     56 C56         1.8840   17.1370   -9.1430 C.ar      1 SVR        -0.0272
     57 C57         1.0990   14.8460   -9.0510 C.ar      1 SVR        -0.0191
     58 C59         1.2160   13.4610   -8.4660 C.3       1 SVR        -0.0327
     59 C60         0.1040   15.1490   -9.9760 C.ar      1 SVR        -0.0675
     60 C62         0.0200   16.4490  -10.5080 C.ar      1 SVR        -0.0632
     61 C58         0.9150   17.4300  -10.0960 C.ar      1 SVR         0.0364
     62 C61         0.7720   18.8060  -10.6840 C.2       1 SVR         0.2279
     63 O64         0.1120   18.9020  -11.7380 O.2       1 SVR        -0.3740
     64 N63         1.3890   19.8440  -10.0850 N.am      1 SVR        -0.2285
     65 C65         1.1920   21.1250  -10.5760 C.ar      1 SVR         0.0824
     66 C67         1.3440   21.3610  -11.9230 C.ar      1 SVR        -0.0414
     67 C70         1.1060   22.5980  -12.4820 C.ar      1 SVR        -0.0595
     68 C71         0.7100   23.6420  -11.6540 C.ar      1 SVR         0.0386
     69 S75         0.4820   25.0890  -12.3330 S.o2      1 SVR        -0.1723
     70 O80         1.2910   25.9900  -11.5030 O.co2     1 SVR        -0.4823
     71 O81         1.0290   25.0470  -13.7180 O.co2     1 SVR        -0.4823
     72 O82        -0.9640   25.4820  -12.3280 O.co2     1 SVR        -0.4823
     73 C66         0.7830   22.1380   -9.6980 C.ar      1 SVR         0.0350
     74 C68         0.5460   23.4210  -10.2730 C.ar      1 SVR        -0.0062
     75 C72         0.1190   24.4660   -9.4740 C.ar      1 SVR        -0.0371
     76 C69         0.5820   21.9310   -8.2800 C.ar      1 SVR         0.0599
     77 S73         0.8960   20.5670   -7.4260 S.o2      1 SVR        -0.1625
     78 O77        -0.1040   19.4650   -7.3210 O.co2     1 SVR        -0.4795
     79 O78         2.1560   19.9670   -7.9280 O.co2     1 SVR        -0.4795
     80 O79         1.2590   21.1010   -6.0950 O.co2     1 SVR        -0.4795
     81 C74         0.1670   23.0160   -7.5170 C.ar      1 SVR        -0.0210
     82 C76        -0.0520   24.2560   -8.1070 C.ar      1 SVR         0.0494
     83 S83        -0.5850   25.5240   -7.2570 S.o2      1 SVR        -0.1636
     84 O85        -1.5600   26.1700   -8.1860 O.co2     1 SVR        -0.4797
     85 O86        -1.3180   25.0640   -6.0260 O.co2     1 SVR        -0.4797
     86 O84         0.5390   26.4850   -7.0310 O.co2     1 SVR        -0.4797
     87 H          11.1462    5.8166    8.1646 H         1 SVR         0.0614
     88 H          11.9225    1.6016    8.2544 H         1 SVR         0.0606
     89 H           9.3088   -0.2779    4.7930 H         1 SVR         0.0583
     90 H           8.1394    1.6145    3.7789 H         1 SVR         0.0443
     91 H           7.7959    4.7826    4.9831 H         1 SVR         0.2306
     92 H           7.5982    5.2331    0.6545 H         1 SVR         0.0529
     93 H           5.8594    5.1666    4.5891 H         1 SVR         0.0525
     94 H           4.1534    6.8214    3.8710 H         1 SVR         0.0527
     95 H           4.2677    8.8008    1.0433 H         1 SVR         0.0372
     96 H           3.2313    7.4202    0.6065 H         1 SVR         0.0372
     97 H           3.1603    8.1019    2.2500 H         1 SVR         0.0372
     98 H           6.5879    7.6329   -0.6298 H         1 SVR         0.2231
     99 H           5.4715    9.0502   -1.6815 H         1 SVR         0.0551
    100 H           4.9323    5.3167   -3.8036 H         1 SVR         0.0538
    101 H           5.1561    6.5468   -5.9563 H         1 SVR         0.0588
    102 H           5.5881    8.9949   -5.9673 H         1 SVR         0.0536
    103 H           5.8086   10.9883   -2.8349 H         1 SVR         0.2262
    104 H           6.1206   12.9298   -3.4222 H         1 SVR         0.2262
    105 H           4.2963   13.4610   -6.1956 H         1 SVR         0.0551
    106 H           8.2580   14.3172   -4.7287 H         1 SVR         0.0536
    107 H           8.5036   16.0813   -6.4251 H         1 SVR         0.0588
    108 H           6.6163   16.6571   -7.9392 H         1 SVR         0.0538
    109 H           2.7694   15.3540   -6.6864 H         1 SVR         0.2231
    110 H           2.5612   17.9180   -8.7972 H         1 SVR         0.0529
    111 H           0.2942   13.2108   -7.9408 H         1 SVR         0.0372
    112 H           1.3853   12.7424   -9.2679 H         1 SVR         0.0372
    113 H           2.0527   13.4323   -7.7680 H         1 SVR         0.0372
    114 H          -0.6066   14.3831  -10.2867 H         1 SVR         0.0527
    115 H          -0.7478   16.6873  -11.2441 H         1 SVR         0.0525
    116 H           1.9944   19.6884   -9.2790 H         1 SVR         0.2306
    117 H           1.6630   20.5430  -12.5689 H         1 SVR         0.0443
    118 H           1.2261   22.7549  -13.5539 H         1 SVR         0.0583
    119 H          -0.0819   25.4448   -9.9095 H         1 SVR         0.0606
    120 H           0.0116   22.8937   -6.4451 H         1 SVR         0.0614
@<TRIPOS>BOND
     1    1    2 ar 
     2    2    3 ar 
     3    2    4 ar 
     4    2    5 1  
     5    5    6 ar 
     6    5   12 ar 
     7    6    7 ar 
     8    7    8 1  
     9    7   21 ar 
    10    8    9 ar 
    11    8   10 ar 
    12    8   11 ar 
    13   12   13 ar 
    14   13   14 ar 
    15   13   21 ar 
    16   14   15 1  
    17   14   19 ar 
    18   15   16 ar 
    19   15   17 ar 
    20   15   18 ar 
    21   19   20 ar 
    22   20   22 ar 
    23   21   22 ar 
    24   22   23 1  
    25   23   24 am 
    26   24   25 2  
    27   24   26 1  
    28   26   27 ar 
    29   26   28 ar 
    30   27   32 ar 
    31   28   29 ar 
    32   29   30 ar 
    33   30   31 1  
    34   30   32 ar 
    35   32   33 1  
    36   33   34 am 
    37   34   35 2  
    38   34   36 1  
    39   36   37 ar 
    40   36   38 ar 
    41   37   41 ar 
    42   38   39 ar 
    43   39   40 ar 
    44   40   41 ar 
    45   41   42 1  
    46   42   43 am 
    47   43   44 2  
    48   43   45 am 
    49   45   46 1  
    50   46   47 ar 
    51   46   48 ar 
    52   47   51 ar 
    53   48   49 ar 
    54   49   50 ar 
    55   50   51 ar 
    56   51   52 1  
    57   52   53 2  
    58   52   54 am 
    59   54   55 1  
    60   55   56 ar 
    61   55   57 ar 
    62   56   61 ar 
    63   57   58 1  
    64   57   59 ar 
    65   59   60 ar 
    66   60   61 ar 
    67   61   62 1  
    68   62   63 2  
    69   62   64 am 
    70   64   65 1  
    71   65   66 ar 
    72   65   73 ar 
    73   66   67 ar 
    74   67   68 ar 
    75   68   69 1  
    76   68   74 ar 
    77   69   70 ar 
    78   69   71 ar 
    79   69   72 ar 
    80   73   74 ar 
    81   73   76 ar 
    82   74   75 ar 
    83   75   82 ar 
    84   76   77 1  
    85   76   81 ar 
    86   77   78 ar 
    87   77   79 ar 
    88   77   80 ar 
    89   81   82 ar 
    90   82   83 1  
    91   83   84 ar 
    92   83   85 ar 
    93   83   86 ar 
    94    6   87 1  
    95   12   88 1  
    96   19   89 1  
    97   20   90 1  
    98   23   91 1  
    99   27   92 1  
   100   28   93 1  
   101   29   94 1  
   102   31   95 1  
   103   31   96 1  
   104   31   97 1  
   105   33   98 1  
   106   37   99 1  
   107   38  100 1  
   108   39  101 1  
   109   40  102 1  
   110   42  103 1  
   111   45  104 1  
   112   47  105 1  
   113   48  106 1  
   114   49  107 1  
   115   50  108 1  
   116   54  109 1  
   117   56  110 1  
   118   58  111 1  
   119   58  112 1  
   120   58  113 1  
   121   59  114 1  
   122   60  115 1  
   123   64  116 1  
   124   66  117 1  
   125   67  118 1  
   126   75  119 1  
   127   81  120 1  
@<TRIPOS>SUBSTRUCTURE
     1 SVR         1

