1gzc_ligand
  -I-interpret- 

 45 46  0  0  0  0  0  0  0  0999 V2000
   83.5890   42.7070   30.5940 C   0  0  0  0  0
   83.3470   41.5450   31.5350 C   0  0  0  0  0
   81.9990   40.8490   31.0880 C   0  0  0  0  0
   80.8800   41.9040   31.1440 C   0  0  0  0  0
   81.2420   43.0760   30.2260 C   0  0  0  0  0
   80.2060   44.1980   30.2870 C   0  0  0  0  0
   84.7910   43.4140   30.9710 O   0  0  0  0  0
   84.4430   40.5970   31.4980 O   0  0  0  0  0
   81.7290   39.7410   31.9440 O   0  0  0  0  0
   80.6980   42.4520   32.4430 O   0  0  0  0  0
   82.5060   43.6490   30.6340 O   0  0  0  0  0
   80.4780   45.0920   29.1980 O   0  0  0  0  0
   87.2420   46.5170   29.5120 C   0  0  0  0  0
   85.7470   46.8320   29.4400 C   0  0  0  0  0
   85.0230   45.8400   30.3920 C   0  0  0  0  0
   85.3410   44.3870   29.9980 C   0  0  0  0  0
   86.8550   44.1320   29.9620 C   0  0  0  0  0
   87.1800   42.7380   29.3860 C   0  0  0  0  0
   87.9290   47.3930   28.6630 O   0  0  0  0  0
   85.4500   48.1460   29.8720 O   0  0  0  0  0
   83.6150   46.1090   30.3420 O   0  0  0  0  0
   87.4560   45.1390   29.0630 O   0  0  0  0  0
   88.5790   42.4900   29.4290 O   0  0  0  0  0
   83.6793   42.2901   29.5909 H   0  0  0  0  0
   83.2769   41.9059   32.5611 H   0  0  0  0  0
   82.0700   40.4634   30.0710 H   0  0  0  0  0
   79.9655   41.3951   30.8394 H   0  0  0  0  0
   81.2863   42.6745   29.2136 H   0  0  0  0  0
   80.2689   44.7250   31.2391 H   0  0  0  0  0
   79.1977   43.7921   30.2056 H   0  0  0  0  0
   85.2525   41.0346   31.7716 H   0  0  0  0  0
   82.4473   39.1071   31.8813 H   0  0  0  0  0
   80.4683   41.7498   33.0560 H   0  0  0  0  0
   79.8416   45.8107   29.2089 H   0  0  0  0  0
   87.6045   46.6329   30.5334 H   0  0  0  0  0
   85.4230   46.7413   28.4032 H   0  0  0  0  0
   85.3731   45.9741   31.4155 H   0  0  0  0  0
   84.8899   44.2525   29.0149 H   0  0  0  0  0
   87.2456   44.1913   30.9779 H   0  0  0  0  0
   86.8471   42.6990   28.3488 H   0  0  0  0  0
   86.6698   41.9823   29.9833 H   0  0  0  0  0
   88.8692   47.2027   28.7016 H   0  0  0  0  0
   85.8881   48.7775   29.2967 H   0  0  0  0  0
   83.4556   47.0217   30.5932 H   0  0  0  0  0
   88.7598   41.6195   29.0669 H   0  0  0  0  0
  1 11  1  0  0  0
  1  7  1  0  0  0
  1  2  1  0  0  0
  2  8  1  0  0  0
  2  3  1  0  0  0
  3  9  1  0  0  0
  3  4  1  0  0  0
  4 10  1  0  0  0
  4  5  1  0  0  0
  5 11  1  0  0  0
  5  6  1  0  0  0
  6 12  1  0  0  0
  7 16  1  0  0  0
 16 17  1  0  0  0
 16 15  1  0  0  0
 15 21  1  0  0  0
 15 14  1  0  0  0
 14 20  1  0  0  0
 14 13  1  0  0  0
 13 22  1  0  0  0
 13 19  1  0  0  0
 22 17  1  0  0  0
 17 18  1  0  0  0
 18 23  1  0  0  0
  1 24  1  0  0  0
  2 25  1  0  0  0
  3 26  1  0  0  0
  4 27  1  0  0  0
  5 28  1  0  0  0
  6 29  1  0  0  0
  6 30  1  0  0  0
  8 31  1  0  0  0
  9 32  1  0  0  0
 10 33  1  0  0  0
 12 34  1  0  0  0
 13 35  1  0  0  0
 14 36  1  0  0  0
 15 37  1  0  0  0
 16 38  1  0  0  0
 17 39  1  0  0  0
 18 40  1  0  0  0
 18 41  1  0  0  0
 19 42  1  0  0  0
 20 43  1  0  0  0
 21 44  1  0  0  0
 23 45  1  0  0  0
M  END
$$$$
