3qi4_ligand
  -I-interpret- 

 29 30  0  0  0  0  0  0  0  0999 V2000
   74.1120   52.5470   40.8180 N   0  0  0  0  0
   73.3110   53.2280   41.7030 C   0  0  0  0  0
   73.7130   53.1470   42.9480 N   0  0  0  0  0
   74.8550   52.3610   42.8780 C   0  0  0  0  0
   75.1160   51.9860   41.5720 C   0  0  0  0  0
   76.1500   51.2380   41.1220 N   0  0  0  0  0
   77.0050   50.8120   42.0950 C   0  0  0  0  0
   76.8240   51.1420   43.4490 N   0  0  0  0  0
   75.7510   51.9140   43.8410 C   0  0  0  0  0
   75.5810   52.1990   45.0320 O   0  0  0  0  0
   77.9680   50.1260   41.7710 O   0  0  0  0  0
   77.7840   50.6720   44.4460 C   0  0  0  0  0
   76.3850   50.9560   39.7010 C   0  0  0  0  0
   75.0870   50.5550   38.9930 C   0  0  0  0  0
   75.4040   49.4240   38.0140 C   0  0  0  0  0
   74.4950   51.7320   38.2220 C   0  0  0  0  0
   72.4242   53.7836   41.3981 H   0  0  0  0  0
   77.8093   49.5823   44.4388 H   0  0  0  0  0
   78.7738   51.0612   44.2073 H   0  0  0  0  0
   77.4824   51.0232   45.4328 H   0  0  0  0  0
   77.0929   50.1309   39.6227 H   0  0  0  0  0
   76.7752   51.8570   39.2276 H   0  0  0  0  0
   74.3592   50.2350   39.7387 H   0  0  0  0  0
   76.1364   49.7708   37.2850 H   0  0  0  0  0
   75.8096   48.5737   38.5622 H   0  0  0  0  0
   74.4911   49.1241   37.4993 H   0  0  0  0  0
   74.2782   52.5458   38.9140 H   0  0  0  0  0
   75.2108   52.0711   37.4731 H   0  0  0  0  0
   73.5748   51.4166   37.7303 H   0  0  0  0  0
  1  2  4  0  0  0
  1  5  4  0  0  0
  2  3  4  0  0  0
  3  4  4  0  0  0
  4  5  4  0  0  0
  4  9  1  0  0  0
  5  6  1  0  0  0
  6  7  1  0  0  0
  6 13  1  0  0  0
  7  8  1  0  0  0
  7 11  2  0  0  0
  8  9  1  0  0  0
  8 12  1  0  0  0
  9 10  2  0  0  0
 13 14  1  0  0  0
 14 15  1  0  0  0
 14 16  1  0  0  0
  2 17  1  0  0  0
 12 18  1  0  0  0
 12 19  1  0  0  0
 12 20  1  0  0  0
 13 21  1  0  0  0
 13 22  1  0  0  0
 14 23  1  0  0  0
 15 24  1  0  0  0
 15 25  1  0  0  0
 15 26  1  0  0  0
 16 27  1  0  0  0
 16 28  1  0  0  0
 16 29  1  0  0  0
M  END
$$$$
