4b2d_ligand
  -I-interpret- 

 15 14  0  0  0  0  0  0  0  0999 V2000
  -11.0230   -4.2890    2.0280 N   0  3  0  0  0
  -10.1270   -4.3580    0.8410 C   0  0  0  0  0
  -10.8090   -5.1030   -0.3180 C   0  0  0  0  0
  -10.2930   -4.9670   -1.4470 O   0  0  0  0  0
   -8.8090   -5.0300    1.2000 C   0  0  0  0  0
   -9.0170   -6.3070    1.7890 O   0  0  0  0  0
  -11.8200   -5.7880   -0.0670 O   0  0  0  0  0
  -11.8985   -3.8362    1.7657 H   0  0  0  0  0
  -11.2143   -5.2331    2.3634 H   0  0  0  0  0
  -10.5679   -3.7507    2.7652 H   0  0  0  0  0
   -9.9187   -3.3382    0.5173 H   0  0  0  0  0
   -9.5265   -4.3928   -1.3802 H   0  0  0  0  0
   -8.2855   -4.3999    1.9190 H   0  0  0  0  0
   -8.2294   -5.1621    0.2864 H   0  0  0  0  0
   -8.1684   -6.7018    2.0024 H   0  0  0  0  0
  1  2  1  0  0  0
  2  3  1  0  0  0
  2  5  1  0  0  0
  3  4  1  0  0  0
  3  7  2  0  0  0
  5  6  1  0  0  0
  1  8  1  0  0  0
  1  9  1  0  0  0
  1 10  1  0  0  0
  2 11  1  0  0  0
  4 12  1  0  0  0
  5 13  1  0  0  0
  5 14  1  0  0  0
  6 15  1  0  0  0
M  END
$$$$
