5tfx_ligand
  -I-interpret- 

 33 35  0  0  0  0  0  0  0  0999 V2000
   -2.2580   11.8120   80.2460 C   0  0  0  0  0
   -3.5320   11.3990   80.5390 C   0  0  0  0  0
   -1.1820   10.9550   80.3710 C   0  0  0  0  0
   -3.7470   10.1060   80.9720 C   0  0  0  0  0
   -1.3920    9.6650   80.7980 C   0  0  0  0  0
   -0.2190    3.5870   84.7090 C   0  0  0  0  0
   -0.8430    2.6200   85.4370 C   0  0  0  0  0
   -3.0260    3.5860   85.0560 C   0  0  0  0  0
   -2.6870    9.2620   81.0930 C   0  0  0  0  0
   -2.3750    4.5360   84.3010 C   0  0  0  0  0
   -1.0080    4.5350   84.1460 C   0  0  0  0  0
   -2.2150    2.6120   85.6010 C   0  0  0  0  0
   -2.9790    7.9050   81.5750 C   0  0  0  0  0
   -1.9130    6.2750   82.9390 C   0  0  0  0  0
   -2.3760   -0.1330   86.0280 N   0  0  0  0  0
   -2.9690    5.6200   83.6540 N   0  0  0  0  0
   -1.9160    7.4510   82.2210 N   0  0  0  0  0
   -0.6080    5.5510   83.4010 O   0  0  0  0  0
   -3.9990    7.2740   81.4670 O   0  0  0  0  0
   -2.3230    1.4910   87.9470 O   0  0  0  0  0
   -4.3270    1.4180   86.4850 O   0  0  0  0  0
   -2.8800    1.3070   86.6170 S   0  0  0  0  0
   -2.0912   12.8349   79.9084 H   0  0  0  0  0
   -4.3701   12.0875   80.4307 H   0  0  0  0  0
   -0.1752   11.2984   80.1332 H   0  0  0  0  0
   -4.7538    9.7655   81.2140 H   0  0  0  0  0
   -0.5573    8.9719   80.9029 H   0  0  0  0  0
    0.8638    3.5983   84.5848 H   0  0  0  0  0
   -0.2466    1.8344   85.9009 H   0  0  0  0  0
   -4.1047    3.6024   85.2119 H   0  0  0  0  0
   -1.7683   -0.7293   86.5897 H   0  0  0  0  0
   -2.6693   -0.4348   85.0989 H   0  0  0  0  0
   -1.0566    7.9992   82.1853 H   0  0  0  0  0
  2  1  4  0  0  0
  3  1  4  0  0  0
  4  2  4  0  0  0
  5  3  4  0  0  0
  9  4  4  0  0  0
  9  5  4  0  0  0
  6  7  4  0  0  0
 11  6  4  0  0  0
 12  7  4  0  0  0
 10  8  4  0  0  0
  8 12  4  0  0  0
 13  9  1  0  0  0
 10 11  4  0  0  0
 16 10  4  0  0  0
 11 18  4  0  0  0
 12 22  1  0  0  0
 17 13  1  0  0  0
 13 19  2  0  0  0
 14 16  4  0  0  0
 14 17  1  0  0  0
 14 18  4  0  0  0
 22 15  1  0  0  0
 22 20  2  0  0  0
 22 21  2  0  0  0
  1 23  1  0  0  0
  2 24  1  0  0  0
  3 25  1  0  0  0
  4 26  1  0  0  0
  5 27  1  0  0  0
  6 28  1  0  0  0
  7 29  1  0  0  0
  8 30  1  0  0  0
 15 31  1  0  0  0
 15 32  1  0  0  0
 17 33  1  0  0  0
M  END
$$$$
