5zz4_ligand
  -I-interpret- 

 77 81  0  0  0  0  0  0  0  0999 V2000
   -8.0760   11.2430  272.9250 C   0  0  0  0  0
   -7.2880   12.3950  272.7550 C   0  0  0  0  0
   -9.2640   13.8270  273.2390 C   0  0  0  0  0
   -9.4310   11.3250  273.2450 C   0  0  0  0  0
   -5.8270   14.6620  274.5740 O   0  0  0  0  0
   -6.1200   15.2470  273.5080 C   0  0  0  0  0
   -5.4840   16.5650  273.0550 C   0  0  0  0  0
   -4.9890   17.4830  273.9850 C   0  0  0  0  0
   -4.4320   18.7240  273.6240 C   0  0  0  0  0
   -4.3750   19.1340  272.2910 C   0  0  0  0  0
   -3.7770   20.4810  271.9240 C   0  0  0  0  0
   -2.4180   20.2000  271.3290 C   0  0  0  0  0
   -4.6310   21.2970  270.9720 C   0  0  0  0  0
   -3.5970   21.4180  273.1120 C   0  0  0  0  0
   -4.8850   18.2260  271.3470 C   0  0  0  0  0
   -5.4410   16.9740  271.7190 C   0  0  0  0  0
   -7.0340   14.8200  272.7340 N   0  0  0  0  0
   -7.8180   13.6740  272.9130 C   0  0  0  0  0
   -9.8500   15.2270  273.3730 C   0  0  0  0  0
  -10.0600   12.5580  273.4240 C   0  0  0  0  0
  -11.5240   12.5740  273.7260 C   0  0  0  0  0
  -12.0710   13.5780  274.4660 N   0  0  0  0  0
  -12.3180   11.5760  273.2150 N   0  0  0  0  0
  -13.6710   11.5720  273.4320 C   0  0  0  0  0
  -14.2010   12.6010  274.1740 N   0  0  0  0  0
  -13.4000   13.5900  274.6920 C   0  0  0  0  0
  -13.8970   14.6150  275.4390 N   0  0  0  0  0
  -14.4970   10.5870  272.9260 N   0  0  0  0  0
  -14.2040    9.4310  272.2370 C   0  0  0  0  0
  -15.2500    8.5790  271.8310 C   0  0  0  0  0
  -14.9830    7.3760  271.1350 C   0  0  0  0  0
  -13.6560    6.9860  270.8340 C   0  0  0  0  0
  -12.6160    7.8430  271.2270 C   0  0  0  0  0
  -12.8880    9.0430  271.9170 C   0  0  0  0  0
  -13.3180    5.7230  270.0490 C   0  0  0  0  0
  -12.4420    4.9460  270.4350 O   0  0  0  0  0
  -13.9640    5.5250  268.8770 N   0  0  0  0  0
  -14.9110    4.4120  268.6610 C   0  0  0  0  0
  -15.9820    4.8130  267.6150 C   0  0  0  0  0
  -16.2420    6.2280  267.6100 O   0  0  0  0  0
  -15.0970    7.0560  267.3220 C   0  0  0  0  0
  -13.7470    6.4240  267.7210 C   0  0  0  0  0
   -7.6167   10.2620  272.8037 H   0  0  0  0  0
   -6.2357   12.2848  272.4929 H   0  0  0  0  0
  -10.0100   10.4084  273.3575 H   0  0  0  0  0
   -5.0367   17.2250  275.0430 H   0  0  0  0  0
   -4.0371   19.3783  274.4012 H   0  0  0  0  0
   -1.7996   19.6865  272.0652 H   0  0  0  0  0
   -2.5323   19.5708  270.4463 H   0  0  0  0  0
   -1.9445   21.1406  271.0474 H   0  0  0  0  0
   -4.7695   20.7424  270.0439 H   0  0  0  0  0
   -5.6012   21.4893  271.4301 H   0  0  0  0  0
   -4.1337   22.2436  270.7603 H   0  0  0  0  0
   -4.5661   21.6083  273.5731 H   0  0  0  0  0
   -2.9312   20.9553  273.8405 H   0  0  0  0  0
   -3.1654   22.3584  272.7693 H   0  0  0  0  0
   -4.8524   18.4930  270.2907 H   0  0  0  0  0
   -5.8428   16.3179  270.9468 H   0  0  0  0  0
   -7.2150   15.3703  271.8944 H   0  0  0  0  0
   -9.3327   15.7613  274.1699 H   0  0  0  0  0
   -9.7241   15.7637  272.4327 H   0  0  0  0  0
  -10.9110   15.1541  273.6119 H   0  0  0  0  0
  -13.2695   15.3326  275.8018 H   0  0  0  0  0
  -14.8966   14.6649  275.6355 H   0  0  0  0  0
  -15.4917   10.7420  273.0904 H   0  0  0  0  0
  -16.2812    8.8507  272.0565 H   0  0  0  0  0
  -15.8123    6.7398  270.8259 H   0  0  0  0  0
  -11.5844    7.5777  270.9959 H   0  0  0  0  0
  -12.0586    9.6866  272.2101 H   0  0  0  0  0
  -15.4047    4.1766  269.6038 H   0  0  0  0  0
  -14.3628    3.5441  268.2945 H   0  0  0  0  0
  -16.9099    4.3008  267.8694 H   0  0  0  0  0
  -15.6104    4.5352  266.6287 H   0  0  0  0  0
  -15.2078    7.9728  267.9011 H   0  0  0  0  0
  -15.0743    7.2115  266.2434 H   0  0  0  0  0
  -13.3427    5.8566  266.8827 H   0  0  0  0  0
  -13.0379    7.2069  267.9900 H   0  0  0  0  0
  2  1  4  0  0  0
  1  4  4  0  0  0
 18  2  4  0  0  0
 18  3  4  0  0  0
  3 19  1  0  0  0
  3 20  4  0  0  0
 20  4  4  0  0  0
  6  5  2  0  0  0
  6  7  1  0  0  0
 17  6  1  0  0  0
  7  8  4  0  0  0
  7 16  4  0  0  0
  8  9  4  0  0  0
  9 10  4  0  0  0
 10 11  1  0  0  0
 15 10  4  0  0  0
 11 12  1  0  0  0
 11 13  1  0  0  0
 11 14  1  0  0  0
 16 15  4  0  0  0
 17 18  1  0  0  0
 20 21  1  0  0  0
 21 22  4  0  0  0
 21 23  4  0  0  0
 22 26  4  0  0  0
 23 24  4  0  0  0
 24 25  4  0  0  0
 24 28  1  0  0  0
 25 26  4  0  0  0
 26 27  1  0  0  0
 28 29  1  0  0  0
 29 30  4  0  0  0
 29 34  4  0  0  0
 30 31  4  0  0  0
 31 32  4  0  0  0
 32 33  4  0  0  0
 32 35  1  0  0  0
 33 34  4  0  0  0
 35 36  2  0  0  0
 35 37  1  0  0  0
 37 38  1  0  0  0
 37 42  1  0  0  0
 38 39  1  0  0  0
 39 40  1  0  0  0
 40 41  1  0  0  0
 41 42  1  0  0  0
  1 43  1  0  0  0
  2 44  1  0  0  0
  4 45  1  0  0  0
  8 46  1  0  0  0
  9 47  1  0  0  0
 12 48  1  0  0  0
 12 49  1  0  0  0
 12 50  1  0  0  0
 13 51  1  0  0  0
 13 52  1  0  0  0
 13 53  1  0  0  0
 14 54  1  0  0  0
 14 55  1  0  0  0
 14 56  1  0  0  0
 15 57  1  0  0  0
 16 58  1  0  0  0
 17 59  1  0  0  0
 19 60  1  0  0  0
 19 61  1  0  0  0
 19 62  1  0  0  0
 27 63  1  0  0  0
 27 64  1  0  0  0
 28 65  1  0  0  0
 30 66  1  0  0  0
 31 67  1  0  0  0
 33 68  1  0  0  0
 34 69  1  0  0  0
 38 70  1  0  0  0
 38 71  1  0  0  0
 39 72  1  0  0  0
 39 73  1  0  0  0
 41 74  1  0  0  0
 41 75  1  0  0  0
 42 76  1  0  0  0
 42 77  1  0  0  0
M  END
$$$$
