### 
### Created by X-TOOL on Mon Sep 10 21:13:33 2018
### 

@<TRIPOS>MOLECULE
5tw2_ligand
  104   105     1     0     0
SMALL
GAST_HUCK


@<TRIPOS>ATOM
      1 C2        -31.4070   -4.2670  -36.8040 C.3       1 7LP        -0.0361
      2 C1        -31.3920   -5.4850  -37.7520 C.3       1 7LP         0.0372
      3 O1        -35.3290    1.3580  -37.6510 O.2       1 7LP        -0.3971
      4 C7        -29.6740   -0.5530  -32.6940 C.3       1 7LP        -0.0653
      5 C6        -30.7320   -1.5770  -33.1170 C.3       1 7LP        -0.0559
      6 C5        -30.0680   -2.9060  -33.5400 C.3       1 7LP        -0.0533
      7 C4        -30.0600   -3.0700  -35.0690 C.3       1 7LP        -0.0529
      8 C3        -30.5640   -4.4570  -35.5360 C.3       1 7LP        -0.0510
      9 C20       -31.4620   -4.8980  -39.1730 C.2       1 7LP         0.1764
     10 O         -30.4260   -4.5230  -39.7150 O.2       1 7LP        -0.3971
     11 C27       -32.9530   -4.1260  -41.0350 C.3       1 7LP         0.0936
     12 C28       -32.8490   -5.0790  -42.1950 C.3       1 7LP         0.0762
     13 O4        -33.4260   -6.2930  -41.7150 O.3       1 7LP        -0.3463
     14 C31       -33.6480   -7.3130  -42.7030 C.3       1 7LP         0.1880
     15 O9        -32.5300   -8.2180  -42.6410 O.3       1 7LP        -0.3405
     16 C30       -32.3380   -8.8530  -41.3390 C.3       1 7LP         0.1130
     17 C29       -31.1750   -9.8220  -41.4470 C.3       1 7LP         0.0730
     18 O8        -30.0490   -9.0430  -41.8880 O.3       1 7LP        -0.3924
     19 C34       -33.6130   -9.6220  -40.9160 C.3       1 7LP         0.1119
     20 O7        -33.7830  -10.7770  -41.7650 O.3       1 7LP        -0.3865
     21 C33       -34.8620   -8.7170  -41.0060 C.3       1 7LP         0.1141
     22 O6        -36.0570   -9.4890  -40.7680 O.3       1 7LP        -0.3864
     23 C32       -34.9500   -8.0610  -42.3920 C.3       1 7LP         0.1341
     24 O5        -36.0630   -7.1510  -42.4390 O.3       1 7LP        -0.3841
     25 C26       -34.3560   -3.4640  -41.0270 C.3       1 7LP         0.1059
     26 O3        -34.6320   -2.7820  -42.2660 O.3       1 7LP        -0.3869
     27 C25       -34.4570   -2.4630  -39.8670 C.3       1 7LP         0.0834
     28 O2        -35.7240   -1.8000  -39.9200 O.3       1 7LP        -0.3892
     29 C24       -33.2950   -1.4440  -39.9300 C.3       1 7LP        -0.0223
     30 C23       -33.5860   -0.1670  -39.1720 C.3       1 7LP        -0.0337
     31 C22       -33.8000   -0.5040  -37.6990 C.3       1 7LP         0.0373
     32 C21       -34.6380    0.5500  -37.0220 C.2       1 7LP         0.1760
     33 N1        -34.5880    0.4680  -35.7000 N.am      1 7LP        -0.2870
     34 C19       -35.3990    1.3120  -34.8790 C.3       1 7LP         0.0309
     35 C18       -34.5390    2.4490  -34.3920 C.3       1 7LP        -0.0327
     36 C17       -34.9850    3.6820  -35.1440 C.3       1 7LP        -0.0511
     37 C16       -36.4790    3.8480  -34.8730 C.3       1 7LP        -0.0512
     38 C15       -36.6650    5.3040  -35.0690 C.3       1 7LP        -0.0433
     39 C14       -38.1620    5.5850  -35.0870 C.3       1 7LP        -0.0192
     40 C13       -38.1870    6.8430  -35.7010 C.ar      1 7LP        -0.0430
     41 C8        -37.7450    7.9500  -34.9740 C.ar      1 7LP        -0.0603
     42 C9        -37.7270    9.2040  -35.5570 C.ar      1 7LP        -0.0686
     43 C10       -38.1380    9.3870  -36.8730 C.ar      1 7LP        -0.0687
     44 C11       -38.5670    8.2880  -37.6080 C.ar      1 7LP        -0.0686
     45 C12       -38.5900    7.0130  -37.0330 C.ar      1 7LP        -0.0603
     46 N2        -32.6990   -4.7550  -39.7000 N.am      1 7LP        -0.2791
     47 H1        -32.4474   -4.0750  -36.5029 H         1 7LP         0.0290
     48 H2        -31.0173   -3.3965  -37.3520 H         1 7LP         0.0290
     49 H3        -32.2601   -6.1328  -37.5601 H         1 7LP         0.0502
     50 H4        -30.4661   -6.0640  -37.6200 H         1 7LP         0.0502
     51 H5        -30.1684    0.3838  -32.3975 H         1 7LP         0.0230
     52 H6        -28.9946   -0.3581  -33.5369 H         1 7LP         0.0230
     53 H7        -29.0993   -0.9493  -31.8439 H         1 7LP         0.0230
     54 H8        -31.3056   -1.1742  -33.9648 H         1 7LP         0.0263
     55 H9        -31.4103   -1.7654  -32.2718 H         1 7LP         0.0263
     56 H10       -30.6260   -3.7424  -33.0937 H         1 7LP         0.0265
     57 H11       -29.0309   -2.9200  -33.1736 H         1 7LP         0.0265
     58 H12       -29.0301   -2.9326  -35.4300 H         1 7LP         0.0265
     59 H13       -30.7083   -2.2968  -35.5070 H         1 7LP         0.0265
     60 H14       -29.7057   -5.1091  -35.7553 H         1 7LP         0.0267
     61 H15       -31.1790   -4.9134  -34.7464 H         1 7LP         0.0267
     62 H16       -32.1969   -3.3408  -41.1825 H         1 7LP         0.0605
     63 H17       -31.7973   -5.2339  -42.4775 H         1 7LP         0.0585
     64 H18       -33.4094   -4.6987  -43.0618 H         1 7LP         0.0585
     65 H19       -33.7129   -6.8621  -43.7042 H         1 7LP         0.0937
     66 H20       -32.1114   -8.0842  -40.5857 H         1 7LP         0.0647
     67 H21       -31.4026  -10.6122  -42.1776 H         1 7LP         0.0584
     68 H22       -30.9647  -10.2773  -40.4680 H         1 7LP         0.0584
     69 H23       -30.2477   -8.6496  -42.7295 H         1 7LP         0.2095
     70 H24       -33.4949   -9.9571  -39.8750 H         1 7LP         0.0647
     71 H25       -34.5658  -11.2479  -41.5042 H         1 7LP         0.2100
     72 H26       -34.7853   -7.9298  -40.2415 H         1 7LP         0.0648
     73 H27       -36.8163   -8.9211  -40.8262 H         1 7LP         0.2100
     74 H28       -35.0995   -8.8457  -43.1482 H         1 7LP         0.0671
     75 H29       -35.9466   -6.4758  -41.7809 H         1 7LP         0.2101
     76 H30       -35.1108   -4.2515  -40.8852 H         1 7LP         0.0643
     77 H31       -35.4965   -2.3902  -42.2248 H         1 7LP         0.2100
     78 H32       -34.3868   -3.0132  -38.9171 H         1 7LP         0.0620
     79 H33       -35.8041   -1.3380  -40.7463 H         1 7LP         0.2099
     80 H34       -33.1076   -1.1909  -40.9839 H         1 7LP         0.0292
     81 H35       -32.3965   -1.9100  -39.4994 H         1 7LP         0.0292
     82 H36       -34.4927    0.3050  -39.5782 H         1 7LP         0.0290
     83 H37       -32.7362    0.5241  -39.2729 H         1 7LP         0.0290
     84 H38       -32.8227   -0.5639  -37.1976 H         1 7LP         0.0502
     85 H39       -34.3116   -1.4748  -37.6223 H         1 7LP         0.0502
     86 H40       -33.9739   -0.1941  -35.2705 H         1 7LP         0.1850
     87 H41       -35.7841    0.7409  -34.0214 H         1 7LP         0.0520
     88 H42       -36.2420    1.7058  -35.4657 H         1 7LP         0.0520
     89 H43       -33.4795    2.2398  -34.6010 H         1 7LP         0.0285
     90 H44       -34.6779    2.5934  -33.3104 H         1 7LP         0.0285
     91 H45       -34.8078    3.5529  -36.2219 H         1 7LP         0.0266
     92 H46       -34.4348    4.5642  -34.7850 H         1 7LP         0.0266
     93 H47       -36.7354    3.5465  -33.8467 H         1 7LP         0.0267
     94 H48       -37.0820    3.2680  -35.5871 H         1 7LP         0.0267
     95 H49       -36.2149    5.6134  -36.0238 H         1 7LP         0.0287
     96 H50       -36.1908    5.8560  -34.2442 H         1 7LP         0.0287
     97 H51       -38.5787    5.6231  -34.0697 H         1 7LP         0.0426
     98 H52       -38.7073    4.8351  -35.6789 H         1 7LP         0.0426
     99 H53       -37.4148    7.8262  -33.9490 H         1 7LP         0.0557
    100 H54       -37.3876   10.0566  -34.9799 H         1 7LP         0.0599
    101 H55       -38.1240   10.3745  -37.3200 H         1 7LP         0.0559
    102 H56       -38.8864    8.4201  -38.6354 H         1 7LP         0.0599
    103 H57       -38.9182    6.1595  -37.6152 H         1 7LP         0.0557
    104 H58       -33.4820   -5.0852  -39.1728 H         1 7LP         0.1856
@<TRIPOS>BOND
     1    2    1 1  
     2    1    8 1  
     3    9    2 1  
     4   32    3 2  
     5    5    4 1  
     6    6    5 1  
     7    7    6 1  
     8    8    7 1  
     9    9   10 2  
    10   46    9 am 
    11   11   12 1  
    12   25   11 1  
    13   11   46 1  
    14   12   13 1  
    15   13   14 1  
    16   14   15 1  
    17   14   23 1  
    18   15   16 1  
    19   16   17 1  
    20   16   19 1  
    21   17   18 1  
    22   19   20 1  
    23   21   19 1  
    24   21   22 1  
    25   23   21 1  
    26   23   24 1  
    27   25   26 1  
    28   27   25 1  
    29   27   28 1  
    30   29   27 1  
    31   30   29 1  
    32   31   30 1  
    33   31   32 1  
    34   32   33 am 
    35   33   34 1  
    36   34   35 1  
    37   35   36 1  
    38   36   37 1  
    39   37   38 1  
    40   38   39 1  
    41   39   40 1  
    42   40   41 ar 
    43   40   45 ar 
    44   41   42 ar 
    45   42   43 ar 
    46   43   44 ar 
    47   44   45 ar 
    48    1   47 1  
    49    1   48 1  
    50    2   49 1  
    51    2   50 1  
    52    4   51 1  
    53    4   52 1  
    54    4   53 1  
    55    5   54 1  
    56    5   55 1  
    57    6   56 1  
    58    6   57 1  
    59    7   58 1  
    60    7   59 1  
    61    8   60 1  
    62    8   61 1  
    63   11   62 1  
    64   12   63 1  
    65   12   64 1  
    66   14   65 1  
    67   16   66 1  
    68   17   67 1  
    69   17   68 1  
    70   18   69 1  
    71   19   70 1  
    72   20   71 1  
    73   21   72 1  
    74   22   73 1  
    75   23   74 1  
    76   24   75 1  
    77   25   76 1  
    78   26   77 1  
    79   27   78 1  
    80   28   79 1  
    81   29   80 1  
    82   29   81 1  
    83   30   82 1  
    84   30   83 1  
    85   31   84 1  
    86   31   85 1  
    87   33   86 1  
    88   34   87 1  
    89   34   88 1  
    90   35   89 1  
    91   35   90 1  
    92   36   91 1  
    93   36   92 1  
    94   37   93 1  
    95   37   94 1  
    96   38   95 1  
    97   38   96 1  
    98   39   97 1  
    99   39   98 1  
   100   41   99 1  
   101   42  100 1  
   102   43  101 1  
   103   44  102 1  
   104   45  103 1  
   105   46  104 1  
@<TRIPOS>SUBSTRUCTURE
     1 7LP         1

