5tw2_ligand
  -I-interpret- 

104105  0  0  0  0  0  0  0  0999 V2000
  -31.4070   -4.2670  -36.8040 C   0  0  0  0  0
  -31.3920   -5.4850  -37.7520 C   0  0  0  0  0
  -35.3290    1.3580  -37.6510 O   0  0  0  0  0
  -29.6740   -0.5530  -32.6940 C   0  0  0  0  0
  -30.7320   -1.5770  -33.1170 C   0  0  0  0  0
  -30.0680   -2.9060  -33.5400 C   0  0  0  0  0
  -30.0600   -3.0700  -35.0690 C   0  0  0  0  0
  -30.5640   -4.4570  -35.5360 C   0  0  0  0  0
  -31.4620   -4.8980  -39.1730 C   0  0  0  0  0
  -30.4260   -4.5230  -39.7150 O   0  0  0  0  0
  -32.9530   -4.1260  -41.0350 C   0  0  0  0  0
  -32.8490   -5.0790  -42.1950 C   0  0  0  0  0
  -33.4260   -6.2930  -41.7150 O   0  0  0  0  0
  -33.6480   -7.3130  -42.7030 C   0  0  0  0  0
  -32.5300   -8.2180  -42.6410 O   0  0  0  0  0
  -32.3380   -8.8530  -41.3390 C   0  0  0  0  0
  -31.1750   -9.8220  -41.4470 C   0  0  0  0  0
  -30.0490   -9.0430  -41.8880 O   0  0  0  0  0
  -33.6130   -9.6220  -40.9160 C   0  0  0  0  0
  -33.7830  -10.7770  -41.7650 O   0  0  0  0  0
  -34.8620   -8.7170  -41.0060 C   0  0  0  0  0
  -36.0570   -9.4890  -40.7680 O   0  0  0  0  0
  -34.9500   -8.0610  -42.3920 C   0  0  0  0  0
  -36.0630   -7.1510  -42.4390 O   0  0  0  0  0
  -34.3560   -3.4640  -41.0270 C   0  0  0  0  0
  -34.6320   -2.7820  -42.2660 O   0  0  0  0  0
  -34.4570   -2.4630  -39.8670 C   0  0  0  0  0
  -35.7240   -1.8000  -39.9200 O   0  0  0  0  0
  -33.2950   -1.4440  -39.9300 C   0  0  0  0  0
  -33.5860   -0.1670  -39.1720 C   0  0  0  0  0
  -33.8000   -0.5040  -37.6990 C   0  0  0  0  0
  -34.6380    0.5500  -37.0220 C   0  0  0  0  0
  -34.5880    0.4680  -35.7000 N   0  0  0  0  0
  -35.3990    1.3120  -34.8790 C   0  0  0  0  0
  -34.5390    2.4490  -34.3920 C   0  0  0  0  0
  -34.9850    3.6820  -35.1440 C   0  0  0  0  0
  -36.4790    3.8480  -34.8730 C   0  0  0  0  0
  -36.6650    5.3040  -35.0690 C   0  0  0  0  0
  -38.1620    5.5850  -35.0870 C   0  0  0  0  0
  -38.1870    6.8430  -35.7010 C   0  0  0  0  0
  -37.7450    7.9500  -34.9740 C   0  0  0  0  0
  -37.7270    9.2040  -35.5570 C   0  0  0  0  0
  -38.1380    9.3870  -36.8730 C   0  0  0  0  0
  -38.5670    8.2880  -37.6080 C   0  0  0  0  0
  -38.5900    7.0130  -37.0330 C   0  0  0  0  0
  -32.6990   -4.7550  -39.7000 N   0  0  0  0  0
  -32.4389   -4.1145  -36.4879 H   0  0  0  0  0
  -30.9845   -3.4244  -37.3514 H   0  0  0  0  0
  -32.2279   -6.1561  -37.5546 H   0  0  0  0  0
  -30.4959   -6.0897  -37.6125 H   0  0  0  0  0
  -29.1053   -0.9469  -31.8517 H   0  0  0  0  0
  -29.0015   -0.3608  -33.5300 H   0  0  0  0  0
  -30.1651    0.3748  -32.4004 H   0  0  0  0  0
  -31.2904   -1.1773  -33.9635 H   0  0  0  0  0
  -31.3949   -1.7675  -32.2730 H   0  0  0  0  0
  -30.6365   -3.7292  -33.1073 H   0  0  0  0  0
  -29.0366   -2.9044  -33.1874 H   0  0  0  0  0
  -29.0295   -2.9618  -35.4075 H   0  0  0  0  0
  -30.7299   -2.3177  -35.4854 H   0  0  0  0  0
  -29.7165   -5.1092  -35.7469 H   0  0  0  0  0
  -31.1676   -4.9165  -34.7533 H   0  0  0  0  0
  -32.1667   -3.3859  -41.1836 H   0  0  0  0  0
  -31.8172   -5.2175  -42.5180 H   0  0  0  0  0
  -33.3648   -4.7037  -43.0788 H   0  0  0  0  0
  -33.7354   -6.8789  -43.6990 H   0  0  0  0  0
  -32.1324   -8.0897  -40.5886 H   0  0  0  0  0
  -31.3962  -10.6275  -42.1473 H   0  0  0  0  0
  -30.9718  -10.3028  -40.4901 H   0  0  0  0  0
  -29.2809   -9.6126  -41.9731 H   0  0  0  0  0
  -33.4976   -9.9402  -39.8799 H   0  0  0  0  0
  -34.5740  -11.2528  -41.5015 H   0  0  0  0  0
  -34.7754   -7.9405  -40.2460 H   0  0  0  0  0
  -36.8243   -8.9151  -40.8268 H   0  0  0  0  0
  -35.0988   -8.8392  -43.1406 H   0  0  0  0  0
  -36.8730   -7.6276  -42.2432 H   0  0  0  0  0
  -35.0919   -4.2584  -40.9024 H   0  0  0  0  0
  -35.5056   -2.3861  -42.2243 H   0  0  0  0  0
  -34.3793   -2.9973  -38.9201 H   0  0  0  0  0
  -35.7870   -1.1742  -39.1947 H   0  0  0  0  0
  -33.1407   -1.1809  -40.9765 H   0  0  0  0  0
  -32.4209   -1.9088  -39.4739 H   0  0  0  0  0
  -34.4816    0.3051  -39.5758 H   0  0  0  0  0
  -32.7471    0.5214  -39.2743 H   0  0  0  0  0
  -32.8292   -0.5502  -37.2055 H   0  0  0  0  0
  -34.3176   -1.4608  -37.6301 H   0  0  0  0  0
  -33.9616   -0.2073  -35.2619 H   0  0  0  0  0
  -35.7946    0.7490  -34.0337 H   0  0  0  0  0
  -36.2439    1.6958  -35.4508 H   0  0  0  0  0
  -33.4839    2.2437  -34.5727 H   0  0  0  0  0
  -34.6503    2.5879  -33.3166 H   0  0  0  0  0
  -34.7945    3.5747  -36.2118 H   0  0  0  0  0
  -34.4310    4.5600  -34.8118 H   0  0  0  0  0
  -36.7803    3.5027  -33.8840 H   0  0  0  0  0
  -37.1070    3.2401  -35.5243 H   0  0  0  0  0
  -36.2097    5.6203  -36.0075 H   0  0  0  0  0
  -36.1860    5.8583  -34.2619 H   0  0  0  0  0
  -38.6277    5.5644  -34.1017 H   0  0  0  0  0
  -38.7480    4.8273  -35.6071 H   0  0  0  0  0
  -37.4129    7.8255  -33.9433 H   0  0  0  0  0
  -37.3858   10.0613  -34.9767 H   0  0  0  0  0
  -38.1239   10.3799  -37.3224 H   0  0  0  0  0
  -38.8882    8.4208  -38.6411 H   0  0  0  0  0
  -38.9200    6.1548  -37.6184 H   0  0  0  0  0
  -33.4976   -5.0918  -39.1623 H   0  0  0  0  0
  2  1  1  0  0  0
  1  8  1  0  0  0
  9  2  1  0  0  0
 32  3  2  0  0  0
  5  4  1  0  0  0
  6  5  1  0  0  0
  7  6  1  0  0  0
  8  7  1  0  0  0
  9 10  2  0  0  0
 46  9  1  0  0  0
 11 12  1  0  0  0
 25 11  1  0  0  0
 11 46  1  0  0  0
 12 13  1  0  0  0
 13 14  1  0  0  0
 14 15  1  0  0  0
 14 23  1  0  0  0
 15 16  1  0  0  0
 16 17  1  0  0  0
 16 19  1  0  0  0
 17 18  1  0  0  0
 19 20  1  0  0  0
 21 19  1  0  0  0
 21 22  1  0  0  0
 23 21  1  0  0  0
 23 24  1  0  0  0
 25 26  1  0  0  0
 27 25  1  0  0  0
 27 28  1  0  0  0
 29 27  1  0  0  0
 30 29  1  0  0  0
 31 30  1  0  0  0
 31 32  1  0  0  0
 32 33  1  0  0  0
 33 34  1  0  0  0
 34 35  1  0  0  0
 35 36  1  0  0  0
 36 37  1  0  0  0
 37 38  1  0  0  0
 38 39  1  0  0  0
 39 40  1  0  0  0
 40 41  4  0  0  0
 40 45  4  0  0  0
 41 42  4  0  0  0
 42 43  4  0  0  0
 43 44  4  0  0  0
 44 45  4  0  0  0
  1 47  1  0  0  0
  1 48  1  0  0  0
  2 49  1  0  0  0
  2 50  1  0  0  0
  4 51  1  0  0  0
  4 52  1  0  0  0
  4 53  1  0  0  0
  5 54  1  0  0  0
  5 55  1  0  0  0
  6 56  1  0  0  0
  6 57  1  0  0  0
  7 58  1  0  0  0
  7 59  1  0  0  0
  8 60  1  0  0  0
  8 61  1  0  0  0
 11 62  1  0  0  0
 12 63  1  0  0  0
 12 64  1  0  0  0
 14 65  1  0  0  0
 16 66  1  0  0  0
 17 67  1  0  0  0
 17 68  1  0  0  0
 18 69  1  0  0  0
 19 70  1  0  0  0
 20 71  1  0  0  0
 21 72  1  0  0  0
 22 73  1  0  0  0
 23 74  1  0  0  0
 24 75  1  0  0  0
 25 76  1  0  0  0
 26 77  1  0  0  0
 27 78  1  0  0  0
 28 79  1  0  0  0
 29 80  1  0  0  0
 29 81  1  0  0  0
 30 82  1  0  0  0
 30 83  1  0  0  0
 31 84  1  0  0  0
 31 85  1  0  0  0
 33 86  1  0  0  0
 34 87  1  0  0  0
 34 88  1  0  0  0
 35 89  1  0  0  0
 35 90  1  0  0  0
 36 91  1  0  0  0
 36 92  1  0  0  0
 37 93  1  0  0  0
 37 94  1  0  0  0
 38 95  1  0  0  0
 38 96  1  0  0  0
 39 97  1  0  0  0
 39 98  1  0  0  0
 41 99  1  0  0  0
 42100  1  0  0  0
 43101  1  0  0  0
 44102  1  0  0  0
 45103  1  0  0  0
 46104  1  0  0  0
M  END
$$$$
