1sc8_ligand
  -I-interpret- 

 56 57  0  0  0  0  0  0  0  0999 V2000
   33.2550    2.9670   27.9080 N   0  0  0  0  0
   34.3090    4.7250   27.0940 N   0  0  0  0  0
   33.1790    4.2800   27.6500 C   0  0  0  0  0
   32.0720    5.1030   27.9120 C   0  0  0  0  0
   31.9610    6.4910   27.4340 C   0  0  0  0  0
   30.7700    7.2710   27.6590 C   0  0  0  0  0
   29.6970    6.6860   28.4560 C   0  0  0  0  0
   29.7750    5.3320   28.9560 C   0  0  0  0  0
   30.9500    4.5650   28.6920 C   0  0  0  0  0
   28.4260    7.3650   28.8680 C   0  0  0  0  0
   28.4480    8.2740   29.9300 N   0  0  0  0  0
   28.7680    9.6030   29.7830 C   0  0  0  0  0
   29.0050   10.2130   28.7450 O   0  0  0  0  0
   28.8340   10.3830   31.0940 C   0  0  0  0  0
   30.0400   11.1740   31.0280 N   0  0  0  0  0
   31.3660   10.8020   31.0110 C   0  0  0  0  0
   31.7890    9.6780   31.1160 O   0  0  0  0  0
   32.3620   11.9350   30.8300 C   0  0  0  0  0
   33.1230   12.3240   32.1200 C   0  0  0  0  0
   32.4870   12.3930   33.3690 O   0  0  0  0  0
   33.5000   11.6710   29.9870 N   0  0  0  0  0
   33.3130   12.0270   28.4080 S   0  0  0  0  0
   32.9000   13.3830   28.2150 O   0  0  0  0  0
   34.6390   11.6510   27.9190 O   0  0  0  0  0
   32.1970   10.9650   27.4930 C   0  0  0  0  0
   31.8210   11.1810   26.0660 C   0  0  0  0  0
   30.8310   12.2150   25.7540 C   0  0  0  0  0
   30.4570   12.4660   24.3570 C   0  0  0  0  0
   31.0400   11.6620   23.2750 C   0  0  0  0  0
   32.0480   10.6280   23.5870 C   0  0  0  0  0
   32.4160   10.3850   24.9880 C   0  0  0  0  0
   34.1037    2.4503   27.6776 H   0  0  0  0  0
   32.4641    2.4845   28.3348 H   0  0  0  0  0
   34.3983    5.7081   26.8372 H   0  0  0  0  0
   32.7980    6.9387   26.8981 H   0  0  0  0  0
   30.6732    8.2741   27.2436 H   0  0  0  0  0
   28.9502    4.9035   29.5253 H   0  0  0  0  0
   31.0163    3.5491   29.0813 H   0  0  0  0  0
   27.7767    6.5576   29.2066 H   0  0  0  0  0
   28.1338    7.9575   28.0010 H   0  0  0  0  0
   28.2144    7.9334   30.8626 H   0  0  0  0  0
   28.8498    9.7110   31.9521 H   0  0  0  0  0
   27.9548   11.0146   31.2216 H   0  0  0  0  0
   29.8831   12.1810   30.9869 H   0  0  0  0  0
   31.6748   12.6787   30.4265 H   0  0  0  0  0
   33.4322   13.3525   31.9337 H   0  0  0  0  0
   33.8438   11.5159   32.2448 H   0  0  0  0  0
   33.1256   12.6495   34.0383 H   0  0  0  0  0
   34.3691   11.2850   30.3558 H   0  0  0  0  0
   31.2503   11.1058   28.0145 H   0  0  0  0  0
   32.7396   10.0203   27.4578 H   0  0  0  0  0
   30.3742   12.7953   26.5557 H   0  0  0  0  0
   29.7420   13.2542   24.1211 H   0  0  0  0  0
   30.7295   11.8279   22.2434 H   0  0  0  0  0
   32.5131   10.0522   22.7869 H   0  0  0  0  0
   33.1386    9.6052   25.2287 H   0  0  0  0  0
  1  3  1  0  0  0
  3  2  2  0  0  0
  3  4  1  0  0  0
  4  5  4  0  0  0
  4  9  4  0  0  0
  5  6  4  0  0  0
  6  7  4  0  0  0
  7  8  4  0  0  0
  7 10  1  0  0  0
  8  9  4  0  0  0
 10 11  1  0  0  0
 11 12  1  0  0  0
 12 13  2  0  0  0
 12 14  1  0  0  0
 14 15  1  0  0  0
 15 16  1  0  0  0
 16 17  2  0  0  0
 16 18  1  0  0  0
 18 19  1  0  0  0
 18 21  1  0  0  0
 19 20  1  0  0  0
 21 22  1  0  0  0
 22 23  2  0  0  0
 22 24  2  0  0  0
 22 25  1  0  0  0
 25 26  1  0  0  0
 26 27  4  0  0  0
 26 31  4  0  0  0
 27 28  4  0  0  0
 28 29  4  0  0  0
 29 30  4  0  0  0
 30 31  4  0  0  0
  1 32  1  0  0  0
  1 33  1  0  0  0
  2 34  1  0  0  0
  5 35  1  0  0  0
  6 36  1  0  0  0
  8 37  1  0  0  0
  9 38  1  0  0  0
 10 39  1  0  0  0
 10 40  1  0  0  0
 11 41  1  0  0  0
 14 42  1  0  0  0
 14 43  1  0  0  0
 15 44  1  0  0  0
 18 45  1  0  0  0
 19 46  1  0  0  0
 19 47  1  0  0  0
 20 48  1  0  0  0
 21 49  1  0  0  0
 25 50  1  0  0  0
 25 51  1  0  0  0
 27 52  1  0  0  0
 28 53  1  0  0  0
 29 54  1  0  0  0
 30 55  1  0  0  0
 31 56  1  0  0  0
M  END
$$$$
