1zzl_ligand
  -I-interpret- 

 39 42  0  0  0  0  0  0  0  0999 V2000
    0.6320   11.5970   30.6790 C   0  0  0  0  0
    2.3290   15.3620   30.4860 C   0  0  0  0  0
    2.2950    9.6040   31.6560 C   0  0  0  0  0
   -2.3850   10.5790   30.3240 C   0  0  0  0  0
    2.8010   10.8480   31.4050 C   0  0  0  0  0
    7.4640   11.6190   30.4890 C   0  0  0  0  0
    0.9040    9.3440   31.4150 C   0  0  0  0  0
    8.6350   10.9600   30.5580 F   0  0  0  0  0
    7.1730   12.5060   31.5190 C   0  0  0  0  0
    5.9570   13.1940   31.5280 C   0  0  0  0  0
    6.5530   11.3720   29.4630 C   0  0  0  0  0
    5.3300   12.0640   29.4510 C   0  0  0  0  0
    5.0300   12.9740   30.4970 C   0  0  0  0  0
    3.7300   13.7380   30.5320 C   0  0  0  0  0
    3.5880   15.0770   30.4200 N   0  0  0  0  0
    1.5800   14.2650   30.6580 O   0  0  0  0  0
    2.4440   13.2230   30.6590 C   0  0  0  0  0
    1.9750   11.8570   30.8730 C   0  0  0  0  0
    0.0920   10.3600   30.9420 N   0  0  0  0  0
   -1.1580    9.8210   30.8110 C   0  0  0  0  0
   -3.0740   11.2070   31.5490 C   0  0  0  0  0
   -3.3800    9.6640   29.6030 C   0  0  0  0  0
    0.1400    8.2600   31.5550 N   0  0  0  0  0
   -1.0900    8.5580   31.2270 N   0  0  0  0  0
   -0.0153   12.3918   30.3084 H   0  0  0  0  0
    1.9260   16.3720   30.4108 H   0  0  0  0  0
    2.9430    8.8145   32.0366 H   0  0  0  0  0
   -2.0634   11.3384   29.6112 H   0  0  0  0  0
    3.8488   11.0605   31.6175 H   0  0  0  0  0
    7.8943   12.6650   32.3206 H   0  0  0  0  0
    5.7297   13.8965   32.3298 H   0  0  0  0  0
    6.7865   10.6509   28.6797 H   0  0  0  0  0
    4.6164   11.9025   28.6430 H   0  0  0  0  0
   -3.3684   10.4191   32.2423 H   0  0  0  0  0
   -2.3820   11.8884   32.0439 H   0  0  0  0  0
   -3.9578   11.7566   31.2251 H   0  0  0  0  0
   -2.8947    9.2115   28.7382 H   0  0  0  0  0
   -3.7125    8.8817   30.2853 H   0  0  0  0  0
   -4.2382   10.2501   29.2743 H   0  0  0  0  0
  1 18  4  0  0  0
 19  1  4  0  0  0
  2 15  4  0  0  0
 16  2  4  0  0  0
  3  5  4  0  0  0
  7  3  4  0  0  0
 20  4  1  0  0  0
  4 21  1  0  0  0
  4 22  1  0  0  0
 18  5  4  0  0  0
  6  8  1  0  0  0
  9  6  4  0  0  0
 11  6  4  0  0  0
 19  7  4  0  0  0
  7 23  4  0  0  0
 10  9  4  0  0  0
 13 10  4  0  0  0
 12 11  4  0  0  0
 13 12  4  0  0  0
 14 13  1  0  0  0
 14 15  4  0  0  0
 17 14  4  0  0  0
 17 16  4  0  0  0
 18 17  1  0  0  0
 19 20  4  0  0  0
 20 24  4  0  0  0
 23 24  4  0  0  0
  1 25  1  0  0  0
  2 26  1  0  0  0
  3 27  1  0  0  0
  4 28  1  0  0  0
  5 29  1  0  0  0
  9 30  1  0  0  0
 10 31  1  0  0  0
 11 32  1  0  0  0
 12 33  1  0  0  0
 21 34  1  0  0  0
 21 35  1  0  0  0
 21 36  1  0  0  0
 22 37  1  0  0  0
 22 38  1  0  0  0
 22 39  1  0  0  0
M  END
$$$$
