6h4w_ligand
  -I-interpret- 

 51 54  0  0  0  0  0  0  0  0999 V2000
   81.4900  -16.2020   15.3150 C   0  0  0  0  0
   80.2440  -17.3100   16.9060 C   0  0  0  0  0
   80.9440  -18.5210   16.6290 C   0  0  0  0  0
   81.9660  -18.4970   15.6700 C   0  0  0  0  0
   82.6860  -19.7400   15.3480 C   0  0  0  0  0
   81.2150  -20.7540   16.9570 C   0  0  0  0  0
   78.0420  -16.1570   19.2740 C   0  0  0  0  0
   78.2710  -17.4310   19.8320 C   0  0  0  0  0
   79.1300  -18.0280   18.9630 C   0  0  0  0  0
   77.7320  -18.0170   21.1120 C   0  0  0  0  0
   78.5470  -17.6320   22.3350 C   0  0  0  0  0
   77.4740  -19.4210   23.5440 C   0  0  0  0  0
   76.6750  -19.7870   24.7830 C   0  0  0  0  0
   76.5280  -19.6040   27.3090 C   0  0  0  0  0
   77.4250  -19.5000   26.0950 C   0  0  0  0  0
   78.5530  -20.5230   26.2590 C   0  0  0  0  0
   78.0480  -18.0960   26.0240 C   0  0  0  0  0
   78.7810  -17.8420   24.7200 C   0  0  0  0  0
   77.8960  -18.0230   23.5830 N   0  3  0  0  0
   78.7140  -15.9750   18.1510 N   0  0  0  0  0
   79.3890  -17.1450   17.9790 N   0  0  0  0  0
   80.5090  -16.1860   16.2280 N   0  0  0  0  0
   80.5640  -19.6760   17.2800 N   0  0  0  0  0
   82.2150  -20.8150   16.0630 N   0  0  0  0  0
   83.5900  -19.8000   14.5240 O   0  0  0  0  0
   82.2500  -17.3100   15.0060 C   0  0  0  0  0
   81.7014  -15.2760   14.7803 H   0  0  0  0  0
   80.9262  -21.6817   17.4510 H   0  0  0  0  0
   77.3860  -15.4081   19.7179 H   0  0  0  0  0
   79.5349  -19.0365   19.0472 H   0  0  0  0  0
   77.7673  -19.1025   21.0194 H   0  0  0  0  0
   76.7222  -17.6315   21.2527 H   0  0  0  0  0
   78.6591  -16.5478   22.3382 H   0  0  0  0  0
   79.5053  -18.1483   22.2781 H   0  0  0  0  0
   76.8446  -19.5706   22.6668 H   0  0  0  0  0
   78.3619  -20.0519   23.5031 H   0  0  0  0  0
   76.4768  -20.8581   24.7435 H   0  0  0  0  0
   75.7684  -19.1819   24.7818 H   0  0  0  0  0
   75.7152  -18.8831   27.2214 H   0  0  0  0  0
   76.1167  -20.6116   27.3700 H   0  0  0  0  0
   77.1082  -19.3920   28.2071 H   0  0  0  0  0
   78.1297  -21.5270   26.2891 H   0  0  0  0  0
   79.2403  -20.4422   25.4169 H   0  0  0  0  0
   79.0889  -20.3253   27.1873 H   0  0  0  0  0
   78.7712  -18.0108   26.8351 H   0  0  0  0  0
   77.2399  -17.3685   26.0994 H   0  0  0  0  0
   79.6055  -18.5503   24.6381 H   0  0  0  0  0
   79.1474  -16.8154   24.7185 H   0  0  0  0  0
   77.0792  -17.4210   23.6875 H   0  0  0  0  0
   82.6552  -21.7212   15.9036 H   0  0  0  0  0
   83.0476  -17.2566   14.2650 H   0  0  0  0  0
 22  1  4  0  0  0
  1 26  4  0  0  0
  2  3  4  0  0  0
 21  2  1  0  0  0
  2 22  4  0  0  0
  3  4  4  0  0  0
  3 23  1  0  0  0
  4  5  1  0  0  0
  4 26  4  0  0  0
  5 24  1  0  0  0
  5 25  2  0  0  0
 23  6  2  0  0  0
  6 24  1  0  0  0
  8  7  4  0  0  0
  7 20  4  0  0  0
  8  9  4  0  0  0
 10  8  1  0  0  0
  9 21  4  0  0  0
 11 10  1  0  0  0
 19 11  1  0  0  0
 12 13  1  0  0  0
 12 19  1  0  0  0
 13 15  1  0  0  0
 15 14  1  0  0  0
 15 16  1  0  0  0
 15 17  1  0  0  0
 17 18  1  0  0  0
 18 19  1  0  0  0
 20 21  4  0  0  0
  1 27  1  0  0  0
  6 28  1  0  0  0
  7 29  1  0  0  0
  9 30  1  0  0  0
 10 31  1  0  0  0
 10 32  1  0  0  0
 11 33  1  0  0  0
 11 34  1  0  0  0
 12 35  1  0  0  0
 12 36  1  0  0  0
 13 37  1  0  0  0
 13 38  1  0  0  0
 14 39  1  0  0  0
 14 40  1  0  0  0
 14 41  1  0  0  0
 16 42  1  0  0  0
 16 43  1  0  0  0
 16 44  1  0  0  0
 17 45  1  0  0  0
 17 46  1  0  0  0
 18 47  1  0  0  0
 18 48  1  0  0  0
 19 49  1  0  0  0
 24 50  1  0  0  0
 26 51  1  0  0  0
M  END
$$$$
