4fht_ligand
  -I-interpret- 

 17 17  0  0  0  0  0  0  0  0999 V2000
   33.3450   39.6320   23.2620 C   0  0  0  0  0
   32.3430   40.3070   22.5840 C   0  0  0  0  0
   32.4970   41.6470   22.2640 C   0  0  0  0  0
   31.5030   42.3090   21.5790 O   0  0  0  0  0
   33.6540   42.3170   22.6270 C   0  0  0  0  0
   33.7970   43.6470   22.3080 O   0  0  0  0  0
   34.6620   41.6470   23.3090 C   0  0  0  0  0
   34.5080   40.3020   23.6270 C   0  0  0  0  0
   33.1640   38.1910   23.6070 C   0  0  0  0  0
   32.3900   37.4690   22.9240 O   0  0  0  0  0
   33.7180   37.7180   24.6320 O   0  0  0  0  0
   31.4303   39.7826   22.3012 H   0  0  0  0  0
   31.7658   43.2216   21.4388 H   0  0  0  0  0
   34.6463   43.9617   22.6261 H   0  0  0  0  0
   35.5721   42.1747   23.5944 H   0  0  0  0  0
   35.2975   39.7736   24.1615 H   0  0  0  0  0
   32.0530   37.9760   22.1817 H   0  0  0  0  0
  1  2  4  0  0  0
  1  8  4  0  0  0
  1  9  1  0  0  0
  2  3  4  0  0  0
  3  4  1  0  0  0
  3  5  4  0  0  0
  5  6  1  0  0  0
  5  7  4  0  0  0
  7  8  4  0  0  0
  9 10  1  0  0  0
  9 11  2  0  0  0
  2 12  1  0  0  0
  4 13  1  0  0  0
  6 14  1  0  0  0
  7 15  1  0  0  0
  8 16  1  0  0  0
 10 17  1  0  0  0
M  END
$$$$
