5jo0_ligand
  -I-interpret- 

 46 46  0  0  0  0  0  0  0  0999 V2000
   -0.8200   16.3640   20.1190 O   0  0  0  0  0
   -0.7200   15.8380   21.4940 P   0  0  0  0  0
    0.1760   16.7160   22.3070 O   0  0  0  0  0
   -2.1000   15.7930   22.1230 O   0  0  0  0  0
   -0.0350   14.1560   21.4600 C   0  0  0  0  0
    1.0340   14.0670   20.3640 C   0  0  0  0  0
    2.2650   13.2430   20.8510 C   0  0  0  0  0
    3.5250   13.8520   20.2560 C   0  0  0  0  0
    4.1080   13.3250   19.1380 N   0  0  0  0  0
    3.6170   12.0820   18.5170 C   0  0  0  0  0
    5.2240   13.9640   18.5830 O   0  0  0  0  0
    3.9500   14.8820   20.7450 O   0  0  0  0  0
    0.4350   13.4720   19.0500 C   0  0  0  0  0
   -0.1580   12.0610   19.2580 C   0  0  0  0  0
   -0.5710   11.4630   17.8970 C   0  0  0  0  0
    0.6360   10.9090   17.1670 C   0  0  0  0  0
    1.1290   11.5560   16.0240 C   0  0  0  0  0
    2.2350   11.0410   15.3410 C   0  0  0  0  0
    2.8350    9.8660   15.8120 C   0  0  0  0  0
    2.3290    9.2220   16.9480 C   0  0  0  0  0
    1.2310    9.7390   17.6120 C   0  0  0  0  0
    2.9740    7.9500   17.4500 C   0  0  0  0  0
    0.2374   16.3693   23.2001 H   0  0  0  0  0
   -2.0318   15.4505   23.0172 H   0  0  0  0  0
   -0.8315   13.4415   21.2521 H   0  0  0  0  0
    0.4127   13.9245   22.4265 H   0  0  0  0  0
    1.3794   15.0771   20.1437 H   0  0  0  0  0
    2.1673   12.2061   20.5296 H   0  0  0  0  0
    2.3200   13.2674   21.9393 H   0  0  0  0  0
    3.3342   12.2809   17.4833 H   0  0  0  0  0
    4.4051   11.3294   18.5411 H   0  0  0  0  0
    2.7498   11.7196   19.0689 H   0  0  0  0  0
    5.5171   13.4783   17.8085 H   0  0  0  0  0
    1.2390   13.3949   18.3180 H   0  0  0  0  0
   -0.3685   14.1295   18.7182 H   0  0  0  0  0
   -1.0341   12.1293   19.9028 H   0  0  0  0  0
    0.5915   11.4194   19.7215 H   0  0  0  0  0
   -1.0208   12.2480   17.2891 H   0  0  0  0  0
   -1.2811   10.6540   18.0685 H   0  0  0  0  0
    0.6469   12.4657   15.6662 H   0  0  0  0  0
    2.6240   11.5455   14.4565 H   0  0  0  0  0
    3.6989    9.4515   15.2924 H   0  0  0  0  0
    0.8330    9.2251   18.4870 H   0  0  0  0  0
    2.9251    7.1879   16.6722 H   0  0  0  0  0
    4.0159    8.1474   17.7020 H   0  0  0  0  0
    2.4443    7.6009   18.3364 H   0  0  0  0  0
  1  2  2  0  0  0
  2  3  1  0  0  0
  2  4  1  0  0  0
  2  5  1  0  0  0
  5  6  1  0  0  0
  6  7  1  0  0  0
  6 13  1  0  0  0
  7  8  1  0  0  0
  8  9  1  0  0  0
  8 12  2  0  0  0
  9 10  1  0  0  0
  9 11  1  0  0  0
 13 14  1  0  0  0
 14 15  1  0  0  0
 15 16  1  0  0  0
 16 17  4  0  0  0
 16 21  4  0  0  0
 17 18  4  0  0  0
 18 19  4  0  0  0
 19 20  4  0  0  0
 20 21  4  0  0  0
 20 22  1  0  0  0
  3 23  1  0  0  0
  4 24  1  0  0  0
  5 25  1  0  0  0
  5 26  1  0  0  0
  6 27  1  0  0  0
  7 28  1  0  0  0
  7 29  1  0  0  0
 10 30  1  0  0  0
 10 31  1  0  0  0
 10 32  1  0  0  0
 11 33  1  0  0  0
 13 34  1  0  0  0
 13 35  1  0  0  0
 14 36  1  0  0  0
 14 37  1  0  0  0
 15 38  1  0  0  0
 15 39  1  0  0  0
 17 40  1  0  0  0
 18 41  1  0  0  0
 19 42  1  0  0  0
 21 43  1  0  0  0
 22 44  1  0  0  0
 22 45  1  0  0  0
 22 46  1  0  0  0
M  END
$$$$
