### 
### Created by X-TOOL on Mon Sep 10 21:13:27 2018
### 

@<TRIPOS>MOLECULE
5jo0_ligand
   44    44     1     0     0
SMALL
GAST_HUCK


@<TRIPOS>ATOM
      1 O8         -0.8200   16.3640   20.1190 O.co2     1 L56        -0.5622
      2 P5         -0.7200   15.8380   21.4940 P.3       1 L56         0.0583
      3 O7          0.1760   16.7160   22.3070 O.co2     1 L56        -0.5622
      4 O6         -2.1000   15.7930   22.1230 O.co2     1 L56        -0.5622
      5 C1         -0.0350   14.1560   21.4600 C.3       1 L56         0.0245
      6 C2          1.0340   14.0670   20.3640 C.3       1 L56        -0.0091
      7 C3          2.2650   13.2430   20.8510 C.3       1 L56         0.0432
      8 C4          3.5250   13.8520   20.2560 C.2       1 L56         0.2014
      9 N9          4.1080   13.3250   19.1380 N.am      1 L56        -0.1538
     10 C11         3.6170   12.0820   18.5170 C.3       1 L56         0.0516
     11 O10         5.2240   13.9640   18.5830 O.3       1 L56        -0.2694
     12 O12         3.9500   14.8820   20.7450 O.2       1 L56        -0.3968
     13 C13         0.4350   13.4720   19.0500 C.3       1 L56        -0.0451
     14 C14        -0.1580   12.0610   19.2580 C.3       1 L56        -0.0429
     15 C15        -0.5710   11.4630   17.8970 C.3       1 L56        -0.0207
     16 C16         0.6360   10.9090   17.1670 C.ar      1 L56        -0.0498
     17 C18         1.1290   11.5560   16.0240 C.ar      1 L56        -0.0673
     18 C20         2.2350   11.0410   15.3410 C.ar      1 L56        -0.0752
     19 C21         2.8350    9.8660   15.8120 C.ar      1 L56        -0.0675
     20 C19         2.3290    9.2220   16.9480 C.ar      1 L56        -0.0529
     21 C17         1.2310    9.7390   17.6120 C.ar      1 L56        -0.0595
     22 C22         2.9740    7.9500   17.4500 C.3       1 L56        -0.0327
     23 H1         -0.8391   13.4358   21.2485 H         1 L56         0.0455
     24 H2          0.4181   13.9238   22.4351 H         1 L56         0.0455
     25 H3          1.3787   15.0882   20.1444 H         1 L56         0.0339
     26 H4          2.1663   12.1989   20.5194 H         1 L56         0.0505
     27 H5          2.3212   13.2752   21.9491 H         1 L56         0.0505
     28 H6          4.2305   11.8455   17.6351 H         1 L56         0.0514
     29 H7          2.5692   12.2147   18.2097 H         1 L56         0.0514
     30 H8          3.6849   11.2580   19.2425 H         1 L56         0.0514
     31 H9          5.4223   14.7456   19.0853 H         1 L56         0.2492
     32 H10         1.2319   13.4121   18.2942 H         1 L56         0.0271
     33 H11        -0.3615   14.1402   18.6908 H         1 L56         0.0271
     34 H12        -1.0410   12.1283   19.9105 H         1 L56         0.0287
     35 H13         0.5966   11.4131   19.7278 H         1 L56         0.0287
     36 H14        -1.0349   12.2490   17.2830 H         1 L56         0.0425
     37 H15        -1.2956   10.6524   18.0637 H         1 L56         0.0425
     38 H16         0.6495   12.4607   15.6682 H         1 L56         0.0499
     39 H17         2.6219   11.5427   14.4614 H         1 L56         0.0582
     40 H18         3.6941    9.4537   15.2952 H         1 L56         0.0499
     41 H19         0.8352    9.2280   18.4822 H         1 L56         0.0494
     42 H20         3.8258    7.6911   16.8039 H         1 L56         0.0390
     43 H21         2.2376    7.1331   17.4307 H         1 L56         0.0390
     44 H22         3.3280    8.1003   18.4806 H         1 L56         0.0390
@<TRIPOS>BOND
     1    1    2 ar 
     2    2    3 ar 
     3    2    4 ar 
     4    2    5 1  
     5    5    6 1  
     6    6    7 1  
     7    6   13 1  
     8    7    8 1  
     9    8    9 am 
    10    8   12 2  
    11    9   10 1  
    12    9   11 1  
    13   13   14 1  
    14   14   15 1  
    15   15   16 1  
    16   16   17 ar 
    17   16   21 ar 
    18   17   18 ar 
    19   18   19 ar 
    20   19   20 ar 
    21   20   21 ar 
    22   20   22 1  
    23    5   23 1  
    24    5   24 1  
    25    6   25 1  
    26    7   26 1  
    27    7   27 1  
    28   10   28 1  
    29   10   29 1  
    30   10   30 1  
    31   11   31 1  
    32   13   32 1  
    33   13   33 1  
    34   14   34 1  
    35   14   35 1  
    36   15   36 1  
    37   15   37 1  
    38   17   38 1  
    39   18   39 1  
    40   19   40 1  
    41   21   41 1  
    42   22   42 1  
    43   22   43 1  
    44   22   44 1  
@<TRIPOS>SUBSTRUCTURE
     1 L56         1

