2bq6_ligand
  -I-interpret- 

 65 69  0  0  0  0  0  0  0  0999 V2000
    1.4830    7.4450   25.1880 C   0  0  0  0  0
    2.6010    7.7340   24.3340 C   0  0  0  0  0
    3.2800    6.6720   23.6180 C   0  0  0  0  0
    2.7860    5.3150   23.8010 C   0  0  0  0  0
    1.6640    5.0540   24.6630 C   0  0  0  0  0
    1.0130    6.1090   25.3550 C   0  0  0  0  0
    4.3900    6.5600   22.7050 N   0  0  0  0  0
    4.6050    5.2090   22.3300 C   0  0  0  0  0
    3.6100    4.4520   23.0040 C   0  0  0  0  0
    5.6200    4.7020   21.4550 C   0  0  0  0  0
    5.2800    3.7710   20.5390 N   0  0  0  0  0
    6.2710    3.0090   19.7730 C   0  0  0  0  0
    6.0240    1.5000   19.8730 C   0  0  0  0  0
    7.1010    0.7460   19.0440 C   0  0  0  0  0
    7.1840    1.2640   17.6260 N   0  3  0  0  0
    7.4400    2.7220   17.5370 C   0  0  0  0  0
    6.3280    3.4770   18.2980 C   0  0  0  0  0
    8.1520    0.5710   16.6930 C   0  0  0  0  0
    7.3500    0.0620   15.4970 C   0  0  0  0  0
    8.9310   -0.6000   17.3480 C   0  0  0  0  0
    5.2150    7.7200   22.2140 C   0  0  0  0  0
    6.5760    7.8990   22.8390 C   0  0  0  0  0
    7.4240    8.8780   22.4140 N   0  0  0  0  0
    8.5000    8.7620   23.1290 O   0  0  0  0  0
    8.3700    7.7440   24.0000 C   0  0  0  0  0
    7.1390    7.1320   23.8700 C   0  0  0  0  0
    9.4120    7.3040   24.9570 C   0  0  0  0  0
   11.0360    7.5270   24.6110 S   0  0  0  0  0
   11.4480    6.7720   26.0600 C   0  0  0  0  0
   10.3520    6.3440   26.8410 C   0  0  0  0  0
    9.1310    6.6580   26.1870 C   0  0  0  0  0
   13.0880    6.5540   26.4870 Cl  0  0  0  0  0
    6.7840    5.0730   21.5730 O   0  0  0  0  0
    3.3940    3.0140   22.9480 C   0  0  0  0  0
    3.1850    1.8890   22.8850 N   0  0  0  0  0
    2.9490    9.1740   24.2890 C   0  0  0  0  0
    0.9864    8.2589   25.7163 H   0  0  0  0  0
    1.3085    4.0311   24.7866 H   0  0  0  0  0
    0.1641    5.9003   26.0061 H   0  0  0  0  0
    4.2902    3.5896   20.3723 H   0  0  0  0  0
    7.2463    3.2074   20.2175 H   0  0  0  0  0
    5.0336    1.2661   19.4824 H   0  0  0  0  0
    6.0834    1.1893   20.9161 H   0  0  0  0  0
    6.8285   -0.3087   19.0076 H   0  0  0  0  0
    8.0690    0.8985   19.5213 H   0  0  0  0  0
    6.2437    1.0377   17.3021 H   0  0  0  0  0
    7.4439    3.0307   16.4916 H   0  0  0  0  0
    8.4090    2.9521   17.9799 H   0  0  0  0  0
    6.5423    4.5454   18.2723 H   0  0  0  0  0
    5.3691    3.2708   17.8225 H   0  0  0  0  0
    8.9130    1.2940   16.3992 H   0  0  0  0  0
    6.5873   -0.6356   15.8430 H   0  0  0  0  0
    6.8732    0.9044   14.9958 H   0  0  0  0  0
    8.0191   -0.4448   14.8016 H   0  0  0  0  0
    9.5099   -0.2230   18.1911 H   0  0  0  0  0
    8.2253   -1.3534   17.6980 H   0  0  0  0  0
    9.6032   -1.0434   16.6134 H   0  0  0  0  0
    4.6496    8.6173   22.4657 H   0  0  0  0  0
    5.3940    7.5331   21.1552 H   0  0  0  0  0
    6.7206    6.2871   24.4169 H   0  0  0  0  0
   10.4317    5.8446   27.8066 H   0  0  0  0  0
    8.1349    6.4371   26.5705 H   0  0  0  0  0
    2.0959    9.7412   23.9166 H   0  0  0  0  0
    3.2046    9.5162   25.2918 H   0  0  0  0  0
    3.8015    9.3199   23.6256 H   0  0  0  0  0
  1  2  4  0  0  0
  1  6  4  0  0  0
  2  3  4  0  0  0
  2 36  1  0  0  0
  3  4  4  0  0  0
  3  7  4  0  0  0
  4  5  4  0  0  0
  4  9  4  0  0  0
  5  6  4  0  0  0
  7  8  4  0  0  0
  7 21  1  0  0  0
  8  9  4  0  0  0
  8 10  1  0  0  0
  9 34  1  0  0  0
 10 11  1  0  0  0
 10 33  2  0  0  0
 11 12  1  0  0  0
 12 13  1  0  0  0
 12 17  1  0  0  0
 13 14  1  0  0  0
 14 15  1  0  0  0
 15 16  1  0  0  0
 15 18  1  0  0  0
 16 17  1  0  0  0
 18 19  1  0  0  0
 18 20  1  0  0  0
 21 22  1  0  0  0
 22 23  4  0  0  0
 22 26  4  0  0  0
 23 24  4  0  0  0
 24 25  4  0  0  0
 25 26  4  0  0  0
 25 27  1  0  0  0
 27 28  4  0  0  0
 27 31  4  0  0  0
 28 29  4  0  0  0
 29 30  4  0  0  0
 29 32  1  0  0  0
 30 31  4  0  0  0
 34 35  3  0  0  0
  1 37  1  0  0  0
  5 38  1  0  0  0
  6 39  1  0  0  0
 11 40  1  0  0  0
 12 41  1  0  0  0
 13 42  1  0  0  0
 13 43  1  0  0  0
 14 44  1  0  0  0
 14 45  1  0  0  0
 15 46  1  0  0  0
 16 47  1  0  0  0
 16 48  1  0  0  0
 17 49  1  0  0  0
 17 50  1  0  0  0
 18 51  1  0  0  0
 19 52  1  0  0  0
 19 53  1  0  0  0
 19 54  1  0  0  0
 20 55  1  0  0  0
 20 56  1  0  0  0
 20 57  1  0  0  0
 21 58  1  0  0  0
 21 59  1  0  0  0
 26 60  1  0  0  0
 30 61  1  0  0  0
 31 62  1  0  0  0
 36 63  1  0  0  0
 36 64  1  0  0  0
 36 65  1  0  0  0
M  END
$$$$
