3p55_ligand
  -I-interpret- 

 35 45  0  0  0  0  0  0  0  0999 V2000
   17.3950    8.6660   12.2590 N   0  0  0  0  0
   16.7770    7.7820   12.8560 N   0  0  0  0  0
   17.8640    5.0920   14.7060 C   0  0  0  0  0
   17.3760    4.0410   15.4740 C   0  0  0  0  0
   13.9490    2.7540   16.8760 O   0  0  0  0  0
   18.6470    8.5980   12.6960 C   0  0  0  0  0
   17.5050    7.1570   13.6300 N   0  0  0  0  0
   17.0330    6.1530   14.3640 C   0  0  0  0  0
   16.0530    4.0460   15.9000 C   0  0  0  0  0
   15.4490    2.7260   16.8800 S   0  0  0  0  0
   15.9630    1.3110   16.2580 N   0  0  0  0  0
   18.7490    7.6290   13.5950 C   0  0  0  0  0
   15.7110    6.1600   14.7950 C   0  0  0  0  0
   15.2210    5.1070   15.5610 C   0  0  0  0  0
   15.9520    2.8750   18.2850 O   0  0  0  0  0
   19.6440    9.3730   12.2780 C   0  0  0  0  0
   20.9340    9.2250   12.5680 C   0  0  0  0  0
   21.6110   10.1820   11.9390 C   0  0  0  0  0
   20.7390   10.9230   11.2610 C   0  0  0  0  0
   19.5240   10.4230   11.4700 C   0  0  0  0  0
   19.1080   11.6030   14.8300 C   0  0  0  0  0
   19.3310   12.6640   14.0600 C   0  0  0  0  0
   20.6400   12.9060   14.0590 C   0  0  0  0  0
   21.2260   11.9920   14.8280 C   0  0  0  0  0
   20.2800   11.1870   15.3040 C   0  0  0  0  0
   20.3050   11.0480   13.2600 Fe  0  0  0  0  0
   18.9012    5.0843   14.3709 H   0  0  0  0  0
   18.0314    3.2124   15.7423 H   0  0  0  0  0
   15.2858    0.6166   15.9426 H   0  0  0  0  0
   16.9621    1.1194   16.1839 H   0  0  0  0  0
   19.6235    7.3037   14.1585 H   0  0  0  0  0
   15.0575    6.9919   14.5323 H   0  0  0  0  0
   14.1837    5.1139   15.8957 H   0  0  0  0  0
   18.7373   10.4847   10.7181 H   0  0  0  0  0
   20.3694   10.7039   16.2770 H   0  0  0  0  0
  1  2  4  0  0  0
  6  1  4  0  0  0
  7  2  4  0  0  0
  3  4  4  0  0  0
  8  3  4  0  0  0
  4  9  4  0  0  0
 10  5  2  0  0  0
  6 12  4  0  0  0
 16  6  1  0  0  0
  7  8  1  0  0  0
 12  7  4  0  0  0
  8 13  4  0  0  0
  9 10  1  0  0  0
 14  9  4  0  0  0
 10 11  1  0  0  0
 10 15  2  0  0  0
 13 14  4  0  0  0
 17 16  2  0  0  0
 20 16  1  0  0  0
 18 17  1  0  0  0
 19 18  2  0  0  0
 20 19  1  0  0  0
 21 22  2  0  0  0
 21 25  1  0  0  0
 22 23  1  0  0  0
 24 23  2  0  0  0
 25 24  1  0  0  0
 26 17  1  0  0  0
 26 18  1  0  0  0
 26 19  1  0  0  0
 26 20  1  0  0  0
 26 21  1  0  0  0
 26 22  1  0  0  0
 26 23  1  0  0  0
 26 24  1  0  0  0
 26 25  1  0  0  0
  3 27  1  0  0  0
  4 28  1  0  0  0
 11 29  1  0  0  0
 11 30  1  0  0  0
 12 31  1  0  0  0
 13 32  1  0  0  0
 14 33  1  0  0  0
 20 34  1  0  0  0
 25 35  1  0  0  0
M  END
$$$$
