### 
### Created by X-TOOL on Mon Sep 10 21:13:06 2018
### 

@<TRIPOS>MOLECULE
3p55_ligand
   35    45     1     0     0
SMALL
GAST_HUCK


@<TRIPOS>ATOM
      1 NAA        17.3950    8.6660   12.2590 N.2       1 670        -0.2152
      2 NAB        16.7770    7.7820   12.8560 N.2       1 670        -0.0777
      3 CAC        17.8640    5.0920   14.7060 C.ar      1 670        -0.0213
      4 CAD        17.3760    4.0410   15.4740 C.ar      1 670        -0.0382
      5 OAE        13.9490    2.7540   16.8760 O.2       1 670        -0.1513
      6 CAF        18.6470    8.5980   12.6960 C.2       1 670         0.0705
      7 NAG        17.5050    7.1570   13.6300 N.pl3     1 670        -0.1243
      8 CAH        17.0330    6.1530   14.3640 C.ar      1 670         0.1221
      9 CAI        16.0530    4.0460   15.9000 C.ar      1 670         0.1018
     10 SAJ        15.4490    2.7260   16.8800 S.o2      1 670         0.0632
     11 NAK        15.9630    1.3110   16.2580 N.am      1 670        -0.2616
     12 CAL        18.7490    7.6290   13.5950 C.2       1 670         0.1006
     13 CAM        15.7110    6.1600   14.7950 C.ar      1 670        -0.0213
     14 CAN        15.2210    5.1070   15.5610 C.ar      1 670        -0.0382
     15 OAO        15.9520    2.8750   18.2850 O.2       1 670        -0.1513
     16 CAP        19.6440    9.3730   12.2780 C.2       1 670        -0.0189
     17 CAQ        20.9340    9.2250   12.5680 C.2       1 670        -0.0572
     18 CAR        21.6110   10.1820   11.9390 C.2       1 670        -0.0552
     19 CAS        20.7390   10.9230   11.2610 C.2       1 670        -0.0263
     20 CAT        19.5240   10.4230   11.4700 C.3       1 670         0.0437
     21 CAU        19.1080   11.6030   14.8300 C.2       1 670        -0.0183
     22 CAV        19.3310   12.6640   14.0600 C.2       1 670        -0.0482
     23 CAW        20.6400   12.9060   14.0590 C.2       1 670        -0.0482
     24 CAX        21.2260   11.9920   14.8280 C.2       1 670        -0.0183
     25 CAY        20.2800   11.1870   15.3040 C.3       1 670         0.0501
     26 FE         20.3050   11.0480   13.2600 Fe        1 670         3.0000
     27 H          18.9012    5.0843   14.3709 H         1 670         0.0596
     28 H          18.0314    3.2124   15.7423 H         1 670         0.0622
     29 H          15.2858    0.6166   15.9426 H         1 670         0.1634
     30 H          16.9621    1.1194   16.1839 H         1 670         0.1634
     31 H          19.6235    7.3037   14.1585 H         1 670         0.1064
     32 H          15.0575    6.9919   14.5323 H         1 670         0.0596
     33 H          14.1837    5.1139   15.8957 H         1 670         0.0622
     34 H          18.7373   10.4847   10.7181 H         1 670         0.0791
     35 H          20.3694   10.7039   16.2770 H         1 670         0.0829
@<TRIPOS>BOND
     1    1    2 2  
     2    6    1 1  
     3    7    2 1  
     4    3    4 ar 
     5    8    3 ar 
     6    4    9 ar 
     7   10    5 2  
     8    6   12 2  
     9   16    6 1  
    10    7    8 1  
    11   12    7 1  
    12    8   13 ar 
    13    9   10 1  
    14   14    9 ar 
    15   10   11 am 
    16   10   15 2  
    17   13   14 ar 
    18   17   16 2  
    19   20   16 1  
    20   18   17 1  
    21   19   18 2  
    22   20   19 1  
    23   21   22 2  
    24   21   25 1  
    25   22   23 1  
    26   24   23 2  
    27   25   24 1  
    28   26   17 1  
    29   26   18 1  
    30   26   19 1  
    31   26   20 1  
    32   26   21 1  
    33   26   22 1  
    34   26   23 1  
    35   26   24 1  
    36   26   25 1  
    37    3   27 1  
    38    4   28 1  
    39   11   29 1  
    40   11   30 1  
    41   12   31 1  
    42   13   32 1  
    43   14   33 1  
    44   20   34 1  
    45   25   35 1  
@<TRIPOS>SUBSTRUCTURE
     1 670         1

