6mhd_ligand
  -I-interpret- 

 40 42  0  0  0  0  0  0  0  0999 V2000
   28.4620    3.9520   10.3630 O   0  0  0  0  0
   27.5920    4.1130    9.5200 C   0  0  0  0  0
   27.4020    3.1260    8.3880 C   0  0  0  0  0
   28.1600    1.8350    8.6120 C   0  0  0  0  0
   26.7720    5.2590    9.5740 N   0  0  0  0  0
   26.4240    5.9000    8.3050 C   0  0  0  0  0
   24.9820    6.2530    8.2010 C   0  0  0  0  0
   24.6030    7.5380    8.3540 O   0  0  0  0  0
   23.1860    7.5960    8.2850 N   0  0  0  0  0
   22.7800    6.3220    8.0840 C   0  0  0  0  0
   21.3310    5.9530    7.9980 C   0  0  0  0  0
   23.9030    5.4810    8.0190 C   0  0  0  0  0
   26.5890    5.9930   10.7460 C   0  0  0  0  0
   26.9370    5.3660   12.3310 S   0  0  0  0  0
   26.1750    6.7690   12.9780 C   0  0  0  0  0
   25.7290    7.5930   11.9920 C   0  0  0  0  0
   25.9980    7.1540   10.7160 N   0  0  0  0  0
   24.9210    8.8150   12.1440 C   0  0  0  0  0
   23.9920    8.9260   13.1760 C   0  0  0  0  0
   23.0700    9.9590   13.1800 C   0  0  0  0  0
   23.1160   10.9400   12.2120 C   0  0  0  0  0
   24.0570   10.8670   11.2080 C   0  0  0  0  0
   24.9480    9.8090   11.1610 C   0  0  0  0  0
   27.7809    3.5845    7.4746 H   0  0  0  0  0
   26.3405    2.8864    8.3250 H   0  0  0  0  0
   29.2253    2.0504    8.6953 H   0  0  0  0  0
   27.8102    1.3645    9.5309 H   0  0  0  0  0
   27.9885    1.1638    7.7705 H   0  0  0  0  0
   26.6491    5.1935    7.5060 H   0  0  0  0  0
   26.9959    6.8253    8.2351 H   0  0  0  0  0
   20.8327    6.2230    8.9291 H   0  0  0  0  0
   20.8695    6.4891    7.1687 H   0  0  0  0  0
   21.2399    4.8793    7.8338 H   0  0  0  0  0
   23.8974    4.4039    7.8520 H   0  0  0  0  0
   26.0642    6.9710   14.0434 H   0  0  0  0  0
   23.9909    8.1955   13.9850 H   0  0  0  0  0
   22.3028    9.9970   13.9534 H   0  0  0  0  0
   22.4104   11.7703   12.2409 H   0  0  0  0  0
   24.0998   11.6463   10.4471 H   0  0  0  0  0
   25.6760    9.7502   10.3519 H   0  0  0  0  0
  1  2  2  0  0  0
  2  3  1  0  0  0
  2  5  1  0  0  0
  3  4  1  0  0  0
  5  6  1  0  0  0
  5 13  1  0  0  0
  6  7  1  0  0  0
  7  8  4  0  0  0
  7 12  4  0  0  0
  8  9  4  0  0  0
  9 10  4  0  0  0
 10 11  1  0  0  0
 10 12  4  0  0  0
 13 14  4  0  0  0
 13 17  4  0  0  0
 14 15  4  0  0  0
 15 16  4  0  0  0
 16 17  4  0  0  0
 16 18  1  0  0  0
 18 19  4  0  0  0
 18 23  4  0  0  0
 19 20  4  0  0  0
 20 21  4  0  0  0
 21 22  4  0  0  0
 22 23  4  0  0  0
  3 24  1  0  0  0
  3 25  1  0  0  0
  4 26  1  0  0  0
  4 27  1  0  0  0
  4 28  1  0  0  0
  6 29  1  0  0  0
  6 30  1  0  0  0
 11 31  1  0  0  0
 11 32  1  0  0  0
 11 33  1  0  0  0
 12 34  1  0  0  0
 15 35  1  0  0  0
 19 36  1  0  0  0
 20 37  1  0  0  0
 21 38  1  0  0  0
 22 39  1  0  0  0
 23 40  1  0  0  0
M  END
$$$$
