3p0g_ligand
  -I-interpret- 

 54 56  0  0  0  0  0  0  0  0999 V2000
   68.5800   13.3090   13.1130 C   0  0  0  0  0
   65.7800   15.2150   11.6920 C   0  0  0  0  0
   65.5580   16.3910   13.8960 C   0  0  0  0  0
   64.6780   22.5890   10.6300 O   0  0  0  0  0
   60.6980   20.8760    8.3790 O   0  0  0  0  0
   60.9380   15.9480   12.3620 O   0  0  0  0  0
   68.6650   14.1260   16.8250 C   0  0  0  0  0
   67.3130   14.3750   17.0890 C   0  0  0  0  0
   69.0380   13.7860   15.5280 C   0  0  0  0  0
   66.3430   14.2740   16.0840 C   0  0  0  0  0
   60.1820   18.8670    9.5560 C   0  0  0  0  0
   60.5050   17.9100   10.5090 C   0  0  0  0  0
   64.0910   20.7810   11.9370 C   0  0  0  0  0
   63.2650   16.2380   11.9470 C   0  0  0  0  0
   65.5390   13.8230   13.7580 C   0  0  0  0  0
   63.6610   15.2020   12.9280 N   0  3  0  0  0
   62.9230   21.2980    9.9190 N   0  0  0  0  0
   63.5640   19.4090   11.9340 O   0  0  0  0  0
   63.9400   21.6170   10.8220 C   0  0  0  0  0
   68.0710   13.6780   14.5140 C   0  0  0  0  0
   60.9950   19.9760    9.3530 C   0  0  0  0  0
   66.7010   13.9250   14.7770 C   0  0  0  0  0
   61.6370   18.0610   11.3050 C   0  0  0  0  0
   62.1130   20.1650   10.1520 C   0  0  0  0  0
   62.4430   19.2160   11.1440 C   0  0  0  0  0
   61.9630   16.9460   12.3430 C   0  0  0  0  0
   65.1330   15.1550   13.0800 C   0  0  0  0  0
   69.2842   14.0679   12.7721 H   0  0  0  0  0
   69.0785   12.3405   13.1524 H   0  0  0  0  0
   67.7373   13.2576   12.4235 H   0  0  0  0  0
   66.8640   15.1661   11.7954 H   0  0  0  0  0
   65.4325   14.3727   11.0938 H   0  0  0  0  0
   65.5021   16.1487   11.2031 H   0  0  0  0  0
   65.0848   16.3572   14.8773 H   0  0  0  0  0
   66.6416   16.3921   14.0136 H   0  0  0  0  0
   65.2472   17.2950   13.3723 H   0  0  0  0  0
   61.3579   21.5733    8.3772 H   0  0  0  0  0
   60.1029   16.3532   12.6068 H   0  0  0  0  0
   69.4094   14.1969   17.6180 H   0  0  0  0  0
   67.0089   14.6534   18.0980 H   0  0  0  0  0
   70.0873   13.6022   15.2971 H   0  0  0  0  0
   65.2975   14.4694   16.3225 H   0  0  0  0  0
   59.2782   18.7468    8.9587 H   0  0  0  0  0
   59.8678   17.0346   10.6346 H   0  0  0  0  0
   65.1695   20.6488   12.0231 H   0  0  0  0  0
   63.5207   21.2806   12.7201 H   0  0  0  0  0
   63.1061   15.7504   10.9852 H   0  0  0  0  0
   64.0575   16.9852   11.9053 H   0  0  0  0  0
   64.6670   13.4773   14.3132 H   0  0  0  0  0
   65.8790   13.1595   12.9629 H   0  0  0  0  0
   63.3360   14.2940   12.5959 H   0  0  0  0  0
   63.2447   15.4287   13.8311 H   0  0  0  0  0
   62.7664   21.8801    9.0962 H   0  0  0  0  0
   62.0455   17.4215   13.3203 H   0  0  0  0  0
 20  1  1  0  0  0
 27  2  1  0  0  0
 27  3  1  0  0  0
 19  4  2  0  0  0
 21  5  1  0  0  0
 26  6  1  0  0  0
  8  7  4  0  0  0
  9  7  4  0  0  0
 10  8  4  0  0  0
 20  9  4  0  0  0
 22 10  4  0  0  0
 12 11  4  0  0  0
 11 21  4  0  0  0
 23 12  4  0  0  0
 18 13  1  0  0  0
 13 19  1  0  0  0
 14 16  1  0  0  0
 26 14  1  0  0  0
 15 22  1  0  0  0
 27 15  1  0  0  0
 16 27  1  0  0  0
 19 17  1  0  0  0
 24 17  1  0  0  0
 25 18  1  0  0  0
 22 20  4  0  0  0
 21 24  4  0  0  0
 23 25  4  0  0  0
 23 26  1  0  0  0
 24 25  4  0  0  0
  1 28  1  0  0  0
  1 29  1  0  0  0
  1 30  1  0  0  0
  2 31  1  0  0  0
  2 32  1  0  0  0
  2 33  1  0  0  0
  3 34  1  0  0  0
  3 35  1  0  0  0
  3 36  1  0  0  0
  5 37  1  0  0  0
  6 38  1  0  0  0
  7 39  1  0  0  0
  8 40  1  0  0  0
  9 41  1  0  0  0
 10 42  1  0  0  0
 11 43  1  0  0  0
 12 44  1  0  0  0
 13 45  1  0  0  0
 13 46  1  0  0  0
 14 47  1  0  0  0
 14 48  1  0  0  0
 15 49  1  0  0  0
 15 50  1  0  0  0
 16 51  1  0  0  0
 16 52  1  0  0  0
 17 53  1  0  0  0
 26 54  1  0  0  0
M  END
$$$$
