2vcx_ligand
  -I-interpret- 

 24 26  0  0  0  0  0  0  0  0999 V2000
   11.6920    4.7080   21.5450 C   0  0  0  0  0
   13.0510    4.6450   21.8940 C   0  0  0  0  0
   13.6230    4.7270   23.2410 C   0  0  0  0  0
   11.6380    4.5640   20.2000 C   0  0  0  0  0
   13.9290    5.1210   25.4830 N   0  0  0  0  0
   15.1310    4.5530   25.4130 C   0  0  0  0  0
   16.1890    4.3560   26.4250 C   0  0  0  0  0
   16.1520    5.0500   27.6340 C   0  0  0  0  0
   17.1790    4.8820   28.5390 C   0  0  0  0  0
   18.2400    4.0420   28.2490 C   0  0  0  0  0
   18.2930    3.3590   27.0460 C   0  0  0  0  0
   17.2660    3.5160   26.1290 C   0  0  0  0  0
   13.7800    4.4460   20.8170 N   0  0  0  0  0
   15.2290    4.1080   23.6930 S   0  0  0  0  0
   13.1500    5.2200   24.4330 C   0  0  0  0  0
   12.9040    4.3990   19.7370 N   0  0  0  0  0
   10.8489    4.8454   22.2221 H   0  0  0  0  0
   10.7331    4.5781   19.5925 H   0  0  0  0  0
   15.3209    5.7176   27.8611 H   0  0  0  0  0
   17.1549    5.4147   29.4897 H   0  0  0  0  0
   19.0427    3.9168   28.9757 H   0  0  0  0  0
   19.1348    2.7038   26.8222 H   0  0  0  0  0
   17.2981    2.9848   25.1777 H   0  0  0  0  0
   12.1629    5.6769   24.5032 H   0  0  0  0  0
  2  1  4  0  0  0
  1  4  4  0  0  0
  3  2  1  0  0  0
  2 13  4  0  0  0
  3 14  4  0  0  0
 15  3  4  0  0  0
  4 16  4  0  0  0
  5  6  4  0  0  0
  5 15  4  0  0  0
  6  7  1  0  0  0
  6 14  4  0  0  0
  7  8  4  0  0  0
  7 12  4  0  0  0
  8  9  4  0  0  0
  9 10  4  0  0  0
 10 11  4  0  0  0
 11 12  4  0  0  0
 13 16  4  0  0  0
  1 17  1  0  0  0
  4 18  1  0  0  0
  8 19  1  0  0  0
  9 20  1  0  0  0
 10 21  1  0  0  0
 11 22  1  0  0  0
 12 23  1  0  0  0
 15 24  1  0  0  0
M  END
$$$$
