5q0o_ligand
  -I-interpret- 

 76 81  0  0  0  0  0  0  0  0999 V2000
   10.6860   26.5060    2.8580 C   0  0  0  0  0
   11.8040   25.7580    3.2460 C   0  0  0  0  0
   11.6710   24.7770    4.2260 C   0  0  0  0  0
   13.7810   24.9040    3.4850 C   0  0  0  0  0
   13.4160   23.1390    5.2750 C   0  0  0  0  0
   12.5580   21.6180    3.6010 N   0  0  0  0  0
   13.3190   23.4700    6.7770 C   0  0  0  0  0
   13.4260   25.3100    8.5610 C   0  0  0  0  0
   14.3190   22.6310    7.6050 C   0  0  0  0  0
   10.6450   20.8950    2.2640 C   0  0  0  0  0
    9.9620   19.7030    1.5670 C   0  0  0  0  0
   12.1540   18.5030    1.4420 C   0  0  0  0  0
   17.9310   23.9690    2.8800 C   0  0  0  0  0
   16.9750   23.7560    1.8830 C   0  0  0  0  0
    9.4610   26.2550    3.4670 C   0  0  0  0  0
    9.3400   25.2630    4.4590 C   0  0  0  0  0
   10.4560   24.5080    4.8510 C   0  0  0  0  0
   13.1300   25.8230    2.7900 N   0  0  0  0  0
   12.9670   24.2340    4.3720 N   0  0  0  0  0
   12.6820   21.8490    4.9110 C   0  0  0  0  0
   12.2440   21.0970    5.7760 O   0  0  0  0  0
   11.8920   20.4550    3.0390 C   0  0  0  0  0
   10.9400   18.9740    0.6530 C   0  0  0  0  0
   12.8610   19.6790    2.1330 C   0  0  0  0  0
   13.5570   24.9910    7.0660 C   0  0  0  0  0
   14.3990   24.4700    9.4010 C   0  0  0  0  0
   14.2230   22.9550    9.1310 C   0  0  0  0  0
   15.2180   24.6080    3.3130 C   0  0  0  0  0
   15.6390   24.0660    2.0980 C   0  0  0  0  0
   19.3810   23.6370    2.6640 C   0  0  0  0  0
   20.2330   24.2250    3.3180 O   0  0  0  0  0
   19.8130   22.5890    1.6610 C   0  0  0  0  0
   20.9760   22.7840    0.9050 C   0  0  0  0  0
   21.3890   21.8310   -0.0250 C   0  0  0  0  0
   20.6550   20.6730   -0.2110 C   0  0  0  0  0
   19.4990   20.4620    0.5330 C   0  0  0  0  0
   19.0780   21.4110    1.4660 C   0  0  0  0  0
   17.5100   24.5040    4.1020 C   0  0  0  0  0
   16.1720   24.8170    4.3190 C   0  0  0  0  0
   10.7743   27.2741    2.0897 H   0  0  0  0  0
   14.4851   23.0046    5.1107 H   0  0  0  0  0
   12.9554   22.3002    2.9552 H   0  0  0  0  0
   12.3019   23.2181    7.0773 H   0  0  0  0  0
   12.4085   25.0790    8.8762 H   0  0  0  0  0
   13.6598   26.3639    8.7117 H   0  0  0  0  0
   15.3278   22.8679    7.2669 H   0  0  0  0  0
   14.0823   21.5766    7.4627 H   0  0  0  0  0
    9.9382   21.3337    2.9684 H   0  0  0  0  0
   10.9482   21.6126    1.5017 H   0  0  0  0  0
    9.1327   20.0765    0.9663 H   0  0  0  0  0
    9.6086   19.0074    2.3282 H   0  0  0  0  0
   12.8553   18.0333    0.7523 H   0  0  0  0  0
   11.8202   17.8012    2.2063 H   0  0  0  0  0
   17.2827   23.3407    0.9233 H   0  0  0  0  0
    8.5847   26.8327    3.1730 H   0  0  0  0  0
    8.3722   25.0802    4.9259 H   0  0  0  0  0
   10.3747   23.7378    5.6180 H   0  0  0  0  0
   11.5787   19.7920    3.8455 H   0  0  0  0  0
   11.2690   19.6562   -0.1309 H   0  0  0  0  0
   10.4412   18.1077    0.2184 H   0  0  0  0  0
   13.2392   20.3562    1.3672 H   0  0  0  0  0
   13.6716   19.2858    2.7465 H   0  0  0  0  0
   12.8057   25.5658    6.5244 H   0  0  0  0  0
   14.5670   25.2480    6.7466 H   0  0  0  0  0
   14.1952   24.6581   10.4551 H   0  0  0  0  0
   15.4173   24.7518    9.1331 H   0  0  0  0  0
   15.0170   22.4172    9.6491 H   0  0  0  0  0
   13.2382   22.6527    9.4872 H   0  0  0  0  0
   14.9101   23.8838    1.3083 H   0  0  0  0  0
   21.5645   23.6907    1.0454 H   0  0  0  0  0
   22.2944   21.9990   -0.6083 H   0  0  0  0  0
   20.9814   19.9291   -0.9377 H   0  0  0  0  0
   18.9188   19.5509    0.3868 H   0  0  0  0  0
   18.1723   21.2352    2.0465 H   0  0  0  0  0
   18.2389   24.6777    4.8936 H   0  0  0  0  0
   15.8625   25.2284    5.2798 H   0  0  0  0  0
  2  1  4  0  0  0
  1 15  4  0  0  0
  3  2  4  0  0  0
 18  2  4  0  0  0
  3 17  4  0  0  0
 19  3  4  0  0  0
  4 18  4  0  0  0
  4 19  4  0  0  0
 28  4  1  0  0  0
  5  7  1  0  0  0
 19  5  1  0  0  0
  5 20  1  0  0  0
 20  6  1  0  0  0
  6 22  1  0  0  0
  7  9  1  0  0  0
  7 25  1  0  0  0
 25  8  1  0  0  0
  8 26  1  0  0  0
  9 27  1  0  0  0
 10 11  1  0  0  0
 22 10  1  0  0  0
 11 23  1  0  0  0
 12 23  1  0  0  0
 24 12  1  0  0  0
 14 13  4  0  0  0
 13 30  1  0  0  0
 13 38  4  0  0  0
 29 14  4  0  0  0
 16 15  4  0  0  0
 17 16  4  0  0  0
 20 21  2  0  0  0
 22 24  1  0  0  0
 27 26  1  0  0  0
 28 29  4  0  0  0
 28 39  4  0  0  0
 30 31  2  0  0  0
 30 32  1  0  0  0
 32 33  4  0  0  0
 32 37  4  0  0  0
 33 34  4  0  0  0
 34 35  4  0  0  0
 35 36  4  0  0  0
 36 37  4  0  0  0
 38 39  4  0  0  0
  1 40  1  0  0  0
  5 41  1  0  0  0
  6 42  1  0  0  0
  7 43  1  0  0  0
  8 44  1  0  0  0
  8 45  1  0  0  0
  9 46  1  0  0  0
  9 47  1  0  0  0
 10 48  1  0  0  0
 10 49  1  0  0  0
 11 50  1  0  0  0
 11 51  1  0  0  0
 12 52  1  0  0  0
 12 53  1  0  0  0
 14 54  1  0  0  0
 15 55  1  0  0  0
 16 56  1  0  0  0
 17 57  1  0  0  0
 22 58  1  0  0  0
 23 59  1  0  0  0
 23 60  1  0  0  0
 24 61  1  0  0  0
 24 62  1  0  0  0
 25 63  1  0  0  0
 25 64  1  0  0  0
 26 65  1  0  0  0
 26 66  1  0  0  0
 27 67  1  0  0  0
 27 68  1  0  0  0
 29 69  1  0  0  0
 33 70  1  0  0  0
 34 71  1  0  0  0
 35 72  1  0  0  0
 36 73  1  0  0  0
 37 74  1  0  0  0
 38 75  1  0  0  0
 39 76  1  0  0  0
M  END
$$$$
