4mc1_ligand
  -I-interpret- 

 75 78  0  0  0  0  0  0  0  0999 V2000
    8.9590   27.2330    8.6300 C   0  0  0  0  0
    8.3160   27.7640    7.5350 C   0  0  0  0  0
    8.4490   27.2100    6.2790 C   0  0  0  0  0
    9.2240   26.0830    6.0730 C   0  0  0  0  0
    9.8610   25.5500    7.1870 C   0  0  0  0  0
    9.7310   26.1010    8.4490 C   0  0  0  0  0
    9.3100   25.6230    4.6470 C   0  0  0  0  0
    9.4770   24.1440    4.2990 C   0  0  0  0  0
   10.9280   23.6840    4.4010 C   0  0  0  0  0
   11.6210   24.1460    5.6180 N   0  0  0  0  0
   10.8800   24.1010    7.1280 S   0  0  0  0  0
   12.8850   24.8840    5.4960 C   0  0  0  0  0
   13.9950   23.9470    5.0690 C   0  0  0  0  0
   14.4060   22.8750    6.0740 C   0  0  0  0  0
   15.1220   24.7270    4.6900 O   0  0  0  0  0
   15.1180   23.3780    7.3290 C   0  0  0  0  0
   15.2530   21.9450    5.3600 N   0  0  0  0  0
   14.8290   20.6930    4.9700 C   0  0  0  0  0
   15.9150   20.0530    4.4320 O   0  0  0  0  0
   13.7040   20.2240    5.0980 O   0  0  0  0  0
   15.4030   22.2400    8.2540 C   0  0  0  0  0
   14.3960   21.7240    9.0530 C   0  0  0  0  0
   14.6620   20.6500    9.8820 C   0  0  0  0  0
   15.9260   20.0970    9.9070 C   0  0  0  0  0
   16.9360   20.6100    9.1130 C   0  0  0  0  0
   16.6720   21.6880    8.2900 C   0  0  0  0  0
   11.8840   24.2220    8.1450 O   0  0  0  0  0
    9.9630   22.9740    7.1250 O   0  0  0  0  0
    8.9010   23.8080    2.9150 C   0  0  0  0  0
    7.3990   23.9550    2.9060 C   0  0  0  0  0
    9.1530   22.3580    2.5280 C   0  0  0  0  0
    9.4610   24.6810    1.8090 C   0  0  0  0  0
    7.5660   28.8670    7.6950 F   0  0  0  0  0
   15.6570   18.7880    3.8260 C   0  0  0  0  0
   17.0170   18.1990    3.5220 C   0  0  0  0  0
   15.0240   19.0190    2.4770 C   0  0  0  0  0
   17.3080   18.6270    2.1940 O   0  0  0  0  0
   16.0770   18.5670    1.5030 C   0  0  0  0  0
    8.8620   27.6929    9.6135 H   0  0  0  0  0
    7.9346   27.6681    5.4342 H   0  0  0  0  0
   10.2365   25.6432    9.2993 H   0  0  0  0  0
   10.2260   26.0842    4.2777 H   0  0  0  0  0
    8.3374   25.8824    4.2288 H   0  0  0  0  0
    8.9029   23.5939    5.0446 H   0  0  0  0  0
   11.4604   24.1035    3.5474 H   0  0  0  0  0
   10.9201   22.5944    4.4280 H   0  0  0  0  0
   13.1382   25.3222    6.4614 H   0  0  0  0  0
   12.7708   25.6681    4.7475 H   0  0  0  0  0
   13.5889   23.3728    4.2362 H   0  0  0  0  0
   13.4933   22.4213    6.4602 H   0  0  0  0  0
   15.8350   24.1453    4.4164 H   0  0  0  0  0
   14.4771   24.0982    7.8375 H   0  0  0  0  0
   16.0589   23.8469    7.0408 H   0  0  0  0  0
   16.2067   22.2284    5.1351 H   0  0  0  0  0
   13.3985   22.1627    9.0283 H   0  0  0  0  0
   13.8745   20.2407   10.5148 H   0  0  0  0  0
   16.1306   19.2476   10.5588 H   0  0  0  0  0
   17.9318   20.1675    9.1364 H   0  0  0  0  0
   17.4643   22.1045    7.6680 H   0  0  0  0  0
    6.9645   23.2772    3.6408 H   0  0  0  0  0
    7.1343   24.9823    3.1562 H   0  0  0  0  0
    7.0173   23.7112    1.9146 H   0  0  0  0  0
   10.2266   22.1708    2.5046 H   0  0  0  0  0
    8.6842   21.7010    3.2606 H   0  0  0  0  0
    8.7281   22.1672    1.5425 H   0  0  0  0  0
    9.2287   25.7250    2.0191 H   0  0  0  0  0
   10.5420   24.5512    1.7575 H   0  0  0  0  0
    9.0134   24.3922    0.8580 H   0  0  0  0  0
   15.0282   18.1679    4.4649 H   0  0  0  0  0
   17.0181   17.1124    3.6085 H   0  0  0  0  0
   17.7731   18.5339    4.2321 H   0  0  0  0  0
   14.7389   20.0601    2.3257 H   0  0  0  0  0
   14.0883   18.4724    2.3591 H   0  0  0  0  0
   16.0923   19.2039    0.6186 H   0  0  0  0  0
   15.8752   17.5562    1.1484 H   0  0  0  0  0
  1  2  4  0  0  0
  1  6  4  0  0  0
  2  3  4  0  0  0
  2 33  1  0  0  0
  3  4  4  0  0  0
  4  5  4  0  0  0
  4  7  1  0  0  0
  5  6  4  0  0  0
  5 11  1  0  0  0
  7  8  1  0  0  0
  8  9  1  0  0  0
  8 29  1  0  0  0
  9 10  1  0  0  0
 10 11  1  0  0  0
 10 12  1  0  0  0
 11 27  2  0  0  0
 11 28  2  0  0  0
 12 13  1  0  0  0
 13 14  1  0  0  0
 13 15  1  0  0  0
 14 16  1  0  0  0
 14 17  1  0  0  0
 16 21  1  0  0  0
 17 18  1  0  0  0
 18 19  1  0  0  0
 18 20  2  0  0  0
 19 34  1  0  0  0
 21 22  4  0  0  0
 21 26  4  0  0  0
 22 23  4  0  0  0
 23 24  4  0  0  0
 24 25  4  0  0  0
 25 26  4  0  0  0
 29 30  1  0  0  0
 29 31  1  0  0  0
 29 32  1  0  0  0
 34 35  1  0  0  0
 34 36  1  0  0  0
 35 37  1  0  0  0
 36 38  1  0  0  0
 37 38  1  0  0  0
  1 39  1  0  0  0
  3 40  1  0  0  0
  6 41  1  0  0  0
  7 42  1  0  0  0
  7 43  1  0  0  0
  8 44  1  0  0  0
  9 45  1  0  0  0
  9 46  1  0  0  0
 12 47  1  0  0  0
 12 48  1  0  0  0
 13 49  1  0  0  0
 14 50  1  0  0  0
 15 51  1  0  0  0
 16 52  1  0  0  0
 16 53  1  0  0  0
 17 54  1  0  0  0
 22 55  1  0  0  0
 23 56  1  0  0  0
 24 57  1  0  0  0
 25 58  1  0  0  0
 26 59  1  0  0  0
 30 60  1  0  0  0
 30 61  1  0  0  0
 30 62  1  0  0  0
 31 63  1  0  0  0
 31 64  1  0  0  0
 31 65  1  0  0  0
 32 66  1  0  0  0
 32 67  1  0  0  0
 32 68  1  0  0  0
 34 69  1  0  0  0
 35 70  1  0  0  0
 35 71  1  0  0  0
 36 72  1  0  0  0
 36 73  1  0  0  0
 38 74  1  0  0  0
 38 75  1  0  0  0
M  END
$$$$
