### 
### Created by X-TOOL on Mon Sep 10 21:13:16 2018
### 

@<TRIPOS>MOLECULE
4nzn_ligand
   57    58     1     0     0
SMALL
GAST_HUCK


@<TRIPOS>ATOM
      1 O45        -4.9830   16.4050    9.8410 O.co2     1 2OU        -0.5605
      2 PB5        -6.4570   16.4590    9.9160 P.3       1 2OU         0.0791
      3 O55        -7.2430   15.7710    8.8740 O.co2     1 2OU        -0.5605
      4 O65        -7.1000   17.5850   10.6240 O.co2     1 2OU        -0.5605
      5 CB5        -6.6240   15.1510   11.2020 C.3       1 2OU         0.1197
      6 CA5        -5.9470   15.5670   12.5160 C.2       1 2OU         0.2508
      7 O25        -4.7490   15.3550   12.7140 O.2       1 2OU        -0.3688
      8 O15        -6.8090   16.1230   13.4160 O.3       1 2OU        -0.2663
      9 C5         -6.2820   16.6850   14.6300 C.3       1 2OU         0.1540
     10 C6         -6.9290   15.9200   15.7880 C.3       1 2OU         0.1553
     11 O16        -6.4030   14.5640   15.8120 O.3       1 2OU        -0.2668
     12 PA6        -7.2980   13.2780   15.4640 P.3       1 2OU         0.2013
     13 O46        -8.6070   13.5570   16.0830 O.co2     1 2OU        -0.5537
     14 O36        -7.2650   13.2430   13.9880 O.co2     1 2OU        -0.5537
     15 O26        -6.5430   12.1750   16.1110 O.co2     1 2OU        -0.5537
     16 C1         -6.6630   16.5790   17.1380 C.3       1 2OU         0.1515
     17 O11        -7.4170   15.8810   18.1490 O.3       1 2OU        -0.2672
     18 PA1        -6.7990   15.5720   19.6040 P.3       1 2OU         0.2013
     19 O21        -5.4000   15.2050   19.3350 O.co2     1 2OU        -0.5537
     20 O41        -7.6510   14.4710   20.1060 O.co2     1 2OU        -0.5537
     21 O31        -6.9770   16.8720   20.2910 O.co2     1 2OU        -0.5537
     22 C4         -6.6440   18.1670   14.6550 C.3       1 2OU         0.1553
     23 O14        -5.8630   18.8530   13.6460 O.3       1 2OU        -0.2668
     24 PA4        -6.3630   20.0670   12.6870 P.3       1 2OU         0.2013
     25 O24        -5.5950   21.2300   13.1500 O.co2     1 2OU        -0.5537
     26 O44        -6.0060   19.5680   11.3580 O.co2     1 2OU        -0.5537
     27 O34        -7.8180   20.2010   12.9210 O.co2     1 2OU        -0.5537
     28 C3         -6.3200   18.7580   16.0220 C.3       1 2OU         0.1515
     29 O13        -6.6740   20.1390   16.0260 O.3       1 2OU        -0.2672
     30 PA3        -5.7170   21.2300   16.6740 P.3       1 2OU         0.2013
     31 O23        -4.5020   21.2370   15.8450 O.co2     1 2OU        -0.5537
     32 O43        -6.5330   22.4520   16.5930 O.co2     1 2OU        -0.5537
     33 O33        -5.5370   20.6980   18.0470 O.co2     1 2OU        -0.5537
     34 C2         -7.0930   18.0330   17.1210 C.3       1 2OU         0.1279
     35 O12        -8.5120   18.1200   16.8830 O.3       1 2OU        -0.3581
     36 CA2        -9.1420   19.0720   17.7010 C.3       1 2OU         0.0822
     37 CB2       -10.4340   19.2150   17.1730 C.ar      1 2OU        -0.0175
     38 CD2       -10.6280   19.9660   16.0130 C.ar      1 2OU        -0.0581
     39 CE2       -11.8990   20.1210   15.4610 C.ar      1 2OU        -0.0685
     40 CZ        -12.9930   19.5140   16.0740 C.ar      1 2OU        -0.0687
     41 CE1       -12.8080   18.7600   17.2340 C.ar      1 2OU        -0.0685
     42 CD1       -11.5340   18.6080   17.7820 C.ar      1 2OU        -0.0581
     43 H          -6.1548   14.2263   10.8349 H         1 2OU         0.0709
     44 H          -7.6923   14.9699   11.3916 H         1 2OU         0.0709
     45 H          -5.1888   16.5699   14.6697 H         1 2OU         0.0711
     46 H          -8.0159   15.8853   15.6222 H         1 2OU         0.0710
     47 H          -5.5889   16.5196   17.3678 H         1 2OU         0.0707
     48 H          -7.7167   18.2899   14.4446 H         1 2OU         0.0710
     49 H          -5.2416   18.6559   16.2134 H         1 2OU         0.0707
     50 H          -6.8626   18.4945   18.0926 H         1 2OU         0.0659
     51 H          -8.6023   20.0298   17.6640 H         1 2OU         0.0724
     52 H          -9.1877   18.7168   18.7411 H         1 2OU         0.0724
     53 H          -9.7772   20.4363   15.5335 H         1 2OU         0.0557
     54 H         -12.0350   20.7098   14.5610 H         1 2OU         0.0599
     55 H         -13.9848   19.6269   15.6514 H         1 2OU         0.0559
     56 H         -13.6596   18.2896   17.7121 H         1 2OU         0.0599
     57 H         -11.3981   18.0182   18.6813 H         1 2OU         0.0557
@<TRIPOS>BOND
     1    1    2 ar 
     2    2    3 ar 
     3    2    4 ar 
     4    2    5 1  
     5    5    6 1  
     6    6    7 2  
     7    6    8 1  
     8    8    9 1  
     9    9   10 1  
    10    9   22 1  
    11   10   11 1  
    12   10   16 1  
    13   11   12 1  
    14   12   13 ar 
    15   12   14 ar 
    16   12   15 ar 
    17   16   17 1  
    18   16   34 1  
    19   17   18 1  
    20   18   19 ar 
    21   18   20 ar 
    22   18   21 ar 
    23   22   23 1  
    24   22   28 1  
    25   23   24 1  
    26   24   25 ar 
    27   24   26 ar 
    28   24   27 ar 
    29   28   29 1  
    30   28   34 1  
    31   29   30 1  
    32   30   31 ar 
    33   30   32 ar 
    34   30   33 ar 
    35   34   35 1  
    36   35   36 1  
    37   36   37 1  
    38   37   38 ar 
    39   37   42 ar 
    40   38   39 ar 
    41   39   40 ar 
    42   40   41 ar 
    43   41   42 ar 
    44    5   43 1  
    45    5   44 1  
    46    9   45 1  
    47   10   46 1  
    48   16   47 1  
    49   22   48 1  
    50   28   49 1  
    51   34   50 1  
    52   36   51 1  
    53   36   52 1  
    54   38   53 1  
    55   39   54 1  
    56   40   55 1  
    57   41   56 1  
    58   42   57 1  
@<TRIPOS>SUBSTRUCTURE
     1 2OU         1

