4nzn_ligand
  -I-interpret- 

 67 68  0  0  0  0  0  0  0  0999 V2000
   -4.9830   16.4050    9.8410 O   0  0  0  0  0
   -6.4570   16.4590    9.9160 P   0  0  0  0  0
   -7.2430   15.7710    8.8740 O   0  0  0  0  0
   -7.1000   17.5850   10.6240 O   0  0  0  0  0
   -6.6240   15.1510   11.2020 C   0  0  0  0  0
   -5.9470   15.5670   12.5160 C   0  0  0  0  0
   -4.7490   15.3550   12.7140 O   0  0  0  0  0
   -6.8090   16.1230   13.4160 O   0  0  0  0  0
   -6.2820   16.6850   14.6300 C   0  0  0  0  0
   -6.9290   15.9200   15.7880 C   0  0  0  0  0
   -6.4030   14.5640   15.8120 O   0  0  0  0  0
   -7.2980   13.2780   15.4640 P   0  0  0  0  0
   -8.6070   13.5570   16.0830 O   0  0  0  0  0
   -7.2650   13.2430   13.9880 O   0  0  0  0  0
   -6.5430   12.1750   16.1110 O   0  0  0  0  0
   -6.6630   16.5790   17.1380 C   0  0  0  0  0
   -7.4170   15.8810   18.1490 O   0  0  0  0  0
   -6.7990   15.5720   19.6040 P   0  0  0  0  0
   -5.4000   15.2050   19.3350 O   0  0  0  0  0
   -7.6510   14.4710   20.1060 O   0  0  0  0  0
   -6.9770   16.8720   20.2910 O   0  0  0  0  0
   -6.6440   18.1670   14.6550 C   0  0  0  0  0
   -5.8630   18.8530   13.6460 O   0  0  0  0  0
   -6.3630   20.0670   12.6870 P   0  0  0  0  0
   -5.5950   21.2300   13.1500 O   0  0  0  0  0
   -6.0060   19.5680   11.3580 O   0  0  0  0  0
   -7.8180   20.2010   12.9210 O   0  0  0  0  0
   -6.3200   18.7580   16.0220 C   0  0  0  0  0
   -6.6740   20.1390   16.0260 O   0  0  0  0  0
   -5.7170   21.2300   16.6740 P   0  0  0  0  0
   -4.5020   21.2370   15.8450 O   0  0  0  0  0
   -6.5330   22.4520   16.5930 O   0  0  0  0  0
   -5.5370   20.6980   18.0470 O   0  0  0  0  0
   -7.0930   18.0330   17.1210 C   0  0  0  0  0
   -8.5120   18.1200   16.8830 O   0  0  0  0  0
   -9.1420   19.0720   17.7010 C   0  0  0  0  0
  -10.4340   19.2150   17.1730 C   0  0  0  0  0
  -10.6280   19.9660   16.0130 C   0  0  0  0  0
  -11.8990   20.1210   15.4610 C   0  0  0  0  0
  -12.9930   19.5140   16.0740 C   0  0  0  0  0
  -12.8080   18.7600   17.2340 C   0  0  0  0  0
  -11.5340   18.6080   17.7820 C   0  0  0  0  0
   -4.6081   16.8923   10.5783 H   0  0  0  0  0
   -6.4896   17.9446   11.2718 H   0  0  0  0  0
   -6.1429   14.2435   10.8371 H   0  0  0  0  0
   -7.6845   14.9891   11.3952 H   0  0  0  0  0
   -5.1980   16.5996   14.7057 H   0  0  0  0  0
   -8.0067   15.9207   15.6248 H   0  0  0  0  0
   -6.3709   13.0549   13.6934 H   0  0  0  0  0
   -5.7064   12.0518   15.6566 H   0  0  0  0  0
   -5.5948   16.5325   17.3500 H   0  0  0  0  0
   -8.5413   14.7985   20.2532 H   0  0  0  0  0
   -7.9131   17.0348   20.4279 H   0  0  0  0  0
   -7.7093   18.2855   14.4568 H   0  0  0  0  0
   -5.8973   21.4840   14.0250 H   0  0  0  0  0
   -7.9690   20.5317   13.8095 H   0  0  0  0  0
   -5.2535   18.6411   16.2142 H   0  0  0  0  0
   -7.3009   22.3610   17.1619 H   0  0  0  0  0
   -6.3751   20.7305   18.5140 H   0  0  0  0  0
   -6.8789   18.4993   18.0827 H   0  0  0  0  0
   -8.6023   20.0190   17.7042 H   0  0  0  0  0
   -9.1669   18.7528   18.7429 H   0  0  0  0  0
   -9.7725   20.4389   15.5308 H   0  0  0  0  0
  -12.0357   20.7130   14.5561 H   0  0  0  0  0
  -13.9903   19.6276   15.6491 H   0  0  0  0  0
  -13.6643   18.2870   17.7147 H   0  0  0  0  0
  -11.3973   18.0149   18.6863 H   0  0  0  0  0
  1  2  1  0  0  0
  2  3  2  0  0  0
  2  4  1  0  0  0
  2  5  1  0  0  0
  5  6  1  0  0  0
  6  7  2  0  0  0
  6  8  1  0  0  0
  8  9  1  0  0  0
  9 10  1  0  0  0
  9 22  1  0  0  0
 10 11  1  0  0  0
 10 16  1  0  0  0
 11 12  1  0  0  0
 12 13  2  0  0  0
 12 14  1  0  0  0
 12 15  1  0  0  0
 16 17  1  0  0  0
 16 34  1  0  0  0
 17 18  1  0  0  0
 18 19  2  0  0  0
 18 20  1  0  0  0
 18 21  1  0  0  0
 22 23  1  0  0  0
 22 28  1  0  0  0
 23 24  1  0  0  0
 24 25  1  0  0  0
 24 26  2  0  0  0
 24 27  1  0  0  0
 28 29  1  0  0  0
 28 34  1  0  0  0
 29 30  1  0  0  0
 30 31  2  0  0  0
 30 32  1  0  0  0
 30 33  1  0  0  0
 34 35  1  0  0  0
 35 36  1  0  0  0
 36 37  1  0  0  0
 37 38  4  0  0  0
 37 42  4  0  0  0
 38 39  4  0  0  0
 39 40  4  0  0  0
 40 41  4  0  0  0
 41 42  4  0  0  0
  1 43  1  0  0  0
  4 44  1  0  0  0
  5 45  1  0  0  0
  5 46  1  0  0  0
  9 47  1  0  0  0
 10 48  1  0  0  0
 14 49  1  0  0  0
 15 50  1  0  0  0
 16 51  1  0  0  0
 20 52  1  0  0  0
 21 53  1  0  0  0
 22 54  1  0  0  0
 25 55  1  0  0  0
 27 56  1  0  0  0
 28 57  1  0  0  0
 32 58  1  0  0  0
 33 59  1  0  0  0
 34 60  1  0  0  0
 36 61  1  0  0  0
 36 62  1  0  0  0
 38 63  1  0  0  0
 39 64  1  0  0  0
 40 65  1  0  0  0
 41 66  1  0  0  0
 42 67  1  0  0  0
M  END
$$$$
