5e2v_ligand
  -I-interpret- 

122123  0  0  0  0  0  0  0  0999 V2000
   25.3550    3.4340   80.0210 N   0  3  0  0  0
   24.2280    3.8800   80.8860 C   0  0  0  0  0
   23.0870    4.4770   80.0860 C   0  0  0  0  0
   22.0900    3.8010   79.8080 O   0  0  0  0  0
   23.2380    5.7490   79.7170 N   0  0  0  0  0
   22.1880    6.4840   79.0150 C   0  0  0  0  0
   22.5090    7.9810   78.9620 C   0  0  0  0  0
   21.5210    8.6280   78.1850 O   0  0  0  0  0
   21.9260    5.9650   77.5940 C   0  0  0  0  0
   22.8700    5.7390   76.8280 O   0  0  0  0  0
   21.6140   10.2290   78.1050 P   0  0  0  0  0
   22.8760   10.6710   77.2140 O   0  0  0  0  0
   21.7570   10.8300   79.5890 O   0  0  0  0  0
   20.2390   10.7280   77.4460 O   0  0  0  0  0
   20.6400    5.7760   77.2410 N   0  0  0  0  0
   20.2550    5.4040   75.8700 C   0  0  0  0  0
   20.3830    6.5220   74.8240 C   0  0  0  0  0
   20.2320    6.2550   73.6310 O   0  0  0  0  0
   18.7830    4.9680   76.0080 C   0  0  0  0  0
   18.4700    4.9940   77.4690 C   0  0  0  0  0
   19.4680    5.8860   78.1290 C   0  0  0  0  0
   20.6550    7.7500   75.2600 N   0  0  0  0  0
   20.8470    8.8800   74.3470 C   0  0  0  0  0
   22.1750    8.8310   73.6080 C   0  0  0  0  0
   23.0790    8.0650   73.9740 O   0  0  0  0  0
   22.2960    9.6500   72.5650 N   0  0  0  0  0
   23.5590    9.7690   71.8270 C   0  0  0  0  0
   23.3750   10.5520   70.5280 C   0  0  0  0  0
   24.6160   10.5100   69.6320 C   0  0  0  0  0
   22.2920    9.9990   69.7840 O   0  0  0  0  0
   20.9470   10.8410   69.4910 P   0  0  0  0  0
   20.1690    9.8710   68.6350 O   0  0  0  0  0
   20.3520   11.0800   70.8680 O   0  0  0  0  0
   21.3190   12.1070   68.7580 O   0  0  0  0  0
   24.6190   10.4470   72.6630 C   0  0  0  0  0
   24.3970   11.5590   73.1660 O   0  0  0  0  0
   25.7850    9.7910   72.8240 N   0  0  0  0  0
   26.8960   10.4200   73.5550 C   0  0  0  0  0
   27.5300   11.5310   72.7210 C   0  0  0  0  0
   27.6830   11.3730   71.5100 O   0  0  0  0  0
   27.8770    9.2640   73.7720 C   0  0  0  0  0
   27.6000    8.3060   72.6500 C   0  0  0  0  0
   26.1290    8.4390   72.3370 C   0  0  0  0  0
   27.8920   12.6410   73.3630 N   0  0  0  0  0
   28.5250   13.7620   72.6620 C   0  0  0  0  0
   30.0350   13.6160   72.5700 C   0  0  0  0  0
   30.5680   12.5100   72.7030 O   0  0  0  0  0
   30.7260   14.7310   72.3430 N   0  0  0  0  0
   32.1980   14.7470   72.3370 C   0  0  0  0  0
   32.7800   14.2900   73.6750 C   0  0  0  0  0
   32.3570   14.7580   74.7400 O   0  0  0  0  0
   32.7290   16.1430   71.9860 C   0  0  0  0  0
   32.4700   16.4630   70.6330 O   0  0  0  0  0
   33.7480   13.3760   73.6100 N   0  0  0  0  0
   34.4090   12.8400   74.8030 C   0  0  0  0  0
   35.4000   13.8570   75.3690 C   0  0  0  0  0
   35.7700   13.7940   76.5430 O   0  0  0  0  0
   35.1330   11.5250   74.4840 C   0  0  0  0  0
   34.2600   10.4370   73.8680 C   0  0  0  0  0
   33.7440    9.4240   74.8960 C   0  0  0  0  0
   32.5930    9.8960   75.6700 N   0  0  0  0  0
   31.4020   10.2120   75.1600 C   0  0  0  0  0
   31.1710   10.1170   73.8560 N   0  0  0  0  0
   30.4320   10.6280   75.9620 N   0  0  0  0  0
   35.8500   14.7620   74.6630 O   0  0  0  0  0
   26.0945    3.0415   80.6036 H   0  0  0  0  0
   25.0213    2.7241   79.3690 H   0  0  0  0  0
   25.7185    4.2320   79.4999 H   0  0  0  0  0
   24.6046    4.6482   81.5613 H   0  0  0  0  0
   23.8467    3.0090   81.4190 H   0  0  0  0  0
   24.1145    6.2245   79.9315 H   0  0  0  0  0
   21.2776    6.3203   79.5916 H   0  0  0  0  0
   23.4912    8.1339   78.5148 H   0  0  0  0  0
   22.5170    8.3944   79.9705 H   0  0  0  0  0
   23.6840   10.3608   77.6294 H   0  0  0  0  0
   22.5813   10.5278   79.9774 H   0  0  0  0  0
   20.9286    4.6338   75.4944 H   0  0  0  0  0
   18.6298    3.9718   75.5930 H   0  0  0  0  0
   18.1236    5.6369   75.4549 H   0  0  0  0  0
   18.5236    3.9888   77.8871 H   0  0  0  0  0
   17.4592    5.3667   77.6345 H   0  0  0  0  0
   19.1138    6.9109   78.2399 H   0  0  0  0  0
   19.6847    5.5939   79.1565 H   0  0  0  0  0
   20.7325    7.9099   76.2644 H   0  0  0  0  0
   20.8328    9.7929   74.9424 H   0  0  0  0  0
   20.0520    8.8428   73.6022 H   0  0  0  0  0
   21.4931   10.2070   72.2725 H   0  0  0  0  0
   23.8808    8.7550   71.5897 H   0  0  0  0  0
   23.1842   11.5863   70.8143 H   0  0  0  0  0
   25.4627   10.9416   70.1657 H   0  0  0  0  0
   24.8389    9.4756   69.3704 H   0  0  0  0  0
   24.4267   11.0830   68.7243 H   0  0  0  0  0
   19.9602    9.0880   69.1497 H   0  0  0  0  0
   20.1401   10.2366   71.2746 H   0  0  0  0  0
   26.5850   10.8906   74.4877 H   0  0  0  0  0
   27.7411    8.7956   74.7468 H   0  0  0  0  0
   28.9122    9.6053   73.7663 H   0  0  0  0  0
   27.8506    7.2841   72.9346 H   0  0  0  0  0
   28.2102    8.5363   71.7767 H   0  0  0  0  0
   25.9181    8.3147   71.2748 H   0  0  0  0  0
   25.5316    7.6620   72.8140 H   0  0  0  0  0
   27.7246   12.7124   74.3666 H   0  0  0  0  0
   28.3095   14.6722   73.2216 H   0  0  0  0  0
   28.1283   13.7900   71.6472 H   0  0  0  0  0
   30.2207   15.5996   72.1681 H   0  0  0  0  0
   32.5195   14.0407   71.5716 H   0  0  0  0  0
   33.8070   16.1558   72.1465 H   0  0  0  0  0
   32.2278   16.8753   72.6190 H   0  0  0  0  0
   32.8120   17.3393   70.4415 H   0  0  0  0  0
   34.0402   13.0362   72.6937 H   0  0  0  0  0
   33.6415   12.6401   75.5507 H   0  0  0  0  0
   35.5010   11.1321   75.4318 H   0  0  0  0  0
   35.9033   11.7616   73.7499 H   0  0  0  0  0
   34.8692    9.8938   73.1456 H   0  0  0  0  0
   33.3937   10.9229   73.4190 H   0  0  0  0  0
   34.5538    9.2373   75.6012 H   0  0  0  0  0
   33.4235    8.5392   74.3460 H   0  0  0  0  0
   32.7121    9.9904   76.6786 H   0  0  0  0  0
   30.2548   10.3629   73.4811 H   0  0  0  0  0
   31.9097    9.7981   73.2291 H   0  0  0  0  0
   30.5979   10.7055   76.9654 H   0  0  0  0  0
   35.4802   14.6914   73.7799 H   0  0  0  0  0
  1  2  1  0  0  0
  2  3  1  0  0  0
  3  4  2  0  0  0
  3  5  1  0  0  0
  5  6  1  0  0  0
  6  7  1  0  0  0
  6  9  1  0  0  0
  7  8  1  0  0  0
  8 11  1  0  0  0
  9 10  2  0  0  0
  9 15  1  0  0  0
 11 12  1  0  0  0
 11 13  1  0  0  0
 11 14  2  0  0  0
 15 16  1  0  0  0
 15 21  1  0  0  0
 16 17  1  0  0  0
 16 19  1  0  0  0
 17 18  2  0  0  0
 17 22  1  0  0  0
 19 20  1  0  0  0
 20 21  1  0  0  0
 22 23  1  0  0  0
 23 24  1  0  0  0
 24 25  2  0  0  0
 24 26  1  0  0  0
 26 27  1  0  0  0
 27 28  1  0  0  0
 27 35  1  0  0  0
 28 29  1  0  0  0
 28 30  1  0  0  0
 30 31  1  0  0  0
 31 32  1  0  0  0
 31 33  1  0  0  0
 31 34  2  0  0  0
 35 36  2  0  0  0
 35 37  1  0  0  0
 37 38  1  0  0  0
 37 43  1  0  0  0
 38 39  1  0  0  0
 38 41  1  0  0  0
 39 40  2  0  0  0
 39 44  1  0  0  0
 41 42  1  0  0  0
 42 43  1  0  0  0
 44 45  1  0  0  0
 45 46  1  0  0  0
 46 47  2  0  0  0
 46 48  1  0  0  0
 48 49  1  0  0  0
 49 50  1  0  0  0
 49 52  1  0  0  0
 50 51  2  0  0  0
 50 54  1  0  0  0
 52 53  1  0  0  0
 54 55  1  0  0  0
 55 56  1  0  0  0
 55 58  1  0  0  0
 56 57  2  0  0  0
 56 65  1  0  0  0
 58 59  1  0  0  0
 59 60  1  0  0  0
 60 61  1  0  0  0
 61 62  1  0  0  0
 62 63  1  0  0  0
 62 64  2  0  0  0
  1 66  1  0  0  0
  1 67  1  0  0  0
  1 68  1  0  0  0
  2 69  1  0  0  0
  2 70  1  0  0  0
  5 71  1  0  0  0
  6 72  1  0  0  0
  7 73  1  0  0  0
  7 74  1  0  0  0
 12 75  1  0  0  0
 13 76  1  0  0  0
 16 77  1  0  0  0
 19 78  1  0  0  0
 19 79  1  0  0  0
 20 80  1  0  0  0
 20 81  1  0  0  0
 21 82  1  0  0  0
 21 83  1  0  0  0
 22 84  1  0  0  0
 23 85  1  0  0  0
 23 86  1  0  0  0
 26 87  1  0  0  0
 27 88  1  0  0  0
 28 89  1  0  0  0
 29 90  1  0  0  0
 29 91  1  0  0  0
 29 92  1  0  0  0
 32 93  1  0  0  0
 33 94  1  0  0  0
 38 95  1  0  0  0
 41 96  1  0  0  0
 41 97  1  0  0  0
 42 98  1  0  0  0
 42 99  1  0  0  0
 43100  1  0  0  0
 43101  1  0  0  0
 44102  1  0  0  0
 45103  1  0  0  0
 45104  1  0  0  0
 48105  1  0  0  0
 49106  1  0  0  0
 52107  1  0  0  0
 52108  1  0  0  0
 53109  1  0  0  0
 54110  1  0  0  0
 55111  1  0  0  0
 58112  1  0  0  0
 58113  1  0  0  0
 59114  1  0  0  0
 59115  1  0  0  0
 60116  1  0  0  0
 60117  1  0  0  0
 61118  1  0  0  0
 63119  1  0  0  0
 63120  1  0  0  0
 64121  1  0  0  0
 65122  1  0  0  0
M  END
$$$$
