### 
### Created by X-TOOL on Mon Sep 10 21:13:26 2018
### 

@<TRIPOS>MOLECULE
5e2v_ligand
  118   119     1     0     0
SMALL
GAST_HUCK


@<TRIPOS>ATOM
      1 N          25.3550    3.4340   80.0210 N.4       1 GLY         0.2357
      2 CA         24.2280    3.8800   80.8860 C.3       1 GLY         0.0545
      3 C          23.0870    4.4770   80.0860 C.2       1 GLY         0.2237
      4 O          22.0900    3.8010   79.8080 O.2       1 GLY        -0.3910
      5 N          23.2380    5.7490   79.7170 N.am      1 SEP        -0.2588
      6 CA         22.1880    6.4840   79.0150 C.3       1 SEP         0.1589
      7 CB         22.5090    7.9810   78.9620 C.3       1 SEP         0.1184
      8 OG         21.5210    8.6280   78.1850 O.3       1 SEP        -0.2714
      9 C          21.9260    5.9650   77.5940 C.2       1 SEP         0.2090
     10 O          22.8700    5.7390   76.8280 O.2       1 SEP        -0.3941
     11 P          21.6140   10.2290   78.1050 P.3       1 SEP         0.2010
     12 O1P        22.8760   10.6710   77.2140 O.co2     1 SEP        -0.5537
     13 O2P        21.7570   10.8300   79.5890 O.co2     1 SEP        -0.5537
     14 O3P        20.2390   10.7280   77.4460 O.co2     1 SEP        -0.5537
     15 N          20.6400    5.7760   77.2410 N.am      1 PRO        -0.2498
     16 CA         20.2550    5.4040   75.8700 C.3       1 PRO         0.1338
     17 C          20.3830    6.5220   74.8240 C.2       1 PRO         0.2039
     18 O          20.2320    6.2550   73.6310 O.2       1 PRO        -0.3944
     19 CB         18.7830    4.9680   76.0080 C.3       1 PRO        -0.0104
     20 CG         18.4700    4.9940   77.4690 C.3       1 PRO        -0.0281
     21 CD         19.4680    5.8860   78.1290 C.3       1 PRO         0.0369
     22 N          20.6550    7.7500   75.2600 N.am      1 GLY        -0.2664
     23 CA         20.8470    8.8800   74.3470 C.3       1 GLY         0.1201
     24 C          22.1750    8.8310   73.6080 C.2       1 GLY         0.2008
     25 O          23.0790    8.0650   73.9740 O.2       1 GLY        -0.3947
     26 N          22.2960    9.6500   72.5650 N.am      1 TPO        -0.2613
     27 CA         23.5590    9.7690   71.8270 C.3       1 TPO         0.1614
     28 CB         23.3750   10.5520   70.5280 C.3       1 TPO         0.1262
     29 CG2        24.6160   10.5100   69.6320 C.3       1 TPO        -0.0298
     30 OG1        22.2920    9.9990   69.7840 O.3       1 TPO        -0.2685
     31 P          20.9470   10.8410   69.4910 P.3       1 TPO         0.2014
     32 O1P        20.1690    9.8710   68.6350 O.co2     1 TPO        -0.5537
     33 O2P        20.3520   11.0800   70.8680 O.co2     1 TPO        -0.5537
     34 O3P        21.3190   12.1070   68.7580 O.co2     1 TPO        -0.5537
     35 C          24.6190   10.4470   72.6630 C.2       1 TPO         0.2093
     36 O          24.3970   11.5590   73.1660 O.2       1 TPO        -0.3941
     37 N          25.7850    9.7910   72.8240 N.am      1 PRO        -0.2498
     38 CA         26.8960   10.4200   73.5550 C.3       1 PRO         0.1338
     39 C          27.5300   11.5310   72.7210 C.2       1 PRO         0.2039
     40 O          27.6830   11.3730   71.5100 O.2       1 PRO        -0.3944
     41 CB         27.8770    9.2640   73.7720 C.3       1 PRO        -0.0104
     42 CG         27.6000    8.3060   72.6500 C.3       1 PRO        -0.0281
     43 CD         26.1290    8.4390   72.3370 C.3       1 PRO         0.0369
     44 N          27.8920   12.6410   73.3630 N.am      1 GLY        -0.2664
     45 CA         28.5250   13.7620   72.6620 C.3       1 GLY         0.1201
     46 C          30.0350   13.6160   72.5700 C.2       1 GLY         0.2008
     47 O          30.5680   12.5100   72.7030 O.2       1 GLY        -0.3947
     48 N          30.7260   14.7310   72.3430 N.am      1 SER        -0.2618
     49 CA         32.1980   14.7470   72.3370 C.3       1 SER         0.1539
     50 C          32.7800   14.2900   73.6750 C.2       1 SER         0.2056
     51 O          32.3570   14.7580   74.7400 O.2       1 SER        -0.3943
     52 CB         32.7290   16.1430   71.9860 C.3       1 SER         0.0843
     53 OG         32.4700   16.4630   70.6330 O.3       1 SER        -0.3903
     54 N          33.7480   13.3760   73.6100 N.am      1 ARG        -0.2694
     55 CA         34.4090   12.8400   74.8030 C.3       1 ARG         0.0945
     56 C          35.4000   13.8570   75.3690 C.2       1 ARG         0.0601
     57 O          35.7700   13.7940   76.5430 O.co2     1 ARG        -0.5666
     58 CB         35.1330   11.5250   74.4840 C.3       1 ARG        -0.0148
     59 CG         34.2600   10.4370   73.8680 C.3       1 ARG        -0.0162
     60 CD         33.7440    9.4240   74.8960 C.3       1 ARG         0.0627
     61 NE         32.5930    9.8960   75.6700 N.pl3     1 ARG        -0.2723
     62 CZ         31.4020   10.2120   75.1600 C.cat     1 ARG         0.2882
     63 NH1        31.1710   10.1170   73.8560 N.pl3     1 ARG        -0.2849
     64 NH2        30.4320   10.6280   75.9620 N.pl3     1 ARG        -0.2849
     65 OXT        35.8500   14.7620   74.6630 O.co2     1 ARG        -0.5666
     66 H1         26.0865    3.0459   80.5958 H         1 GLY         0.2012
     67 H2         25.7151    4.2218   79.5055 H         1 GLY         0.2012
     68 H3         25.0264    2.7323   79.3762 H         1 GLY         0.2012
     69 H4         24.6013    4.6389   81.5893 H         1 GLY         0.1061
     70 H5         23.8498    3.0135   81.4482 H         1 GLY         0.1061
     71 H6         24.0973    6.2152   79.9273 H         1 SEP         0.1885
     72 H7         21.2595    6.3555   79.5907 H         1 SEP         0.0827
     73 H8         23.4977    8.1318   78.5041 H         1 SEP         0.0662
     74 H9         22.5095    8.3960   79.9807 H         1 SEP         0.0662
     75 H10        20.8734    4.5570   75.5381 H         1 PRO         0.0802
     76 H11        18.6481    3.9522   75.6082 H         1 PRO         0.0313
     77 H12        18.1273    5.6654   75.4661 H         1 PRO         0.0313
     78 H13        18.5412    3.9786   77.8859 H         1 PRO         0.0287
     79 H14        17.4544    5.3853   77.6280 H         1 PRO         0.0287
     80 H15        19.1027    6.9225   78.1769 H         1 PRO         0.0524
     81 H16        19.7049    5.5334   79.1437 H         1 PRO         0.0524
     82 H17        20.7309    7.9068   76.2447 H         1 GLY         0.1881
     83 H18        20.8049    9.8120   74.9298 H         1 GLY         0.0763
     84 H19        20.0338    8.8737   73.6063 H         1 GLY         0.0763
     85 H20        21.5089   10.1961   72.2782 H         1 TPO         0.1884
     86 H21        23.9053    8.7552   71.5777 H         1 TPO         0.0830
     87 H22        23.1518   11.5992   70.7801 H         1 TPO         0.0695
     88 H23        24.4262   11.0879   68.7155 H         1 TPO         0.0260
     89 H24        24.8420    9.4665   69.3672 H         1 TPO         0.0260
     90 H25        25.4713   10.9454   70.1695 H         1 TPO         0.0260
     91 H26        26.5540   10.8315   74.5161 H         1 PRO         0.0802
     92 H27        27.6986    8.7825   74.7448 H         1 PRO         0.0313
     93 H28        28.9154    9.6239   73.7260 H         1 PRO         0.0313
     94 H29        27.8322    7.2768   72.9611 H         1 PRO         0.0287
     95 H30        28.2028    8.5673   71.7678 H         1 PRO         0.0287
     96 H31        25.9496    8.3550   71.2550 H         1 PRO         0.0524
     97 H32        25.5450    7.6716   72.8662 H         1 PRO         0.0524
     98 H33        27.7279   12.7110   74.3470 H         1 GLY         0.1881
     99 H34        28.2933   14.6916   73.2025 H         1 GLY         0.0763
    100 H35        28.1138   13.8179   71.6433 H         1 GLY         0.0763
    101 H36        30.2306   15.5826   72.1715 H         1 SER         0.1884
    102 H37        32.5384   14.0453   71.5613 H         1 SER         0.0823
    103 H38        33.8150   16.1679   72.1591 H         1 SER         0.0606
    104 H39        32.2378   16.8865   72.6309 H         1 SER         0.0606
    105 H40        32.8955   15.8261   70.0711 H         1 SER         0.2097
    106 H41        34.0345   13.0429   72.7117 H         1 ARG         0.1875
    107 H42        33.6407   12.6390   75.5641 H         1 ARG         0.0726
    108 H43        35.5552   11.1328   75.4210 H         1 ARG         0.0307
    109 H44        35.9479   11.7472   73.7793 H         1 ARG         0.0307
    110 H45        34.8523    9.8987   73.1134 H         1 ARG         0.0301
    111 H46        33.3957   10.9146   73.3834 H         1 ARG         0.0301
    112 H47        34.5610    9.1943   75.5958 H         1 ARG         0.0689
    113 H48        33.4501    8.5082   74.3622 H         1 ARG         0.0689
    114 H49        32.7132    9.9913   76.6885 H         1 ARG         0.2642
    115 H50        30.2457   10.3648   73.4775 H         1 ARG         0.2615
    116 H51        31.9171    9.7955   73.2229 H         1 ARG         0.2615
    117 H52        30.5994   10.7057   76.9753 H         1 ARG         0.2615
    118 H53        29.5109   10.8735   75.5718 H         1 ARG         0.2615
@<TRIPOS>BOND
     1    1    2 1  
     2    2    3 1  
     3    3    4 2  
     4    3    5 am 
     5    5    6 1  
     6    6    7 1  
     7    6    9 1  
     8    7    8 1  
     9    8   11 1  
    10    9   10 2  
    11    9   15 am 
    12   11   12 ar 
    13   11   13 ar 
    14   11   14 ar 
    15   15   16 1  
    16   15   21 1  
    17   16   17 1  
    18   16   19 1  
    19   17   18 2  
    20   17   22 am 
    21   19   20 1  
    22   20   21 1  
    23   22   23 1  
    24   23   24 1  
    25   24   25 2  
    26   24   26 am 
    27   26   27 1  
    28   27   28 1  
    29   27   35 1  
    30   28   29 1  
    31   28   30 1  
    32   30   31 1  
    33   31   32 ar 
    34   31   33 ar 
    35   31   34 ar 
    36   35   36 2  
    37   35   37 am 
    38   37   38 1  
    39   37   43 1  
    40   38   39 1  
    41   38   41 1  
    42   39   40 2  
    43   39   44 am 
    44   41   42 1  
    45   42   43 1  
    46   44   45 1  
    47   45   46 1  
    48   46   47 2  
    49   46   48 am 
    50   48   49 1  
    51   49   50 1  
    52   49   52 1  
    53   50   51 2  
    54   50   54 am 
    55   52   53 1  
    56   54   55 1  
    57   55   56 1  
    58   55   58 1  
    59   56   57 ar 
    60   56   65 ar 
    61   58   59 1  
    62   59   60 1  
    63   60   61 1  
    64   61   62 ar 
    65   62   63 ar 
    66   62   64 ar 
    67    1   66 1  
    68    1   67 1  
    69    1   68 1  
    70    2   69 1  
    71    2   70 1  
    72    5   71 1  
    73    6   72 1  
    74    7   73 1  
    75    7   74 1  
    76   16   75 1  
    77   19   76 1  
    78   19   77 1  
    79   20   78 1  
    80   20   79 1  
    81   21   80 1  
    82   21   81 1  
    83   22   82 1  
    84   23   83 1  
    85   23   84 1  
    86   26   85 1  
    87   27   86 1  
    88   28   87 1  
    89   29   88 1  
    90   29   89 1  
    91   29   90 1  
    92   38   91 1  
    93   41   92 1  
    94   41   93 1  
    95   42   94 1  
    96   42   95 1  
    97   43   96 1  
    98   43   97 1  
    99   44   98 1  
   100   45   99 1  
   101   45  100 1  
   102   48  101 1  
   103   49  102 1  
   104   52  103 1  
   105   52  104 1  
   106   53  105 1  
   107   54  106 1  
   108   55  107 1  
   109   58  108 1  
   110   58  109 1  
   111   59  110 1  
   112   59  111 1  
   113   60  112 1  
   114   60  113 1  
   115   61  114 1  
   116   63  115 1  
   117   63  116 1  
   118   64  117 1  
   119   64  118 1  
@<TRIPOS>SUBSTRUCTURE
     1 GLY         1

