1htg_ligand
  -I-interpret- 

102107  0  0  0  0  0  0  0  0999 V2000
   14.6060   22.9110    3.9500 C   0  0  0  0  0
   13.1600   24.0890    5.6660 C   0  0  0  0  0
   10.7590   24.1700    5.0360 C   0  0  0  0  0
    9.7720   24.8180    4.0710 C   0  0  0  0  0
    7.4120   25.1360    3.6000 C   0  0  0  0  0
    9.6910   24.0870    2.7320 C   0  0  0  0  0
    9.5600   22.5730    2.8480 C   0  0  0  0  0
   10.8230   24.4820    1.8210 C   0  0  0  0  0
    7.0150   26.5990    3.4860 C   0  0  0  0  0
    7.6770   27.9900    5.4610 C   0  0  0  0  0
    7.3930   28.1900    6.9650 C   0  0  0  0  0
    8.4930   27.5990    7.8310 C   0  0  0  0  0
    9.4140   28.4170    8.4500 C   0  0  0  0  0
   10.4820   27.8890    9.1340 C   0  0  0  0  0
   10.6470   26.5360    9.2250 C   0  0  0  0  0
    9.7280   25.6980    8.6400 C   0  0  0  0  0
    8.6420   26.2150    7.9540 C   0  0  0  0  0
    5.9170   26.6260    2.4350 C   0  0  0  0  0
    4.1350   25.5180    3.8700 C   0  0  0  0  0
   14.4750   24.1100    4.8540 C   0  0  0  0  0
    1.5390   27.1770    6.1210 C   0  0  0  0  0
    2.1460   26.5960    5.0090 C   0  0  0  0  0
    3.4800   26.1800    5.0810 C   0  0  0  0  0
    4.1870   26.3580    6.2780 C   0  0  0  0  0
    3.5910   26.9830    7.3650 C   0  0  0  0  0
    2.2650   27.3780    7.2960 C   0  0  0  0  0
   17.9590   16.7970    2.3830 C   0  0  0  0  0
   17.0060   17.7600    2.6320 C   0  0  0  0  0
   17.1510   18.5160    3.7780 C   0  0  0  0  0
   18.3060   18.3480    4.6790 C   0  0  0  0  0
   19.2170   17.3720    4.3960 C   0  0  0  0  0
   19.0120   16.5990    3.2730 C   0  0  0  0  0
   16.9870   19.7790    5.5020 C   0  0  0  0  0
   16.3360   20.7660    6.3940 C   0  0  0  0  0
   15.6440   23.9920    7.9000 C   0  0  0  0  0
   14.2620   23.9390    7.9320 C   0  0  0  0  0
   13.6800   23.0250    8.7780 C   0  0  0  0  0
   14.4340   22.1550    9.5490 C   0  0  0  0  0
   15.7990   22.1930    9.4810 C   0  0  0  0  0
   16.4060   23.1230    8.6650 C   0  0  0  0  0
   13.3420   24.7730    7.0300 C   0  0  0  0  0
   14.7620   21.7630    4.8710 C   0  0  0  0  0
   12.0070   24.5920    4.8720 N   0  0  0  0  0
    8.4180   24.9160    4.5850 N   0  3  0  0  0
    6.7490   27.2600    4.7920 N   0  0  0  0  0
    4.6600   26.3990    2.8020 N   0  0  0  0  0
   16.3540   19.4290    4.3900 N   0  0  0  0  0
   18.1690   19.1980    5.7280 N   0  0  0  0  0
   15.8970   21.8260    5.5120 N   0  0  0  0  0
   10.4360   23.3490    5.8760 O   0  0  0  0  0
    8.6890   28.4490    4.9480 O   0  0  0  0  0
    6.1610   26.8520    1.2570 O   0  0  0  0  0
   14.4550   25.2470    4.0590 O   0  0  0  0  0
   13.9050   20.9140    5.0660 O   0  0  0  0  0
    8.1400   24.6880    2.0090 S   0  0  0  0  0
   15.4522   23.0048    3.2693 H   0  0  0  0  0
   13.7397   22.7956    3.2986 H   0  0  0  0  0
   12.9075   23.0524    5.8891 H   0  0  0  0  0
   10.1781   25.8208    3.9385 H   0  0  0  0  0
    6.5318   24.5547    3.8748 H   0  0  0  0  0
    8.7124   22.3310    3.4892 H   0  0  0  0  0
    9.4014   22.1464    1.8576 H   0  0  0  0  0
   10.4728   22.1626    3.2799 H   0  0  0  0  0
   10.6702   24.0347    0.8388 H   0  0  0  0  0
   10.8502   25.5676    1.7270 H   0  0  0  0  0
   11.7651   24.1286    2.2400 H   0  0  0  0  0
    7.8324   27.2381    3.1520 H   0  0  0  0  0
    6.4580   27.6848    7.2071 H   0  0  0  0  0
    7.3385   29.2603    7.1638 H   0  0  0  0  0
    9.2930   29.4989    8.3959 H   0  0  0  0  0
   11.2033   28.5548    9.6078 H   0  0  0  0  0
   11.5030   26.1232    9.7588 H   0  0  0  0  0
    9.8550   24.6181    8.7167 H   0  0  0  0  0
    7.9055   25.5444    7.5112 H   0  0  0  0  0
    5.0025   24.9873    4.2622 H   0  0  0  0  0
    3.3483   24.9278    3.4000 H   0  0  0  0  0
   15.3130   24.0988    5.5510 H   0  0  0  0  0
    0.4919   27.4760    6.0728 H   0  0  0  0  0
    1.5826   26.4659    4.0850 H   0  0  0  0  0
    5.2144   26.0024    6.3562 H   0  0  0  0  0
    4.1666   27.1630    8.2730 H   0  0  0  0  0
    1.7892   27.8452    8.1582 H   0  0  0  0  0
   17.8886   16.1857    1.4833 H   0  0  0  0  0
   16.1701   17.9189    1.9508 H   0  0  0  0  0
   20.0816   17.2084    5.0392 H   0  0  0  0  0
   19.7122   15.7886    3.0705 H   0  0  0  0  0
   17.0181   21.1322    7.1613 H   0  0  0  0  0
   15.5055   20.3278    6.9475 H   0  0  0  0  0
   16.1399   24.7264    7.2652 H   0  0  0  0  0
   12.5928   22.9835    8.8443 H   0  0  0  0  0
   13.9398   21.4416   10.2085 H   0  0  0  0  0
   16.3999   21.4961   10.0652 H   0  0  0  0  0
   17.4938   23.1756    8.6209 H   0  0  0  0  0
   13.7915   25.7541    6.8767 H   0  0  0  0  0
   12.3682   24.8694    7.5102 H   0  0  0  0  0
   12.1854   25.3014    4.1612 H   0  0  0  0  0
    8.2060   24.0213    5.0265 H   0  0  0  0  0
    8.3986   25.7221    5.2097 H   0  0  0  0  0
    5.8221   27.1594    5.2056 H   0  0  0  0  0
    3.9530   26.9062    2.2697 H   0  0  0  0  0
   16.4915   22.6455    5.3878 H   0  0  0  0  0
   15.2620   25.2880    3.5407 H   0  0  0  0  0
 20  1  1  0  0  0
  1 42  1  0  0  0
  4  3  1  0  0  0
  4  6  1  0  0  0
  6  7  1  0  0  0
  6  8  1  0  0  0
  9 18  1  0  0  0
 10 11  1  0  0  0
 11 12  1  0  0  0
 12 13  4  0  0  0
 12 17  4  0  0  0
 13 14  4  0  0  0
 14 15  4  0  0  0
 16 15  4  0  0  0
 17 16  4  0  0  0
 20 53  1  0  0  0
 22 21  4  0  0  0
 21 26  4  0  0  0
 23 22  4  0  0  0
 23 24  4  0  0  0
 24 25  4  0  0  0
 25 26  4  0  0  0
 28 27  4  0  0  0
 27 32  4  0  0  0
 29 28  4  0  0  0
 29 30  4  0  0  0
 30 31  4  0  0  0
 31 32  4  0  0  0
 34 33  1  0  0  0
 36 35  4  0  0  0
 35 40  4  0  0  0
 36 37  4  0  0  0
 41 36  1  0  0  0
 37 38  4  0  0  0
 38 39  4  0  0  0
 40 39  4  0  0  0
 42 49  1  0  0  0
 42 54  2  0  0  0
 49 34  1  0  0  0
 55  6  1  0  0  0
  5 55  1  0  0  0
 18 52  2  0  0  0
 10 51  2  0  0  0
  3 50  2  0  0  0
 33 48  4  0  0  0
 48 30  4  0  0  0
 33 47  4  0  0  0
 47 29  4  0  0  0
 46 19  1  0  0  0
 18 46  1  0  0  0
 45 10  1  0  0  0
  9 45  1  0  0  0
  5 44  1  0  0  0
 44  4  1  0  0  0
  3 43  1  0  0  0
 43  2  1  0  0  0
  2 41  1  0  0  0
 19 23  1  0  0  0
  2 20  1  0  0  0
  5  9  1  0  0  0
  1 56  1  0  0  0
  1 57  1  0  0  0
  2 58  1  0  0  0
  4 59  1  0  0  0
  5 60  1  0  0  0
  7 61  1  0  0  0
  7 62  1  0  0  0
  7 63  1  0  0  0
  8 64  1  0  0  0
  8 65  1  0  0  0
  8 66  1  0  0  0
  9 67  1  0  0  0
 11 68  1  0  0  0
 11 69  1  0  0  0
 13 70  1  0  0  0
 14 71  1  0  0  0
 15 72  1  0  0  0
 16 73  1  0  0  0
 17 74  1  0  0  0
 19 75  1  0  0  0
 19 76  1  0  0  0
 20 77  1  0  0  0
 21 78  1  0  0  0
 22 79  1  0  0  0
 24 80  1  0  0  0
 25 81  1  0  0  0
 26 82  1  0  0  0
 27 83  1  0  0  0
 28 84  1  0  0  0
 31 85  1  0  0  0
 32 86  1  0  0  0
 34 87  1  0  0  0
 34 88  1  0  0  0
 35 89  1  0  0  0
 37 90  1  0  0  0
 38 91  1  0  0  0
 39 92  1  0  0  0
 40 93  1  0  0  0
 41 94  1  0  0  0
 41 95  1  0  0  0
 43 96  1  0  0  0
 44 97  1  0  0  0
 44 98  1  0  0  0
 45 99  1  0  0  0
 46100  1  0  0  0
 49101  1  0  0  0
 53102  1  0  0  0
M  END
$$$$
