3bra_ligand
  -I-interpret- 

 22 22  0  0  0  0  0  0  0  0999 V2000
  -18.4440   39.8950   92.6820 C   0  0  0  0  0
  -21.8120   41.5980   93.2790 C   0  0  0  0  0
  -21.9140   39.3190   94.1160 C   0  0  0  0  0
  -17.6160   39.3770   93.8710 C   0  0  0  0  0
  -22.5150   40.5600   93.8940 C   0  0  0  0  0
  -23.8170   40.7520   94.2940 O   0  0  0  0  0
  -20.5950   39.1180   93.7170 C   0  0  0  0  0
  -20.4890   41.3790   92.8820 C   0  0  0  0  0
  -19.8750   40.1400   93.1030 C   0  0  0  0  0
  -16.1700   39.2890   93.5490 N   0  3  0  0  0
  -18.4305   39.1484   91.8880 H   0  0  0  0  0
  -18.0122   40.8319   92.3302 H   0  0  0  0  0
  -22.2872   42.5644   93.1109 H   0  0  0  0  0
  -22.4719   38.5156   94.5969 H   0  0  0  0  0
  -17.9698   38.3769   94.1213 H   0  0  0  0  0
  -17.7377   40.0748   94.6994 H   0  0  0  0  0
  -24.1496   39.9457   94.6951 H   0  0  0  0  0
  -20.1213   38.1511   93.8869 H   0  0  0  0  0
  -19.9310   42.1796   92.3964 H   0  0  0  0  0
  -15.6621   38.9425   94.3629 H   0  0  0  0  0
  -16.0357   38.6499   92.7655 H   0  0  0  0  0
  -15.8218   40.2143   93.2981 H   0  0  0  0  0
  1  4  1  0  0  0
  9  1  1  0  0  0
  5  2  4  0  0  0
  2  8  4  0  0  0
  3  5  4  0  0  0
  7  3  4  0  0  0
  4 10  1  0  0  0
  5  6  1  0  0  0
  7  9  4  0  0  0
  8  9  4  0  0  0
  1 11  1  0  0  0
  1 12  1  0  0  0
  2 13  1  0  0  0
  3 14  1  0  0  0
  4 15  1  0  0  0
  4 16  1  0  0  0
  6 17  1  0  0  0
  7 18  1  0  0  0
  8 19  1  0  0  0
 10 20  1  0  0  0
 10 21  1  0  0  0
 10 22  1  0  0  0
M  END
$$$$
