4io6_ligand
  -I-interpret- 

 21 20  0  0  0  0  0  0  0  0999 V2000
    3.5260   49.1790   -7.5450 N   0  3  0  0  0
    3.2300   50.6250   -7.4610 C   0  0  0  0  0
    1.7780   50.8490   -7.1330 C   0  0  0  0  0
    0.9700   49.8790   -7.0420 O   0  0  0  0  0
    3.5900   51.3800   -8.7460 C   0  0  0  0  0
    5.0490   51.7420   -8.8040 C   0  0  0  0  0
    5.3670   53.0400   -7.5290 S   0  0  0  0  0
    7.1550   52.9210   -7.3760 C   0  0  0  0  0
    1.3340   51.9900   -6.9570 O   0  0  0  0  0
    3.2680   48.7288   -6.6669 H   0  0  0  0  0
    2.9908   48.7675   -8.3096 H   0  0  0  0  0
    4.5228   49.0466   -7.7163 H   0  0  0  0  0
    3.8552   51.0228   -6.6616 H   0  0  0  0  0
    1.4399   49.0568   -7.1993 H   0  0  0  0  0
    3.0108   52.3031   -8.7701 H   0  0  0  0  0
    3.3680   50.7314   -9.5934 H   0  0  0  0  0
    5.3045   52.1173   -9.7949 H   0  0  0  0  0
    5.6629   50.8630   -8.6075 H   0  0  0  0  0
    7.4247   51.9149   -7.0549 H   0  0  0  0  0
    7.6158   53.1315   -8.3411 H   0  0  0  0  0
    7.5043   53.6447   -6.6396 H   0  0  0  0  0
  1  2  1  0  0  0
  2  3  1  0  0  0
  2  5  1  0  0  0
  3  4  1  0  0  0
  3  9  2  0  0  0
  5  6  1  0  0  0
  6  7  1  0  0  0
  7  8  1  0  0  0
  1 10  1  0  0  0
  1 11  1  0  0  0
  1 12  1  0  0  0
  2 13  1  0  0  0
  4 14  1  0  0  0
  5 15  1  0  0  0
  5 16  1  0  0  0
  6 17  1  0  0  0
  6 18  1  0  0  0
  8 19  1  0  0  0
  8 20  1  0  0  0
  8 21  1  0  0  0
M  END
$$$$
