### 
### Created by X-TOOL on Mon Sep 10 21:12:57 2018
### 

@<TRIPOS>MOLECULE
2pj3_ligand
   61    62     1     0     0
SMALL
GAST_HUCK


@<TRIPOS>ATOM
      1 C37        37.5110   13.3620   67.7130 C.ar      1 86A        -0.0602
      2 C38        38.3310   13.4990   68.8630 C.ar      1 86A        -0.0686
      3 C39        39.7370   13.6230   68.7210 C.ar      1 86A        -0.0687
      4 C40        40.3240   13.6090   67.4290 C.ar      1 86A        -0.0686
      5 C41        39.5050   13.4710   66.2780 C.ar      1 86A        -0.0602
      6 C36        38.0960   13.3480   66.4190 C.ar      1 86A        -0.0408
      7 C33        37.2050   13.1890   65.1740 C.3       1 86A        -0.0022
      8 C24        36.8910   14.5440   64.5310 C.3       1 86A         0.0469
      9 C30        35.7230   14.4280   63.5520 C.2       1 86A         0.1794
     10 O31        34.5630   14.3310   63.9640 O.2       1 86A        -0.3969
     11 N29        36.0650   14.4490   62.2550 N.am      1 86A        -0.2657
     12 C25        35.0500   14.3490   61.1890 C.3       1 86A         0.1334
     13 C26        35.1060   15.5550   60.2250 C.3       1 86A        -0.0051
     14 C28        34.5730   16.8140   60.9250 C.3       1 86A        -0.0590
     15 C27        36.5070   15.8110   59.6650 C.3       1 86A        -0.0590
     16 P24        35.1690   12.7100   60.3590 P.3       1 86A         0.1521
     17 O34        34.1830   12.6440   59.2580 O.co2     1 86A        -0.6186
     18 O35        35.0810   11.7110   61.4490 O.co2     1 86A        -0.6186
     19 O23        36.6410   12.6290   59.7360 O.3       1 86A        -0.2435
     20 C1         37.0580   11.3380   59.2780 C.3       1 86A         0.2349
     21 C2         37.6470   10.5010   60.4460 C.2       1 86A         0.3908
     22 O14        37.3920    9.2760   60.4400 O.co2     1 86A        -0.2562
     23 O13        38.3080   11.1060   61.3170 O.co2     1 86A        -0.2562
     24 C3         38.0310   11.4280   58.0800 C.ar      1 86A         0.0004
     25 C8         38.7260   10.2690   57.6830 C.ar      1 86A        -0.0331
     26 C4         38.2100   12.6350   57.3500 C.ar      1 86A        -0.0664
     27 C5         39.0880   12.6590   56.2290 C.ar      1 86A        -0.0769
     28 C6         39.7870   11.4770   55.8430 C.ar      1 86A        -0.0455
     29 C7         39.6030   10.2780   56.5770 C.ar      1 86A         0.0445
     30 N9         40.2250    9.1390   56.2240 N.pl3     1 86A        -0.3025
     31 C10        41.0350    8.4510   57.0590 C.cat     1 86A         0.1283
     32 N12        41.3580    8.9280   58.2760 N.pl3     1 86A        -0.3577
     33 N11        41.5490    7.2950   56.6570 N.pl3     1 86A        -0.3577
     34 H1         36.4366   13.2679   67.8224 H         1 86A         0.0557
     35 H2         37.8830   13.5089   69.8500 H         1 86A         0.0599
     36 H3         40.3632   13.7285   69.5996 H         1 86A         0.0559
     37 H4         41.3985   13.7038   67.3211 H         1 86A         0.0599
     38 H5         39.9541   13.4594   65.2915 H         1 86A         0.0557
     39 H6         36.2616   12.7063   65.4689 H         1 86A         0.0451
     40 H7         37.7263   12.5573   64.4397 H         1 86A         0.0451
     41 H8         37.7800   14.9000   63.9898 H         1 86A         0.0525
     42 H9         36.6290   15.2645   65.3198 H         1 86A         0.0525
     43 H10        37.0295   14.5343   62.0051 H         1 86A         0.1870
     44 H11        34.0638   14.3866   61.6747 H         1 86A         0.0789
     45 H12        34.4455   15.3310   59.3744 H         1 86A         0.0334
     46 H13        34.6172   17.6660   60.2307 H         1 86A         0.0234
     47 H14        35.1892   17.0301   61.8102 H         1 86A         0.0234
     48 H15        33.5309   16.6476   61.2354 H         1 86A         0.0234
     49 H16        36.8748   14.9015   59.1674 H         1 86A         0.0234
     50 H17        37.1870   16.0797   60.4868 H         1 86A         0.0234
     51 H18        36.4663   16.6357   58.9382 H         1 86A         0.0234
     52 H19        36.1591   10.8133   58.9222 H         1 86A         0.1046
     53 H20        38.5842    9.3495   58.2393 H         1 86A         0.0482
     54 H21        37.6802   13.5334   57.6456 H         1 86A         0.0471
     55 H22        39.2253   13.5766   55.6684 H         1 86A         0.0573
     56 H23        40.4569   11.4954   54.9910 H         1 86A         0.0487
     57 H24        40.0771    8.7738   55.2724 H         1 86A         0.1952
     58 H25        41.9773    8.3848   58.8943 H         1 86A         0.1636
     59 H26        40.9858    9.8361   58.5887 H         1 86A         0.1636
     60 H27        41.3092    6.9200   55.7281 H         1 86A         0.1636
     61 H28        42.1876    6.7730   57.2740 H         1 86A         0.1636
@<TRIPOS>BOND
     1    1    2 ar 
     2    1    6 ar 
     3    2    3 ar 
     4    3    4 ar 
     5    4    5 ar 
     6    5    6 ar 
     7    6    7 1  
     8    7    8 1  
     9    8    9 1  
    10    9   10 2  
    11    9   11 am 
    12   11   12 1  
    13   12   13 1  
    14   12   16 1  
    15   13   14 1  
    16   13   15 1  
    17   16   17 ar 
    18   16   18 ar 
    19   16   19 1  
    20   19   20 1  
    21   20   21 1  
    22   20   24 1  
    23   21   22 ar 
    24   21   23 ar 
    25   24   25 ar 
    26   24   26 ar 
    27   25   29 ar 
    28   26   27 ar 
    29   27   28 ar 
    30   28   29 ar 
    31   29   30 1  
    32   30   31 ar 
    33   31   32 ar 
    34   31   33 ar 
    35    1   34 1  
    36    2   35 1  
    37    3   36 1  
    38    4   37 1  
    39    5   38 1  
    40    7   39 1  
    41    7   40 1  
    42    8   41 1  
    43    8   42 1  
    44   11   43 1  
    45   12   44 1  
    46   13   45 1  
    47   14   46 1  
    48   14   47 1  
    49   14   48 1  
    50   15   49 1  
    51   15   50 1  
    52   15   51 1  
    53   20   52 1  
    54   25   53 1  
    55   26   54 1  
    56   27   55 1  
    57   28   56 1  
    58   30   57 1  
    59   32   58 1  
    60   32   59 1  
    61   33   60 1  
    62   33   61 1  
@<TRIPOS>SUBSTRUCTURE
     1 86A         1

