2pj3_ligand
  -I-interpret- 

 62 63  0  0  0  0  0  0  0  0999 V2000
   37.5110   13.3620   67.7130 C   0  0  0  0  0
   38.3310   13.4990   68.8630 C   0  0  0  0  0
   39.7370   13.6230   68.7210 C   0  0  0  0  0
   40.3240   13.6090   67.4290 C   0  0  0  0  0
   39.5050   13.4710   66.2780 C   0  0  0  0  0
   38.0960   13.3480   66.4190 C   0  0  0  0  0
   37.2050   13.1890   65.1740 C   0  0  0  0  0
   36.8910   14.5440   64.5310 C   0  0  0  0  0
   35.7230   14.4280   63.5520 C   0  0  0  0  0
   34.5630   14.3310   63.9640 O   0  0  0  0  0
   36.0650   14.4490   62.2550 N   0  0  0  0  0
   35.0500   14.3490   61.1890 C   0  0  0  0  0
   35.1060   15.5550   60.2250 C   0  0  0  0  0
   34.5730   16.8140   60.9250 C   0  0  0  0  0
   36.5070   15.8110   59.6650 C   0  0  0  0  0
   35.1690   12.7100   60.3590 P   0  0  0  0  0
   34.1830   12.6440   59.2580 O   0  0  0  0  0
   35.0810   11.7110   61.4490 O   0  0  0  0  0
   36.6410   12.6290   59.7360 O   0  0  0  0  0
   37.0580   11.3380   59.2780 C   0  0  0  0  0
   37.6470   10.5010   60.4460 C   0  0  0  0  0
   37.3920    9.2760   60.4400 O   0  0  0  0  0
   38.3080   11.1060   61.3170 O   0  0  0  0  0
   38.0310   11.4280   58.0800 C   0  0  0  0  0
   38.7260   10.2690   57.6830 C   0  0  0  0  0
   38.2100   12.6350   57.3500 C   0  0  0  0  0
   39.0880   12.6590   56.2290 C   0  0  0  0  0
   39.7870   11.4770   55.8430 C   0  0  0  0  0
   39.6030   10.2780   56.5770 C   0  0  0  0  0
   40.2250    9.1390   56.2240 N   0  0  0  0  0
   41.0350    8.4510   57.0590 C   0  0  0  0  0
   41.3580    8.9280   58.2760 N   0  0  0  0  0
   41.5490    7.2950   56.6570 N   0  0  0  0  0
   36.4307   13.2674   67.8230 H   0  0  0  0  0
   37.8805   13.5090   69.8555 H   0  0  0  0  0
   40.3666   13.7291   69.6044 H   0  0  0  0  0
   41.4044   13.7043   67.3205 H   0  0  0  0  0
   39.9565   13.4593   65.2860 H   0  0  0  0  0
   36.2665   12.7255   65.4781 H   0  0  0  0  0
   37.7359   12.5760   64.4456 H   0  0  0  0  0
   37.7714   14.8851   63.9863 H   0  0  0  0  0
   36.6202   15.2495   65.3165 H   0  0  0  0  0
   37.0488   14.5361   62.0001 H   0  0  0  0  0
   34.0559   14.4018   61.6329 H   0  0  0  0  0
   34.4713   15.3089   59.3737 H   0  0  0  0  0
   33.5404   16.6478   61.2321 H   0  0  0  0  0
   35.1844   17.0270   61.8019 H   0  0  0  0  0
   34.6173   17.6575   60.2360 H   0  0  0  0  0
   37.1942   16.0121   60.4868 H   0  0  0  0  0
   36.8433   14.9320   59.1152 H   0  0  0  0  0
   36.4778   16.6707   58.9955 H   0  0  0  0  0
   35.7784   11.8743   62.0882 H   0  0  0  0  0
   36.1726   10.8186   58.9114 H   0  0  0  0  0
   36.8695    9.0628   59.6633 H   0  0  0  0  0
   38.5834    9.3444   58.2424 H   0  0  0  0  0
   37.6773   13.5383   57.6472 H   0  0  0  0  0
   39.2260   13.5817   55.6653 H   0  0  0  0  0
   40.4606   11.4955   54.9863 H   0  0  0  0  0
   40.0785    8.7773   55.2816 H   0  0  0  0  0
   41.9914    8.4022   58.8782 H   0  0  0  0  0
   40.9692    9.8152   58.5957 H   0  0  0  0  0
   41.3312    6.9357   55.7275 H   0  0  0  0  0
  1  2  4  0  0  0
  1  6  4  0  0  0
  2  3  4  0  0  0
  3  4  4  0  0  0
  4  5  4  0  0  0
  5  6  4  0  0  0
  6  7  1  0  0  0
  7  8  1  0  0  0
  8  9  1  0  0  0
  9 10  2  0  0  0
  9 11  1  0  0  0
 11 12  1  0  0  0
 12 13  1  0  0  0
 12 16  1  0  0  0
 13 14  1  0  0  0
 13 15  1  0  0  0
 16 17  2  0  0  0
 16 18  1  0  0  0
 16 19  1  0  0  0
 19 20  1  0  0  0
 20 21  1  0  0  0
 20 24  1  0  0  0
 21 22  1  0  0  0
 21 23  2  0  0  0
 24 25  4  0  0  0
 24 26  4  0  0  0
 25 29  4  0  0  0
 26 27  4  0  0  0
 27 28  4  0  0  0
 28 29  4  0  0  0
 29 30  1  0  0  0
 30 31  1  0  0  0
 31 32  1  0  0  0
 31 33  2  0  0  0
  1 34  1  0  0  0
  2 35  1  0  0  0
  3 36  1  0  0  0
  4 37  1  0  0  0
  5 38  1  0  0  0
  7 39  1  0  0  0
  7 40  1  0  0  0
  8 41  1  0  0  0
  8 42  1  0  0  0
 11 43  1  0  0  0
 12 44  1  0  0  0
 13 45  1  0  0  0
 14 46  1  0  0  0
 14 47  1  0  0  0
 14 48  1  0  0  0
 15 49  1  0  0  0
 15 50  1  0  0  0
 15 51  1  0  0  0
 18 52  1  0  0  0
 20 53  1  0  0  0
 22 54  1  0  0  0
 25 55  1  0  0  0
 26 56  1  0  0  0
 27 57  1  0  0  0
 28 58  1  0  0  0
 30 59  1  0  0  0
 32 60  1  0  0  0
 32 61  1  0  0  0
 33 62  1  0  0  0
M  END
$$$$
