2exm_ligand
  -I-interpret- 

 27 28  0  0  0  0  0  0  0  0999 V2000
   98.5460   97.0330   80.8880 C   0  0  0  0  0
   99.1350   98.4420   81.0110 C   0  0  0  0  0
   98.4400   99.2800   82.0650 C   0  0  0  0  0
   99.7840   99.0100   79.9600 C   0  0  0  0  0
  101.2360   98.9240   79.5100 C   0  0  0  0  0
  102.3640   99.2620   80.4040 N   0  0  0  0  0
  103.4110  100.1920   80.0820 C   0  0  0  0  0
  104.7200  100.2370   80.6810 C   0  0  0  0  0
  105.3290   99.4630   81.6920 N   0  0  0  0  0
  105.6200  101.2160   80.3090 C   0  0  0  0  0
  106.7730  101.0650   80.9900 N   0  0  0  0  0
  106.5090  100.0380   81.8390 C   0  0  0  0  0
  105.2290  102.1550   79.2940 N   0  0  0  0  0
  104.0390  102.0050   78.7480 C   0  0  0  0  0
  103.1920  101.1030   79.1230 N   0  0  0  0  0
   97.8071   97.0181   80.0868 H   0  0  0  0  0
   99.3437   96.3256   80.6614 H   0  0  0  0  0
   98.0696   96.7564   81.8285 H   0  0  0  0  0
   99.1683   99.9319   82.5475 H   0  0  0  0  0
   97.6652   99.8847   81.5938 H   0  0  0  0  0
   97.9884   98.6241   82.8092 H   0  0  0  0  0
   99.1543   99.6370   79.3287 H   0  0  0  0  0
  101.3021   99.6762   78.7239 H   0  0  0  0  0
  101.3777   97.8610   79.3148 H   0  0  0  0  0
  102.4017   98.8025   81.3138 H   0  0  0  0  0
  107.2246   99.7097   82.5928 H   0  0  0  0  0
  103.7539  102.6764   77.9380 H   0  0  0  0  0
  1  2  1  0  0  0
  2  3  1  0  0  0
  2  4  2  0  0  0
  4  5  1  0  0  0
  5  6  1  0  0  0
  6  7  1  0  0  0
  7  8  4  0  0  0
  7 15  4  0  0  0
  8  9  4  0  0  0
  8 10  4  0  0  0
  9 12  4  0  0  0
 10 11  4  0  0  0
 10 13  4  0  0  0
 11 12  4  0  0  0
 13 14  4  0  0  0
 14 15  4  0  0  0
  1 16  1  0  0  0
  1 17  1  0  0  0
  1 18  1  0  0  0
  3 19  1  0  0  0
  3 20  1  0  0  0
  3 21  1  0  0  0
  4 22  1  0  0  0
  5 23  1  0  0  0
  5 24  1  0  0  0
  6 25  1  0  0  0
 12 26  1  0  0  0
 14 27  1  0  0  0
M  END
$$$$
