4qfp_ligand
  -I-interpret- 

 34 33  0  0  0  0  0  0  0  0999 V2000
   14.8490    7.3070  -11.6520 N   0  3  0  0  0
   13.9260    6.1850  -11.5110 C   0  0  0  0  0
   13.0950    6.3010  -10.2410 C   0  0  0  0  0
   13.3860    7.1030   -9.3590 O   0  0  0  0  0
   14.6780    4.8480  -11.4180 C   0  0  0  0  0
   15.4530    4.5530  -12.6990 C   0  0  0  0  0
   15.6110    4.8580  -10.2120 C   0  0  0  0  0
   12.0610    5.4700  -10.1440 N   0  0  0  0  0
   11.2650    5.3780   -8.9270 C   0  0  0  0  0
   11.8170    4.2670   -8.0330 C   0  0  0  0  0
   11.4550    4.1240   -6.8520 O   0  0  0  0  0
    9.7920    5.0790   -9.2490 C   0  0  0  0  0
    9.7240    3.9400  -10.1120 O   0  0  0  0  0
    9.1410    6.2740   -9.9480 C   0  0  0  0  0
   12.6400    3.4700   -8.4940 O   0  0  0  0  0
   14.3189    8.1765  -11.7108 H   0  0  0  0  0
   15.4690    7.3395  -10.8427 H   0  0  0  0  0
   15.4018    7.1864  -12.5007 H   0  0  0  0  0
   13.2886    6.2128  -12.3948 H   0  0  0  0  0
   13.9439    4.0524  -11.2910 H   0  0  0  0  0
   16.2126    5.3205  -12.8475 H   0  0  0  0  0
   15.9319    3.5774  -12.6159 H   0  0  0  0  0
   14.7662    4.5511  -13.5454 H   0  0  0  0  0
   16.0906    3.8838  -10.1172 H   0  0  0  0  0
   16.3713    5.6270  -10.3488 H   0  0  0  0  0
   15.0357    5.0704   -9.3109 H   0  0  0  0  0
   11.8191    4.8822  -10.9418 H   0  0  0  0  0
   11.3220    6.3373   -8.4126 H   0  0  0  0  0
   10.8187    4.8073   -6.6286 H   0  0  0  0  0
    9.2608    4.8825   -8.3177 H   0  0  0  0  0
    8.8056    3.7490  -10.3162 H   0  0  0  0  0
    9.1908    7.1460   -9.2960 H   0  0  0  0  0
    9.6711    6.4828  -10.8772 H   0  0  0  0  0
    8.0988    6.0416  -10.1671 H   0  0  0  0  0
  1  2  1  0  0  0
  2  3  1  0  0  0
  2  5  1  0  0  0
  3  4  2  0  0  0
  3  8  1  0  0  0
  5  6  1  0  0  0
  5  7  1  0  0  0
  8  9  1  0  0  0
  9 10  1  0  0  0
  9 12  1  0  0  0
 10 11  1  0  0  0
 10 15  2  0  0  0
 12 13  1  0  0  0
 12 14  1  0  0  0
  1 16  1  0  0  0
  1 17  1  0  0  0
  1 18  1  0  0  0
  2 19  1  0  0  0
  5 20  1  0  0  0
  6 21  1  0  0  0
  6 22  1  0  0  0
  6 23  1  0  0  0
  7 24  1  0  0  0
  7 25  1  0  0  0
  7 26  1  0  0  0
  8 27  1  0  0  0
  9 28  1  0  0  0
 11 29  1  0  0  0
 12 30  1  0  0  0
 13 31  1  0  0  0
 14 32  1  0  0  0
 14 33  1  0  0  0
 14 34  1  0  0  0
M  END
$$$$
