4hrd_ligand
  -I-interpret- 

 85 84  0  0  0  0  0  0  0  0999 V2000
   58.2800 -134.4440   34.2720 C   0  0  0  0  0
   59.3560 -135.2370   34.9120 C   0  0  0  0  0
   59.3150 -136.4110   34.9350 O   0  0  0  0  0
   57.1110 -134.4230   35.2270 C   0  0  0  0  0
   55.9470 -133.6430   34.6570 C   0  0  0  0  0
   54.8490 -133.5340   35.6840 C   0  0  0  0  0
   53.5420 -133.3600   34.9630 C   0  0  0  0  0
   60.3320 -134.5980   35.4510 N   0  0  0  0  0
   61.3740 -135.2370   36.1430 C   0  0  0  0  0
   60.9640 -135.3590   37.5360 C   0  0  0  0  0
   60.3860 -134.4300   37.9830 O   0  0  0  0  0
   62.3960 -134.1660   36.0180 C   0  0  0  0  0
   62.6370 -133.9590   34.5570 C   0  0  0  0  0
   63.7020 -134.5070   36.6500 C   0  0  0  0  0
   61.2340 -136.4620   38.2200 N   0  0  0  0  0
   61.0280 -136.5720   39.6380 C   0  0  0  0  0
   60.2700 -137.8490   39.9980 C   0  0  0  0  0
   59.1810 -138.3990   39.0740 C   0  0  0  0  0
   59.5970 -140.0360   38.6930 S   0  0  0  0  0
   59.8490 -140.1620   37.2370 O   0  0  0  0  0
   58.4540 -141.1870   39.1990 C   0  0  0  0  0
   62.3180 -136.5360   40.4030 C   0  0  0  0  0
   63.3560 -136.7670   39.8750 O   0  0  0  0  0
   62.2880 -136.2640   41.6940 N   0  0  0  0  0
   62.0030 -136.9470   44.2510 O   0  0  0  0  0
   62.7250 -139.9190   41.8750 O   0  0  0  0  0
   63.4410 -136.2380   42.5690 C   0  0  0  0  0
   63.3070 -137.0970   43.8000 C   0  0  0  0  0
   63.5140 -133.7700   42.2000 C   0  0  0  0  0
   63.6160 -132.4860   42.9460 C   0  0  0  0  0
   64.7260 -133.9120   41.3560 C   0  0  0  0  0
   63.5450 -134.8760   43.1890 C   0  0  0  0  0
   62.4670 -139.2750   43.1080 C   0  0  0  0  0
   64.8100 -138.7290   42.6430 C   0  0  0  0  0
   63.6730 -138.5580   43.6280 C   0  0  0  0  0
   57.9897 -134.8893   33.3204 H   0  0  0  0  0
   58.6229 -133.4306   34.0633 H   0  0  0  0  0
   57.4288 -133.9436   36.1529 H   0  0  0  0  0
   56.7879 -135.4493   35.4014 H   0  0  0  0  0
   55.5652 -134.1598   33.7765 H   0  0  0  0  0
   56.2840 -132.6430   34.3841 H   0  0  0  0  0
   55.0318 -132.6804   36.3368 H   0  0  0  0  0
   54.8202 -134.4350   36.2968 H   0  0  0  0  0
   53.5798 -132.4537   34.3585 H   0  0  0  0  0
   53.3667 -134.2212   34.3183 H   0  0  0  0  0
   52.7348 -133.2793   35.6911 H   0  0  0  0  0
   60.3508 -133.5812   35.3728 H   0  0  0  0  0
   61.6776 -136.2260   35.7997 H   0  0  0  0  0
   62.0150 -133.2818   36.5291 H   0  0  0  0  0
   62.9960 -134.8880   34.1141 H   0  0  0  0  0
   61.7058 -133.6613   34.0750 H   0  0  0  0  0
   63.3843 -133.1773   34.4205 H   0  0  0  0  0
   63.5523 -134.6909   37.7139 H   0  0  0  0  0
   64.1094 -135.4016   36.1791 H   0  0  0  0  0
   64.3960 -133.6770   36.5175 H   0  0  0  0  0
   61.6045 -137.2686   37.7174 H   0  0  0  0  0
   60.4305 -135.7058   39.9222 H   0  0  0  0  0
   59.7380 -137.5937   40.9144 H   0  0  0  0  0
   61.0369 -138.6235   39.9965 H   0  0  0  0  0
   59.1158 -137.8014   38.1648 H   0  0  0  0  0
   58.2087 -138.3578   39.5650 H   0  0  0  0  0
   60.0792 -141.0709   37.0307 H   0  0  0  0  0
   58.3389 -141.1313   40.2815 H   0  0  0  0  0
   57.4969 -140.9818   38.7195 H   0  0  0  0  0
   58.7956 -142.1836   38.9194 H   0  0  0  0  0
   61.3797 -136.0554   42.1085 H   0  0  0  0  0
   61.8746 -137.4807   45.0385 H   0  0  0  0  0
   61.9296 -140.3658   41.5760 H   0  0  0  0  0
   64.2669 -136.5619   41.9357 H   0  0  0  0  0
   64.0407 -136.7529   44.5290 H   0  0  0  0  0
   62.6047 -133.7917   41.5993 H   0  0  0  0  0
   64.5091 -132.5002   43.5707 H   0  0  0  0  0
   63.6794 -131.6599   42.2378 H   0  0  0  0  0
   62.7338 -132.3610   43.5739 H   0  0  0  0  0
   64.7817 -133.0760   40.6588 H   0  0  0  0  0
   65.6114 -133.9163   41.9917 H   0  0  0  0  0
   64.6721 -134.8477   40.7996 H   0  0  0  0  0
   64.5026 -134.8247   43.7072 H   0  0  0  0  0
   62.6858 -134.7500   43.8477 H   0  0  0  0  0
   62.1811 -140.0341   43.8361 H   0  0  0  0  0
   61.6756 -138.5421   42.9511 H   0  0  0  0  0
   64.5124 -138.3294   41.6736 H   0  0  0  0  0
   65.6866 -138.1920   43.0052 H   0  0  0  0  0
   65.0467 -139.7883   42.5436 H   0  0  0  0  0
   63.9947 -138.9614   44.5882 H   0  0  0  0  0
  2  1  1  0  0  0
  1  4  1  0  0  0
  2  3  2  0  0  0
  8  2  1  0  0  0
  4  5  1  0  0  0
  5  6  1  0  0  0
  6  7  1  0  0  0
  9  8  1  0  0  0
 10  9  1  0  0  0
  9 12  1  0  0  0
 10 11  2  0  0  0
 15 10  1  0  0  0
 12 13  1  0  0  0
 12 14  1  0  0  0
 16 15  1  0  0  0
 16 17  1  0  0  0
 22 16  1  0  0  0
 17 18  1  0  0  0
 18 19  1  0  0  0
 19 20  1  0  0  0
 19 21  1  0  0  0
 22 23  2  0  0  0
 24 22  1  0  0  0
 27 24  1  0  0  0
 28 25  1  0  0  0
 33 26  1  0  0  0
 28 27  1  0  0  0
 27 32  1  0  0  0
 35 28  1  0  0  0
 29 30  1  0  0  0
 29 31  1  0  0  0
 32 29  1  0  0  0
 33 35  1  0  0  0
 35 34  1  0  0  0
  1 36  1  0  0  0
  1 37  1  0  0  0
  4 38  1  0  0  0
  4 39  1  0  0  0
  5 40  1  0  0  0
  5 41  1  0  0  0
  6 42  1  0  0  0
  6 43  1  0  0  0
  7 44  1  0  0  0
  7 45  1  0  0  0
  7 46  1  0  0  0
  8 47  1  0  0  0
  9 48  1  0  0  0
 12 49  1  0  0  0
 13 50  1  0  0  0
 13 51  1  0  0  0
 13 52  1  0  0  0
 14 53  1  0  0  0
 14 54  1  0  0  0
 14 55  1  0  0  0
 15 56  1  0  0  0
 16 57  1  0  0  0
 17 58  1  0  0  0
 17 59  1  0  0  0
 18 60  1  0  0  0
 18 61  1  0  0  0
 20 62  1  0  0  0
 21 63  1  0  0  0
 21 64  1  0  0  0
 21 65  1  0  0  0
 24 66  1  0  0  0
 25 67  1  0  0  0
 26 68  1  0  0  0
 27 69  1  0  0  0
 28 70  1  0  0  0
 29 71  1  0  0  0
 30 72  1  0  0  0
 30 73  1  0  0  0
 30 74  1  0  0  0
 31 75  1  0  0  0
 31 76  1  0  0  0
 31 77  1  0  0  0
 32 78  1  0  0  0
 32 79  1  0  0  0
 33 80  1  0  0  0
 33 81  1  0  0  0
 34 82  1  0  0  0
 34 83  1  0  0  0
 34 84  1  0  0  0
 35 85  1  0  0  0
M  END
$$$$
