4zl4_ligand
  -I-interpret- 

 99100  0  0  0  0  0  0  0  0999 V2000
    0.5020  107.3970   39.2230 C   0  0  0  0  0
   -1.5940  104.1680   40.9690 C   0  0  0  0  0
   -0.9180  105.3330   41.0340 O   0  0  0  0  0
   -1.5560  106.3500   40.2500 C   0  0  0  0  0
   -0.7000  106.6940   39.0480 C   0  0  0  0  0
   -1.1080  106.3070   37.7570 C   0  0  0  0  0
   -0.3160  106.6280   36.6440 C   0  0  0  0  0
    0.8850  107.3330   36.8240 C   0  0  0  0  0
    1.2960  107.7180   38.1110 C   0  0  0  0  0
   -2.8240  104.1470   40.9980 O   0  0  0  0  0
   -0.8960  102.9900   40.8630 N   0  0  0  0  0
   -1.6350  101.7240   40.8130 C   0  0  0  0  0
   -0.8570  100.6740   40.0130 C   0  0  0  0  0
   -0.3900  101.2040   38.6590 C   0  0  0  0  0
   -1.7470  101.0840   42.2230 C   0  0  0  0  0
   -1.5470  101.5320   37.9050 O   0  0  0  0  0
   -2.4750  100.4880   37.8700 N   0  0  0  0  0
   -2.6660   99.8710   36.6860 C   0  0  0  0  0
   -1.9660  100.2500   35.6040 N   0  0  0  0  0
   -3.5590   98.8760   36.5760 N   0  0  0  0  0
   -0.9720  101.3290   43.1480 O   0  0  0  0  0
   -2.7640  100.1870   42.4370 N   0  0  0  0  0
   -2.9280   99.4850   43.7040 C   0  0  0  0  0
   -3.4310   98.0880   43.2350 C   0  0  0  0  0
   -4.6250   97.8800   42.9900 O   0  0  0  0  0
   -3.9450  100.1490   44.6340 C   0  0  0  0  0
   -3.7500   99.4340   45.9920 C   0  0  0  0  0
   -3.6520  101.6620   44.7740 C   0  0  0  0  0
   -2.5120   97.0820   43.0550 N   0  0  0  0  0
   -2.9400   95.7660   42.5640 C   0  0  0  0  0
   -2.2220   95.4950   41.2210 C   0  0  0  0  0
   -2.4610   96.6040   40.1770 C   0  0  0  0  0
   -1.5460   96.3720   38.9600 C   0  0  0  0  0
   -3.9290   96.6230   39.7060 C   0  0  0  0  0
   -2.5290   94.6740   43.5630 C   0  0  0  0  0
   -1.1600   94.8820   43.9100 O   0  0  0  0  0
   -3.4250   94.7120   44.8140 C   0  0  0  0  0
   -4.7930   94.0410   44.5080 C   0  0  0  0  0
   -5.7970   94.7280   44.3070 O   0  0  0  0  0
   -6.2320   91.5420   46.6010 C   0  0  0  0  0
   -7.3760   92.1860   47.0820 C   0  0  0  0  0
   -7.3230   92.8510   48.3150 C   0  0  0  0  0
   -6.1280   92.8730   49.0520 C   0  0  0  0  0
   -4.9820   92.2340   48.5620 C   0  0  0  0  0
   -5.0370   91.5680   47.3320 C   0  0  0  0  0
   -6.2870   90.8410   45.2460 C   0  0  0  0  0
   -6.1430   91.9710   44.2110 C   0  0  0  0  0
   -4.8740   92.6610   44.4750 N   0  0  0  0  0
    0.8190  107.6938   40.2228 H   0  0  0  0  0
   -1.6893  107.2424   40.8616 H   0  0  0  0  0
   -2.5235  105.9833   39.9071 H   0  0  0  0  0
   -2.0397  105.7577   37.6221 H   0  0  0  0  0
   -0.6318  106.3313   35.6438 H   0  0  0  0  0
    1.5016  107.5828   35.9606 H   0  0  0  0  0
    2.2293  108.2647   38.2457 H   0  0  0  0  0
    0.1231  102.9954   40.8196 H   0  0  0  0  0
   -2.6052  101.9660   40.3791 H   0  0  0  0  0
   -1.5192   99.8269   39.8339 H   0  0  0  0  0
    0.0254  100.3958   40.5894 H   0  0  0  0  0
    0.2020  100.4507   38.1392 H   0  0  0  0  0
    0.2398  102.0837   38.7914 H   0  0  0  0  0
   -2.9869  100.2042   38.7054 H   0  0  0  0  0
   -2.1160   99.7824   34.7100 H   0  0  0  0  0
   -1.2845  101.0054   35.6764 H   0  0  0  0  0
   -4.0981   98.5822   37.3905 H   0  0  0  0  0
   -3.4275  100.0056   41.6838 H   0  0  0  0  0
   -2.0111   99.4657   44.2931 H   0  0  0  0  0
   -4.9650  100.0642   44.2591 H   0  0  0  0  0
   -3.9434   98.3681   45.8711 H   0  0  0  0  0
   -2.7262   99.5821   46.3354 H   0  0  0  0  0
   -4.4435   99.8498   46.7230 H   0  0  0  0  0
   -2.6529  101.8006   45.1872 H   0  0  0  0  0
   -3.7097  102.1342   43.7933 H   0  0  0  0  0
   -4.3877  102.1132   45.4398 H   0  0  0  0  0
   -1.5278   97.2504   43.2635 H   0  0  0  0  0
   -4.0229   95.7553   42.4407 H   0  0  0  0  0
   -2.6179   94.5645   40.8142 H   0  0  0  0  0
   -1.1512   95.4505   41.4196 H   0  0  0  0  0
   -2.2342   97.5622   40.6445 H   0  0  0  0  0
   -0.5045   96.3934   39.2808 H   0  0  0  0  0
   -1.7713   95.4017   38.5174 H   0  0  0  0  0
   -1.7169   97.1572   38.2236 H   0  0  0  0  0
   -4.1770   95.6621   39.2551 H   0  0  0  0  0
   -4.5811   96.8039   40.5605 H   0  0  0  0  0
   -4.0631   97.4163   38.9706 H   0  0  0  0  0
   -2.6511   93.6900   43.1103 H   0  0  0  0  0
   -0.8835   94.2079   44.5351 H   0  0  0  0  0
   -3.5912   95.7492   45.1049 H   0  0  0  0  0
   -2.9338   94.1723   45.6236 H   0  0  0  0  0
   -8.3000   92.1712   46.5040 H   0  0  0  0  0
   -8.2105   93.3516   48.7021 H   0  0  0  0  0
   -6.0920   93.3902   50.0108 H   0  0  0  0  0
   -4.0544   92.2551   49.1341 H   0  0  0  0  0
   -4.1495   91.0692   46.9426 H   0  0  0  0  0
   -7.2161   90.2865   45.1140 H   0  0  0  0  0
   -5.4992   90.0947   45.1435 H   0  0  0  0  0
   -6.9772   92.6679   44.2925 H   0  0  0  0  0
   -6.1488   91.5622   43.2006 H   0  0  0  0  0
   -4.0319   92.1090   44.6380 H   0  0  0  0  0
  5  1  4  0  0  0
  1  9  4  0  0  0
  2  3  1  0  0  0
  2 10  2  0  0  0
 11  2  1  0  0  0
  3  4  1  0  0  0
  4  5  1  0  0  0
  5  6  4  0  0  0
  6  7  4  0  0  0
  7  8  4  0  0  0
  9  8  4  0  0  0
 12 11  1  0  0  0
 12 13  1  0  0  0
 15 12  1  0  0  0
 13 14  1  0  0  0
 14 16  1  0  0  0
 15 21  2  0  0  0
 22 15  1  0  0  0
 16 17  1  0  0  0
 17 18  1  0  0  0
 18 19  1  0  0  0
 18 20  2  0  0  0
 23 22  1  0  0  0
 24 23  1  0  0  0
 23 26  1  0  0  0
 24 25  2  0  0  0
 29 24  1  0  0  0
 26 27  1  0  0  0
 26 28  1  0  0  0
 30 29  1  0  0  0
 30 31  1  0  0  0
 35 30  1  0  0  0
 31 32  1  0  0  0
 32 33  1  0  0  0
 32 34  1  0  0  0
 35 36  1  0  0  0
 37 35  1  0  0  0
 38 37  1  0  0  0
 38 39  2  0  0  0
 48 38  1  0  0  0
 40 41  4  0  0  0
 40 45  4  0  0  0
 46 40  1  0  0  0
 41 42  4  0  0  0
 42 43  4  0  0  0
 44 43  4  0  0  0
 45 44  4  0  0  0
 47 46  1  0  0  0
 47 48  1  0  0  0
  1 49  1  0  0  0
  4 50  1  0  0  0
  4 51  1  0  0  0
  6 52  1  0  0  0
  7 53  1  0  0  0
  8 54  1  0  0  0
  9 55  1  0  0  0
 11 56  1  0  0  0
 12 57  1  0  0  0
 13 58  1  0  0  0
 13 59  1  0  0  0
 14 60  1  0  0  0
 14 61  1  0  0  0
 17 62  1  0  0  0
 19 63  1  0  0  0
 19 64  1  0  0  0
 20 65  1  0  0  0
 22 66  1  0  0  0
 23 67  1  0  0  0
 26 68  1  0  0  0
 27 69  1  0  0  0
 27 70  1  0  0  0
 27 71  1  0  0  0
 28 72  1  0  0  0
 28 73  1  0  0  0
 28 74  1  0  0  0
 29 75  1  0  0  0
 30 76  1  0  0  0
 31 77  1  0  0  0
 31 78  1  0  0  0
 32 79  1  0  0  0
 33 80  1  0  0  0
 33 81  1  0  0  0
 33 82  1  0  0  0
 34 83  1  0  0  0
 34 84  1  0  0  0
 34 85  1  0  0  0
 35 86  1  0  0  0
 36 87  1  0  0  0
 37 88  1  0  0  0
 37 89  1  0  0  0
 41 90  1  0  0  0
 42 91  1  0  0  0
 43 92  1  0  0  0
 44 93  1  0  0  0
 45 94  1  0  0  0
 46 95  1  0  0  0
 46 96  1  0  0  0
 47 97  1  0  0  0
 47 98  1  0  0  0
 48 99  1  0  0  0
M  END
$$$$
