4pkw_ligand
  -I-interpret- 

 55 56  0  0  0  0  0  0  0  0999 V2000
   14.8940   19.1830   29.0150 O   0  0  0  0  0
   14.0660   19.1910   27.9010 N   0  0  0  0  0
   13.0360   18.3490   27.8540 C   0  0  0  0  0
   12.8130   17.5380   28.7370 O   0  0  0  0  0
   12.1370   18.4070   26.6410 C   0  0  0  0  0
   10.7530   18.9180   27.0360 C   0  0  0  0  0
    9.9600   19.1100   25.7720 C   0  0  0  0  0
   10.1470   20.0940   25.0790 O   0  0  0  0  0
    9.0810   18.1660   25.4300 N   0  0  0  0  0
    8.3330   18.2500   24.1820 C   0  0  0  0  0
    7.2310   19.2740   24.2570 C   0  0  0  0  0
    6.8340   19.6740   25.3440 O   0  0  0  0  0
    6.7020   19.6820   23.1050 N   0  0  0  0  0
    7.3980   20.5550   22.1770 C   0  0  0  0  0
    7.6830   16.9170   23.8290 C   0  0  0  0  0
    8.6200   15.7540   24.0590 C   0  0  0  0  0
    8.4540   14.7380   24.9870 C   0  0  0  0  0
    9.4730   13.8370   24.9280 N   0  0  0  0  0
   10.3680   14.1820   23.9890 C   0  0  0  0  0
   11.5570   13.6330   23.5320 C   0  0  0  0  0
   12.2380   14.2780   22.5030 C   0  0  0  0  0
   11.7610   15.4530   21.9180 C   0  0  0  0  0
   10.5790   16.0490   22.3420 C   0  0  0  0  0
    9.8810   15.4260   23.3640 C   0  0  0  0  0
   10.9660   20.2370   27.7790 C   0  0  0  0  0
    9.7140   20.8770   28.3660 C   0  0  0  0  0
    9.2520   20.1460   29.6200 C   0  0  0  0  0
    9.9940   22.3380   28.7040 C   0  0  0  0  0
   15.5854   19.8395   28.9031 H   0  0  0  0  0
   14.2443   19.8333   27.1289 H   0  0  0  0  0
   12.0415   17.4066   26.2189 H   0  0  0  0  0
   12.5717   19.0846   25.9061 H   0  0  0  0  0
   10.2078   18.2283   27.6804 H   0  0  0  0  0
    8.9301   17.3722   26.0525 H   0  0  0  0  0
    9.0601   18.5344   23.4214 H   0  0  0  0  0
    5.7628   19.3660   22.8630 H   0  0  0  0  0
    7.6315   21.4975   22.6723 H   0  0  0  0  0
    8.3213   20.0754   21.8519 H   0  0  0  0  0
    6.7620   20.7452   21.3125 H   0  0  0  0  0
    7.4158   16.9365   22.7724 H   0  0  0  0  0
    6.8096   16.7833   24.4673 H   0  0  0  0  0
    7.6133   14.6690   25.6773 H   0  0  0  0  0
   11.9502   12.7154   23.9695 H   0  0  0  0  0
   13.1741   13.8519   22.1422 H   0  0  0  0  0
   12.3291   15.9136   21.1098 H   0  0  0  0  0
   10.2153   16.9708   21.8881 H   0  0  0  0  0
   11.3582   20.9429   27.0469 H   0  0  0  0  0
   11.6213   20.0137   28.6209 H   0  0  0  0  0
    8.9211   20.8117   27.6209 H   0  0  0  0  0
    9.0273   19.1086   29.3723 H   0  0  0  0  0
   10.0422   20.1788   30.3701 H   0  0  0  0  0
    8.3571   20.6294   30.0118 H   0  0  0  0  0
   10.8037   22.3925   29.4317 H   0  0  0  0  0
   10.2819   22.8706   27.7976 H   0  0  0  0  0
    9.0957   22.7912   29.1234 H   0  0  0  0  0
  1  2  1  0  0  0
  2  3  1  0  0  0
  3  4  2  0  0  0
  3  5  1  0  0  0
  5  6  1  0  0  0
  6  7  1  0  0  0
  6 25  1  0  0  0
  7  8  2  0  0  0
  7  9  1  0  0  0
  9 10  1  0  0  0
 10 11  1  0  0  0
 10 15  1  0  0  0
 11 12  2  0  0  0
 11 13  1  0  0  0
 13 14  1  0  0  0
 15 16  1  0  0  0
 16 17  4  0  0  0
 16 24  4  0  0  0
 17 18  4  0  0  0
 18 19  4  0  0  0
 19 20  4  0  0  0
 19 24  4  0  0  0
 20 21  4  0  0  0
 21 22  4  0  0  0
 22 23  4  0  0  0
 23 24  4  0  0  0
 25 26  1  0  0  0
 26 27  1  0  0  0
 26 28  1  0  0  0
  1 29  1  0  0  0
  2 30  1  0  0  0
  5 31  1  0  0  0
  5 32  1  0  0  0
  6 33  1  0  0  0
  9 34  1  0  0  0
 10 35  1  0  0  0
 13 36  1  0  0  0
 14 37  1  0  0  0
 14 38  1  0  0  0
 14 39  1  0  0  0
 15 40  1  0  0  0
 15 41  1  0  0  0
 17 42  1  0  0  0
 20 43  1  0  0  0
 21 44  1  0  0  0
 22 45  1  0  0  0
 23 46  1  0  0  0
 25 47  1  0  0  0
 25 48  1  0  0  0
 26 49  1  0  0  0
 27 50  1  0  0  0
 27 51  1  0  0  0
 27 52  1  0  0  0
 28 53  1  0  0  0
 28 54  1  0  0  0
 28 55  1  0  0  0
M  END
$$$$
