4i71_ligand
  -I-interpret- 

 37 39  0  0  0  0  0  0  0  0999 V2000
    5.5810   22.0700   17.8970 O   0  0  0  0  0
    5.4850   20.6520   18.0450 C   0  0  0  0  0
    6.6900   19.9700   18.6750 C   0  0  0  0  0
    6.7110   18.4470   18.4840 C   0  0  0  0  0
    8.0170   17.9850   18.1430 O   0  0  0  0  0
    6.7770   20.0990   20.1800 N   0  3  0  0  0
    5.9440   18.9830   20.7260 C   0  0  0  0  0
    6.2110   17.8570   19.8100 C   0  0  0  0  0
    7.1710   16.9830   20.4360 O   0  0  0  0  0
    6.6010   21.4970   20.8240 C   0  0  0  0  0
    5.2170   21.7440   21.3470 C   0  0  0  0  0
    4.2580   22.4830   20.6960 C   0  0  0  0  0
    3.1350   22.4930   21.4570 N   0  0  0  0  0
    3.3290   21.7620   22.6120 C   0  0  0  0  0
    4.6420   21.2890   22.5480 C   0  0  0  0  0
    2.4990   21.4390   23.6940 C   0  0  0  0  0
    1.2240   21.8210   23.7800 N   0  0  0  0  0
    3.0380   20.6840   24.6790 N   0  0  0  0  0
    4.3000   20.2880   24.5740 C   0  0  0  0  0
    5.1410   20.5550   23.5570 N   0  0  0  0  0
    4.7767   22.4036   17.4928 H   0  0  0  0  0
    5.3903   20.2429   17.0391 H   0  0  0  0  0
    4.6430   20.4681   18.7123 H   0  0  0  0  0
    7.5014   20.4860   18.1617 H   0  0  0  0  0
    6.0747   18.1334   17.6564 H   0  0  0  0  0
    8.2871   18.3785   17.3101 H   0  0  0  0  0
    7.7513   20.0039   20.4664 H   0  0  0  0  0
    4.8855   19.2397   20.7676 H   0  0  0  0  0
    6.1983   18.7447   21.7588 H   0  0  0  0  0
    5.3212   17.2634   19.6002 H   0  0  0  0  0
    7.3567   16.2434   19.8528 H   0  0  0  0  0
    6.7973   22.2408   20.0518 H   0  0  0  0  0
    7.2866   21.5573   21.6693 H   0  0  0  0  0
    4.3793   22.9771   19.7320 H   0  0  0  0  0
    0.8069   22.3774   23.0338 H   0  0  0  0  0
    0.6661   21.5567   24.5920 H   0  0  0  0  0
    4.6953   19.6866   25.3926 H   0  0  0  0  0
  1  2  1  0  0  0
  2  3  1  0  0  0
  3  4  1  0  0  0
  3  6  1  0  0  0
  4  5  1  0  0  0
  4  8  1  0  0  0
  6  7  1  0  0  0
  6 10  1  0  0  0
  7  8  1  0  0  0
  8  9  1  0  0  0
 10 11  1  0  0  0
 11 12  4  0  0  0
 11 15  4  0  0  0
 12 13  4  0  0  0
 13 14  4  0  0  0
 14 15  4  0  0  0
 14 16  4  0  0  0
 15 20  4  0  0  0
 16 17  1  0  0  0
 16 18  4  0  0  0
 18 19  4  0  0  0
 19 20  4  0  0  0
  1 21  1  0  0  0
  2 22  1  0  0  0
  2 23  1  0  0  0
  3 24  1  0  0  0
  4 25  1  0  0  0
  5 26  1  0  0  0
  6 27  1  0  0  0
  7 28  1  0  0  0
  7 29  1  0  0  0
  8 30  1  0  0  0
  9 31  1  0  0  0
 10 32  1  0  0  0
 10 33  1  0  0  0
 12 34  1  0  0  0
 17 35  1  0  0  0
 17 36  1  0  0  0
 19 37  1  0  0  0
M  END
$$$$
