4iks_ligand
  -I-interpret- 

 44 46  0  0  0  0  0  0  0  0999 V2000
   14.8620    7.1750   15.9130 F   0  0  0  0  0
   14.7230    7.7890   17.0760 C   0  0  0  0  0
   14.1600    8.9680   16.8880 F   0  0  0  0  0
   13.9420    7.0650   17.8630 F   0  0  0  0  0
   16.0880    7.9800   17.6810 C   0  0  0  0  0
   16.2370    8.5960   18.8850 N   0  0  0  0  0
   17.2150    7.5300   16.9890 C   0  0  0  0  0
   18.4820    7.7060   17.5360 C   0  0  0  0  0
   18.6090    8.3330   18.7710 C   0  0  0  0  0
   17.4680    8.7740   19.4420 C   0  0  0  0  0
   17.5980    9.3830   20.6490 N   0  0  0  0  0
   17.4970    8.6450   21.8990 C   0  0  0  0  0
   16.1020    8.0590   22.1220 C   0  0  0  0  0
   15.8570    6.9590   21.1990 N   0  0  0  0  0
   14.6750    6.3030   21.1540 C   0  0  0  0  0
   14.6010    5.0740   20.5390 C   0  0  0  0  0
   16.1150    4.4240   19.8550 Cl  0  0  0  0  0
   13.5710    6.8380   21.6820 N   0  0  0  0  0
   12.4040    6.1620   21.6140 C   0  0  0  0  0
   12.3070    4.9430   21.0360 N   0  0  0  0  0
   13.4010    4.3820   20.4690 C   0  0  0  0  0
   13.2880    3.0300   19.8120 C   0  0  0  0  0
   11.2290    6.7650   22.2700 C   0  0  0  0  0
   10.1470    5.9960   22.5150 N   0  0  0  0  0
    9.0830    6.5220   23.1460 C   0  0  0  0  0
    9.0880    7.8500   23.5690 C   0  0  0  0  0
   10.2040    8.6410   23.3470 C   0  0  0  0  0
   11.2940    8.0830   22.7080 C   0  0  0  0  0
   17.1018    7.0414   16.0213 H   0  0  0  0  0
   19.3658    7.3562   17.0024 H   0  0  0  0  0
   19.5949    8.4791   19.2124 H   0  0  0  0  0
   17.7716   10.3876   20.6802 H   0  0  0  0  0
   17.7059    9.3362   22.7155 H   0  0  0  0  0
   18.2066    7.8186   21.8599 H   0  0  0  0  0
   15.3591    8.8378   21.9498 H   0  0  0  0  0
   16.0340    7.6856   23.1438 H   0  0  0  0  0
   16.6028    6.6735   20.5645 H   0  0  0  0  0
   13.5813    3.1105   18.7653 H   0  0  0  0  0
   13.9440    2.3240   20.3212 H   0  0  0  0  0
   12.2573    2.6813   19.8761 H   0  0  0  0  0
    8.2053    5.9022   23.3291 H   0  0  0  0  0
    8.2157    8.2656   24.0735 H   0  0  0  0  0
   10.2213    9.6819   23.6700 H   0  0  0  0  0
   12.1978    8.6711   22.5484 H   0  0  0  0  0
  1  2  1  0  0  0
  2  3  1  0  0  0
  2  4  1  0  0  0
  2  5  1  0  0  0
  5  6  4  0  0  0
  5  7  4  0  0  0
  6 10  4  0  0  0
  7  8  4  0  0  0
  8  9  4  0  0  0
  9 10  4  0  0  0
 10 11  1  0  0  0
 11 12  1  0  0  0
 12 13  1  0  0  0
 13 14  1  0  0  0
 14 15  1  0  0  0
 15 16  4  0  0  0
 15 18  4  0  0  0
 16 17  1  0  0  0
 16 21  4  0  0  0
 18 19  4  0  0  0
 19 20  4  0  0  0
 19 23  1  0  0  0
 20 21  4  0  0  0
 21 22  1  0  0  0
 23 24  4  0  0  0
 23 28  4  0  0  0
 24 25  4  0  0  0
 25 26  4  0  0  0
 26 27  4  0  0  0
 27 28  4  0  0  0
  7 29  1  0  0  0
  8 30  1  0  0  0
  9 31  1  0  0  0
 11 32  1  0  0  0
 12 33  1  0  0  0
 12 34  1  0  0  0
 13 35  1  0  0  0
 13 36  1  0  0  0
 14 37  1  0  0  0
 22 38  1  0  0  0
 22 39  1  0  0  0
 22 40  1  0  0  0
 25 41  1  0  0  0
 26 42  1  0  0  0
 27 43  1  0  0  0
 28 44  1  0  0  0
M  END
$$$$
