4n3r_ligand
  -I-interpret- 

 56 60  0  0  0  0  0  0  0  0999 V2000
  -11.0590   39.7610   27.7340 C   0  0  0  0  0
  -11.8950   38.5990   27.9180 C   0  0  0  0  0
  -12.9990   38.5640   28.7990 C   0  0  0  0  0
  -13.7390   37.4010   28.8920 N   0  0  0  0  0
  -13.3900   36.2520   28.1460 C   0  0  0  0  0
  -14.0400   35.0670   28.1930 N   0  0  0  0  0
  -12.3300   36.2190   27.2730 N   0  0  0  0  0
  -11.5530   37.3340   27.1280 C   0  0  0  0  0
  -10.4370   37.3510   26.1980 C   0  0  0  0  0
   -9.6230   38.5580   26.0370 C   0  0  0  0  0
   -9.9150   39.7960   26.8010 C   0  0  0  0  0
   -9.0870   41.0460   26.7250 C   0  0  0  0  0
   -7.6450   40.9380   26.7830 C   0  0  0  0  0
   -9.6630   42.3760   26.6490 C   0  0  0  0  0
   -8.8960   43.5800   26.6340 C   0  0  0  0  0
   -7.4850   43.4410   26.6930 C   0  0  0  0  0
   -6.9090   44.6370   26.6440 F   0  0  0  0  0
   -6.8250   42.1170   26.7710 C   0  0  0  0  0
   -5.3620   41.8830   26.8720 C   0  0  0  0  0
   -4.7020   40.9490   26.4150 O   0  0  0  0  0
   -4.8030   42.9080   27.5900 N   0  0  0  0  0
   -3.5010   42.8600   27.9140 C   0  0  0  0  0
   -3.0500   41.8240   28.7920 C   0  0  0  0  0
   -2.6330   43.8180   27.3180 C   0  0  0  0  0
   -1.2090   43.7600   27.5900 C   0  0  0  0  0
   -0.7310   42.6890   28.4920 C   0  0  0  0  0
   -1.6600   41.7540   29.0640 C   0  0  0  0  0
   -1.2310   40.7630   29.8490 N   0  0  0  0  0
    0.0330   40.2510   29.9060 C   0  0  0  0  0
    0.2060   39.2230   30.4730 O   0  0  0  0  0
    1.1190   41.0560   29.2630 C   0  0  0  0  0
    0.7680   42.5390   28.8590 C   0  0  0  0  0
    1.0790   43.5720   30.0130 C   0  0  0  0  0
    1.6510   42.7760   27.5810 C   0  0  0  0  0
  -11.2832   40.6572   28.3125 H   0  0  0  0  0
  -13.2620   39.4384   29.3943 H   0  0  0  0  0
  -14.8502   34.9536   28.8021 H   0  0  0  0  0
  -13.7200   34.2867   27.6193 H   0  0  0  0  0
  -10.2038   36.4594   25.6160 H   0  0  0  0  0
   -8.7844   38.5465   25.3407 H   0  0  0  0  0
   -7.1778   39.9546   26.8362 H   0  0  0  0  0
  -10.7486   42.4609   26.6004 H   0  0  0  0  0
   -9.3715   44.5593   26.5798 H   0  0  0  0  0
   -5.3735   43.7034   27.8768 H   0  0  0  0  0
   -3.7490   41.1148   29.2354 H   0  0  0  0  0
   -3.0354   44.5898   26.6618 H   0  0  0  0  0
   -0.5183   44.4775   27.1471 H   0  0  0  0  0
   -1.9211   40.3440   30.4724 H   0  0  0  0  0
    1.3579   40.5427   28.3316 H   0  0  0  0  0
    1.9135   41.1302   30.0055 H   0  0  0  0  0
    0.8716   44.5822   29.6602 H   0  0  0  0  0
    0.4507   43.3509   30.8758 H   0  0  0  0  0
    2.1285   43.4931   30.2964 H   0  0  0  0  0
    1.3892   42.0420   26.8189 H   0  0  0  0  0
    1.4705   43.7802   27.1974 H   0  0  0  0  0
    2.7036   42.6697   27.8434 H   0  0  0  0  0
  1  2  4  0  0  0
  1 11  4  0  0  0
  2  3  4  0  0  0
  2  8  4  0  0  0
  3  4  4  0  0  0
  4  5  4  0  0  0
  5  6  1  0  0  0
  5  7  4  0  0  0
  7  8  4  0  0  0
  8  9  4  0  0  0
  9 10  4  0  0  0
 10 11  4  0  0  0
 11 12  1  0  0  0
 12 13  4  0  0  0
 12 14  4  0  0  0
 13 18  4  0  0  0
 14 15  4  0  0  0
 15 16  4  0  0  0
 16 17  1  0  0  0
 16 18  4  0  0  0
 18 19  1  0  0  0
 19 20  2  0  0  0
 19 21  1  0  0  0
 21 22  1  0  0  0
 22 23  4  0  0  0
 22 24  4  0  0  0
 23 27  4  0  0  0
 24 25  4  0  0  0
 25 26  4  0  0  0
 26 27  4  0  0  0
 26 32  1  0  0  0
 27 28  1  0  0  0
 28 29  1  0  0  0
 29 30  2  0  0  0
 29 31  1  0  0  0
 31 32  1  0  0  0
 32 33  1  0  0  0
 32 34  1  0  0  0
  1 35  1  0  0  0
  3 36  1  0  0  0
  6 37  1  0  0  0
  6 38  1  0  0  0
  9 39  1  0  0  0
 10 40  1  0  0  0
 13 41  1  0  0  0
 14 42  1  0  0  0
 15 43  1  0  0  0
 21 44  1  0  0  0
 23 45  1  0  0  0
 24 46  1  0  0  0
 25 47  1  0  0  0
 28 48  1  0  0  0
 31 49  1  0  0  0
 31 50  1  0  0  0
 33 51  1  0  0  0
 33 52  1  0  0  0
 33 53  1  0  0  0
 34 54  1  0  0  0
 34 55  1  0  0  0
 34 56  1  0  0  0
M  END
$$$$
