3hkn_ligand
  -I-interpret- 

 84 85  0  0  0  0  0  0  0  0999 V2000
   16.1140    4.1460   13.8670 C   0  0  0  0  0
   16.7560    5.2000   12.9790 C   0  0  0  0  0
   16.8800    7.6600   12.8930 O   0  0  0  0  0
   18.2170    8.1770   12.9870 C   0  0  0  0  0
   18.5910    8.8240   11.6630 C   0  0  0  0  0
   20.0350    9.2900   11.7170 C   0  0  0  0  0
   20.1830   10.2950   12.8430 C   0  0  0  0  0
   19.6660    9.6260   14.1030 C   0  0  0  0  0
   19.8580   10.5680   15.2820 C   0  0  0  0  0
   18.4550    2.7420   13.1300 C   0  0  0  0  0
   17.0580    2.1950   12.8370 C   0  0  0  0  0
   16.9900    4.9010   10.7230 C   0  0  0  0  0
   17.3260    6.3910   15.0350 C   0  0  0  0  0
   17.1910    7.6790   15.8260 C   0  0  0  0  0
   20.1780    6.5920   11.9110 C   0  0  0  0  0
   19.3000    6.8340   10.6800 C   0  0  0  0  0
   19.3660    6.0600    9.7260 O   0  0  0  0  0
   18.4810    7.9120   10.5640 O   0  0  0  0  0
   20.4680    9.8620   10.4740 O   0  0  0  0  0
   21.8170    9.7510   10.3300 C   0  0  0  0  0
   22.6600    9.0310   11.3850 C   0  0  0  0  0
   22.3660   10.2140    9.3310 O   0  0  0  0  0
   19.4250   11.4810   12.5680 O   0  0  0  0  0
   20.2800   12.5030   12.0340 C   0  0  0  0  0
   20.4480   13.8280   12.7820 C   0  0  0  0  0
   20.9790   12.2980   10.8040 O   0  0  0  0  0
   20.4520   11.8090   14.8700 O   0  0  0  0  0
   21.7840   11.8660   15.1530 C   0  0  0  0  0
   22.4490   10.7100   15.8870 C   0  0  0  0  0
   22.4480   12.8540   14.8390 O   0  0  0  0  0
   18.2890    9.2550   13.9330 O   0  0  0  0  0
   16.5870    6.5170   13.7150 C   0  0  0  0  0
   16.1230    5.2930   11.6960 O   0  0  0  0  0
   18.3310    4.2610   11.0840 C   0  0  0  0  0
   16.6690    5.0160    9.5420 O   0  0  0  0  0
   15.9400    2.8770   13.2130 O   0  0  0  0  0
   16.9380    1.1150   12.2610 O   0  0  0  0  0
   16.7910    4.0310   15.2240 C   0  0  0  0  0
   15.8970    2.8870   16.3430 S   0  0  0  0  0
   16.3410    3.1340   17.7550 O   0  0  0  0  0
   14.4190    3.1270   16.2540 O   0  0  0  0  0
   16.2250    1.3400   15.9480 N   0  0  0  0  0
   16.7730    5.3320   15.8320 O   0  0  0  0  0
   16.0530    8.3940   15.3250 O   0  0  0  0  0
   14.8540    7.9220   15.7630 C   0  0  0  0  0
   14.7630    6.7640   16.7600 C   0  0  0  0  0
   13.8310    8.4670   15.3540 O   0  0  0  0  0
   15.1039    4.5043   14.0653 H   0  0  0  0  0
   17.7991    4.9442   12.7929 H   0  0  0  0  0
   18.8631    7.3458   13.2696 H   0  0  0  0  0
   17.9009    9.6537   11.5101 H   0  0  0  0  0
   20.6694    8.4227   11.9000 H   0  0  0  0  0
   21.2254   10.5932   12.9550 H   0  0  0  0  0
   20.2265    8.7123   14.3010 H   0  0  0  0  0
   20.5209   10.0895   16.0029 H   0  0  0  0  0
   18.8819   10.7796   15.7185 H   0  0  0  0  0
   18.9938    2.0380   13.7642 H   0  0  0  0  0
   18.9953    2.8759   12.1928 H   0  0  0  0  0
   18.3685    3.7008   13.6412 H   0  0  0  0  0
   18.3714    6.1795   14.8102 H   0  0  0  0  0
   18.0917    8.2829   15.7161 H   0  0  0  0  0
   17.0581    7.4568   16.8848 H   0  0  0  0  0
   19.9413    5.6177   12.3387 H   0  0  0  0  0
   21.2275    6.6162   11.6176 H   0  0  0  0  0
   19.9880    7.3704   12.6499 H   0  0  0  0  0
   23.1570    8.1749   10.9288 H   0  0  0  0  0
   23.4076    9.7179   11.7816 H   0  0  0  0  0
   22.0136    8.6892   12.1934 H   0  0  0  0  0
   21.4976   13.9668   13.0414 H   0  0  0  0  0
   20.1185   14.6482   12.1441 H   0  0  0  0  0
   19.8471   13.8092   13.6912 H   0  0  0  0  0
   23.2535   10.3058   15.2725 H   0  0  0  0  0
   22.8569   11.0681   16.8323 H   0  0  0  0  0
   21.7111    9.9313   16.0799 H   0  0  0  0  0
   15.5439    6.7195   13.9581 H   0  0  0  0  0
   18.3614    3.2420   10.6981 H   0  0  0  0  0
   19.1403    4.8425   10.6423 H   0  0  0  0  0
   18.4439    4.2439   12.1680 H   0  0  0  0  0
   17.8007    3.6493   15.0728 H   0  0  0  0  0
   16.6650    0.7219   16.6297 H   0  0  0  0  0
   15.9903    0.9901   15.0191 H   0  0  0  0  0
   14.2670    7.1063   17.6682 H   0  0  0  0  0
   14.1906    5.9490   16.3170 H   0  0  0  0  0
   15.7668    6.4150   17.0022 H   0  0  0  0  0
  2  1  1  0  0  0
  1 36  1  0  0  0
  1 38  1  0  0  0
 32  2  1  0  0  0
  2 33  1  0  0  0
  4  3  1  0  0  0
  3 32  1  0  0  0
  5  4  1  0  0  0
  4 31  1  0  0  0
  5  6  1  0  0  0
 18  5  1  0  0  0
  6  7  1  0  0  0
  6 19  1  0  0  0
  7  8  1  0  0  0
  7 23  1  0  0  0
  8  9  1  0  0  0
 31  8  1  0  0  0
  9 27  1  0  0  0
 11 10  1  0  0  0
 36 11  1  0  0  0
 11 37  2  0  0  0
 33 12  1  0  0  0
 12 34  1  0  0  0
 12 35  2  0  0  0
 13 14  1  0  0  0
 32 13  1  0  0  0
 13 43  1  0  0  0
 14 44  1  0  0  0
 16 15  1  0  0  0
 16 17  2  0  0  0
 16 18  1  0  0  0
 19 20  1  0  0  0
 20 21  1  0  0  0
 20 22  2  0  0  0
 23 24  1  0  0  0
 24 25  1  0  0  0
 24 26  2  0  0  0
 27 28  1  0  0  0
 28 29  1  0  0  0
 28 30  2  0  0  0
 38 39  1  0  0  0
 38 43  1  0  0  0
 39 40  2  0  0  0
 39 41  2  0  0  0
 39 42  1  0  0  0
 44 45  1  0  0  0
 45 46  1  0  0  0
 45 47  2  0  0  0
  1 48  1  0  0  0
  2 49  1  0  0  0
  4 50  1  0  0  0
  5 51  1  0  0  0
  6 52  1  0  0  0
  7 53  1  0  0  0
  8 54  1  0  0  0
  9 55  1  0  0  0
  9 56  1  0  0  0
 10 57  1  0  0  0
 10 58  1  0  0  0
 10 59  1  0  0  0
 13 60  1  0  0  0
 14 61  1  0  0  0
 14 62  1  0  0  0
 15 63  1  0  0  0
 15 64  1  0  0  0
 15 65  1  0  0  0
 21 66  1  0  0  0
 21 67  1  0  0  0
 21 68  1  0  0  0
 25 69  1  0  0  0
 25 70  1  0  0  0
 25 71  1  0  0  0
 29 72  1  0  0  0
 29 73  1  0  0  0
 29 74  1  0  0  0
 32 75  1  0  0  0
 34 76  1  0  0  0
 34 77  1  0  0  0
 34 78  1  0  0  0
 38 79  1  0  0  0
 42 80  1  0  0  0
 42 81  1  0  0  0
 46 82  1  0  0  0
 46 83  1  0  0  0
 46 84  1  0  0  0
M  END
$$$$
