3v8w_ligand
  -I-interpret- 

 50 54  0  0  0  0  0  0  0  0999 V2000
  -52.5750  -15.7470   35.1470 C   0  0  0  0  0
  -52.7790  -15.7760   33.6280 C   0  0  0  0  0
  -51.9360  -16.8660   32.9530 C   0  0  0  0  0
  -50.4450  -16.5520   33.1510 C   0  0  0  0  0
  -49.5510  -17.6280   32.5280 C   0  0  0  0  0
  -52.2320  -18.1320   33.5580 O   0  0  0  0  0
  -52.2810  -16.8910   31.4500 C   0  0  0  0  0
  -51.8020  -15.8850   30.6030 C   0  0  0  0  0
  -53.0900  -17.9040   30.9240 C   0  0  0  0  0
  -53.4050  -17.9220   29.5630 C   0  0  0  0  0
  -52.9250  -16.9130   28.7280 C   0  0  0  0  0
  -53.0500  -16.6840   27.4250 C   0  0  0  0  0
  -52.1080  -15.9120   29.2410 C   0  0  0  0  0
  -51.8060  -15.1030   28.2310 N   0  0  0  0  0
  -52.3720  -15.5750   27.1200 C   0  0  0  0  0
  -52.2590  -14.9910   25.8580 C   0  0  0  0  0
  -51.5150  -13.9520   25.4870 N   0  0  0  0  0
  -51.6770  -13.7130   24.2830 N   0  0  0  0  0
  -52.5260  -14.5700   23.7060 C   0  0  0  0  0
  -53.0930  -14.8600   22.5110 C   0  0  0  0  0
  -52.9280  -15.4250   24.7300 C   0  0  0  0  0
  -54.0140  -16.5180   24.0680 S   0  0  0  0  0
  -53.9410  -15.9020   22.5000 C   0  0  0  0  0
  -54.6970  -16.4130   21.4430 C   0  0  0  0  0
  -54.8150  -15.6870   20.2540 C   0  0  0  0  0
  -55.5840  -16.1820   19.1990 C   0  0  0  0  0
  -56.2430  -17.4040   19.3280 C   0  0  0  0  0
  -56.1370  -18.1300   20.5150 C   0  0  0  0  0
  -55.3680  -17.6340   21.5690 C   0  0  0  0  0
  -52.8627  -16.7098   35.5694 H   0  0  0  0  0
  -51.5257  -15.5509   35.3677 H   0  0  0  0  0
  -53.1920  -14.9598   35.5802 H   0  0  0  0  0
  -52.4721  -14.8107   33.2253 H   0  0  0  0  0
  -53.8298  -15.9876   33.4301 H   0  0  0  0  0
  -50.2415  -16.5143   34.2212 H   0  0  0  0  0
  -50.2271  -15.6011   32.6647 H   0  0  0  0  0
  -49.7641  -18.5901   32.9939 H   0  0  0  0  0
  -49.7499  -17.6890   31.4580 H   0  0  0  0  0
  -48.5049  -17.3681   32.6902 H   0  0  0  0  0
  -52.0115  -18.0985   34.4917 H   0  0  0  0  0
  -51.1892  -15.0793   31.0072 H   0  0  0  0  0
  -53.4768  -18.6839   31.5800 H   0  0  0  0  0
  -54.0235  -18.7215   29.1552 H   0  0  0  0  0
  -53.6123  -17.2990   26.7224 H   0  0  0  0  0
  -52.8746  -14.2830   21.6124 H   0  0  0  0  0
  -54.3041  -14.7298   20.1501 H   0  0  0  0  0
  -55.6693  -15.6125   18.2735 H   0  0  0  0  0
  -56.8402  -17.7917   18.5027 H   0  0  0  0  0
  -56.6544  -19.0837   20.6190 H   0  0  0  0  0
  -55.2898  -18.2017   22.4962 H   0  0  0  0  0
  1  2  1  0  0  0
  2  3  1  0  0  0
  3  4  1  0  0  0
  3  6  1  0  0  0
  3  7  1  0  0  0
  4  5  1  0  0  0
  7  8  4  0  0  0
  7  9  4  0  0  0
  8 13  4  0  0  0
  9 10  4  0  0  0
 10 11  4  0  0  0
 11 12  4  0  0  0
 11 13  4  0  0  0
 12 15  4  0  0  0
 13 14  4  0  0  0
 14 15  4  0  0  0
 15 16  1  0  0  0
 16 17  4  0  0  0
 16 21  4  0  0  0
 17 18  4  0  0  0
 18 19  4  0  0  0
 19 20  4  0  0  0
 19 21  4  0  0  0
 20 23  4  0  0  0
 21 22  4  0  0  0
 22 23  4  0  0  0
 23 24  1  0  0  0
 24 25  4  0  0  0
 24 29  4  0  0  0
 25 26  4  0  0  0
 26 27  4  0  0  0
 27 28  4  0  0  0
 28 29  4  0  0  0
  1 30  1  0  0  0
  1 31  1  0  0  0
  1 32  1  0  0  0
  2 33  1  0  0  0
  2 34  1  0  0  0
  4 35  1  0  0  0
  4 36  1  0  0  0
  5 37  1  0  0  0
  5 38  1  0  0  0
  5 39  1  0  0  0
  6 40  1  0  0  0
  8 41  1  0  0  0
  9 42  1  0  0  0
 10 43  1  0  0  0
 12 44  1  0  0  0
 20 45  1  0  0  0
 25 46  1  0  0  0
 26 47  1  0  0  0
 27 48  1  0  0  0
 28 49  1  0  0  0
 29 50  1  0  0  0
M  END
$$$$
