6fu5_ligand
  -I-interpret- 

 66 69  0  0  0  0  0  0  0  0999 V2000
   -1.3240  -37.6770   24.1550 C   0  0  0  0  0
    0.7650  -33.8910   23.4670 C   0  0  0  0  0
    4.6580  -30.2020   20.0500 C   0  0  0  0  0
    4.5570  -30.4960   18.7170 C   0  0  0  0  0
    5.5690  -30.1330   17.8190 C   0  0  0  0  0
    7.0300  -33.4010   16.9900 C   0  0  0  0  0
    3.0690  -29.6430   22.0080 C   0  0  0  0  0
    1.4830  -31.0830   22.9500 C   0  0  0  0  0
    1.8410  -32.1020   22.0500 C   0  0  0  0  0
    1.0750  -33.4400   22.1830 C   0  0  0  0  0
    0.6670  -34.1940   21.0700 C   0  0  0  0  0
   -0.0410  -35.4110   21.2560 C   0  0  0  0  0
   -0.3400  -35.8610   22.5500 C   0  0  0  0  0
   -0.7900  -38.3800   21.9400 C   0  0  0  0  0
    0.4240  -39.1580   22.4740 C   0  0  0  0  0
   -0.1100  -38.4400   24.7020 C   0  0  0  0  0
    0.0610  -35.1010   23.6520 C   0  0  0  0  0
    2.8680  -31.8710   21.0870 C   0  0  0  0  0
    3.5120  -30.6000   21.0630 C   0  0  0  0  0
    5.4800  -33.3610   17.1360 C   0  0  0  0  0
    7.5140  -34.6290   16.1850 C   0  0  0  0  0
    6.7120  -29.4450   18.2610 C   0  0  0  0  0
    7.7650  -29.2510   16.0420 C   0  0  0  0  0
    6.8010  -29.1460   19.6020 C   0  0  0  0  0
    5.7930  -29.5160   20.4930 C   0  0  0  0  0
    3.6820  -28.2850   22.0530 N   0  0  0  0  0
    2.1050  -29.9040   22.8960 N   0  0  0  0  0
   -1.1000  -37.1620   22.7680 N   0  0  0  0  0
    0.3470  -39.4950   23.8480 N   0  3  0  0  0
    5.3540  -30.5050   16.4220 N   0  0  0  0  0
    5.0380  -32.3960   14.5830 O   0  0  0  0  0
    3.3070  -32.0950   16.0220 O   0  0  0  0  0
    7.7940  -29.0260   17.4380 O   0  0  0  0  0
    4.7750  -32.0850   16.0010 S   0  0  0  0  0
   -1.5049  -36.8217   24.8061 H   0  0  0  0  0
   -2.1685  -38.3655   24.1257 H   0  0  0  0  0
    1.0688  -33.3044   24.3340 H   0  0  0  0  0
    3.6755  -31.0207   18.3485 H   0  0  0  0  0
    7.4616  -33.4609   17.9891 H   0  0  0  0  0
    7.3420  -32.5033   16.4563 H   0  0  0  0  0
    0.7004  -31.2555   23.6889 H   0  0  0  0  0
    0.8941  -33.8446   20.0628 H   0  0  0  0  0
   -0.3526  -35.9965   20.3910 H   0  0  0  0  0
   -1.6561  -39.0409   21.9748 H   0  0  0  0  0
   -0.5600  -38.0497   20.9270 H   0  0  0  0  0
    1.2949  -38.5140   22.3516 H   0  0  0  0  0
    0.4730  -40.0942   21.9179 H   0  0  0  0  0
   -0.4119  -38.8950   25.6454 H   0  0  0  0  0
    0.7063  -37.7240   24.7971 H   0  0  0  0  0
   -0.1710  -35.4442   24.6602 H   0  0  0  0  0
    3.1547  -32.6521   20.3828 H   0  0  0  0  0
    5.2219  -33.1094   18.1647 H   0  0  0  0  0
    5.0692  -34.3374   16.8791 H   0  0  0  0  0
    7.1991  -35.5412   16.6918 H   0  0  0  0  0
    7.0815  -34.5997   15.1849 H   0  0  0  0  0
    8.6014  -34.6088   16.1127 H   0  0  0  0  0
    7.6931  -30.3214   15.8492 H   0  0  0  0  0
    6.9014  -28.7441   15.6114 H   0  0  0  0  0
    8.6783  -28.8603   15.5932 H   0  0  0  0  0
    7.6745  -28.6107   19.9742 H   0  0  0  0  0
    5.8918  -29.2667   21.5495 H   0  0  0  0  0
    4.4262  -28.0395   21.4001 H   0  0  0  0  0
    3.3573  -27.6013   22.7367 H   0  0  0  0  0
    1.2932  -39.7295   24.1483 H   0  0  0  0  0
   -0.3291  -40.2544   23.9287 H   0  0  0  0  0
    5.5469  -29.8267   15.6850 H   0  0  0  0  0
  1 16  1  0  0  0
 28  1  1  0  0  0
 10  2  4  0  0  0
  2 17  4  0  0  0
  4  3  4  0  0  0
  3 19  1  0  0  0
  3 25  4  0  0  0
  5  4  4  0  0  0
  5 22  4  0  0  0
 30  5  1  0  0  0
 20  6  1  0  0  0
  6 21  1  0  0  0
 19  7  4  0  0  0
  7 26  1  0  0  0
  7 27  4  0  0  0
  9  8  4  0  0  0
 27  8  4  0  0  0
  9 10  1  0  0  0
 18  9  4  0  0  0
 10 11  4  0  0  0
 11 12  4  0  0  0
 12 13  4  0  0  0
 17 13  4  0  0  0
 13 28  1  0  0  0
 14 15  1  0  0  0
 28 14  1  0  0  0
 15 29  1  0  0  0
 16 29  1  0  0  0
 19 18  4  0  0  0
 34 20  1  0  0  0
 22 24  4  0  0  0
 22 33  1  0  0  0
 33 23  1  0  0  0
 24 25  4  0  0  0
 30 34  1  0  0  0
 34 31  2  0  0  0
 34 32  2  0  0  0
  1 35  1  0  0  0
  1 36  1  0  0  0
  2 37  1  0  0  0
  4 38  1  0  0  0
  6 39  1  0  0  0
  6 40  1  0  0  0
  8 41  1  0  0  0
 11 42  1  0  0  0
 12 43  1  0  0  0
 14 44  1  0  0  0
 14 45  1  0  0  0
 15 46  1  0  0  0
 15 47  1  0  0  0
 16 48  1  0  0  0
 16 49  1  0  0  0
 17 50  1  0  0  0
 18 51  1  0  0  0
 20 52  1  0  0  0
 20 53  1  0  0  0
 21 54  1  0  0  0
 21 55  1  0  0  0
 21 56  1  0  0  0
 23 57  1  0  0  0
 23 58  1  0  0  0
 23 59  1  0  0  0
 24 60  1  0  0  0
 25 61  1  0  0  0
 26 62  1  0  0  0
 26 63  1  0  0  0
 29 64  1  0  0  0
 29 65  1  0  0  0
 30 66  1  0  0  0
M  END
$$$$
