1bb0_ligand
  -I-interpret- 

 71 73  0  0  0  0  0  0  0  0999 V2000
   18.4750  -17.0660   26.1510 C   0  0  0  0  0
   19.7430  -16.2770   26.0710 C   0  0  0  0  0
   19.6430  -14.9080   26.2530 C   0  0  0  0  0
   20.7650  -14.1190   25.9670 C   0  0  0  0  0
   21.8960  -14.6380   25.3580 C   0  0  0  0  0
   21.9440  -16.0070   25.1040 C   0  0  0  0  0
   20.9050  -16.8210   25.5490 C   0  0  0  0  0
   17.8250  -17.6630   24.6010 S   0  0  0  0  0
   16.5590  -18.1930   24.9700 O   0  0  0  0  0
   18.7900  -18.3260   23.7910 O   0  0  0  0  0
   17.4920  -16.3810   23.6000 N   0  0  0  0  0
   18.4820  -15.7300   22.8430 C   0  0  0  0  0
   19.1620  -16.4910   21.7530 C   0  0  0  0  0
   20.1430  -15.6500   20.9750 C   0  0  0  0  0
   17.9000  -14.3990   22.3120 C   0  0  0  0  0
   19.7760  -14.2200   20.6820 C   0  0  0  0  0
   16.9460  -13.9800   22.9600 O   0  0  0  0  0
   18.6560  -13.7130   21.4880 N   0  0  0  0  0
   18.1290  -12.3510   21.4180 C   0  0  0  0  0
   16.8320  -12.7310   20.6150 C   0  0  0  0  0
   16.7940  -13.6380   19.7430 O   0  0  0  0  0
   11.6690  -13.8310   21.5510 C   0  0  0  0  0
   12.2190  -13.8810   23.1160 C   0  0  0  0  0
   15.8250  -11.7010   20.5730 N   0  0  0  0  0
   14.6260  -11.6790   19.8100 C   0  0  0  0  0
   14.7720  -11.1810   18.4660 C   0  0  0  0  0
   13.9280  -10.6470   17.5260 O   0  0  0  0  0
   13.6810  -10.9870   20.6100 C   0  0  0  0  0
   11.2960  -11.9580   24.5990 C   0  0  0  0  0
   12.2760  -12.3890   23.7370 N   0  0  0  0  0
   12.9020  -13.0670   20.6870 C   0  0  0  0  0
   12.6450  -11.6780   21.3270 C   0  0  0  0  0
   13.0430  -11.6160   22.8430 C   0  0  0  0  0
   11.0470  -10.6820   24.7320 N   0  0  0  0  0
   10.5620  -12.7380   25.2420 N   0  0  0  0  0
   17.7213  -16.3928   26.5596 H   0  0  0  0  0
   18.7017  -17.9494   26.7479 H   0  0  0  0  0
   18.7169  -14.4566   26.6090 H   0  0  0  0  0
   20.7474  -13.0620   26.2324 H   0  0  0  0  0
   22.7288  -13.9904   25.0840 H   0  0  0  0  0
   22.7865  -16.4369   24.5623 H   0  0  0  0  0
   21.0081  -17.9043   25.4854 H   0  0  0  0  0
   16.5290  -16.0519   23.5313 H   0  0  0  0  0
   19.3025  -15.5828   23.5453 H   0  0  0  0  0
   18.3954  -16.8362   21.0593 H   0  0  0  0  0
   19.7160  -17.3091   22.2133 H   0  0  0  0  0
   20.2258  -16.1315   20.0006 H   0  0  0  0  0
   21.0349  -15.5963   21.5993 H   0  0  0  0  0
   19.4699  -14.1723   19.6369 H   0  0  0  0  0
   20.6467  -13.6080   20.9172 H   0  0  0  0  0
   18.7774  -11.5943   20.9764 H   0  0  0  0  0
   17.9869  -11.8288   22.3642 H   0  0  0  0  0
   10.7233  -13.2952   21.4694 H   0  0  0  0  0
   11.4574  -14.8272   21.1625 H   0  0  0  0  0
   13.2207  -14.3106   23.1282 H   0  0  0  0  0
   11.5401  -14.4899   23.7131 H   0  0  0  0  0
   15.9935  -10.8869   21.1640 H   0  0  0  0  0
   14.2810  -12.6918   19.6021 H   0  0  0  0  0
   14.9813  -12.1284   17.9692 H   0  0  0  0  0
   15.3439  -10.2813   18.6930 H   0  0  0  0  0
   14.4267  -10.4344   16.7337 H   0  0  0  0  0
   13.1340  -10.3759   19.8921 H   0  0  0  0  0
   14.2877  -10.5422   21.3988 H   0  0  0  0  0
   12.8739  -13.1351   19.5995 H   0  0  0  0  0
   13.9068  -13.4819   20.7669 H   0  0  0  0  0
   11.6107  -11.3376   21.2773 H   0  0  0  0  0
   14.0569  -12.0118   22.9012 H   0  0  0  0  0
   12.8990  -10.5791   23.1466 H   0  0  0  0  0
   10.2865  -10.3711   25.3364 H   0  0  0  0  0
   11.6132   -9.9970   24.2314 H   0  0  0  0  0
   10.6759  -13.7464   25.1396 H   0  0  0  0  0
  1  2  1  0  0  0
  8  1  1  0  0  0
  2  3  4  0  0  0
  2  7  4  0  0  0
  3  4  4  0  0  0
  4  5  4  0  0  0
  6  5  4  0  0  0
  7  6  4  0  0  0
  8  9  2  0  0  0
  8 10  2  0  0  0
 11  8  1  0  0  0
 12 11  1  0  0  0
 12 13  1  0  0  0
 15 12  1  0  0  0
 14 13  1  0  0  0
 16 14  1  0  0  0
 15 17  2  0  0  0
 18 15  1  0  0  0
 18 16  1  0  0  0
 19 18  1  0  0  0
 20 19  1  0  0  0
 20 21  2  0  0  0
 24 20  1  0  0  0
 22 23  1  0  0  0
 31 22  1  0  0  0
 23 30  1  0  0  0
 25 24  1  0  0  0
 25 26  1  0  0  0
 28 25  1  0  0  0
 26 27  1  0  0  0
 32 28  1  0  0  0
 30 29  1  0  0  0
 29 34  1  0  0  0
 29 35  2  0  0  0
 30 33  1  0  0  0
 31 32  1  0  0  0
 32 33  1  0  0  0
  1 36  1  0  0  0
  1 37  1  0  0  0
  3 38  1  0  0  0
  4 39  1  0  0  0
  5 40  1  0  0  0
  6 41  1  0  0  0
  7 42  1  0  0  0
 11 43  1  0  0  0
 12 44  1  0  0  0
 13 45  1  0  0  0
 13 46  1  0  0  0
 14 47  1  0  0  0
 14 48  1  0  0  0
 16 49  1  0  0  0
 16 50  1  0  0  0
 19 51  1  0  0  0
 19 52  1  0  0  0
 22 53  1  0  0  0
 22 54  1  0  0  0
 23 55  1  0  0  0
 23 56  1  0  0  0
 24 57  1  0  0  0
 25 58  1  0  0  0
 26 59  1  0  0  0
 26 60  1  0  0  0
 27 61  1  0  0  0
 28 62  1  0  0  0
 28 63  1  0  0  0
 31 64  1  0  0  0
 31 65  1  0  0  0
 32 66  1  0  0  0
 33 67  1  0  0  0
 33 68  1  0  0  0
 34 69  1  0  0  0
 34 70  1  0  0  0
 35 71  1  0  0  0
M  END
$$$$
