5thj_ligand
  -I-interpret- 

 15 15  0  0  0  0  0  0  0  0999 V2000
   -6.2110    1.4210   15.6700 C   0  0  0  0  0
   -7.0180    0.6220   16.2160 O   0  0  0  0  0
   -5.0040    0.8580   14.9730 C   0  0  0  0  0
   -4.8870   -0.4670   14.9900 O   0  0  0  0  0
   -4.0240    1.5630   14.3290 C   0  0  0  0  0
   -3.7920    2.9390   14.0960 C   0  0  0  0  0
   -5.7880    3.9230   15.2460 C   0  0  0  0  0
   -6.5080    2.8040   15.7590 C   0  0  0  0  0
   -4.5790    4.0130   14.5040 C   0  0  0  0  0
   -5.6286   -0.8465   15.4671 H   0  0  0  0  0
   -3.2519    0.9235   13.9012 H   0  0  0  0  0
   -2.8931    3.1873   13.5317 H   0  0  0  0  0
   -6.2497    4.8863   15.4627 H   0  0  0  0  0
   -7.4223    3.0486   16.2997 H   0  0  0  0  0
   -4.2376    5.0112   14.2300 H   0  0  0  0  0
  1  2  2  0  0  0
  1  3  1  0  0  0
  1  8  1  0  0  0
  3  4  1  0  0  0
  3  5  2  0  0  0
  5  6  1  0  0  0
  6  9  2  0  0  0
  8  7  2  0  0  0
  7  9  1  0  0  0
  4 10  1  0  0  0
  5 11  1  0  0  0
  6 12  1  0  0  0
  7 13  1  0  0  0
  8 14  1  0  0  0
  9 15  1  0  0  0
M  END
$$$$
