6ev0_ligand
  -I-interpret- 

 47 50  0  0  0  0  0  0  0  0999 V2000
   52.9670    4.6520   45.4150 O   0  0  0  0  0
   52.4020    3.5470   45.4830 C   0  0  0  0  0
   52.8650    2.4630   45.0780 O   0  0  0  0  0
   51.0160    3.4740   46.1120 C   0  0  0  0  0
   51.0730    3.7300   47.6120 C   0  0  0  0  0
   51.0970    2.0950   48.4020 S   0  0  0  0  0
   50.3640    1.3130   47.0110 C   0  0  0  0  0
   49.7860    0.0560   46.9100 C   0  0  0  0  0
   49.7450   -0.7880   48.0660 N   0  0  0  0  0
   51.0110   -1.4350   48.4090 C   0  0  0  0  0
   49.1030   -0.2030   49.2480 C   0  0  0  0  0
   49.2450   -0.3670   45.6400 C   0  0  0  0  0
   48.6270   -1.7520   45.5880 C   0  0  0  0  0
   48.0760   -2.1250   44.2150 C   0  0  0  0  0
   46.7290   -2.1110   43.9920 C   0  0  0  0  0
   46.1370   -2.4440   42.7490 C   0  0  0  0  0
   46.9390   -2.8070   41.6880 C   0  0  0  0  0
   48.3420   -2.8410   41.8550 C   0  0  0  0  0
   49.1930   -3.2100   40.7840 C   0  0  0  0  0
   50.5600   -3.2380   40.9670 C   0  0  0  0  0
   51.1270   -2.9010   42.2160 C   0  0  0  0  0
   50.3150   -2.5400   43.2700 C   0  0  0  0  0
   48.9020   -2.5000   43.1190 C   0  0  0  0  0
   49.2860    0.4380   44.5420 C   0  0  0  0  0
   49.8900    1.7580   44.6410 C   0  0  0  0  0
   49.9500    2.5200   43.6760 O   0  0  0  0  0
   50.4150    2.1460   45.9030 N   0  0  0  0  0
   52.2316    1.7621   45.2486 H   0  0  0  0  0
   50.4121    4.2426   45.6297 H   0  0  0  0  0
   50.2156    4.3153   47.9443 H   0  0  0  0  0
   51.9568    4.3093   47.8792 H   0  0  0  0  0
   51.3344   -2.0613   47.5776 H   0  0  0  0  0
   51.7651   -0.6731   48.6064 H   0  0  0  0  0
   50.8737   -2.0510   49.2977 H   0  0  0  0  0
   49.6394    0.6991   49.5422 H   0  0  0  0  0
   48.0691    0.0484   49.0113 H   0  0  0  0  0
   49.1251   -0.9233   50.0658 H   0  0  0  0  0
   47.7923   -1.7635   46.2889 H   0  0  0  0  0
   49.4115   -2.4688   45.8307 H   0  0  0  0  0
   46.0734   -1.8281   44.8155 H   0  0  0  0  0
   45.0537   -2.4134   42.6320 H   0  0  0  0  0
   46.4942   -3.0659   40.7272 H   0  0  0  0  0
   48.7675   -3.4718   39.8153 H   0  0  0  0  0
   51.2093   -3.5231   40.1392 H   0  0  0  0  0
   52.2088   -2.9264   42.3468 H   0  0  0  0  0
   50.7616   -2.2822   44.2303 H   0  0  0  0  0
   48.8689    0.0954   43.5950 H   0  0  0  0  0
  1  2  2  0  0  0
  2  3  1  0  0  0
  2  4  1  0  0  0
  4  5  1  0  0  0
  4 27  1  0  0  0
  5  6  1  0  0  0
  6  7  1  0  0  0
  7  8  2  0  0  0
  7 27  1  0  0  0
  8  9  1  0  0  0
  8 12  1  0  0  0
  9 10  1  0  0  0
  9 11  1  0  0  0
 12 13  1  0  0  0
 12 24  2  0  0  0
 13 14  1  0  0  0
 14 15  4  0  0  0
 14 23  4  0  0  0
 15 16  4  0  0  0
 16 17  4  0  0  0
 17 18  4  0  0  0
 18 19  4  0  0  0
 18 23  4  0  0  0
 19 20  4  0  0  0
 20 21  4  0  0  0
 21 22  4  0  0  0
 22 23  4  0  0  0
 24 25  1  0  0  0
 25 26  2  0  0  0
 25 27  1  0  0  0
  3 28  1  0  0  0
  4 29  1  0  0  0
  5 30  1  0  0  0
  5 31  1  0  0  0
 10 32  1  0  0  0
 10 33  1  0  0  0
 10 34  1  0  0  0
 11 35  1  0  0  0
 11 36  1  0  0  0
 11 37  1  0  0  0
 13 38  1  0  0  0
 13 39  1  0  0  0
 15 40  1  0  0  0
 16 41  1  0  0  0
 17 42  1  0  0  0
 19 43  1  0  0  0
 20 44  1  0  0  0
 21 45  1  0  0  0
 22 46  1  0  0  0
 24 47  1  0  0  0
M  END
$$$$
