4ocx_ligand
  -I-interpret- 

 55 57  0  0  0  0  0  0  0  0999 V2000
   40.3370   43.3540   10.5110 N   0  0  0  0  0
   39.6230   42.5490    9.7150 C   0  0  0  0  0
   39.3710   41.2340   10.1080 N   0  0  0  0  0
   39.1150   42.9130    8.5400 N   0  0  0  0  0
   39.3360   44.1750    8.1590 C   0  0  0  0  0
   38.8630   44.6090    6.9210 N   0  0  0  0  0
   40.0400   45.0810    8.9120 C   0  0  0  0  0
   40.1870   46.3390    8.4660 N   0  0  0  0  0
   40.8890   47.1610    9.2430 C   0  0  0  0  0
   41.3920   46.6960   10.4390 C   0  0  0  0  0
   41.2350   45.4490   10.8990 N   0  0  0  0  0
   40.5500   44.6140   10.1150 C   0  0  0  0  0
   41.0870   48.5750    8.7470 C   0  0  0  0  0
   41.6340   49.4290    9.8150 N   0  0  0  0  0
   42.8440   50.1410    9.4520 C   0  0  0  0  0
   38.7180   51.9050   11.6400 C   0  0  0  0  0
   38.4270   50.6050   11.2950 C   0  0  0  0  0
   39.3900   49.8210   10.7070 C   0  0  0  0  0
   40.6540   50.3040   10.4030 C   0  0  0  0  0
   40.9140   51.6190   10.7710 C   0  0  0  0  0
   39.9690   52.4110   11.3810 C   0  0  0  0  0
   37.7170   52.7840   12.2710 C   0  0  0  0  0
   37.8210   53.9930   12.1050 O   0  0  0  0  0
   36.7760   52.1190   13.0460 N   0  0  0  0  0
   35.5180   52.6620   13.5470 C   0  0  0  0  0
   34.5460   53.4560   12.6550 C   0  0  0  0  0
   33.3250   53.2640   12.9430 O   0  0  0  0  0
   35.0070   54.1930   11.7400 O   0  0  0  0  0
   35.6650   53.4460   14.8460 C   0  0  0  0  0
   36.9820   54.1890   14.9800 C   0  0  0  0  0
   36.9730   54.6240   16.4230 C   0  0  0  0  0
   36.5110   55.7840   16.6300 O   0  0  0  0  0
   37.4570   53.7690   17.2170 O   0  0  0  0  0
   39.7304   40.8901   10.9985 H   0  0  0  0  0
   38.8274   40.6167    9.5048 H   0  0  0  0  0
   38.3536   43.9653    6.3155 H   0  0  0  0  0
   39.0264   45.5701    6.6210 H   0  0  0  0  0
   41.9587   47.3944   11.0548 H   0  0  0  0  0
   40.1235   48.9767    8.4331 H   0  0  0  0  0
   41.7884   48.5610    7.9128 H   0  0  0  0  0
   43.6210   49.4235    9.1884 H   0  0  0  0  0
   42.6410   50.7884    8.5989 H   0  0  0  0  0
   43.1763   50.7444   10.2968 H   0  0  0  0  0
   37.4344   50.1980   11.4878 H   0  0  0  0  0
   39.1523   48.7837   10.4713 H   0  0  0  0  0
   41.9003   52.0369   10.5693 H   0  0  0  0  0
   40.2119   53.4368   11.6581 H   0  0  0  0  0
   36.9860   51.1512   13.2901 H   0  0  0  0  0
   35.0345   51.6907   13.6512 H   0  0  0  0  0
   33.2638   52.6560   13.6834 H   0  0  0  0  0
   35.6179   52.7259   15.6629 H   0  0  0  0  0
   34.8716   54.1932   14.8617 H   0  0  0  0  0
   37.0712   55.0241   14.2852 H   0  0  0  0  0
   37.8449   53.5728   14.7275 H   0  0  0  0  0
   36.2225   56.1656   15.7977 H   0  0  0  0  0
  1  2  4  0  0  0
 12  1  4  0  0  0
  2  3  1  0  0  0
  4  2  4  0  0  0
  5  4  4  0  0  0
  5  6  1  0  0  0
  7  5  4  0  0  0
  8  7  4  0  0  0
  7 12  4  0  0  0
  9  8  4  0  0  0
  9 10  4  0  0  0
 13  9  1  0  0  0
 10 11  4  0  0  0
 11 12  4  0  0  0
 14 13  1  0  0  0
 14 15  1  0  0  0
 19 14  1  0  0  0
 17 16  4  0  0  0
 16 21  4  0  0  0
 16 22  1  0  0  0
 18 17  4  0  0  0
 18 19  4  0  0  0
 19 20  4  0  0  0
 20 21  4  0  0  0
 22 23  2  0  0  0
 22 24  1  0  0  0
 24 25  1  0  0  0
 25 26  1  0  0  0
 25 29  1  0  0  0
 26 27  1  0  0  0
 26 28  2  0  0  0
 29 30  1  0  0  0
 30 31  1  0  0  0
 31 32  1  0  0  0
 31 33  2  0  0  0
  3 34  1  0  0  0
  3 35  1  0  0  0
  6 36  1  0  0  0
  6 37  1  0  0  0
 10 38  1  0  0  0
 13 39  1  0  0  0
 13 40  1  0  0  0
 15 41  1  0  0  0
 15 42  1  0  0  0
 15 43  1  0  0  0
 17 44  1  0  0  0
 18 45  1  0  0  0
 20 46  1  0  0  0
 21 47  1  0  0  0
 24 48  1  0  0  0
 25 49  1  0  0  0
 27 50  1  0  0  0
 29 51  1  0  0  0
 29 52  1  0  0  0
 30 53  1  0  0  0
 30 54  1  0  0  0
 32 55  1  0  0  0
M  END
$$$$
