2o3z_ligand
  -I-interpret- 

 37 37  0  0  0  0  0  0  0  0999 V2000
   57.1940   64.1350   -4.6460 C   0  0  0  0  0
   55.4340   64.4770   -6.8270 C   0  0  0  0  0
   56.7900   64.1500   -7.0760 C   0  0  0  0  0
   51.6920   64.1080    1.0020 C   0  0  0  0  0
   59.1280   63.6270   -6.2290 C   0  0  0  0  0
   54.1090   64.9360   -1.1200 C   0  0  0  0  0
   54.9660   64.6300   -5.4890 C   0  0  0  0  0
   54.1390   64.7240   -2.6290 C   0  0  0  0  0
   49.6200   64.5760    2.3840 C   0  0  0  0  0
   51.1350   64.3450    2.4100 C   0  0  0  0  0
   55.8340   64.4630   -4.3560 C   0  0  0  0  0
   53.2100   63.8700    1.0200 C   0  0  0  0  0
   53.7690   63.6300   -0.3920 C   0  0  0  0  0
   57.6880   63.9750   -5.9760 C   0  0  0  0  0
   59.6300   63.4640   -7.4640 O   0  0  0  0  0
   55.4880   64.5870   -3.0250 O   0  0  0  0  0
   59.9220   63.4720   -5.3000 O   0  0  0  0  0
   57.8857   64.0009   -3.8143 H   0  0  0  0  0
   54.7460   64.6121   -7.6616 H   0  0  0  0  0
   57.1468   64.0325   -8.0992 H   0  0  0  0  0
   51.4919   64.9951    0.4011 H   0  0  0  0  0
   51.2115   63.2212    0.5888 H   0  0  0  0  0
   53.3458   65.6779   -0.8849 H   0  0  0  0  0
   55.0924   65.2741   -0.7934 H   0  0  0  0  0
   53.9188   64.8811   -5.3205 H   0  0  0  0  0
   53.6822   65.5731   -3.1373 H   0  0  0  0  0
   53.5763   63.8289   -2.8943 H   0  0  0  0  0
   49.3976   65.4507    1.7729 H   0  0  0  0  0
   49.1275   63.7006    1.9606 H   0  0  0  0  0
   49.2613   64.7404    3.4001 H   0  0  0  0  0
   51.6123   65.2328    2.8249 H   0  0  0  0  0
   51.3390   63.4615    3.0149 H   0  0  0  0  0
   53.4100   62.9837    1.6222 H   0  0  0  0  0
   53.6904   64.7576    1.4317 H   0  0  0  0  0
   54.6870   63.0503   -0.2958 H   0  0  0  0  0
   53.0056   63.1112   -0.9718 H   0  0  0  0  0
   58.9357   63.6054   -8.1117 H   0  0  0  0  0
 11  1  4  0  0  0
  1 14  4  0  0  0
  2  3  4  0  0  0
  7  2  4  0  0  0
 14  3  4  0  0  0
  4 10  1  0  0  0
 12  4  1  0  0  0
 14  5  1  0  0  0
  5 15  1  0  0  0
  5 17  2  0  0  0
  6  8  1  0  0  0
 13  6  1  0  0  0
 11  7  4  0  0  0
  8 16  1  0  0  0
 10  9  1  0  0  0
 16 11  1  0  0  0
 12 13  1  0  0  0
  1 18  1  0  0  0
  2 19  1  0  0  0
  3 20  1  0  0  0
  4 21  1  0  0  0
  4 22  1  0  0  0
  6 23  1  0  0  0
  6 24  1  0  0  0
  7 25  1  0  0  0
  8 26  1  0  0  0
  8 27  1  0  0  0
  9 28  1  0  0  0
  9 29  1  0  0  0
  9 30  1  0  0  0
 10 31  1  0  0  0
 10 32  1  0  0  0
 12 33  1  0  0  0
 12 34  1  0  0  0
 13 35  1  0  0  0
 13 36  1  0  0  0
 15 37  1  0  0  0
M  END
$$$$
