1bmk_ligand
  -I-interpret- 

 39 42  0  0  0  0  0  0  0  0999 V2000
    7.9730   10.8540   30.2870 F   0  0  0  0  0
    6.1150   12.2490   30.9310 C   0  0  0  0  0
    6.7560   11.3940   29.9950 C   0  0  0  0  0
    6.1390   11.1000   28.7550 C   0  0  0  0  0
    4.8850   11.6620   28.4500 C   0  0  0  0  0
    4.2110   12.5330   29.3760 C   0  0  0  0  0
    4.8530   12.8140   30.6230 C   0  0  0  0  0
    1.3490    8.9140   30.2800 C   0  0  0  0  0
    0.4240    8.4160   29.4220 N   0  0  0  0  0
   -0.0610    9.2200   28.4870 C   0  0  0  0  0
    0.2760   10.4940   28.3020 N   0  0  0  0  0
    1.2100   11.0670   29.1360 C   0  0  0  0  0
    1.7970   10.2620   30.1980 C   0  0  0  0  0
   -0.9520    8.7080   27.6830 N   0  0  0  0  0
    0.6660   13.4540   28.3860 N   0  0  0  0  0
    1.5780   12.4660   28.9450 C   0  0  0  0  0
    2.9460   13.0940   29.0270 C   0  0  0  0  0
    2.8720   14.4160   28.5630 N   0  0  0  0  0
    1.5560   14.5090   28.2300 C   0  0  0  0  0
   -0.7750   13.3790   27.8760 C   0  0  0  0  0
   -1.0900   14.3700   26.7220 C   0  0  0  0  0
   -2.0560   13.9220   25.6200 C   0  0  0  0  0
   -0.5680   14.0230   25.3210 C   0  0  0  0  0
    6.5936   12.4700   31.8850 H   0  0  0  0  0
    6.6326   10.4417   28.0401 H   0  0  0  0  0
    4.4153   11.4329   27.4935 H   0  0  0  0  0
    4.3658   13.4701   31.3442 H   0  0  0  0  0
    1.7600    8.2644   31.0527 H   0  0  0  0  0
    2.5357   10.6680   30.8891 H   0  0  0  0  0
   -1.3629    9.2809   26.9459 H   0  0  0  0  0
   -1.2376    7.7348   27.7916 H   0  0  0  0  0
    1.1849   15.4501   27.8241 H   0  0  0  0  0
   -1.4269   13.6372   28.7105 H   0  0  0  0  0
   -0.9284   12.3720   27.4880 H   0  0  0  0  0
   -1.0247   15.2326   27.3852 H   0  0  0  0  0
   -2.9990   14.2481   25.1813 H   0  0  0  0  0
   -2.8664   13.2049   25.4891 H   0  0  0  0  0
    0.2167   13.4156   24.8699 H   0  0  0  0  0
    0.0843   14.4563   24.5629 H   0  0  0  0  0
  1  3  1  0  0  0
  3  2  4  0  0  0
  3  4  4  0  0  0
  4  5  4  0  0  0
  5  6  4  0  0  0
  6 17  1  0  0  0
  6  7  4  0  0  0
  7  2  4  0  0  0
 17 18  4  0  0  0
 17 16  4  0  0  0
 16 15  4  0  0  0
 16 12  1  0  0  0
 12 13  4  0  0  0
 12 11  4  0  0  0
 11 10  4  0  0  0
 10 14  1  0  0  0
 10  9  4  0  0  0
  9  8  4  0  0  0
  8 13  4  0  0  0
 15 19  4  0  0  0
 15 20  1  0  0  0
 20 21  1  0  0  0
 21 23  1  0  0  0
 21 22  1  0  0  0
 22 23  1  0  0  0
 19 18  4  0  0  0
  2 24  1  0  0  0
  4 25  1  0  0  0
  5 26  1  0  0  0
  7 27  1  0  0  0
  8 28  1  0  0  0
 13 29  1  0  0  0
 14 30  1  0  0  0
 14 31  1  0  0  0
 19 32  1  0  0  0
 20 33  1  0  0  0
 20 34  1  0  0  0
 21 35  1  0  0  0
 22 36  1  0  0  0
 22 37  1  0  0  0
 23 38  1  0  0  0
 23 39  1  0  0  0
M  END
$$$$
