### 
### Created by X-TOOL on Mon Sep 10 21:12:48 2018
### 

@<TRIPOS>MOLECULE
1i41_ligand
   40    40     1     0     0
SMALL
GAST_HUCK


@<TRIPOS>ATOM
      1 N1         97.6040  -50.1910   82.5240 N.ar      1 HEN        -0.3257
      2 C2         96.7570  -50.6190   83.5600 C.ar      1 HEN         0.0389
      3 C2A        97.3220  -50.4380   84.9360 C.3       1 HEN        -0.0224
      4 C3         95.4780  -51.1590   83.2020 C.ar      1 HEN         0.1125
      5 O3         94.6710  -51.5710   84.1520 O.3       1 HEN        -0.3349
      6 C4         95.1490  -51.2170   81.7600 C.ar      1 HEN         0.0137
      7 C4A        93.7750  -51.7490   81.2930 C.3       1 HEN         0.0358
      8 C5         96.1440  -50.7270   80.7620 C.ar      1 HEN         0.0014
      9 C6         97.3440  -50.2270   81.1800 C.ar      1 HEN        -0.0131
     10 C5A        95.7940  -50.7980   79.2540 C.3       1 HEN         0.1104
     11 OP4        95.5240  -49.5190   78.7130 O.3       1 HEN        -0.2651
     12 P          94.5080  -49.3970   77.4220 P.3       1 HEN         0.2035
     13 OP1        94.2400  -47.9410   77.2410 O.co2     1 HEN        -0.5536
     14 OP2        93.2710  -50.1040   77.7100 O.co2     1 HEN        -0.5536
     15 OP3        95.2260  -50.0500   76.2970 O.co2     1 HEN        -0.5536
     16 N4A        92.7100  -52.1850   82.0600 N.2       1 HEN        -0.3308
     17 CAI        91.5900  -52.6310   81.8640 C.2       1 HEN         0.0634
     18 CBC        90.6630  -52.9740   83.0620 C.2       1 HEN         0.0946
     19 O2B        91.1050  -53.8420   83.9620 O.co2     1 HEN        -0.5501
     20 O3B        89.5350  -52.4710   83.2340 O.co2     1 HEN        -0.5501
     21 CBI        91.0700  -52.8410   80.4690 C.2       1 HEN        -0.0202
     22 CGI        90.8420  -54.0890   80.0910 C.2       1 HEN        -0.0333
     23 CEI        90.2890  -54.4650   78.7620 C.3       1 HEN         0.0637
     24 PG         89.1430  -55.8740   79.1740 P.3       1 HEN         0.0774
     25 OG1        89.9420  -57.0250   79.9800 O.co2     1 HEN        -0.5599
     26 OG2        88.6550  -56.4850   77.9130 O.co2     1 HEN        -0.5599
     27 OG3        88.1400  -55.2980   80.1090 O.co2     1 HEN        -0.5599
     28 H1         96.5964  -50.7974   85.6805 H         1 HEN         0.0382
     29 H2         97.5284  -49.3717   85.1103 H         1 HEN         0.0382
     30 H3         98.2559  -51.0120   85.0274 H         1 HEN         0.0382
     31 H4         93.8686  -51.8998   83.7639 H         1 HEN         0.2454
     32 H5         94.0171  -52.6056   80.6468 H         1 HEN         0.0527
     33 H6         93.3583  -50.9349   80.6818 H         1 HEN         0.0527
     34 H7         98.0741  -49.8668   80.4643 H         1 HEN         0.0621
     35 H8         94.9053  -51.4332   79.1250 H         1 HEN         0.0762
     36 H9         96.6430  -51.2408   78.7126 H         1 HEN         0.0762
     37 H10        90.8887  -52.0024   79.7983 H         1 HEN         0.0511
     38 H11        91.0729  -54.8877   80.7944 H         1 HEN         0.0972
     39 H12        91.0871  -54.7906   78.0787 H         1 HEN         0.0713
     40 H13        89.7390  -53.6263   78.3102 H         1 HEN         0.0713
@<TRIPOS>BOND
     1    1    2 ar 
     2    1    9 ar 
     3    2    3 1  
     4    2    4 ar 
     5    4    5 1  
     6    4    6 ar 
     7    6    7 1  
     8    6    8 ar 
     9    7   16 1  
    10    8    9 ar 
    11    8   10 1  
    12   10   11 1  
    13   11   12 1  
    14   12   13 ar 
    15   12   14 ar 
    16   12   15 ar 
    17   16   17 2  
    18   17   18 1  
    19   17   21 1  
    20   18   19 ar 
    21   18   20 ar 
    22   21   22 2  
    23   22   23 1  
    24   23   24 1  
    25   24   25 ar 
    26   24   26 ar 
    27   24   27 ar 
    28    3   28 1  
    29    3   29 1  
    30    3   30 1  
    31    5   31 1  
    32    7   32 1  
    33    7   33 1  
    34    9   34 1  
    35   10   35 1  
    36   10   36 1  
    37   21   37 1  
    38   22   38 1  
    39   23   39 1  
    40   23   40 1  
@<TRIPOS>SUBSTRUCTURE
     1 HEN         1

