1i41_ligand
  -I-interpret- 

 45 45  0  0  0  0  0  0  0  0999 V2000
   97.6040  -50.1910   82.5240 N   0  0  0  0  0
   96.7570  -50.6190   83.5600 C   0  0  0  0  0
   97.3220  -50.4380   84.9360 C   0  0  0  0  0
   95.4780  -51.1590   83.2020 C   0  0  0  0  0
   94.6710  -51.5710   84.1520 O   0  0  0  0  0
   95.1490  -51.2170   81.7600 C   0  0  0  0  0
   93.7750  -51.7490   81.2930 C   0  0  0  0  0
   96.1440  -50.7270   80.7620 C   0  0  0  0  0
   97.3440  -50.2270   81.1800 C   0  0  0  0  0
   95.7940  -50.7980   79.2540 C   0  0  0  0  0
   95.5240  -49.5190   78.7130 O   0  0  0  0  0
   94.5080  -49.3970   77.4220 P   0  0  0  0  0
   94.2400  -47.9410   77.2410 O   0  0  0  0  0
   93.2710  -50.1040   77.7100 O   0  0  0  0  0
   95.2260  -50.0500   76.2970 O   0  0  0  0  0
   92.7100  -52.1850   82.0600 N   0  0  0  0  0
   91.5900  -52.6310   81.8640 C   0  0  0  0  0
   90.6630  -52.9740   83.0620 C   0  0  0  0  0
   91.1050  -53.8420   83.9620 O   0  0  0  0  0
   89.5350  -52.4710   83.2340 O   0  0  0  0  0
   91.0700  -52.8410   80.4690 C   0  0  0  0  0
   90.8420  -54.0890   80.0910 C   0  0  0  0  0
   90.2890  -54.4650   78.7620 C   0  0  0  0  0
   89.1430  -55.8740   79.1740 P   0  0  0  0  0
   89.9420  -57.0250   79.9800 O   0  0  0  0  0
   88.6550  -56.4850   77.9130 O   0  0  0  0  0
   88.1400  -55.2980   80.1090 O   0  0  0  0  0
   98.2473  -51.0072   85.0252 H   0  0  0  0  0
   97.5261  -49.3811   85.1074 H   0  0  0  0  0
   96.6021  -50.7945   85.6728 H   0  0  0  0  0
   93.8602  -51.9033   83.7598 H   0  0  0  0  0
   94.0706  -52.6788   80.8069 H   0  0  0  0  0
   93.3498  -50.8508   80.8452 H   0  0  0  0  0
   98.0781  -49.8648   80.4603 H   0  0  0  0  0
   94.9010  -51.4125   79.1395 H   0  0  0  0  0
   96.6488  -51.2189   78.7247 H   0  0  0  0  0
   95.0640  -47.4862   77.0516 H   0  0  0  0  0
   96.0397  -49.5730   76.1183 H   0  0  0  0  0
   91.9788  -54.1478   83.7078 H   0  0  0  0  0
   90.8885  -52.0016   79.7977 H   0  0  0  0  0
   91.0731  -54.8884   80.7951 H   0  0  0  0  0
   91.0613  -54.7427   78.0447 H   0  0  0  0  0
   89.7822  -53.6381   78.2645 H   0  0  0  0  0
   90.2739  -56.6644   80.8055 H   0  0  0  0  0
   88.5896  -54.9393   80.8776 H   0  0  0  0  0
  1  2  4  0  0  0
  1  9  4  0  0  0
  2  3  1  0  0  0
  2  4  4  0  0  0
  4  5  1  0  0  0
  4  6  4  0  0  0
  6  7  1  0  0  0
  6  8  4  0  0  0
  7 16  1  0  0  0
  8  9  4  0  0  0
  8 10  1  0  0  0
 10 11  1  0  0  0
 11 12  1  0  0  0
 12 13  1  0  0  0
 12 14  2  0  0  0
 12 15  1  0  0  0
 16 17  2  0  0  0
 17 18  1  0  0  0
 17 21  1  0  0  0
 18 19  1  0  0  0
 18 20  2  0  0  0
 21 22  2  0  0  0
 22 23  1  0  0  0
 23 24  1  0  0  0
 24 25  1  0  0  0
 24 26  2  0  0  0
 24 27  1  0  0  0
  3 28  1  0  0  0
  3 29  1  0  0  0
  3 30  1  0  0  0
  5 31  1  0  0  0
  7 32  1  0  0  0
  7 33  1  0  0  0
  9 34  1  0  0  0
 10 35  1  0  0  0
 10 36  1  0  0  0
 13 37  1  0  0  0
 15 38  1  0  0  0
 19 39  1  0  0  0
 21 40  1  0  0  0
 22 41  1  0  0  0
 23 42  1  0  0  0
 23 43  1  0  0  0
 25 44  1  0  0  0
 27 45  1  0  0  0
M  END
$$$$
