5uuu_ligand
  -I-interpret- 

 55 58  0  0  0  0  0  0  0  0999 V2000
  -55.0280   31.8130  -42.1110 C   0  0  0  0  0
  -55.6260   31.1650  -43.2140 C   0  0  0  0  0
  -54.9260   31.0430  -44.4070 C   0  0  0  0  0
  -53.7010   31.5330  -44.5140 N   0  0  0  0  0
  -53.0970   32.1390  -43.5000 C   0  0  0  0  0
  -53.7200   32.2960  -42.2700 C   0  0  0  0  0
  -55.6880   31.9360  -40.7900 C   0  0  0  0  0
  -55.4280   32.8640  -39.9000 N   0  0  0  0  0
  -56.1280   32.6810  -38.8410 N   0  0  0  0  0
  -56.8680   31.6120  -38.9780 C   0  0  0  0  0
  -56.6190   31.0950  -40.2090 N   0  0  0  0  0
  -57.2420   29.8820  -40.7620 C   0  0  0  0  0
  -57.8360   31.0510  -37.9610 C   0  0  0  0  0
  -58.1690   32.0470  -36.9460 N   0  0  0  0  0
  -58.9480   33.1890  -37.1890 C   0  0  0  0  0
  -59.4150   33.5350  -38.4730 C   0  0  0  0  0
  -60.1730   34.6890  -38.6660 C   0  0  0  0  0
  -60.4790   35.5050  -37.5860 C   0  0  0  0  0
  -60.0200   35.1740  -36.2950 C   0  0  0  0  0
  -59.2620   34.0080  -36.1000 C   0  0  0  0  0
  -60.3630   36.0290  -35.1390 C   0  0  0  0  0
  -61.3450   36.7580  -35.2220 O   0  0  0  0  0
  -59.5950   35.9790  -34.0210 N   0  0  0  0  0
  -59.9030   36.7950  -32.8480 C   0  0  0  0  0
  -59.1810   36.2090  -31.6730 C   0  0  0  0  0
  -58.0170   36.8120  -31.2560 C   0  0  0  0  0
  -57.3260   36.2950  -30.1760 C   0  0  0  0  0
  -57.8020   35.1670  -29.5300 C   0  0  0  0  0
  -58.9700   34.5560  -29.9570 C   0  0  0  0  0
  -59.6630   35.0790  -31.0330 C   0  0  0  0  0
  -57.5270   38.0410  -31.9790 C   0  0  0  0  0
  -56.1530   38.1850  -31.7840 F   0  0  0  0  0
  -57.7970   37.9460  -33.3500 F   0  0  0  0  0
  -58.2030   39.1510  -31.4640 F   0  0  0  0  0
  -56.6350   30.7614  -43.1291 H   0  0  0  0  0
  -55.3868   30.5420  -45.2583 H   0  0  0  0  0
  -52.0861   32.5232  -43.6365 H   0  0  0  0  0
  -53.2037   32.7848  -41.4438 H   0  0  0  0  0
  -57.7844   30.1365  -41.6726 H   0  0  0  0  0
  -56.4679   29.1497  -40.9913 H   0  0  0  0  0
  -57.9336   29.4644  -40.0303 H   0  0  0  0  0
  -57.3701   30.1961  -37.4709 H   0  0  0  0  0
  -58.7512   30.7581  -38.4755 H   0  0  0  0  0
  -57.8130   31.9036  -36.0010 H   0  0  0  0  0
  -59.1813   32.8942  -39.3232 H   0  0  0  0  0
  -60.5249   34.9501  -39.6640 H   0  0  0  0  0
  -61.0760   36.4045  -37.7365 H   0  0  0  0  0
  -58.9186   33.7416  -35.1004 H   0  0  0  0  0
  -58.7856   35.3587  -33.9989 H   0  0  0  0  0
  -60.9775   36.8005  -32.6650 H   0  0  0  0  0
  -59.5834   37.8242  -33.0111 H   0  0  0  0  0
  -56.4087   36.7743  -29.8340 H   0  0  0  0  0
  -57.2550   34.7573  -28.6809 H   0  0  0  0  0
  -59.3408   33.6670  -29.4469 H   0  0  0  0  0
  -60.5829   34.6051  -31.3756 H   0  0  0  0  0
  1  2  4  0  0  0
  1  6  4  0  0  0
  1  7  1  0  0  0
  2  3  4  0  0  0
  3  4  4  0  0  0
  4  5  4  0  0  0
  5  6  4  0  0  0
  7  8  4  0  0  0
  7 11  4  0  0  0
  8  9  4  0  0  0
  9 10  4  0  0  0
 10 11  4  0  0  0
 10 13  1  0  0  0
 11 12  1  0  0  0
 13 14  1  0  0  0
 14 15  1  0  0  0
 15 16  4  0  0  0
 15 20  4  0  0  0
 16 17  4  0  0  0
 17 18  4  0  0  0
 18 19  4  0  0  0
 19 20  4  0  0  0
 19 21  1  0  0  0
 21 22  2  0  0  0
 21 23  1  0  0  0
 23 24  1  0  0  0
 24 25  1  0  0  0
 25 26  4  0  0  0
 25 30  4  0  0  0
 26 27  4  0  0  0
 26 31  1  0  0  0
 27 28  4  0  0  0
 28 29  4  0  0  0
 29 30  4  0  0  0
 31 32  1  0  0  0
 31 33  1  0  0  0
 31 34  1  0  0  0
  2 35  1  0  0  0
  3 36  1  0  0  0
  5 37  1  0  0  0
  6 38  1  0  0  0
 12 39  1  0  0  0
 12 40  1  0  0  0
 12 41  1  0  0  0
 13 42  1  0  0  0
 13 43  1  0  0  0
 14 44  1  0  0  0
 16 45  1  0  0  0
 17 46  1  0  0  0
 18 47  1  0  0  0
 20 48  1  0  0  0
 23 49  1  0  0  0
 24 50  1  0  0  0
 24 51  1  0  0  0
 27 52  1  0  0  0
 28 53  1  0  0  0
 29 54  1  0  0  0
 30 55  1  0  0  0
M  END
$$$$
