2q2a_ligand
  -I-interpret- 

 27 26  0  0  0  0  0  0  0  0999 V2000
    3.0300    1.9490   13.2740 N   0  3  0  0  0
    3.8830    0.9220   14.0000 C   0  0  0  0  0
    4.9230    0.3310   13.0670 C   0  0  0  0  0
    4.9050    0.5290   11.8310 O   0  0  0  0  0
    3.0340   -0.2090   14.5910 C   0  0  0  0  0
    2.1130   -0.8270   13.5400 C   0  0  0  0  0
    1.5750   -2.1920   13.9660 C   0  0  0  0  0
    0.4410   -2.5640   13.1070 N   0  0  0  0  0
   -0.2520   -3.6990   13.2240 C   0  0  0  0  0
    0.0680   -4.5820   14.1700 N   0  0  0  0  0
   -1.2820   -3.9490   12.4120 N   0  0  0  0  0
    5.8450   -0.3260   13.5550 O   0  0  0  0  0
    3.6303    2.6822   12.8967 H   0  0  0  0  0
    2.5271    1.4940   12.5121 H   0  0  0  0  0
    2.3620    2.3576   13.9277 H   0  0  0  0  0
    4.3798    1.4442   14.8176 H   0  0  0  0  0
    4.1329    1.0519   11.6030 H   0  0  0  0  0
    2.4178    0.2036   15.3899 H   0  0  0  0  0
    3.7034   -0.9850   14.9622 H   0  0  0  0  0
    2.6894   -0.9627   12.6249 H   0  0  0  0  0
    1.2634   -0.1583   13.4015 H   0  0  0  0  0
    1.2435   -2.1435   15.0032 H   0  0  0  0  0
    2.3632   -2.9386   13.8694 H   0  0  0  0  0
    0.1656   -1.9115   12.3730 H   0  0  0  0  0
    0.8429   -4.3907   14.8051 H   0  0  0  0  0
   -1.8176   -4.8106   12.5180 H   0  0  0  0  0
   -1.5333   -3.2784   11.6856 H   0  0  0  0  0
  1  2  1  0  0  0
  2  3  1  0  0  0
  2  5  1  0  0  0
  3  4  1  0  0  0
  3 12  2  0  0  0
  5  6  1  0  0  0
  6  7  1  0  0  0
  7  8  1  0  0  0
  8  9  1  0  0  0
  9 10  2  0  0  0
  9 11  1  0  0  0
  1 13  1  0  0  0
  1 14  1  0  0  0
  1 15  1  0  0  0
  2 16  1  0  0  0
  4 17  1  0  0  0
  5 18  1  0  0  0
  5 19  1  0  0  0
  6 20  1  0  0  0
  6 21  1  0  0  0
  7 22  1  0  0  0
  7 23  1  0  0  0
  8 24  1  0  0  0
 10 25  1  0  0  0
 11 26  1  0  0  0
 11 27  1  0  0  0
M  END
$$$$
