4edy_ligand
  -I-interpret- 

 56 59  0  0  0  0  0  0  0  0999 V2000
   24.0240    2.7380   17.2800 O   0  0  0  0  0
   23.3300    1.7870   17.6050 C   0  0  0  0  0
   23.8550    0.6070   17.9270 N   0  0  0  0  0
   25.2470    0.1910   17.9610 C   0  0  0  0  0
   25.9300    0.8560   19.1520 C   0  0  0  0  0
   27.3860    0.8440   18.9200 N   0  3  0  0  0
   27.9410   -0.5070   19.1250 C   0  0  0  0  0
   29.4350   -0.4910   18.8250 C   0  0  0  0  0
   30.0780    0.4560   19.6770 O   0  0  0  0  0
   29.5570    1.7790   19.5390 C   0  0  0  0  0
   28.0580    1.7870   19.8280 C   0  0  0  0  0
   21.8330    1.9190   17.6420 C   0  0  0  0  0
   21.0750    0.9600   18.3050 C   0  0  0  0  0
   19.6930    1.0630   18.3410 C   0  0  0  0  0
   21.1910    2.9810   17.0090 C   0  0  0  0  0
   19.7990    3.0840   17.0420 C   0  0  0  0  0
   19.0490    2.1170   17.7010 C   0  0  0  0  0
   17.5650    2.1700   17.7910 C   0  0  0  0  0
   16.7070    1.0870   17.2300 C   0  0  0  0  0
   16.8860    3.2960   18.4860 C   0  0  0  0  0
   17.7190    4.4130   19.0790 C   0  0  0  0  0
   17.0100    5.0880   20.1170 O   0  0  0  0  0
   15.4890    3.3210   18.5790 C   0  0  0  0  0
   14.6860    2.3100   18.0510 C   0  0  0  0  0
   15.2350    1.2140   17.3930 C   0  0  0  0  0
   14.4070    0.2260   16.8770 C   0  0  0  0  0
   14.9640   -0.8630   16.2160 C   0  0  0  0  0
   16.3390   -0.9850   16.0590 C   0  0  0  0  0
   17.2160   -0.0250   16.5590 C   0  0  0  0  0
   23.1803   -0.1118   18.1887 H   0  0  0  0  0
   25.7438    0.4878   17.0373 H   0  0  0  0  0
   25.3062   -0.8930   18.0592 H   0  0  0  0  0
   25.6938    0.3140   20.0677 H   0  0  0  0  0
   25.5778    1.8820   19.2588 H   0  0  0  0  0
   27.5495    1.1265   17.9536 H   0  0  0  0  0
   27.4431   -1.2103   18.4575 H   0  0  0  0  0
   27.7805   -0.8136   20.1586 H   0  0  0  0  0
   29.5947   -0.2117   17.7836 H   0  0  0  0  0
   29.8528   -1.4823   19.0010 H   0  0  0  0  0
   29.7260    2.1248   18.5192 H   0  0  0  0  0
   30.0608    2.4369   20.2471 H   0  0  0  0  0
   27.8828    1.4880   20.8615 H   0  0  0  0  0
   27.6607    2.7902   19.6735 H   0  0  0  0  0
   21.5697    0.1235   18.7986 H   0  0  0  0  0
   19.1075    0.3138   18.8739 H   0  0  0  0  0
   21.7783    3.7353   16.4854 H   0  0  0  0  0
   19.3015    3.9210   16.5520 H   0  0  0  0  0
   17.9510    5.1304   18.2918 H   0  0  0  0  0
   18.6283    3.9839   19.5000 H   0  0  0  0  0
   17.5594    5.7893   20.4745 H   0  0  0  0  0
   15.0114    4.1615   19.0826 H   0  0  0  0  0
   13.6034    2.3803   18.1564 H   0  0  0  0  0
   13.3256    0.3038   16.9896 H   0  0  0  0  0
   14.3093   -1.6359   15.8132 H   0  0  0  0  0
   16.7405   -1.8511   15.5329 H   0  0  0  0  0
   18.2916   -0.1419   16.4269 H   0  0  0  0  0
  1  2  2  0  0  0
  2  3  1  0  0  0
  2 12  1  0  0  0
  3  4  1  0  0  0
  4  5  1  0  0  0
  5  6  1  0  0  0
  6  7  1  0  0  0
  6 11  1  0  0  0
  7  8  1  0  0  0
  8  9  1  0  0  0
  9 10  1  0  0  0
 10 11  1  0  0  0
 12 13  4  0  0  0
 12 15  4  0  0  0
 13 14  4  0  0  0
 14 17  4  0  0  0
 15 16  4  0  0  0
 16 17  4  0  0  0
 17 18  1  0  0  0
 18 19  4  0  0  0
 18 20  4  0  0  0
 19 25  4  0  0  0
 19 29  4  0  0  0
 20 21  1  0  0  0
 20 23  4  0  0  0
 21 22  1  0  0  0
 23 24  4  0  0  0
 24 25  4  0  0  0
 25 26  4  0  0  0
 26 27  4  0  0  0
 27 28  4  0  0  0
 28 29  4  0  0  0
  3 30  1  0  0  0
  4 31  1  0  0  0
  4 32  1  0  0  0
  5 33  1  0  0  0
  5 34  1  0  0  0
  6 35  1  0  0  0
  7 36  1  0  0  0
  7 37  1  0  0  0
  8 38  1  0  0  0
  8 39  1  0  0  0
 10 40  1  0  0  0
 10 41  1  0  0  0
 11 42  1  0  0  0
 11 43  1  0  0  0
 13 44  1  0  0  0
 14 45  1  0  0  0
 15 46  1  0  0  0
 16 47  1  0  0  0
 21 48  1  0  0  0
 21 49  1  0  0  0
 22 50  1  0  0  0
 23 51  1  0  0  0
 24 52  1  0  0  0
 26 53  1  0  0  0
 27 54  1  0  0  0
 28 55  1  0  0  0
 29 56  1  0  0  0
M  END
$$$$
