### 
### Created by X-TOOL on Mon Sep 10 21:13:09 2018
### 

@<TRIPOS>MOLECULE
4edy_ligand
   55    58     1     0     0
SMALL
GAST_HUCK


@<TRIPOS>ATOM
      1 O24        24.0240    2.7380   17.2800 O.2       1 9PQ        -0.3859
      2 C23        23.3300    1.7870   17.6050 C.2       1 9PQ         0.2030
      3 N25        23.8550    0.6070   17.9270 N.am      1 9PQ        -0.2885
      4 C26        25.2470    0.1910   17.9610 C.3       1 9PQ         0.0118
      5 C27        25.9300    0.8560   19.1520 C.3       1 9PQ        -0.0922
      6 N7         27.3860    0.8440   18.9200 N.4       1 9PQ         0.4073
      7 C12        27.9410   -0.5070   19.1250 C.3       1 9PQ        -0.0888
      8 C11        29.4350   -0.4910   18.8250 C.3       1 9PQ         0.0291
      9 O10        30.0780    0.4560   19.6770 O.3       1 9PQ        -0.3838
     10 C9         29.5570    1.7790   19.5390 C.3       1 9PQ         0.0291
     11 C8         28.0580    1.7870   19.8280 C.3       1 9PQ        -0.0888
     12 C16        21.8330    1.9190   17.6420 C.ar      1 9PQ         0.0474
     13 C15        21.0750    0.9600   18.3050 C.ar      1 9PQ        -0.0438
     14 C14        19.6930    1.0630   18.3410 C.ar      1 9PQ        -0.0517
     15 C17        21.1910    2.9810   17.0090 C.ar      1 9PQ        -0.0438
     16 C18        19.7990    3.0840   17.0420 C.ar      1 9PQ        -0.0517
     17 C13        19.0490    2.1170   17.7010 C.ar      1 9PQ        -0.0193
     18 C19        17.5650    2.1700   17.7910 C.ar      1 9PQ        -0.0046
     19 C2         16.7070    1.0870   17.2300 C.ar      1 9PQ        -0.0160
     20 C20        16.8860    3.2960   18.4860 C.ar      1 9PQ        -0.0058
     21 C28        17.7190    4.4130   19.0790 C.3       1 9PQ         0.0805
     22 O29        17.0100    5.0880   20.1170 O.3       1 9PQ        -0.3816
     23 C21        15.4890    3.3210   18.5790 C.ar      1 9PQ        -0.0518
     24 C22        14.6860    2.3100   18.0510 C.ar      1 9PQ        -0.0553
     25 C1         15.2350    1.2140   17.3930 C.ar      1 9PQ        -0.0203
     26 C6         14.4070    0.2260   16.8770 C.ar      1 9PQ        -0.0562
     27 C5         14.9640   -0.8630   16.2160 C.ar      1 9PQ        -0.0630
     28 C4         16.3390   -0.9850   16.0590 C.ar      1 9PQ        -0.0632
     29 C3         17.2160   -0.0250   16.5590 C.ar      1 9PQ        -0.0566
     30 H          23.1803   -0.1118   18.1887 H         1 9PQ         0.1842
     31 H          25.7438    0.4878   17.0373 H         1 9PQ         0.0499
     32 H          25.3062   -0.8930   18.0592 H         1 9PQ         0.0499
     33 H          25.6938    0.3140   20.0677 H         1 9PQ         0.0037
     34 H          25.5778    1.8820   19.2588 H         1 9PQ         0.0037
     35 H          27.4431   -1.2103   18.4575 H         1 9PQ         0.0040
     36 H          27.7805   -0.8136   20.1586 H         1 9PQ         0.0040
     37 H          29.5947   -0.2117   17.7836 H         1 9PQ         0.0539
     38 H          29.8528   -1.4823   19.0010 H         1 9PQ         0.0539
     39 H          29.7260    2.1248   18.5192 H         1 9PQ         0.0539
     40 H          30.0608    2.4369   20.2471 H         1 9PQ         0.0539
     41 H          27.8828    1.4880   20.8615 H         1 9PQ         0.0040
     42 H          27.6607    2.7902   19.6735 H         1 9PQ         0.0040
     43 H          21.5697    0.1235   18.7986 H         1 9PQ         0.0663
     44 H          19.1075    0.3138   18.8739 H         1 9PQ         0.0617
     45 H          21.7783    3.7353   16.4854 H         1 9PQ         0.0663
     46 H          19.3015    3.9210   16.5520 H         1 9PQ         0.0617
     47 H          17.9510    5.1304   18.2918 H         1 9PQ         0.0733
     48 H          18.6283    3.9839   19.5000 H         1 9PQ         0.0733
     49 H          16.7930    4.4636   20.8131 H         1 9PQ         0.2129
     50 H          15.0114    4.1615   19.0826 H         1 9PQ         0.0589
     51 H          13.6034    2.3803   18.1564 H         1 9PQ         0.0631
     52 H          13.3256    0.3038   16.9896 H         1 9PQ         0.0622
     53 H          14.3093   -1.6359   15.8132 H         1 9PQ         0.0600
     54 H          16.7405   -1.8511   15.5329 H         1 9PQ         0.0614
     55 H          18.2916   -0.1419   16.4269 H         1 9PQ         0.0606
@<TRIPOS>BOND
     1    1    2 2  
     2    2    3 am 
     3    2   12 1  
     4    3    4 1  
     5    4    5 1  
     6    5    6 1  
     7    6    7 1  
     8    6   11 1  
     9    7    8 1  
    10    8    9 1  
    11    9   10 1  
    12   10   11 1  
    13   12   13 ar 
    14   12   15 ar 
    15   13   14 ar 
    16   14   17 ar 
    17   15   16 ar 
    18   16   17 ar 
    19   17   18 1  
    20   18   19 ar 
    21   18   20 ar 
    22   19   25 ar 
    23   19   29 ar 
    24   20   21 1  
    25   20   23 ar 
    26   21   22 1  
    27   23   24 ar 
    28   24   25 ar 
    29   25   26 ar 
    30   26   27 ar 
    31   27   28 ar 
    32   28   29 ar 
    33    3   30 1  
    34    4   31 1  
    35    4   32 1  
    36    5   33 1  
    37    5   34 1  
    38    7   35 1  
    39    7   36 1  
    40    8   37 1  
    41    8   38 1  
    42   10   39 1  
    43   10   40 1  
    44   11   41 1  
    45   11   42 1  
    46   13   43 1  
    47   14   44 1  
    48   15   45 1  
    49   16   46 1  
    50   21   47 1  
    51   21   48 1  
    52   22   49 1  
    53   23   50 1  
    54   24   51 1  
    55   26   52 1  
    56   27   53 1  
    57   28   54 1  
    58   29   55 1  
@<TRIPOS>SUBSTRUCTURE
     1 9PQ         1

