6ode_ligand
  -I-interpret- 

 69 73  0  0  0  0  0  0  0  0999 V2000
   79.1680  -26.4810  198.0470 C   0  0  0  0  0
   79.6320  -25.1850  198.1590 C   0  0  0  0  0
   81.0500  -24.7270  197.8930 C   0  0  0  0  0
   78.6000  -24.4240  198.5410 O   0  0  0  0  0
   77.5010  -25.2190  198.6700 N   0  0  0  0  0
   77.8280  -26.4550  198.3810 C   0  0  0  0  0
   76.8920  -27.6370  198.3930 C   0  0  0  0  0
   77.3060  -28.7610  198.2200 O   0  0  0  0  0
   70.4450  -24.3120  199.2910 C   0  0  0  0  0
   70.0620  -26.3620  198.1980 C   0  0  0  0  0
   68.9280  -27.1890  196.2300 C   0  0  0  0  0
   69.3800  -27.3010  198.9820 C   0  0  0  0  0
   74.5300  -29.2340  197.2910 C   0  0  0  0  0
   74.5070  -28.4730  198.6390 C   0  0  0  0  0
   73.0490  -27.9540  198.8320 C   0  0  0  0  0
   72.6660  -27.2520  200.1750 C   0  0  0  0  0
   71.2790  -25.2330  201.3640 C   0  0  0  0  0
   70.3110  -24.4040  200.9230 C   0  0  0  0  0
   71.0910  -25.3620  198.8720 C   0  0  0  0  0
   69.8290  -26.3110  196.8150 C   0  0  0  0  0
   68.2450  -28.1340  197.0210 C   0  0  0  0  0
   68.4760  -28.1830  198.3950 C   0  0  0  0  0
   71.7510  -26.0390  200.1570 N   0  0  0  0  0
   75.4250  -27.3910  198.6190 N   0  0  0  0  0
   74.7630  -28.6510  196.2540 O   0  0  0  0  0
   73.0840  -27.6590  201.1760 O   0  0  0  0  0
   69.7930  -30.5420  189.8550 C   0  0  0  0  0
   70.7960  -30.4720  194.9770 C   0  0  0  0  0
   74.3110  -32.9110  196.2550 C   0  0  0  0  0
   74.2340  -31.4330  196.0310 C   0  0  0  0  0
   72.8580  -31.0720  195.2880 C   0  0  0  0  0
   71.4060  -30.7110  193.7190 C   0  0  0  0  0
   70.8360  -30.6200  192.4320 C   0  0  0  0  0
   69.8640  -29.6710  192.1130 C   0  0  0  0  0
   69.3430  -29.6360  190.8230 C   0  0  0  0  0
   70.7650  -31.4860  190.1740 C   0  0  0  0  0
   71.2820  -31.5170  191.4630 C   0  0  0  0  0
   69.4210  -28.7840  193.0610 F   0  0  0  0  0
   72.6590  -31.0790  193.9690 N   0  0  0  0  0
   71.7170  -30.6990  195.9010 N   0  0  0  0  0
   74.2390  -30.7210  197.2850 N   0  0  0  0  0
   79.7475  -27.3557  197.7519 H   0  0  0  0  0
   81.7310  -25.2480  198.5659 H   0  0  0  0  0
   81.3153  -24.9518  196.8599 H   0  0  0  0  0
   81.1212  -23.6526  198.0622 H   0  0  0  0  0
   70.9835  -23.4065  199.0114 H   0  0  0  0  0
   69.4548  -24.2774  198.8368 H   0  0  0  0  0
   68.7481  -27.1476  195.1558 H   0  0  0  0  0
   69.5576  -27.3417  200.0567 H   0  0  0  0  0
   74.8020  -29.1251  199.4611 H   0  0  0  0  0
   72.4257  -28.8474  198.7945 H   0  0  0  0  0
   72.9204  -27.1874  198.0679 H   0  0  0  0  0
   71.6521  -25.3121  202.3851 H   0  0  0  0  0
   69.5739  -23.8889  201.5390 H   0  0  0  0  0
   71.8548  -25.1023  198.1390 H   0  0  0  0  0
   70.3561  -25.5814  196.2002 H   0  0  0  0  0
   67.5385  -28.8244  196.5603 H   0  0  0  0  0
   67.9487  -28.9121  199.0103 H   0  0  0  0  0
   75.0875  -26.4387  198.7590 H   0  0  0  0  0
   69.3802  -30.5080  188.8468 H   0  0  0  0  0
   69.7658  -30.1609  195.1501 H   0  0  0  0  0
   73.4710  -33.2278  196.8731 H   0  0  0  0  0
   74.2714  -33.4253  195.2948 H   0  0  0  0  0
   75.2465  -33.1525  196.7596 H   0  0  0  0  0
   75.0977  -31.1438  195.4323 H   0  0  0  0  0
   68.5814  -28.9001  190.5651 H   0  0  0  0  0
   71.1161  -32.1922  189.4216 H   0  0  0  0  0
   72.0454  -32.2515  191.7196 H   0  0  0  0  0
   74.0488  -31.2128  198.1581 H   0  0  0  0  0
  1  2  4  0  0  0
  6  1  4  0  0  0
  2  3  1  0  0  0
  4  2  4  0  0  0
  5  4  4  0  0  0
  6  5  4  0  0  0
  7  6  1  0  0  0
  7  8  2  0  0  0
 24  7  1  0  0  0
  9 18  1  0  0  0
 19  9  1  0  0  0
 10 12  4  0  0  0
 19 10  1  0  0  0
 10 20  4  0  0  0
 20 11  4  0  0  0
 11 21  4  0  0  0
 12 22  4  0  0  0
 13 14  1  0  0  0
 13 25  2  0  0  0
 41 13  1  0  0  0
 14 15  1  0  0  0
 14 24  1  0  0  0
 15 16  1  0  0  0
 16 23  1  0  0  0
 16 26  2  0  0  0
 17 18  2  0  0  0
 23 17  1  0  0  0
 23 19  1  0  0  0
 22 21  4  0  0  0
 35 27  4  0  0  0
 27 36  4  0  0  0
 32 28  4  0  0  0
 28 40  4  0  0  0
 30 29  1  0  0  0
 31 30  1  0  0  0
 30 41  1  0  0  0
 39 31  4  0  0  0
 31 40  4  0  0  0
 33 32  1  0  0  0
 32 39  4  0  0  0
 34 33  4  0  0  0
 33 37  4  0  0  0
 34 35  4  0  0  0
 34 38  1  0  0  0
 36 37  4  0  0  0
  1 42  1  0  0  0
  3 43  1  0  0  0
  3 44  1  0  0  0
  3 45  1  0  0  0
  9 46  1  0  0  0
  9 47  1  0  0  0
 11 48  1  0  0  0
 12 49  1  0  0  0
 14 50  1  0  0  0
 15 51  1  0  0  0
 15 52  1  0  0  0
 17 53  1  0  0  0
 18 54  1  0  0  0
 19 55  1  0  0  0
 20 56  1  0  0  0
 21 57  1  0  0  0
 22 58  1  0  0  0
 24 59  1  0  0  0
 27 60  1  0  0  0
 28 61  1  0  0  0
 29 62  1  0  0  0
 29 63  1  0  0  0
 29 64  1  0  0  0
 30 65  1  0  0  0
 35 66  1  0  0  0
 36 67  1  0  0  0
 37 68  1  0  0  0
 41 69  1  0  0  0
M  END
$$$$
