3o7u_ligand
  -I-interpret- 

 15 15  0  0  0  0  0  0  0  0999 V2000
  -68.6610   18.1380  -14.9840 N   0  0  0  0  0
  -68.5570   19.5050  -15.2590 C   0  0  0  0  0
  -69.2330   20.4050  -14.7200 O   0  0  0  0  0
  -67.6650   19.8970  -16.2220 N   0  0  0  0  0
  -66.7920   19.1800  -18.6490 N   0  0  0  0  0
  -65.2930   19.4280  -16.6230 O   0  0  0  0  0
  -66.6200   18.9560  -17.0440 P   0  0  0  0  0
  -66.9530   17.2680  -16.5620 C   0  0  0  0  0
  -67.8540   17.1280  -15.6640 C   0  0  0  0  0
  -69.3300   17.8325  -14.2772 H   0  0  0  0  0
  -67.6540   20.8911  -16.4502 H   0  0  0  0  0
  -66.0330   19.5938  -19.1904 H   0  0  0  0  0
  -67.6586   18.9064  -19.1122 H   0  0  0  0  0
  -66.4274   16.4198  -17.0006 H   0  0  0  0  0
  -68.0487   16.0993  -15.3606 H   0  0  0  0  0
  1  2  1  0  0  0
  1  9  1  0  0  0
  2  3  2  0  0  0
  2  4  1  0  0  0
  4  7  1  0  0  0
  7  5  1  0  0  0
  7  6  2  0  0  0
  7  8  1  0  0  0
  8  9  2  0  0  0
  1 10  1  0  0  0
  4 11  1  0  0  0
  5 12  1  0  0  0
  5 13  1  0  0  0
  8 14  1  0  0  0
  9 15  1  0  0  0
M  END
$$$$
