5aa9_ligand
  -I-interpret- 

 49 52  0  0  0  0  0  0  0  0999 V2000
   26.6460   48.8240    7.2500 C   0  0  0  0  0
   34.5640   47.0100    8.9140 C   0  0  0  0  0
   34.9850   46.8080   10.2490 C   0  0  0  0  0
   29.9700   45.8860    8.4950 C   0  0  0  0  0
   33.6300   44.7540   10.3780 C   0  0  0  0  0
   27.8550   46.5220    9.3600 C   0  0  0  0  0
   28.0750   48.9430    7.1840 C   0  0  0  0  0
   28.9460   46.8560    8.5220 C   0  0  0  0  0
   29.0940   48.1180    7.7150 C   0  0  0  0  0
   33.6640   46.0840    8.2910 C   0  0  0  0  0
   33.1720   44.9180    9.0200 C   0  0  0  0  0
   29.9550   44.6760    9.2290 C   0  0  0  0  0
   34.5200   45.6910   10.9650 C   0  0  0  0  0
   30.3190   48.8030    7.2920 C   0  0  0  0  0
   28.8150   44.4420   10.0380 C   0  0  0  0  0
   33.2810   46.3910    6.8730 C   0  0  0  0  0
   31.7860   48.4670    7.5230 C   0  0  0  0  0
   32.1900   43.8690    8.4200 C   0  0  0  0  0
   32.8270   42.4690    8.3440 C   0  0  0  0  0
   28.1290   51.0970    5.8250 C   0  0  0  0  0
   32.1150   47.6960    5.1190 C   0  0  0  0  0
   25.4970   48.7130    7.3280 N   0  0  0  0  0
   27.7780   45.3530   10.1000 N   0  0  0  0  0
   30.0570   49.9100    6.5870 N   0  0  0  0  0
   28.7270   49.9770    6.5340 N   0  0  0  0  0
   32.4110   47.4960    6.5480 N   0  0  0  0  0
   28.7250   43.2630   10.8060 N   0  0  0  0  0
   33.7740   45.6200    6.0370 O   0  0  0  0  0
   30.9660   43.7090    9.2230 O   0  0  0  0  0
   34.9250   45.5120   12.2250 F   0  0  0  0  0
   34.9255   47.8738    8.3561 H   0  0  0  0  0
   35.6671   47.5153   10.7208 H   0  0  0  0  0
   30.8358   46.0828    7.8628 H   0  0  0  0  0
   33.2880   43.8990   10.9612 H   0  0  0  0  0
   27.0260   47.2265    9.4271 H   0  0  0  0  0
   31.8382   47.9906    8.5020 H   0  0  0  0  0
   32.3333   49.4032    7.4126 H   0  0  0  0  0
   31.9505   44.2558    7.4295 H   0  0  0  0  0
   33.7146   42.5089    7.7125 H   0  0  0  0  0
   33.1067   42.1436    9.3460 H   0  0  0  0  0
   32.1090   41.7671    7.9199 H   0  0  0  0  0
   27.5144   50.7211    5.0070 H   0  0  0  0  0
   27.5087   51.6714    6.5130 H   0  0  0  0  0
   28.9173   51.7350    5.4254 H   0  0  0  0  0
   33.0442   47.8766    4.5786 H   0  0  0  0  0
   31.6294   46.8047    4.7216 H   0  0  0  0  0
   31.4531   48.5542    5.0030 H   0  0  0  0  0
   29.4804   42.5782   10.7795 H   0  0  0  0  0
   27.9044   43.0949   11.3881 H   0  0  0  0  0
  7  1  1  0  0  0
  1 22  3  0  0  0
  2  3  4  0  0  0
 10  2  4  0  0  0
  3 13  4  0  0  0
  8  4  4  0  0  0
  4 12  4  0  0  0
 11  5  4  0  0  0
  5 13  4  0  0  0
  8  6  4  0  0  0
  6 23  4  0  0  0
  9  7  4  0  0  0
  7 25  4  0  0  0
  9  8  1  0  0  0
 14  9  4  0  0  0
 10 11  4  0  0  0
 16 10  1  0  0  0
 11 18  1  0  0  0
 12 15  4  0  0  0
 12 29  1  0  0  0
 13 30  1  0  0  0
 17 14  1  0  0  0
 14 24  4  0  0  0
 23 15  4  0  0  0
 15 27  1  0  0  0
 26 16  1  0  0  0
 16 28  2  0  0  0
 17 26  1  0  0  0
 18 19  1  0  0  0
 18 29  1  0  0  0
 25 20  1  0  0  0
 26 21  1  0  0  0
 24 25  4  0  0  0
  2 31  1  0  0  0
  3 32  1  0  0  0
  4 33  1  0  0  0
  5 34  1  0  0  0
  6 35  1  0  0  0
 17 36  1  0  0  0
 17 37  1  0  0  0
 18 38  1  0  0  0
 19 39  1  0  0  0
 19 40  1  0  0  0
 19 41  1  0  0  0
 20 42  1  0  0  0
 20 43  1  0  0  0
 20 44  1  0  0  0
 21 45  1  0  0  0
 21 46  1  0  0  0
 21 47  1  0  0  0
 27 48  1  0  0  0
 27 49  1  0  0  0
M  END
$$$$
