4e90_ligand
  -I-interpret- 

 55 59  0  0  0  0  0  0  0  0999 V2000
   77.8500   51.0390   42.1990 N   0  0  0  0  0
   78.4570   50.5020   43.3420 N   0  0  0  0  0
   77.7490   50.8010   44.3920 C   0  0  0  0  0
   76.6640   51.6000   43.9900 C   0  0  0  0  0
   75.5540   52.2770   44.6750 C   0  0  0  0  0
   75.4030   52.2170   45.8860 O   0  0  0  0  0
   74.7020   52.9970   43.8970 N   0  0  0  0  0
   74.8650   53.0910   42.5430 C   0  0  0  0  0
   75.8420   52.4850   41.9220 N   0  0  0  0  0
   76.7510   51.7340   42.5880 C   0  0  0  0  0
   73.8980   53.9560   41.7640 C   0  0  0  0  0
   73.1960   53.1980   40.6220 C   0  0  0  0  0
   73.5670   53.9320   39.4020 N   0  3  0  0  0
   73.7970   55.3320   39.7850 C   0  0  0  0  0
   74.6070   55.1690   41.0880 C   0  0  0  0  0
   72.4070   53.9170   38.5100 C   0  0  0  0  0
   72.5040   52.7440   37.5750 C   0  0  0  0  0
   73.6950   52.3270   37.1540 N   0  0  0  0  0
   73.7930   51.3100   36.2990 C   0  0  0  0  0
   72.6310   50.6640   35.8630 C   0  0  0  0  0
   71.4000   51.1250   36.3420 C   0  0  0  0  0
   71.3780   52.1510   37.1930 N   0  0  0  0  0
   78.3460   50.9970   40.8290 C   0  0  0  0  0
   77.9510   49.7090   40.0900 C   0  0  0  0  0
   78.5560   49.7750   38.6720 C   0  0  0  0  0
   79.9850   49.9280   38.7610 O   0  0  0  0  0
   80.3390   51.2120   39.2990 C   0  0  0  0  0
   79.8470   51.3380   40.7490 C   0  0  0  0  0
   74.5240   56.4260   41.9530 C   0  0  0  0  0
   77.9616   50.4847   45.4132 H   0  0  0  0  0
   75.9220   52.5801   40.9096 H   0  0  0  0  0
   73.1750   54.2800   42.5126 H   0  0  0  0  0
   72.1156   53.1622   40.7620 H   0  0  0  0  0
   73.5047   52.1536   40.5775 H   0  0  0  0  0
   74.3885   53.5218   38.9579 H   0  0  0  0  0
   72.8784   55.9048   39.9125 H   0  0  0  0  0
   74.3139   55.9128   39.0211 H   0  0  0  0  0
   75.6740   55.0140   40.9280 H   0  0  0  0  0
   72.3837   54.8403   37.9311 H   0  0  0  0  0
   71.4959   53.8331   39.1025 H   0  0  0  0  0
   74.7700   50.9840   35.9422 H   0  0  0  0  0
   72.6834   49.8248   35.1694 H   0  0  0  0  0
   70.4712   50.6516   36.0236 H   0  0  0  0  0
   77.8383   51.7901   40.2801 H   0  0  0  0  0
   76.8659   49.6217   40.0350 H   0  0  0  0  0
   78.3285   48.8360   40.6225 H   0  0  0  0  0
   78.1339   50.6265   38.1382 H   0  0  0  0  0
   78.3237   48.8543   38.1367 H   0  0  0  0  0
   79.8720   51.9909   38.6963 H   0  0  0  0  0
   81.4237   51.3180   39.2813 H   0  0  0  0  0
   80.4058   50.6453   41.3784 H   0  0  0  0  0
   80.0007   52.3612   41.0918 H   0  0  0  0  0
   73.4778   56.6858   42.1147 H   0  0  0  0  0
   75.0054   56.2376   42.9126 H   0  0  0  0  0
   75.0297   57.2481   41.4465 H   0  0  0  0  0
  1  2  4  0  0  0
  1 10  4  0  0  0
  1 23  1  0  0  0
  2  3  4  0  0  0
  3  4  4  0  0  0
  4  5  1  0  0  0
  4 10  4  0  0  0
  5  6  2  0  0  0
  5  7  1  0  0  0
  7  8  2  0  0  0
  8  9  1  0  0  0
  8 11  1  0  0  0
  9 10  1  0  0  0
 11 12  1  0  0  0
 11 15  1  0  0  0
 12 13  1  0  0  0
 13 14  1  0  0  0
 13 16  1  0  0  0
 14 15  1  0  0  0
 15 29  1  0  0  0
 16 17  1  0  0  0
 17 18  4  0  0  0
 17 22  4  0  0  0
 18 19  4  0  0  0
 19 20  4  0  0  0
 20 21  4  0  0  0
 21 22  4  0  0  0
 23 24  1  0  0  0
 23 28  1  0  0  0
 24 25  1  0  0  0
 25 26  1  0  0  0
 26 27  1  0  0  0
 27 28  1  0  0  0
  3 30  1  0  0  0
  9 31  1  0  0  0
 11 32  1  0  0  0
 12 33  1  0  0  0
 12 34  1  0  0  0
 13 35  1  0  0  0
 14 36  1  0  0  0
 14 37  1  0  0  0
 15 38  1  0  0  0
 16 39  1  0  0  0
 16 40  1  0  0  0
 19 41  1  0  0  0
 20 42  1  0  0  0
 21 43  1  0  0  0
 23 44  1  0  0  0
 24 45  1  0  0  0
 24 46  1  0  0  0
 25 47  1  0  0  0
 25 48  1  0  0  0
 27 49  1  0  0  0
 27 50  1  0  0  0
 28 51  1  0  0  0
 28 52  1  0  0  0
 29 53  1  0  0  0
 29 54  1  0  0  0
 29 55  1  0  0  0
M  END
$$$$
