4ifi_ligand
  -I-interpret- 

104105  0  0  0  0  0  0  0  0999 V2000
  -11.0420   14.2170  -26.5350 N   0  3  0  0  0
  -11.9950   14.4370  -27.6600 C   0  0  0  0  0
  -13.4460   14.8370  -27.1940 C   0  0  0  0  0
  -13.9340   15.9080  -27.5830 O   0  0  0  0  0
  -11.9820   13.2490  -28.6330 C   0  0  0  0  0
  -12.8760   13.4390  -29.8440 C   0  0  0  0  0
  -12.2610   14.3560  -30.8910 C   0  0  0  0  0
  -11.5250   13.5720  -31.8850 N   0  0  0  0  0
  -10.3070   13.0360  -31.7290 C   0  0  0  0  0
   -9.6090   13.1740  -30.5980 N   0  0  0  0  0
   -9.7720   12.3430  -32.7330 N   0  0  0  0  0
  -14.1280   14.0340  -26.3680 N   0  0  0  0  0
  -15.5350   14.3950  -25.9400 C   0  0  0  0  0
  -16.1640   13.3200  -25.0360 C   0  0  0  0  0
  -16.8360   12.2790  -25.7850 O   0  0  0  0  0
  -15.5560   15.6650  -25.1080 C   0  0  0  0  0
  -14.8660   15.7250  -24.1020 O   0  0  0  0  0
  -17.1910   10.8970  -25.0150 P   0  0  0  0  0
  -17.8870   10.1250  -26.0970 O   0  0  0  0  0
  -15.8920   10.3910  -24.3900 O   0  0  0  0  0
  -18.1390   11.3100  -23.9300 O   0  0  0  0  0
  -16.3470   16.6940  -25.4840 N   0  0  0  0  0
  -16.2310   17.9190  -24.6350 C   0  0  0  0  0
  -16.5420   17.7180  -23.1360 C   0  0  0  0  0
  -17.4170   16.9020  -22.7670 O   0  0  0  0  0
  -17.2300   18.8900  -25.2740 C   0  0  0  0  0
  -17.3960   18.4070  -26.6990 C   0  0  0  0  0
  -17.2760   16.9010  -26.6180 C   0  0  0  0  0
  -15.8200   18.4570  -22.2830 N   0  0  0  0  0
  -16.0210   18.4950  -20.8200 C   0  0  0  0  0
  -16.6990   19.8240  -20.4910 C   0  0  0  0  0
  -16.5510   20.8020  -21.2250 O   0  0  0  0  0
  -14.6780   18.3530  -20.0340 C   0  0  0  0  0
  -14.8670   18.5900  -18.5360 C   0  0  0  0  0
  -14.0170   16.9740  -20.2870 C   0  0  0  0  0
  -17.4810   19.8450  -19.4150 N   0  0  0  0  0
  -18.2730   21.0200  -19.0700 C   0  0  0  0  0
  -17.9270   21.3740  -17.6680 C   0  0  0  0  0
  -18.4060   20.7500  -16.7360 O   0  0  0  0  0
  -19.7870   20.7420  -19.2620 C   0  0  0  0  0
  -20.1410   20.5530  -20.7010 C   0  0  0  0  0
  -20.3100   21.6520  -21.5300 C   0  0  0  0  0
  -20.1880   19.2710  -21.2660 C   0  0  0  0  0
  -20.5520   21.4780  -22.8820 C   0  0  0  0  0
  -20.4360   19.1080  -22.6220 C   0  0  0  0  0
  -20.6030   20.2030  -23.4280 C   0  0  0  0  0
  -17.0260   22.3420  -17.5450 N   0  0  0  0  0
  -16.6480   22.9080  -16.2510 C   0  0  0  0  0
  -17.3470   24.2540  -16.0570 C   0  0  0  0  0
  -17.3210   24.7930  -14.9640 O   0  0  0  0  0
  -15.1230   23.0910  -16.1390 C   0  0  0  0  0
  -14.3800   22.1030  -16.8470 O   0  0  0  0  0
  -17.8651   24.7284  -16.8905 O   0  0  0  0  0
  -11.0704   15.0188  -25.9052 H   0  0  0  0  0
  -11.3075   13.3738  -26.0261 H   0  0  0  0  0
  -10.0984   14.1083  -26.9067 H   0  0  0  0  0
  -11.6375   15.3103  -28.2055 H   0  0  0  0  0
  -12.3519   12.3797  -28.0893 H   0  0  0  0  0
  -10.9606   13.1386  -28.9973 H   0  0  0  0  0
  -13.8060   13.8953  -29.5048 H   0  0  0  0  0
  -13.0289   12.4624  -30.3033 H   0  0  0  0  0
  -11.5728   15.0444  -30.4006 H   0  0  0  0  0
  -13.0565   14.9080  -31.3916 H   0  0  0  0  0
  -11.9840   13.4192  -32.7830 H   0  0  0  0  0
   -8.6839   12.7524  -30.5149 H   0  0  0  0  0
  -10.0012   13.7010  -29.8177 H   0  0  0  0  0
  -10.2887   12.2267  -33.6047 H   0  0  0  0  0
  -13.6979   13.1750  -26.0253 H   0  0  0  0  0
  -16.0889   14.5049  -26.8723 H   0  0  0  0  0
  -16.9059   13.8081  -24.4040 H   0  0  0  0  0
  -15.3616   12.8542  -24.4638 H   0  0  0  0  0
  -17.2508    9.8781  -26.7722 H   0  0  0  0  0
  -15.2853   10.1267  -25.0855 H   0  0  0  0  0
  -15.1990   18.2694  -24.6195 H   0  0  0  0  0
  -16.8711   19.9186  -25.2371 H   0  0  0  0  0
  -18.1798   18.8998  -24.7393 H   0  0  0  0  0
  -16.6450   18.8372  -27.3616 H   0  0  0  0  0
  -18.3530   18.7140  -27.1209 H   0  0  0  0  0
  -18.2379   16.4108  -26.4674 H   0  0  0  0  0
  -16.9117   16.4586  -27.5451 H   0  0  0  0  0
  -15.0764   19.0363  -22.6727 H   0  0  0  0  0
  -16.6394   17.6508  -20.5152 H   0  0  0  0  0
  -14.0090   19.1265  -20.4112 H   0  0  0  0  0
  -15.2531   19.5965  -18.3746 H   0  0  0  0  0
  -15.5737   17.8605  -18.1404 H   0  0  0  0  0
  -13.9085   18.4814  -18.0285 H   0  0  0  0  0
  -14.6934   16.1833  -19.9625 H   0  0  0  0  0
  -13.8090   16.8620  -21.3511 H   0  0  0  0  0
  -13.0854   16.9104  -19.7247 H   0  0  0  0  0
  -17.5278   19.0199  -18.8172 H   0  0  0  0  0
  -18.0476   21.8608  -19.7260 H   0  0  0  0  0
  -20.3426   21.5999  -18.8834 H   0  0  0  0  0
  -20.0370   19.8266  -18.7256 H   0  0  0  0  0
  -20.2520   22.6582  -21.1148 H   0  0  0  0  0
  -20.0287   18.3959  -20.6360 H   0  0  0  0  0
  -20.7034   22.3476  -23.5215 H   0  0  0  0  0
  -20.4980   18.1060  -23.0466 H   0  0  0  0  0
  -20.7757   20.0732  -24.4964 H   0  0  0  0  0
  -16.5798   22.7052  -18.3872 H   0  0  0  0  0
  -16.9601   22.2124  -15.4720 H   0  0  0  0  0
  -16.8274   24.2447  -14.3497 H   0  0  0  0  0
  -14.8590   23.0072  -15.0848 H   0  0  0  0  0
  -14.8761   24.0603  -16.5722 H   0  0  0  0  0
  -13.4412   22.2715  -16.7385 H   0  0  0  0  0
  1  2  1  0  0  0
  2  3  1  0  0  0
  2  5  1  0  0  0
  3  4  2  0  0  0
  3 12  1  0  0  0
  5  6  1  0  0  0
  6  7  1  0  0  0
  7  8  1  0  0  0
  8  9  1  0  0  0
  9 10  1  0  0  0
  9 11  2  0  0  0
 12 13  1  0  0  0
 13 14  1  0  0  0
 13 16  1  0  0  0
 14 15  1  0  0  0
 15 18  1  0  0  0
 16 17  2  0  0  0
 16 22  1  0  0  0
 18 19  1  0  0  0
 18 20  1  0  0  0
 18 21  2  0  0  0
 22 23  1  0  0  0
 22 28  1  0  0  0
 23 24  1  0  0  0
 23 26  1  0  0  0
 24 25  2  0  0  0
 24 29  1  0  0  0
 26 27  1  0  0  0
 27 28  1  0  0  0
 29 30  1  0  0  0
 30 31  1  0  0  0
 30 33  1  0  0  0
 31 32  2  0  0  0
 31 36  1  0  0  0
 33 34  1  0  0  0
 33 35  1  0  0  0
 36 37  1  0  0  0
 37 38  1  0  0  0
 37 40  1  0  0  0
 38 39  2  0  0  0
 38 47  1  0  0  0
 40 41  1  0  0  0
 41 42  4  0  0  0
 41 43  4  0  0  0
 42 44  4  0  0  0
 43 45  4  0  0  0
 44 46  4  0  0  0
 45 46  4  0  0  0
 47 48  1  0  0  0
 48 49  1  0  0  0
 48 51  1  0  0  0
 49 50  1  0  0  0
 51 52  1  0  0  0
 49 53  2  0  0  0
  1 54  1  0  0  0
  1 55  1  0  0  0
  1 56  1  0  0  0
  2 57  1  0  0  0
  5 58  1  0  0  0
  5 59  1  0  0  0
  6 60  1  0  0  0
  6 61  1  0  0  0
  7 62  1  0  0  0
  7 63  1  0  0  0
  8 64  1  0  0  0
 10 65  1  0  0  0
 10 66  1  0  0  0
 11 67  1  0  0  0
 12 68  1  0  0  0
 13 69  1  0  0  0
 14 70  1  0  0  0
 14 71  1  0  0  0
 19 72  1  0  0  0
 20 73  1  0  0  0
 23 74  1  0  0  0
 26 75  1  0  0  0
 26 76  1  0  0  0
 27 77  1  0  0  0
 27 78  1  0  0  0
 28 79  1  0  0  0
 28 80  1  0  0  0
 29 81  1  0  0  0
 30 82  1  0  0  0
 33 83  1  0  0  0
 34 84  1  0  0  0
 34 85  1  0  0  0
 34 86  1  0  0  0
 35 87  1  0  0  0
 35 88  1  0  0  0
 35 89  1  0  0  0
 36 90  1  0  0  0
 37 91  1  0  0  0
 40 92  1  0  0  0
 40 93  1  0  0  0
 42 94  1  0  0  0
 43 95  1  0  0  0
 44 96  1  0  0  0
 45 97  1  0  0  0
 46 98  1  0  0  0
 47 99  1  0  0  0
 48100  1  0  0  0
 50101  1  0  0  0
 51102  1  0  0  0
 51103  1  0  0  0
 52104  1  0  0  0
M  END
$$$$
