### 
### Created by X-TOOL on Mon Sep 10 21:13:14 2018
### 

@<TRIPOS>MOLECULE
4ifi_ligand
  102   103     1     0     0
SMALL
GAST_HUCK


@<TRIPOS>ATOM
      1 N         -11.0420   14.2170  -26.5350 N.4       1 ARG         0.2379
      2 CA        -11.9950   14.4370  -27.6600 C.3       1 ARG         0.0651
      3 C         -13.4460   14.8370  -27.1940 C.2       1 ARG         0.2268
      4 O         -13.9340   15.9080  -27.5830 O.2       1 ARG        -0.3907
      5 CB        -11.9820   13.2490  -28.6330 C.3       1 ARG         0.0110
      6 CG        -12.8760   13.4390  -29.8440 C.3       1 ARG        -0.0125
      7 CD        -12.2610   14.3560  -30.8910 C.3       1 ARG         0.0629
      8 NE        -11.5250   13.5720  -31.8850 N.pl3     1 ARG        -0.2723
      9 CZ        -10.3070   13.0360  -31.7290 C.cat     1 ARG         0.2882
     10 NH1        -9.6090   13.1740  -30.5980 N.pl3     1 ARG        -0.2849
     11 NH2        -9.7720   12.3430  -32.7330 N.pl3     1 ARG        -0.2849
     12 N         -14.1280   14.0340  -26.3680 N.am      1 SEP        -0.2585
     13 CA        -15.5350   14.3950  -25.9400 C.3       1 SEP         0.1589
     14 CB        -16.1640   13.3200  -25.0360 C.3       1 SEP         0.1184
     15 OG        -16.8360   12.2790  -25.7850 O.3       1 SEP        -0.2714
     16 C         -15.5560   15.6650  -25.1080 C.2       1 SEP         0.2090
     17 O         -14.8660   15.7250  -24.1020 O.2       1 SEP        -0.3941
     18 P         -17.1910   10.8970  -25.0150 P.3       1 SEP         0.2010
     19 O1P       -17.8870   10.1250  -26.0970 O.co2     1 SEP        -0.5537
     20 O2P       -15.8920   10.3910  -24.3900 O.co2     1 SEP        -0.5537
     21 O3P       -18.1390   11.3100  -23.9300 O.co2     1 SEP        -0.5537
     22 N         -16.3470   16.6940  -25.4840 N.am      1 PRO        -0.2498
     23 CA        -16.2310   17.9190  -24.6350 C.3       1 PRO         0.1338
     24 C         -16.5420   17.7180  -23.1360 C.2       1 PRO         0.2041
     25 O         -17.4170   16.9020  -22.7670 O.2       1 PRO        -0.3944
     26 CB        -17.2300   18.8900  -25.2740 C.3       1 PRO        -0.0104
     27 CG        -17.3960   18.4070  -26.6990 C.3       1 PRO        -0.0281
     28 CD        -17.2760   16.9010  -26.6180 C.3       1 PRO         0.0369
     29 N         -15.8200   18.4570  -22.2830 N.am      1 VAL        -0.2635
     30 CA        -16.0210   18.4950  -20.8200 C.3       1 VAL         0.1333
     31 C         -16.6990   19.8240  -20.4910 C.2       1 VAL         0.2043
     32 O         -16.5510   20.8020  -21.2250 O.2       1 VAL        -0.3944
     33 CB        -14.6780   18.3530  -20.0340 C.3       1 VAL        -0.0063
     34 CG1       -14.8670   18.5900  -18.5360 C.3       1 VAL        -0.0584
     35 CG2       -14.0170   16.9740  -20.2870 C.3       1 VAL        -0.0584
     36 N         -17.4810   19.8450  -19.4150 N.am      1 PHE        -0.2619
     37 CA        -18.2730   21.0200  -19.0700 C.3       1 PHE         0.1404
     38 C         -17.9270   21.3740  -17.6680 C.2       1 PHE         0.2055
     39 O         -18.4060   20.7500  -16.7360 O.2       1 PHE        -0.3942
     40 CB        -19.7870   20.7420  -19.2620 C.3       1 PHE         0.0214
     41 CG        -20.1410   20.5530  -20.7010 C.ar      1 PHE        -0.0386
     42 CD1       -20.3100   21.6520  -21.5300 C.ar      1 PHE        -0.0601
     43 CD2       -20.1880   19.2710  -21.2660 C.ar      1 PHE        -0.0601
     44 CE1       -20.5520   21.4780  -22.8820 C.ar      1 PHE        -0.0686
     45 CE2       -20.4360   19.1080  -22.6220 C.ar      1 PHE        -0.0686
     46 CZ        -20.6030   20.2030  -23.4280 C.ar      1 PHE        -0.0687
     47 N         -17.0260   22.3420  -17.5450 N.am      1 SER        -0.2671
     48 CA        -16.6480   22.9080  -16.2510 C.3       1 SER         0.1173
     49 C         -17.3470   24.2540  -16.0570 C.2       1 SER         0.0623
     50 O         -17.3210   24.7930  -14.9640 O.co2     1 SER        -0.5665
     51 CB        -15.1230   23.0910  -16.1390 C.3       1 SER         0.0789
     52 OG        -14.3800   22.1030  -16.8470 O.3       1 SER        -0.3910
     53 H         -17.8651   24.7284  -16.8905 O.co2     1 SER        -0.5665
     54 H1        -10.1385   13.9656  -26.9044 H         1 ARG         0.2015
     55 H2        -11.3831   13.4733  -25.9462 H         1 ARG         0.2015
     56 H3        -10.9600   15.0634  -25.9937 H         1 ARG         0.2015
     57 H4        -11.6119   15.3015  -28.2221 H         1 ARG         0.1098
     58 H5        -12.3185   12.3530  -28.0908 H         1 ARG         0.0347
     59 H6        -10.9502   13.0994  -28.9838 H         1 ARG         0.0347
     60 H7        -13.8301   13.8743  -29.5121 H         1 ARG         0.0302
     61 H8        -13.0610   12.4563  -30.3023 H         1 ARG         0.0302
     62 H9        -11.5710   15.0572  -30.3988 H         1 ARG         0.0689
     63 H10       -13.0604   14.9202  -31.3936 H         1 ARG         0.0689
     64 H11       -11.9885   13.4177  -32.7918 H         1 ARG         0.2642
     65 H12        -8.6751   12.7478  -30.5139 H         1 ARG         0.2615
     66 H13       -10.0049   13.7066  -29.8102 H         1 ARG         0.2615
     67 H14       -10.2940   12.2251  -33.6131 H         1 ARG         0.2615
     68 H15        -8.8364   11.9250  -32.6292 H         1 ARG         0.2615
     69 H16       -13.7063   13.1918  -26.0320 H         1 SEP         0.1885
     70 H17       -16.1499   14.5282  -26.8423 H         1 SEP         0.0827
     71 H18       -16.8959   13.8035  -24.3723 H         1 SEP         0.0662
     72 H19       -15.3685   12.8600  -24.4314 H         1 SEP         0.0662
     73 H20       -15.2095   18.3192  -24.7152 H         1 PRO         0.0802
     74 H21       -16.8346   19.9163  -25.2581 H         1 PRO         0.0313
     75 H22       -18.1922   18.8594  -24.7417 H         1 PRO         0.0313
     76 H23       -16.6074   18.8236  -27.3429 H         1 PRO         0.0287
     77 H24       -18.3817   18.6957  -27.0928 H         1 PRO         0.0287
     78 H25       -18.2533   16.4381  -26.4164 H         1 PRO         0.0524
     79 H26       -16.8598   16.4883  -27.5488 H         1 PRO         0.0524
     80 H27       -15.0910   19.0250  -22.6650 H         1 VAL         0.1883
     81 H28       -16.6825   17.6662  -20.5275 H         1 VAL         0.0802
     82 H29       -13.9924   19.1268  -20.4098 H         1 VAL         0.0343
     83 H30       -13.9003   18.4807  -18.0227 H         1 VAL         0.0234
     84 H31       -15.5800   17.8544  -18.1354 H         1 VAL         0.0234
     85 H32       -15.2566   19.6055  -18.3717 H         1 VAL         0.0234
     86 H33       -13.8893   16.8216  -21.3689 H         1 VAL         0.0234
     87 H34       -14.6583   16.1794  -19.8780 H         1 VAL         0.0234
     88 H35       -13.0343   16.9424  -19.7938 H         1 VAL         0.0234
     89 H36       -17.5268   19.0360  -18.8289 H         1 PHE         0.1885
     90 H37       -17.9919   21.8548  -19.7289 H         1 PHE         0.0823
     91 H38       -20.3582   21.5938  -18.8643 H         1 PHE         0.0474
     92 H39       -20.0542   19.8304  -18.7075 H         1 PHE         0.0474
     93 H40       -20.2523   22.6526  -21.1171 H         1 PHE         0.0557
     94 H41       -20.0295   18.4007  -20.6395 H         1 PHE         0.0557
     95 H42       -20.7026   22.3428  -23.5180 H         1 PHE         0.0599
     96 H43       -20.4977   18.1115  -23.0443 H         1 PHE         0.0599
     97 H44       -20.7747   20.0739  -24.4905 H         1 PHE         0.0559
     98 H45       -16.5885   22.6981  -18.3707 H         1 SER         0.1876
     99 H46       -16.9759   22.2191  -15.4586 H         1 SER         0.0749
    100 H47       -14.8433   23.0422  -15.0763 H         1 SER         0.0599
    101 H48       -14.8602   24.0800  -16.5423 H         1 SER         0.0599
    102 H49       -14.6050   22.1397  -17.7693 H         1 SER         0.2096
@<TRIPOS>BOND
     1    1    2 1  
     2    2    3 1  
     3    2    5 1  
     4    3    4 2  
     5    3   12 am 
     6    5    6 1  
     7    6    7 1  
     8    7    8 1  
     9    8    9 ar 
    10    9   10 ar 
    11    9   11 ar 
    12   12   13 1  
    13   13   14 1  
    14   13   16 1  
    15   14   15 1  
    16   15   18 1  
    17   16   17 2  
    18   16   22 am 
    19   18   19 ar 
    20   18   20 ar 
    21   18   21 ar 
    22   22   23 1  
    23   22   28 1  
    24   23   24 1  
    25   23   26 1  
    26   24   25 2  
    27   24   29 am 
    28   26   27 1  
    29   27   28 1  
    30   29   30 1  
    31   30   31 1  
    32   30   33 1  
    33   31   32 2  
    34   31   36 am 
    35   33   34 1  
    36   33   35 1  
    37   36   37 1  
    38   37   38 1  
    39   37   40 1  
    40   38   39 2  
    41   38   47 am 
    42   40   41 1  
    43   41   42 ar 
    44   41   43 ar 
    45   42   44 ar 
    46   43   45 ar 
    47   44   46 ar 
    48   45   46 ar 
    49   47   48 1  
    50   48   49 1  
    51   48   51 1  
    52   49   50 ar 
    53   51   52 1  
    54   49   53 ar 
    55    1   54 1  
    56    1   55 1  
    57    1   56 1  
    58    2   57 1  
    59    5   58 1  
    60    5   59 1  
    61    6   60 1  
    62    6   61 1  
    63    7   62 1  
    64    7   63 1  
    65    8   64 1  
    66   10   65 1  
    67   10   66 1  
    68   11   67 1  
    69   11   68 1  
    70   12   69 1  
    71   13   70 1  
    72   14   71 1  
    73   14   72 1  
    74   23   73 1  
    75   26   74 1  
    76   26   75 1  
    77   27   76 1  
    78   27   77 1  
    79   28   78 1  
    80   28   79 1  
    81   29   80 1  
    82   30   81 1  
    83   33   82 1  
    84   34   83 1  
    85   34   84 1  
    86   34   85 1  
    87   35   86 1  
    88   35   87 1  
    89   35   88 1  
    90   36   89 1  
    91   37   90 1  
    92   40   91 1  
    93   40   92 1  
    94   42   93 1  
    95   43   94 1  
    96   44   95 1  
    97   45   96 1  
    98   46   97 1  
    99   47   98 1  
   100   48   99 1  
   101   51  100 1  
   102   51  101 1  
   103   52  102 1  
@<TRIPOS>SUBSTRUCTURE
     1 ARG         1

