5w2q_ligand
  -I-interpret- 

 35 36  0  0  0  0  0  0  0  0999 V2000
   50.5590   -8.2120  -20.0850 N   0  0  0  0  0
   46.9400   -6.6580  -17.7770 C   0  0  0  0  0
   46.4050   -6.5730  -19.0660 C   0  0  0  0  0
   47.1690   -6.9530  -20.1570 C   0  0  0  0  0
   48.4800   -7.4270  -19.9450 C   0  0  0  0  0
   49.5110   -7.8880  -20.8250 C   0  0  0  0  0
   49.0070   -7.5090  -18.6690 C   0  0  0  0  0
   47.7100   -4.8360  -15.2110 O   0  0  0  0  0
   46.5930   -5.7820  -15.1710 S   0  0  0  0  0
   45.4640   -5.0800  -14.5750 O   0  0  0  0  0
   47.1090   -7.2150  -14.1720 C   0  0  0  0  0
   45.8910   -7.9540  -13.6230 C   0  0  0  0  0
   46.3400   -9.1600  -12.7990 C   0  0  0  0  0
   45.1690   -9.9610  -12.2270 C   0  0  0  0  0
   46.0720   -6.2590  -16.6990 N   0  0  0  0  0
   48.2310   -7.1230  -17.5460 C   0  0  0  0  0
   50.2660   -7.9840  -18.7840 N   0  0  0  0  0
   51.1800   -8.2140  -17.6810 C   0  0  0  0  0
   45.3883   -6.2083  -19.2121 H   0  0  0  0  0
   46.7622   -6.8865  -21.1661 H   0  0  0  0  0
   49.4445   -7.9593  -21.9106 H   0  0  0  0  0
   47.7149   -6.8635  -13.3368 H   0  0  0  0  0
   47.6815   -7.8964  -14.8013 H   0  0  0  0  0
   45.2744   -8.2966  -14.4540 H   0  0  0  0  0
   45.3177   -7.2787  -12.9878 H   0  0  0  0  0
   46.9299   -8.7890  -11.9609 H   0  0  0  0  0
   46.9048   -9.8205  -13.4569 H   0  0  0  0  0
   44.5735   -9.3186  -11.5783 H   0  0  0  0  0
   44.5488  -10.3294  -13.0442 H   0  0  0  0  0
   45.5532  -10.8038  -11.6524 H   0  0  0  0  0
   45.0672   -6.2660  -16.8745 H   0  0  0  0  0
   48.6330   -7.1885  -16.5349 H   0  0  0  0  0
   51.4633   -9.2663  -17.6590 H   0  0  0  0  0
   52.0703   -7.5994  -17.8144 H   0  0  0  0  0
   50.6907   -7.9484  -16.7439 H   0  0  0  0  0
  1  6  4  0  0  0
 17  1  4  0  0  0
  2  3  4  0  0  0
 15  2  1  0  0  0
  2 16  4  0  0  0
  3  4  4  0  0  0
  4  5  4  0  0  0
  5  6  4  0  0  0
  7  5  4  0  0  0
 16  7  4  0  0  0
  7 17  4  0  0  0
  9  8  2  0  0  0
  9 10  2  0  0  0
  9 11  1  0  0  0
  9 15  1  0  0  0
 11 12  1  0  0  0
 12 13  1  0  0  0
 13 14  1  0  0  0
 17 18  1  0  0  0
  3 19  1  0  0  0
  4 20  1  0  0  0
  6 21  1  0  0  0
 11 22  1  0  0  0
 11 23  1  0  0  0
 12 24  1  0  0  0
 12 25  1  0  0  0
 13 26  1  0  0  0
 13 27  1  0  0  0
 14 28  1  0  0  0
 14 29  1  0  0  0
 14 30  1  0  0  0
 15 31  1  0  0  0
 16 32  1  0  0  0
 18 33  1  0  0  0
 18 34  1  0  0  0
 18 35  1  0  0  0
M  END
$$$$
