### 
### Created by X-TOOL on Mon Sep 10 21:13:30 2018
### 

@<TRIPOS>MOLECULE
5umz_ligand
  159   158     1     0     0
SMALL
GAST_HUCK


@<TRIPOS>ATOM
      1 N          36.6700   77.9670   53.5070 N.4       1 GLY         0.2357
      2 CA         37.6000   79.0560   53.2730 C.3       1 GLY         0.0545
      3 C          38.8260   78.8810   54.1430 C.2       1 GLY         0.2236
      4 O          38.7000   78.5180   55.3240 O.2       1 GLY        -0.3910
      5 N          40.0040   79.1400   53.5370 N.am      1 LYS        -0.2613
      6 CA         41.2870   79.0470   54.2480 C.3       1 LYS         0.1311
      7 C          41.4360   80.1440   55.3110 C.2       1 LYS         0.2039
      8 O          42.1120   79.9390   56.3270 O.2       1 LYS        -0.3944
      9 CB         42.4510   79.1540   53.2400 C.3       1 LYS        -0.0126
     10 CG         42.4150   80.4490   52.4360 C.3       1 LYS        -0.0517
     11 CD         43.6190   80.6360   51.4950 C.3       1 LYS        -0.0651
     12 N          40.9120   81.3460   55.0430 N.am      1 LYS        -0.2637
     13 CA         41.0830   82.4940   55.9430 C.3       1 LYS         0.1310
     14 C          39.7200   83.1060   56.2300 C.2       1 LYS         0.2039
     15 O          38.8070   83.0160   55.4070 O.2       1 LYS        -0.3944
     16 CB         42.0400   83.5810   55.3460 C.3       1 LYS        -0.0122
     17 CG         43.5100   83.0330   55.2410 C.3       1 LYS        -0.0440
     18 CD         44.4350   84.0600   54.5690 C.3       1 LYS        -0.0124
     19 CE         45.7310   83.3990   54.2720 C.3       1 LYS        -0.0354
     20 NZ         46.6970   84.3130   53.5380 N.4       1 LYS         0.2185
     21 N          39.5790   83.7410   57.4020 N.am      1 ARG        -0.2637
     22 CA         38.2940   84.3310   57.8020 C.3       1 ARG         0.1311
     23 C          38.5830   85.6860   58.4210 C.2       1 ARG         0.2039
     24 O          39.4350   85.7680   59.3030 O.2       1 ARG        -0.3944
     25 CB         37.5440   83.4870   58.8560 C.3       1 ARG        -0.0092
     26 CG         36.8530   82.1600   58.3670 C.3       1 ARG        -0.0156
     27 CD         36.3660   81.2970   59.5890 C.3       1 ARG         0.0627
     28 NE         35.7610   79.9850   59.1690 N.pl3     1 ARG        -0.2723
     29 CZ         35.1190   79.1090   59.9670 C.cat     1 ARG         0.2882
     30 NH1        34.9770   79.3600   61.2670 N.pl3     1 ARG        -0.2849
     31 NH2        34.6080   77.9550   59.4700 N.pl3     1 ARG        -0.2849
     32 N          37.8420   86.7060   58.0190 N.am      1 ARG        -0.2637
     33 CA         38.0020   88.0460   58.5770 C.3       1 ARG         0.1311
     34 C          36.8920   88.2220   59.6070 C.2       1 ARG         0.2039
     35 O          35.7540   87.8250   59.3510 O.2       1 ARG        -0.3944
     36 CB         37.9110   89.1180   57.4690 C.3       1 ARG        -0.0092
     37 CG         38.3530   90.5430   57.9390 C.3       1 ARG        -0.0156
     38 CD         38.5990   91.5220   56.7700 C.3       1 ARG         0.0627
     39 NE         37.3930   91.6870   55.9660 N.pl3     1 ARG        -0.2723
     40 CZ         36.5030   92.6770   56.1220 C.cat     1 ARG         0.2882
     41 NH1        36.6680   93.6150   57.0650 N.pl3     1 ARG        -0.2849
     42 NH2        35.4400   92.7410   55.3260 N.pl3     1 ARG        -0.2849
     43 N          37.2310   88.7420   60.7940 N.am      1 ARG        -0.2637
     44 CA         36.2140   88.9400   61.8330 C.3       1 ARG         0.1311
     45 C          35.5600   90.3080   61.6310 C.2       1 ARG         0.2039
     46 O          36.2320   91.3530   61.7050 O.2       1 ARG        -0.3944
     47 CB         36.7880   88.8700   63.2560 C.3       1 ARG        -0.0092
     48 CG         35.6560   89.0120   64.2810 C.3       1 ARG        -0.0156
     49 CD         36.1610   88.9280   65.7040 C.3       1 ARG         0.0627
     50 NE         35.0450   89.1410   66.6210 N.pl3     1 ARG        -0.2723
     51 CZ         35.0420   88.8100   67.9110 C.cat     1 ARG         0.2882
     52 NH1        36.0880   88.2300   68.4580 N.pl3     1 ARG        -0.2849
     53 NH2        33.9490   89.0380   68.6520 N.pl3     1 ARG        -0.2849
     54 N          34.2620   90.2980   61.3880 N.am      1 GLU        -0.2636
     55 CA         33.5480   91.5230   61.0510 C.3       1 GLU         0.1324
     56 C          32.7370   92.1220   62.1860 C.2       1 GLU         0.2034
     57 O          32.3630   93.2980   62.1010 O.2       1 GLU        -0.3944
     58 CB         32.6240   91.2790   59.8540 C.3       1 GLU        -0.0008
     59 CG         33.4380   90.9740   58.6010 C.3       1 GLU         0.0044
     60 CD         32.6440   91.0650   57.3090 C.2       1 GLU         0.0350
     61 OE1        31.8740   92.0470   57.1520 O.co2     1 GLU        -0.5690
     62 OE2        32.8060   90.1600   56.4500 O.co2     1 GLU        -0.5690
     63 N          32.4720   91.3850   63.2450 N.am      1 ARG        -0.2695
     64 CA         31.6220   91.9390   64.3130 C.3       1 ARG         0.0945
     65 C          31.9090   91.2380   65.6280 C.2       1 ARG         0.0601
     66 O          32.4900   90.1590   65.5920 O.co2     1 ARG        -0.5666
     67 CB         30.1240   91.8110   63.9560 C.3       1 ARG        -0.0148
     68 CG         29.6700   90.3680   63.6910 C.3       1 ARG        -0.0162
     69 CD         28.3340   90.3360   62.9420 C.3       1 ARG         0.0627
     70 NE         28.3070   91.3170   61.8560 N.pl3     1 ARG        -0.2723
     71 CZ         28.6690   91.0630   60.5960 C.cat     1 ARG         0.2882
     72 NH1        28.6180   92.0330   59.6880 N.pl3     1 ARG        -0.2849
     73 NH2        29.0860   89.8450   60.2450 N.pl3     1 ARG        -0.2849
     74 OXT        31.5740   91.7170   66.7150 O.co2     1 ARG        -0.5666
     75 H1         35.8561   78.0893   52.9250 H         1 GLY         0.2012
     76 H2         36.3927   77.9643   54.4761 H         1 GLY         0.2012
     77 H3         37.1151   77.0909   53.2824 H         1 GLY         0.2012
     78 H4         37.1124   80.0112   53.5175 H         1 GLY         0.1061
     79 H5         37.9007   79.0581   52.2149 H         1 GLY         0.1061
     80 H6         40.0038   79.4039   52.5724 H         1 LYS         0.1884
     81 H7         41.3365   78.0683   54.7476 H         1 LYS         0.0800
     82 H8         42.3922   78.3051   52.5429 H         1 LYS         0.0312
     83 H9         43.4008   79.1093   53.7930 H         1 LYS         0.0312
     84 H10        42.3927   81.2932   53.1409 H         1 LYS         0.0265
     85 H11        41.4977   80.4538   51.8289 H         1 LYS         0.0265
     86 H12        43.5175   81.5887   50.9547 H         1 LYS         0.0230
     87 H13        43.6524   79.8068   50.7730 H         1 LYS         0.0230
     88 H14        44.5474   80.6462   52.0849 H         1 LYS         0.0230
     89 H15        40.3860   81.4666   54.2011 H         1 LYS         0.1883
     90 H16        41.5177   82.1337   56.8870 H         1 LYS         0.0800
     91 H17        42.0310   84.4669   55.9980 H         1 LYS         0.0312
     92 H18        41.6868   83.8607   54.3425 H         1 LYS         0.0312
     93 H19        43.5072   82.1080   54.6457 H         1 LYS         0.0269
     94 H20        43.8864   82.8174   56.2518 H         1 LYS         0.0269
     95 H21        44.5987   84.9115   55.2458 H         1 LYS         0.0317
     96 H22        43.9773   84.4170   53.6346 H         1 LYS         0.0317
     97 H23        45.5403   82.5136   53.6478 H         1 LYS         0.0813
     98 H24        46.1928   83.0866   55.2202 H         1 LYS         0.0813
     99 H25        47.5577   83.8193   53.3607 H         1 LYS         0.1994
    100 H26        46.8862   85.1256   54.1036 H         1 LYS         0.1994
    101 H27        46.2882   84.6006   52.6627 H         1 LYS         0.1994
    102 H28        40.3643   83.8147   58.0167 H         1 ARG         0.1883
    103 H29        37.6574   84.4466   56.9124 H         1 ARG         0.0800
    104 H30        36.7610   84.1246   59.2923 H         1 ARG         0.0313
    105 H31        38.2699   83.2124   59.6355 H         1 ARG         0.0313
    106 H32        37.5740   81.5747   57.7774 H         1 ARG         0.0301
    107 H33        35.9870   82.4153   57.7387 H         1 ARG         0.0301
    108 H34        35.6105   81.8705   60.1460 H         1 ARG         0.0689
    109 H35        37.2275   81.0941   60.2421 H         1 ARG         0.0689
    110 H36        35.8458   79.7315   58.1743 H         1 ARG         0.2642
    111 H37        34.4852   78.6860   61.8709 H         1 ARG         0.2615
    112 H38        35.3590   80.2282   61.6686 H         1 ARG         0.2615
    113 H39        34.7051   77.7383   58.4677 H         1 ARG         0.2615
    114 H40        34.1229   77.2954   60.0949 H         1 ARG         0.2615
    115 H41        37.1515   86.5546   57.3117 H         1 ARG         0.1883
    116 H42        38.9816   88.1284   59.0705 H         1 ARG         0.0800
    117 H43        36.8681   89.1736   57.1236 H         1 ARG         0.0313
    118 H44        38.5579   88.8110   56.6340 H         1 ARG         0.0313
    119 H45        39.2845   90.4472   58.5162 H         1 ARG         0.0301
    120 H46        37.5639   90.9589   58.5827 H         1 ARG         0.0301
    121 H47        39.4048   91.1276   56.1335 H         1 ARG         0.0689
    122 H48        38.8976   92.4998   57.1759 H         1 ARG         0.0689
    123 H49        37.2126   90.9936   55.2260 H         1 ARG         0.2642
    124 H50        35.9731   94.3680   57.1695 H         1 ARG         0.2615
    125 H51        37.4897   93.5828   57.6852 H         1 ARG         0.2615
    126 H52        35.2992   92.0276   54.5965 H         1 ARG         0.2615
    127 H53        34.7573   93.5040   55.4388 H         1 ARG         0.2615
    128 H54        38.1814   88.9964   60.9728 H         1 ARG         0.1883
    129 H55        35.4515   88.1543   61.7269 H         1 ARG         0.0800
    130 H56        37.5131   89.6850   63.3977 H         1 ARG         0.0313
    131 H57        37.2911   87.9024   63.3995 H         1 ARG         0.0313
    132 H58        34.9255   88.2063   64.1161 H         1 ARG         0.0301
    133 H59        35.1665   89.9863   64.1357 H         1 ARG         0.0301
    134 H60        36.9261   89.7008   65.8694 H         1 ARG         0.0689
    135 H61        36.5988   87.9346   65.8813 H         1 ARG         0.0689
    136 H62        34.1948   89.5810   66.2411 H         1 ARG         0.2642
    137 H63        36.0739   87.9787   69.4568 H         1 ARG         0.2615
    138 H64        36.9213   88.0271   67.8876 H         1 ARG         0.2615
    139 H65        33.1262   89.4918   68.2301 H         1 ARG         0.2615
    140 H66        33.9317   88.7594   69.6435 H         1 ARG         0.2615
    141 H67        33.7600   89.4344   61.4361 H         1 GLU         0.1883
    142 H68        34.3027   92.2680   60.7587 H         1 GLU         0.0801
    143 H69        32.0141   92.1776   59.6790 H         1 GLU         0.0330
    144 H70        31.9654   90.4258   60.0737 H         1 GLU         0.0330
    145 H71        33.8387   89.9534   58.6891 H         1 GLU         0.0433
    146 H72        34.2702   91.6913   58.5464 H         1 GLU         0.0433
    147 H73        32.8436   90.4599   63.3231 H         1 ARG         0.1875
    148 H74        31.8607   93.0067   64.4266 H         1 ARG         0.0726
    149 H75        29.9311   92.4066   63.0516 H         1 ARG         0.0307
    150 H76        29.5328   92.2122   64.7924 H         1 ARG         0.0307
    151 H77        29.5549   89.8458   64.6523 H         1 ARG         0.0301
    152 H78        30.4331   89.8573   63.0853 H         1 ARG         0.0301
    153 H79        27.5220   90.5621   63.6487 H         1 ARG         0.0689
    154 H80        28.1840   89.3312   62.5204 H         1 ARG         0.0689
    155 H81        27.9863   92.2700   62.0793 H         1 ARG         0.2642
    156 H82        28.8961   91.8425   58.7147 H         1 ARG         0.2615
    157 H83        28.3004   92.9749   59.9579 H         1 ARG         0.2615
    158 H84        29.1262   89.0923   60.9469 H         1 ARG         0.2615
    159 H85        29.3677   89.6576   59.2721 H         1 ARG         0.2615
@<TRIPOS>BOND
     1    1    2 1  
     2    2    3 1  
     3    3    4 2  
     4    3    5 am 
     5    5    6 1  
     6    6    7 1  
     7    6    9 1  
     8    7    8 2  
     9    7   12 am 
    10    9   10 1  
    11   10   11 1  
    12   12   13 1  
    13   13   14 1  
    14   13   16 1  
    15   14   15 2  
    16   14   21 am 
    17   16   17 1  
    18   17   18 1  
    19   18   19 1  
    20   19   20 1  
    21   21   22 1  
    22   22   23 1  
    23   22   25 1  
    24   23   24 2  
    25   23   32 am 
    26   25   26 1  
    27   26   27 1  
    28   27   28 1  
    29   28   29 ar 
    30   29   30 ar 
    31   29   31 ar 
    32   32   33 1  
    33   33   34 1  
    34   33   36 1  
    35   34   35 2  
    36   34   43 am 
    37   36   37 1  
    38   37   38 1  
    39   38   39 1  
    40   39   40 ar 
    41   40   41 ar 
    42   40   42 ar 
    43   43   44 1  
    44   44   45 1  
    45   44   47 1  
    46   45   46 2  
    47   45   54 am 
    48   47   48 1  
    49   48   49 1  
    50   49   50 1  
    51   50   51 ar 
    52   51   52 ar 
    53   51   53 ar 
    54   54   55 1  
    55   55   56 1  
    56   55   58 1  
    57   56   57 2  
    58   56   63 am 
    59   58   59 1  
    60   59   60 1  
    61   60   61 ar 
    62   60   62 ar 
    63   63   64 1  
    64   64   65 1  
    65   64   67 1  
    66   65   66 ar 
    67   65   74 ar 
    68   67   68 1  
    69   68   69 1  
    70   69   70 1  
    71   70   71 ar 
    72   71   72 ar 
    73   71   73 ar 
    74    1   75 1  
    75    1   76 1  
    76    1   77 1  
    77    2   78 1  
    78    2   79 1  
    79    5   80 1  
    80    6   81 1  
    81    9   82 1  
    82    9   83 1  
    83   10   84 1  
    84   10   85 1  
    85   11   86 1  
    86   11   87 1  
    87   11   88 1  
    88   12   89 1  
    89   13   90 1  
    90   16   91 1  
    91   16   92 1  
    92   17   93 1  
    93   17   94 1  
    94   18   95 1  
    95   18   96 1  
    96   19   97 1  
    97   19   98 1  
    98   20   99 1  
    99   20  100 1  
   100   20  101 1  
   101   21  102 1  
   102   22  103 1  
   103   25  104 1  
   104   25  105 1  
   105   26  106 1  
   106   26  107 1  
   107   27  108 1  
   108   27  109 1  
   109   28  110 1  
   110   30  111 1  
   111   30  112 1  
   112   31  113 1  
   113   31  114 1  
   114   32  115 1  
   115   33  116 1  
   116   36  117 1  
   117   36  118 1  
   118   37  119 1  
   119   37  120 1  
   120   38  121 1  
   121   38  122 1  
   122   39  123 1  
   123   41  124 1  
   124   41  125 1  
   125   42  126 1  
   126   42  127 1  
   127   43  128 1  
   128   44  129 1  
   129   47  130 1  
   130   47  131 1  
   131   48  132 1  
   132   48  133 1  
   133   49  134 1  
   134   49  135 1  
   135   50  136 1  
   136   52  137 1  
   137   52  138 1  
   138   53  139 1  
   139   53  140 1  
   140   54  141 1  
   141   55  142 1  
   142   58  143 1  
   143   58  144 1  
   144   59  145 1  
   145   59  146 1  
   146   63  147 1  
   147   64  148 1  
   148   67  149 1  
   149   67  150 1  
   150   68  151 1  
   151   68  152 1  
   152   69  153 1  
   153   69  154 1  
   154   70  155 1  
   155   72  156 1  
   156   72  157 1  
   157   73  158 1  
   158   73  159 1  
@<TRIPOS>SUBSTRUCTURE
     1 GLY         1

