5umz_ligand
  -I-interpret- 

157156  0  0  0  0  0  0  0  0999 V2000
   36.6700   77.9670   53.5070 N   0  3  0  0  0
   37.6000   79.0560   53.2730 C   0  0  0  0  0
   38.8260   78.8810   54.1430 C   0  0  0  0  0
   38.7000   78.5180   55.3240 O   0  0  0  0  0
   40.0040   79.1400   53.5370 N   0  0  0  0  0
   41.2870   79.0470   54.2480 C   0  0  0  0  0
   41.4360   80.1440   55.3110 C   0  0  0  0  0
   42.1120   79.9390   56.3270 O   0  0  0  0  0
   42.4510   79.1540   53.2400 C   0  0  0  0  0
   42.4150   80.4490   52.4360 C   0  0  0  0  0
   43.6190   80.6360   51.4950 C   0  0  0  0  0
   40.9120   81.3460   55.0430 N   0  0  0  0  0
   41.0830   82.4940   55.9430 C   0  0  0  0  0
   39.7200   83.1060   56.2300 C   0  0  0  0  0
   38.8070   83.0160   55.4070 O   0  0  0  0  0
   42.0400   83.5810   55.3460 C   0  0  0  0  0
   43.5100   83.0330   55.2410 C   0  0  0  0  0
   44.4350   84.0600   54.5690 C   0  0  0  0  0
   45.7310   83.3990   54.2720 C   0  0  0  0  0
   46.6970   84.3130   53.5380 N   0  3  0  0  0
   39.5790   83.7410   57.4020 N   0  0  0  0  0
   38.2940   84.3310   57.8020 C   0  0  0  0  0
   38.5830   85.6860   58.4210 C   0  0  0  0  0
   39.4350   85.7680   59.3030 O   0  0  0  0  0
   37.5440   83.4870   58.8560 C   0  0  0  0  0
   36.8530   82.1600   58.3670 C   0  0  0  0  0
   36.3660   81.2970   59.5890 C   0  0  0  0  0
   35.7610   79.9850   59.1690 N   0  0  0  0  0
   35.1190   79.1090   59.9670 C   0  0  0  0  0
   34.9770   79.3600   61.2670 N   0  0  0  0  0
   34.6080   77.9550   59.4700 N   0  0  0  0  0
   37.8420   86.7060   58.0190 N   0  0  0  0  0
   38.0020   88.0460   58.5770 C   0  0  0  0  0
   36.8920   88.2220   59.6070 C   0  0  0  0  0
   35.7540   87.8250   59.3510 O   0  0  0  0  0
   37.9110   89.1180   57.4690 C   0  0  0  0  0
   38.3530   90.5430   57.9390 C   0  0  0  0  0
   38.5990   91.5220   56.7700 C   0  0  0  0  0
   37.3930   91.6870   55.9660 N   0  0  0  0  0
   36.5030   92.6770   56.1220 C   0  0  0  0  0
   36.6680   93.6150   57.0650 N   0  0  0  0  0
   35.4400   92.7410   55.3260 N   0  0  0  0  0
   37.2310   88.7420   60.7940 N   0  0  0  0  0
   36.2140   88.9400   61.8330 C   0  0  0  0  0
   35.5600   90.3080   61.6310 C   0  0  0  0  0
   36.2320   91.3530   61.7050 O   0  0  0  0  0
   36.7880   88.8700   63.2560 C   0  0  0  0  0
   35.6560   89.0120   64.2810 C   0  0  0  0  0
   36.1610   88.9280   65.7040 C   0  0  0  0  0
   35.0450   89.1410   66.6210 N   0  0  0  0  0
   35.0420   88.8100   67.9110 C   0  0  0  0  0
   36.0880   88.2300   68.4580 N   0  0  0  0  0
   33.9490   89.0380   68.6520 N   0  0  0  0  0
   34.2620   90.2980   61.3880 N   0  0  0  0  0
   33.5480   91.5230   61.0510 C   0  0  0  0  0
   32.7370   92.1220   62.1860 C   0  0  0  0  0
   32.3630   93.2980   62.1010 O   0  0  0  0  0
   32.6240   91.2790   59.8540 C   0  0  0  0  0
   33.4380   90.9740   58.6010 C   0  0  0  0  0
   32.6440   91.0650   57.3090 C   0  0  0  0  0
   31.8740   92.0470   57.1520 O   0  0  0  0  0
   32.8060   90.1600   56.4500 O   0  0  0  0  0
   32.4720   91.3850   63.2450 N   0  0  0  0  0
   31.6220   91.9390   64.3130 C   0  0  0  0  0
   31.9090   91.2380   65.6280 C   0  0  0  0  0
   32.4900   90.1590   65.5920 O   0  0  0  0  0
   30.1240   91.8110   63.9560 C   0  0  0  0  0
   29.6700   90.3680   63.6910 C   0  0  0  0  0
   28.3340   90.3360   62.9420 C   0  0  0  0  0
   28.3070   91.3170   61.8560 N   0  0  0  0  0
   28.6690   91.0630   60.5960 C   0  0  0  0  0
   28.6180   92.0330   59.6880 N   0  0  0  0  0
   29.0860   89.8450   60.2450 N   0  0  0  0  0
   31.5740   91.7170   66.7150 O   0  0  0  0  0
   35.8469   78.0918   52.9176 H   0  0  0  0  0
   37.1215   77.0811   53.2795 H   0  0  0  0  0
   36.3902   77.9653   54.4879 H   0  0  0  0  0
   37.1163   80.0014   53.5187 H   0  0  0  0  0
   37.8993   79.0547   52.2249 H   0  0  0  0  0
   40.0038   79.4091   52.5532 H   0  0  0  0  0
   41.3117   78.0819   54.7539 H   0  0  0  0  0
   42.3655   78.3228   52.5401 H   0  0  0  0  0
   43.3843   79.1350   53.8028 H   0  0  0  0  0
   42.4314   81.2729   53.1495 H   0  0  0  0  0
   41.5204   80.4185   51.8140 H   0  0  0  0  0
   44.5382   80.6459   52.0807 H   0  0  0  0  0
   43.6510   79.8137   50.7802 H   0  0  0  0  0
   43.5173   81.5803   50.9602 H   0  0  0  0  0
   40.3755   81.4690   54.1843 H   0  0  0  0  0
   41.5420   82.1343   56.8639 H   0  0  0  0  0
   42.0353   84.4519   56.0015 H   0  0  0  0  0
   41.6915   83.8464   54.3479 H   0  0  0  0  0
   43.5018   82.1240   54.6395 H   0  0  0  0  0
   43.8812   82.8337   56.2463 H   0  0  0  0  0
   44.5931   84.9102   55.2326 H   0  0  0  0  0
   43.9815   84.4235   53.6469 H   0  0  0  0  0
   45.5307   82.5392   53.6327 H   0  0  0  0  0
   46.1895   83.1177   55.2200 H   0  0  0  0  0
   47.5675   83.8124   53.3591 H   0  0  0  0  0
   46.2822   84.6033   52.6525 H   0  0  0  0  0
   46.8876   85.1349   54.1112 H   0  0  0  0  0
   40.3800   83.8162   58.0290 H   0  0  0  0  0
   37.6650   84.3907   56.9138 H   0  0  0  0  0
   36.7358   84.1219   59.2191 H   0  0  0  0  0
   38.3014   83.1754   59.5753 H   0  0  0  0  0
   37.5757   81.5793   57.7937 H   0  0  0  0  0
   35.9892   82.4197   57.7550 H   0  0  0  0  0
   35.5996   81.8655   60.1159 H   0  0  0  0  0
   37.2332   81.0811   60.2130 H   0  0  0  0  0
   35.8450   79.7340   58.1839 H   0  0  0  0  0
   35.3553   80.2197   61.6647 H   0  0  0  0  0
   34.1276   77.3018   60.0888 H   0  0  0  0  0
   34.7042   77.7404   58.4775 H   0  0  0  0  0
   37.1377   86.5516   57.2975 H   0  0  0  0  0
   38.9816   88.1640   59.0401 H   0  0  0  0  0
   36.8670   89.1839   57.1628 H   0  0  0  0  0
   38.5828   88.8157   56.6656 H   0  0  0  0  0
   39.2922   90.4347   58.4815 H   0  0  0  0  0
   37.5482   90.9534   58.5489 H   0  0  0  0  0
   39.3899   91.1199   56.1368 H   0  0  0  0  0
   38.8828   92.4917   57.1789 H   0  0  0  0  0
   37.2144   91.0003   55.2332 H   0  0  0  0  0
   35.9832   94.3644   57.1643 H   0  0  0  0  0
   37.4784   93.5795   57.6834 H   0  0  0  0  0
   35.3038   92.0381   54.5995 H   0  0  0  0  0
   38.2004   89.0015   60.9764 H   0  0  0  0  0
   35.4897   88.1313   61.7352 H   0  0  0  0  0
   37.5041   89.6798   63.3958 H   0  0  0  0  0
   37.2837   87.9096   63.3976 H   0  0  0  0  0
   34.9504   88.1964   64.1226 H   0  0  0  0  0
   35.1931   89.9890   64.1423 H   0  0  0  0  0
   36.9214   89.6914   65.8686 H   0  0  0  0  0
   36.5977   87.9450   65.8804 H   0  0  0  0  0
   34.2030   89.5768   66.2448 H   0  0  0  0  0
   36.9132   88.0291   67.8932 H   0  0  0  0  0
   33.9318   88.7621   69.6338 H   0  0  0  0  0
   33.1342   89.4874   68.2342 H   0  0  0  0  0
   33.7500   89.4172   61.4370 H   0  0  0  0  0
   34.3253   92.2495   60.8141 H   0  0  0  0  0
   32.0287   92.1751   59.6790 H   0  0  0  0  0
   31.9800   90.4272   60.0728 H   0  0  0  0  0
   33.7941   89.9476   58.6894 H   0  0  0  0  0
   34.2334   91.7171   58.5440 H   0  0  0  0  0
   33.4357   89.5154   56.7808 H   0  0  0  0  0
   32.8510   90.4414   63.3247 H   0  0  0  0  0
   31.8559   92.9986   64.4160 H   0  0  0  0  0
   29.9593   92.3768   63.0390 H   0  0  0  0  0
   29.5543   92.1791   64.8092 H   0  0  0  0  0
   29.5444   89.8616   64.6480 H   0  0  0  0  0
   30.4239   89.8730   63.0788 H   0  0  0  0  0
   27.5369   90.5764   63.6455 H   0  0  0  0  0
   28.2006   89.3423   62.5143 H   0  0  0  0  0
   27.9894   92.2607   62.0772 H   0  0  0  0  0
   28.3035   92.9658   59.9553 H   0  0  0  0  0
   29.3649   89.6594   59.2816 H   0  0  0  0  0
   29.1258   89.0996   60.9401 H   0  0  0  0  0
   31.1337   92.5578   66.5708 H   0  0  0  0  0
  1  2  1  0  0  0
  2  3  1  0  0  0
  3  4  2  0  0  0
  3  5  1  0  0  0
  5  6  1  0  0  0
  6  7  1  0  0  0
  6  9  1  0  0  0
  7  8  2  0  0  0
  7 12  1  0  0  0
  9 10  1  0  0  0
 10 11  1  0  0  0
 12 13  1  0  0  0
 13 14  1  0  0  0
 13 16  1  0  0  0
 14 15  2  0  0  0
 14 21  1  0  0  0
 16 17  1  0  0  0
 17 18  1  0  0  0
 18 19  1  0  0  0
 19 20  1  0  0  0
 21 22  1  0  0  0
 22 23  1  0  0  0
 22 25  1  0  0  0
 23 24  2  0  0  0
 23 32  1  0  0  0
 25 26  1  0  0  0
 26 27  1  0  0  0
 27 28  1  0  0  0
 28 29  1  0  0  0
 29 30  2  0  0  0
 29 31  1  0  0  0
 32 33  1  0  0  0
 33 34  1  0  0  0
 33 36  1  0  0  0
 34 35  2  0  0  0
 34 43  1  0  0  0
 36 37  1  0  0  0
 37 38  1  0  0  0
 38 39  1  0  0  0
 39 40  1  0  0  0
 40 41  1  0  0  0
 40 42  2  0  0  0
 43 44  1  0  0  0
 44 45  1  0  0  0
 44 47  1  0  0  0
 45 46  2  0  0  0
 45 54  1  0  0  0
 47 48  1  0  0  0
 48 49  1  0  0  0
 49 50  1  0  0  0
 50 51  1  0  0  0
 51 52  2  0  0  0
 51 53  1  0  0  0
 54 55  1  0  0  0
 55 56  1  0  0  0
 55 58  1  0  0  0
 56 57  2  0  0  0
 56 63  1  0  0  0
 58 59  1  0  0  0
 59 60  1  0  0  0
 60 61  2  0  0  0
 60 62  1  0  0  0
 63 64  1  0  0  0
 64 65  1  0  0  0
 64 67  1  0  0  0
 65 66  2  0  0  0
 65 74  1  0  0  0
 67 68  1  0  0  0
 68 69  1  0  0  0
 69 70  1  0  0  0
 70 71  1  0  0  0
 71 72  2  0  0  0
 71 73  1  0  0  0
  1 75  1  0  0  0
  1 76  1  0  0  0
  1 77  1  0  0  0
  2 78  1  0  0  0
  2 79  1  0  0  0
  5 80  1  0  0  0
  6 81  1  0  0  0
  9 82  1  0  0  0
  9 83  1  0  0  0
 10 84  1  0  0  0
 10 85  1  0  0  0
 11 86  1  0  0  0
 11 87  1  0  0  0
 11 88  1  0  0  0
 12 89  1  0  0  0
 13 90  1  0  0  0
 16 91  1  0  0  0
 16 92  1  0  0  0
 17 93  1  0  0  0
 17 94  1  0  0  0
 18 95  1  0  0  0
 18 96  1  0  0  0
 19 97  1  0  0  0
 19 98  1  0  0  0
 20 99  1  0  0  0
 20100  1  0  0  0
 20101  1  0  0  0
 21102  1  0  0  0
 22103  1  0  0  0
 25104  1  0  0  0
 25105  1  0  0  0
 26106  1  0  0  0
 26107  1  0  0  0
 27108  1  0  0  0
 27109  1  0  0  0
 28110  1  0  0  0
 30111  1  0  0  0
 31112  1  0  0  0
 31113  1  0  0  0
 32114  1  0  0  0
 33115  1  0  0  0
 36116  1  0  0  0
 36117  1  0  0  0
 37118  1  0  0  0
 37119  1  0  0  0
 38120  1  0  0  0
 38121  1  0  0  0
 39122  1  0  0  0
 41123  1  0  0  0
 41124  1  0  0  0
 42125  1  0  0  0
 43126  1  0  0  0
 44127  1  0  0  0
 47128  1  0  0  0
 47129  1  0  0  0
 48130  1  0  0  0
 48131  1  0  0  0
 49132  1  0  0  0
 49133  1  0  0  0
 50134  1  0  0  0
 52135  1  0  0  0
 53136  1  0  0  0
 53137  1  0  0  0
 54138  1  0  0  0
 55139  1  0  0  0
 58140  1  0  0  0
 58141  1  0  0  0
 59142  1  0  0  0
 59143  1  0  0  0
 62144  1  0  0  0
 63145  1  0  0  0
 64146  1  0  0  0
 67147  1  0  0  0
 67148  1  0  0  0
 68149  1  0  0  0
 68150  1  0  0  0
 69151  1  0  0  0
 69152  1  0  0  0
 70153  1  0  0  0
 72154  1  0  0  0
 73155  1  0  0  0
 73156  1  0  0  0
 74157  1  0  0  0
M  END
$$$$
