1xr9_ligand
  -I-interpret- 

132134  0  0  0  0  0  0  0  0999 V2000
   12.1290   26.1580   36.3560 N   0  3  0  0  0
   13.0390   26.9690   37.2140 C   0  0  0  0  0
   14.4860   26.8160   36.7080 C   0  0  0  0  0
   14.8210   25.7960   36.1150 O   0  0  0  0  0
   12.8470   26.5720   38.7180 C   0  0  0  0  0
   13.1430   27.7610   39.6420 C   0  0  0  0  0
   13.6370   25.3030   39.0880 C   0  0  0  0  0
   12.7080   27.5570   41.0660 C   0  0  0  0  0
   15.3100   27.8500   36.8860 N   0  0  0  0  0
   16.6500   27.8820   36.2740 C   0  0  0  0  0
   17.5070   26.6670   36.6210 C   0  0  0  0  0
   17.3090   26.0340   37.6630 O   0  0  0  0  0
   17.3950   29.1600   36.6920 C   0  0  0  0  0
   16.9720   30.4830   36.0360 C   0  0  0  0  0
   17.4550   31.6530   36.9030 C   0  0  0  0  0
   17.5250   30.6090   34.6040 C   0  0  0  0  0
   18.4700   26.3660   35.7500 N   0  0  0  0  0
   19.5140   25.3750   36.0220 C   0  0  0  0  0
   20.5650   25.9210   36.9670 C   0  0  0  0  0
   20.4600   27.0460   37.4410 O   0  0  0  0  0
   21.6060   25.1340   37.2080 N   0  0  0  0  0
   22.5830   25.4480   38.2380 C   0  0  0  0  0
   23.7360   26.3280   37.7440 C   0  0  0  0  0
   24.2910   26.0710   36.6690 O   0  0  0  0  0
   23.1110   24.0670   38.6190 C   0  0  0  0  0
   23.0310   23.2630   37.3110 C   0  0  0  0  0
   21.9200   23.8740   36.5060 C   0  0  0  0  0
   24.0880   27.3630   38.5100 N   0  0  0  0  0
   25.3750   28.0130   38.3340 C   0  0  0  0  0
   26.4580   26.9600   38.4510 C   0  0  0  0  0
   26.3190   26.0200   39.2420 O   0  0  0  0  0
   25.4660   28.9830   39.5290 C   0  0  0  0  0
   24.2910   28.6650   40.4190 C   0  0  0  0  0
   23.2820   28.0080   39.5580 C   0  0  0  0  0
   27.5320   27.1230   37.6900 N   0  0  0  0  0
   28.6470   26.1870   37.7450 C   0  0  0  0  0
   29.9460   26.7530   37.2000 C   0  0  0  0  0
   30.1740   27.9650   37.2220 O   0  0  0  0  0
   30.8030   25.8650   36.7080 N   0  0  0  0  0
   32.1370   26.2650   36.2760 C   0  0  0  0  0
   32.0910   27.3290   35.1730 C   0  0  0  0  0
   31.3160   27.2330   34.2160 O   0  0  0  0  0
   32.9330   25.0460   35.7950 C   0  0  0  0  0
   34.2690   25.3980   35.4320 O   0  0  0  0  0
   32.9260   28.3460   35.3370 N   0  0  0  0  0
   33.2730   29.2350   34.2570 C   0  0  0  0  0
   33.7280   28.3370   33.0880 C   0  0  0  0  0
   34.1110   27.1710   33.2950 O   0  0  0  0  0
   34.3900   30.2310   34.7370 C   0  0  0  0  0
   35.7850   29.5960   34.6850 C   0  0  0  0  0
   34.3450   31.5530   33.9990 C   0  0  0  0  0
   33.6850   28.8500   31.8650 N   0  0  0  0  0
   34.2300   28.0960   30.7290 C   0  0  0  0  0
   35.7570   28.1650   30.7200 C   0  0  0  0  0
   36.3610   29.0610   31.3290 O   0  0  0  0  0
   33.6770   28.6160   29.3930 C   0  0  0  0  0
   32.2170   28.2940   29.1020 C   0  0  0  0  0
   31.1850   28.7770   29.9330 C   0  0  0  0  0
   31.8630   27.5290   27.9800 C   0  0  0  0  0
   29.8400   28.5000   29.6500 C   0  0  0  0  0
   30.5170   27.2370   27.6970 C   0  0  0  0  0
   29.5220   27.7350   28.5290 C   0  0  0  0  0
   28.2120   27.4570   28.2670 O   0  0  0  0  0
   36.4300   27.3390   30.0870 O   0  0  0  0  0
   12.2596   26.4219   35.3794 H   0  0  0  0  0
   12.3451   25.1681   36.4738 H   0  0  0  0  0
   11.1618   26.3310   36.6297 H   0  0  0  0  0
   12.7950   28.0293   37.1483 H   0  0  0  0  0
   11.7985   26.3138   38.8664 H   0  0  0  0  0
   12.5876   28.6153   39.2551 H   0  0  0  0  0
   14.2242   27.8991   39.6524 H   0  0  0  0  0
   14.7053   25.5105   39.0257 H   0  0  0  0  0
   13.3827   25.0017   40.1042 H   0  0  0  0  0
   13.3802   24.5018   38.3951 H   0  0  0  0  0
   11.6315   27.3884   41.0951 H   0  0  0  0  0
   13.2240   26.6915   41.4817 H   0  0  0  0  0
   12.9541   28.4436   41.6503 H   0  0  0  0  0
   15.0053   28.6368   37.4591 H   0  0  0  0  0
   16.4891   27.8657   35.1961 H   0  0  0  0  0
   18.4310   29.0043   36.3909 H   0  0  0  0  0
   17.1875   29.2831   37.7550 H   0  0  0  0  0
   15.8845   30.5023   35.9645 H   0  0  0  0  0
   17.0093   31.5768   37.8948 H   0  0  0  0  0
   18.5411   31.6167   36.9876 H   0  0  0  0  0
   17.1565   32.5938   36.4404 H   0  0  0  0  0
   18.6140   30.5711   34.6318 H   0  0  0  0  0
   17.1469   29.7869   33.9963 H   0  0  0  0  0
   17.2040   31.5578   34.1741 H   0  0  0  0  0
   18.4805   26.8486   34.8514 H   0  0  0  0  0
   19.9977   25.1156   35.0803 H   0  0  0  0  0
   19.0510   24.5043   36.4863 H   0  0  0  0  0
   22.1380   26.0181   39.0535 H   0  0  0  0  0
   22.5307   23.6100   39.4205 H   0  0  0  0  0
   24.1250   24.1081   39.0168 H   0  0  0  0  0
   22.8361   22.2093   37.5105 H   0  0  0  0  0
   23.9755   23.3033   36.7684 H   0  0  0  0  0
   22.2120   24.0450   35.4699 H   0  0  0  0  0
   21.0535   23.2160   36.4395 H   0  0  0  0  0
   25.4855   28.5189   37.3748 H   0  0  0  0  0
   25.4375   30.0205   39.1961 H   0  0  0  0  0
   26.4082   28.8611   40.0634 H   0  0  0  0  0
   23.8881   29.5699   40.8739 H   0  0  0  0  0
   24.5876   28.0140   41.2414 H   0  0  0  0  0
   22.6658   27.2960   40.1071 H   0  0  0  0  0
   22.5580   28.7141   39.1514 H   0  0  0  0  0
   27.5782   27.9191   37.0540 H   0  0  0  0  0
   28.3820   25.3277   37.1290 H   0  0  0  0  0
   28.8136   25.9396   38.7934 H   0  0  0  0  0
   30.5231   24.8872   36.6312 H   0  0  0  0  0
   32.6359   26.7049   37.1395 H   0  0  0  0  0
   32.4351   24.6351   34.9167 H   0  0  0  0  0
   32.9773   24.3217   36.6083 H   0  0  0  0  0
   34.7365   24.6132   35.1367 H   0  0  0  0  0
   33.3360   28.5043   36.2574 H   0  0  0  0  0
   32.4362   29.8533   33.9321 H   0  0  0  0  0
   34.1760   30.4524   35.7826 H   0  0  0  0  0
   35.8081   28.7193   35.3323 H   0  0  0  0  0
   36.0096   29.2989   33.6606 H   0  0  0  0  0
   36.5253   30.3201   35.0253 H   0  0  0  0  0
   34.4869   31.3774   32.9326 H   0  0  0  0  0
   33.3778   32.0275   34.1648 H   0  0  0  0  0
   35.1380   32.2021   34.3703 H   0  0  0  0  0
   33.2723   29.7704   31.7136 H   0  0  0  0  0
   33.9199   27.0577   30.8467 H   0  0  0  0  0
   35.7265   29.6280   31.7735 H   0  0  0  0  0
   34.2591   28.1284   28.6110 H   0  0  0  0  0
   33.7475   29.7029   29.4356 H   0  0  0  0  0
   31.4369   29.3749   30.8089 H   0  0  0  0  0
   32.6437   27.1553   27.3175 H   0  0  0  0  0
   29.0512   28.8789   30.2999 H   0  0  0  0  0
   30.2566   26.6257   26.8330 H   0  0  0  0  0
   28.1520   26.9261   27.4694 H   0  0  0  0  0
  1  2  1  0  0  0
  2  3  1  0  0  0
  2  5  1  0  0  0
  3  4  2  0  0  0
  3  9  1  0  0  0
  5  6  1  0  0  0
  5  7  1  0  0  0
  6  8  1  0  0  0
  9 10  1  0  0  0
 10 11  1  0  0  0
 10 13  1  0  0  0
 11 12  2  0  0  0
 11 17  1  0  0  0
 13 14  1  0  0  0
 14 15  1  0  0  0
 14 16  1  0  0  0
 17 18  1  0  0  0
 18 19  1  0  0  0
 19 20  2  0  0  0
 19 21  1  0  0  0
 21 22  1  0  0  0
 21 27  1  0  0  0
 22 23  1  0  0  0
 22 25  1  0  0  0
 23 24  2  0  0  0
 23 28  1  0  0  0
 25 26  1  0  0  0
 26 27  1  0  0  0
 28 29  1  0  0  0
 28 34  1  0  0  0
 29 30  1  0  0  0
 29 32  1  0  0  0
 30 31  2  0  0  0
 30 35  1  0  0  0
 32 33  1  0  0  0
 33 34  1  0  0  0
 35 36  1  0  0  0
 36 37  1  0  0  0
 37 38  2  0  0  0
 37 39  1  0  0  0
 39 40  1  0  0  0
 40 41  1  0  0  0
 40 43  1  0  0  0
 41 42  2  0  0  0
 41 45  1  0  0  0
 43 44  1  0  0  0
 45 46  1  0  0  0
 46 47  1  0  0  0
 46 49  1  0  0  0
 47 48  2  0  0  0
 47 52  1  0  0  0
 49 50  1  0  0  0
 49 51  1  0  0  0
 52 53  1  0  0  0
 53 54  1  0  0  0
 53 56  1  0  0  0
 54 55  1  0  0  0
 54 64  2  0  0  0
 56 57  1  0  0  0
 57 58  4  0  0  0
 57 59  4  0  0  0
 58 60  4  0  0  0
 59 61  4  0  0  0
 60 62  4  0  0  0
 61 62  4  0  0  0
 62 63  1  0  0  0
  1 65  1  0  0  0
  1 66  1  0  0  0
  1 67  1  0  0  0
  2 68  1  0  0  0
  5 69  1  0  0  0
  6 70  1  0  0  0
  6 71  1  0  0  0
  7 72  1  0  0  0
  7 73  1  0  0  0
  7 74  1  0  0  0
  8 75  1  0  0  0
  8 76  1  0  0  0
  8 77  1  0  0  0
  9 78  1  0  0  0
 10 79  1  0  0  0
 13 80  1  0  0  0
 13 81  1  0  0  0
 14 82  1  0  0  0
 15 83  1  0  0  0
 15 84  1  0  0  0
 15 85  1  0  0  0
 16 86  1  0  0  0
 16 87  1  0  0  0
 16 88  1  0  0  0
 17 89  1  0  0  0
 18 90  1  0  0  0
 18 91  1  0  0  0
 22 92  1  0  0  0
 25 93  1  0  0  0
 25 94  1  0  0  0
 26 95  1  0  0  0
 26 96  1  0  0  0
 27 97  1  0  0  0
 27 98  1  0  0  0
 29 99  1  0  0  0
 32100  1  0  0  0
 32101  1  0  0  0
 33102  1  0  0  0
 33103  1  0  0  0
 34104  1  0  0  0
 34105  1  0  0  0
 35106  1  0  0  0
 36107  1  0  0  0
 36108  1  0  0  0
 39109  1  0  0  0
 40110  1  0  0  0
 43111  1  0  0  0
 43112  1  0  0  0
 44113  1  0  0  0
 45114  1  0  0  0
 46115  1  0  0  0
 49116  1  0  0  0
 50117  1  0  0  0
 50118  1  0  0  0
 50119  1  0  0  0
 51120  1  0  0  0
 51121  1  0  0  0
 51122  1  0  0  0
 52123  1  0  0  0
 53124  1  0  0  0
 55125  1  0  0  0
 56126  1  0  0  0
 56127  1  0  0  0
 58128  1  0  0  0
 59129  1  0  0  0
 60130  1  0  0  0
 61131  1  0  0  0
 63132  1  0  0  0
M  END
$$$$
