3eyl_ligand
  -I-interpret- 

 78 81  0  0  0  0  0  0  0  0999 V2000
   29.7810   -6.7240    7.5700 C   0  0  0  0  0
   29.3600   -5.4400    6.8680 C   0  0  0  0  0
   29.4730   -4.2460    7.8160 C   0  0  0  0  0
   28.8600   -3.0550    7.2100 N   0  3  0  0  0
   30.9470   -3.9980    8.0950 C   0  0  0  0  0
   31.7320   -3.7090    7.1960 O   0  0  0  0  0
   31.3150   -4.1290    9.3530 N   0  0  0  0  0
   32.7270   -3.9300    9.6930 C   0  0  0  0  0
   33.2140   -5.0750   10.6070 C   0  0  0  0  0
   32.4000   -5.9010   11.0150 O   0  0  0  0  0
   34.4890   -5.2500   10.9430 N   0  0  0  0  0
   33.0110   -2.4850   10.1940 C   0  0  0  0  0
   32.3330   -2.1190   11.5250 C   0  0  0  0  0
   31.9520   -0.6300   11.5590 C   0  0  0  0  0
   30.6900   -0.4170   10.8370 N   0  3  0  0  0
   34.5290   -2.1540   10.2070 C   0  0  0  0  0
   35.3860   -3.0150   11.1510 C   0  0  0  0  0
   35.6330   -4.4080   10.5670 C   0  0  0  0  0
   36.8530   -5.0280   11.2430 C   0  0  0  0  0
   36.4310   -6.4500   11.5890 C   0  0  0  0  0
   34.9180   -6.3650   11.7920 C   0  0  0  0  0
   34.5450   -6.0950   13.2540 C   0  0  0  0  0
   34.4250   -4.9520   13.6900 O   0  0  0  0  0
   34.3570   -7.1860   13.9830 N   0  0  0  0  0
   33.9730   -7.1100   15.3960 C   0  0  0  0  0
   35.1340   -6.5940   16.2620 C   0  0  0  0  0
   34.8440   -5.8200   17.3890 C   0  0  0  0  0
   35.8710   -5.3260   18.1940 C   0  0  0  0  0
   37.1950   -5.6060   17.8620 C   0  0  0  0  0
   37.4890   -6.3750   16.7340 C   0  0  0  0  0
   36.4620   -6.8690   15.9280 C   0  0  0  0  0
   33.4480   -8.4800   15.8190 C   0  0  0  0  0
   32.3600   -9.0040   15.1200 C   0  0  0  0  0
   31.8310  -10.2440   15.4550 C   0  0  0  0  0
   32.4080  -10.9580   16.5040 C   0  0  0  0  0
   33.4950  -10.4390   17.2080 C   0  0  0  0  0
   34.0210   -9.1980   16.8650 C   0  0  0  0  0
   30.8152   -6.6328    7.9020 H   0  0  0  0  0
   29.1352   -6.8941    8.4314 H   0  0  0  0  0
   29.6929   -7.5610    6.8773 H   0  0  0  0  0
   28.3235   -5.5377    6.5453 H   0  0  0  0  0
   30.0146   -5.2745    6.0123 H   0  0  0  0  0
   28.9478   -4.4569    8.7476 H   0  0  0  0  0
   27.8728   -3.2369    7.0291 H   0  0  0  0  0
   28.9499   -2.2653    7.8492 H   0  0  0  0  0
   29.3335   -2.8394    6.3327 H   0  0  0  0  0
   30.6329   -4.3636   10.0742 H   0  0  0  0  0
   33.3399   -3.9979    8.7942 H   0  0  0  0  0
   32.5358   -1.8427    9.4525 H   0  0  0  0  0
   33.0296   -2.3201   12.3389 H   0  0  0  0  0
   31.4260   -2.7142   11.6304 H   0  0  0  0  0
   32.7403   -0.0474   11.0824 H   0  0  0  0  0
   31.8296   -0.3149   12.5953 H   0  0  0  0  0
   30.4463    0.5731   10.8654 H   0  0  0  0  0
   30.8002   -0.7135    9.8673 H   0  0  0  0  0
   29.9505   -0.9632   11.2789 H   0  0  0  0  0
   34.6196   -1.1256   10.5566 H   0  0  0  0  0
   34.8961   -2.3402    9.1977 H   0  0  0  0  0
   34.8549   -3.1254   12.0964 H   0  0  0  0  0
   36.3484   -2.5226   11.2903 H   0  0  0  0  0
   35.7734   -4.3390    9.4883 H   0  0  0  0  0
   37.1521   -4.4682   12.1292 H   0  0  0  0  0
   37.7271   -5.0129   10.5920 H   0  0  0  0  0
   36.9411   -6.8215   12.4778 H   0  0  0  0  0
   36.6976   -7.1567   10.8031 H   0  0  0  0  0
   34.4335   -7.3066   11.5337 H   0  0  0  0  0
   34.4826   -8.1011   13.5503 H   0  0  0  0  0
   33.1747   -6.3824   15.5424 H   0  0  0  0  0
   33.8066   -5.6004   17.6413 H   0  0  0  0  0
   35.6397   -4.7266   19.0745 H   0  0  0  0  0
   38.0038   -5.2236   18.4847 H   0  0  0  0  0
   38.5271   -6.5909   16.4813 H   0  0  0  0  0
   36.6945   -7.4645   15.0452 H   0  0  0  0  0
   31.9201   -8.4338   14.3017 H   0  0  0  0  0
   30.9807  -10.6510   14.9079 H   0  0  0  0  0
   32.0052  -11.9332   16.7775 H   0  0  0  0  0
   33.9329  -11.0073   18.0286 H   0  0  0  0  0
   34.8733   -8.7917   17.4097 H   0  0  0  0  0
  1  2  1  0  0  0
  2  3  1  0  0  0
  3  4  1  0  0  0
  3  5  1  0  0  0
  5  6  2  0  0  0
  5  7  1  0  0  0
  7  8  1  0  0  0
  8  9  1  0  0  0
  8 12  1  0  0  0
  9 10  2  0  0  0
  9 11  1  0  0  0
 11 18  1  0  0  0
 11 21  1  0  0  0
 12 13  1  0  0  0
 12 16  1  0  0  0
 13 14  1  0  0  0
 14 15  1  0  0  0
 16 17  1  0  0  0
 17 18  1  0  0  0
 18 19  1  0  0  0
 19 20  1  0  0  0
 20 21  1  0  0  0
 21 22  1  0  0  0
 22 23  2  0  0  0
 22 24  1  0  0  0
 24 25  1  0  0  0
 25 26  1  0  0  0
 25 32  1  0  0  0
 26 27  4  0  0  0
 26 31  4  0  0  0
 27 28  4  0  0  0
 28 29  4  0  0  0
 29 30  4  0  0  0
 30 31  4  0  0  0
 32 33  4  0  0  0
 32 37  4  0  0  0
 33 34  4  0  0  0
 34 35  4  0  0  0
 35 36  4  0  0  0
 36 37  4  0  0  0
  1 38  1  0  0  0
  1 39  1  0  0  0
  1 40  1  0  0  0
  2 41  1  0  0  0
  2 42  1  0  0  0
  3 43  1  0  0  0
  4 44  1  0  0  0
  4 45  1  0  0  0
  4 46  1  0  0  0
  7 47  1  0  0  0
  8 48  1  0  0  0
 12 49  1  0  0  0
 13 50  1  0  0  0
 13 51  1  0  0  0
 14 52  1  0  0  0
 14 53  1  0  0  0
 15 54  1  0  0  0
 15 55  1  0  0  0
 15 56  1  0  0  0
 16 57  1  0  0  0
 16 58  1  0  0  0
 17 59  1  0  0  0
 17 60  1  0  0  0
 18 61  1  0  0  0
 19 62  1  0  0  0
 19 63  1  0  0  0
 20 64  1  0  0  0
 20 65  1  0  0  0
 21 66  1  0  0  0
 24 67  1  0  0  0
 25 68  1  0  0  0
 27 69  1  0  0  0
 28 70  1  0  0  0
 29 71  1  0  0  0
 30 72  1  0  0  0
 31 73  1  0  0  0
 33 74  1  0  0  0
 34 75  1  0  0  0
 35 76  1  0  0  0
 36 77  1  0  0  0
 37 78  1  0  0  0
M  END
$$$$
