5el9_ligand
  -I-interpret- 

 23 23  0  0  0  0  0  0  0  0999 V2000
  -39.5990  -19.0700    8.0580 N   0  0  0  0  0
  -38.6420  -20.8590    7.1550 C   0  0  0  0  0
  -39.3080  -20.3900    8.2230 N   0  0  0  0  0
  -41.2810  -22.0640   11.0250 C   0  0  0  0  0
  -41.1010  -21.3510    9.6760 C   0  0  0  0  0
  -39.6520  -21.1360    9.4120 C   0  0  0  0  0
  -39.0850  -18.8000    6.8520 C   0  0  0  0  0
  -38.9700  -23.4420   11.3490 O   0  0  0  0  0
  -40.4460  -23.6910   11.1670 P   0  0  0  0  0
  -40.6920  -24.4710    9.9050 O   0  0  0  0  0
  -41.0340  -24.3250   12.4170 O   0  0  0  0  0
  -41.7820  -20.0840    9.6770 O   0  0  0  0  0
  -38.4950  -19.8700    6.2750 N   0  0  0  0  0
  -38.2815  -21.8799    7.0293 H   0  0  0  0  0
  -42.3489  -22.2494   11.1406 H   0  0  0  0  0
  -40.8370  -21.4176   11.7820 H   0  0  0  0  0
  -41.5284  -21.9775    8.8931 H   0  0  0  0  0
  -39.2796  -20.5485   10.2512 H   0  0  0  0  0
  -39.2228  -22.1287    9.2762 H   0  0  0  0  0
  -39.1370  -17.8173    6.3832 H   0  0  0  0  0
  -38.8279  -22.9439   12.1573 H   0  0  0  0  0
  -40.8372  -23.7729   13.1773 H   0  0  0  0  0
  -42.7163  -20.2243    9.8474 H   0  0  0  0  0
  3  1  4  0  0  0
  1  7  4  0  0  0
  3  2  4  0  0  0
  2 13  4  0  0  0
  6  3  1  0  0  0
  5  4  1  0  0  0
  4  9  1  0  0  0
  5  6  1  0  0  0
  5 12  1  0  0  0
  7 13  4  0  0  0
  9  8  1  0  0  0
  9 10  2  0  0  0
  9 11  1  0  0  0
  2 14  1  0  0  0
  4 15  1  0  0  0
  4 16  1  0  0  0
  5 17  1  0  0  0
  6 18  1  0  0  0
  6 19  1  0  0  0
  7 20  1  0  0  0
  8 21  1  0  0  0
 11 22  1  0  0  0
 12 23  1  0  0  0
M  END
$$$$
