### 
### Created by X-TOOL on Mon Sep 10 21:13:29 2018
### 

@<TRIPOS>MOLECULE
5j3v_ligand
  271   271     1     0     0
SMALL
GAST_HUCK


@<TRIPOS>ATOM
      1 N          29.6330   27.5990  -59.9910 N.4       1 THR         0.2398
      2 CA         28.4490   26.7490  -60.0180 C.3       1 THR         0.0910
      3 C          28.1830   26.1240  -58.6530 C.2       1 THR         0.2291
      4 O          29.0720   26.0590  -57.8040 O.2       1 THR        -0.3906
      5 CB         28.5800   25.6250  -61.0650 C.3       1 THR         0.1120
      6 OG1        29.7290   24.8200  -60.7660 O.3       1 THR        -0.3840
      7 CG2        28.7230   26.2090  -62.4620 C.3       1 THR        -0.0314
      8 N          26.9520   25.6670  -58.4490 N.am      1 GLY        -0.2636
      9 CA         26.5720   25.0140  -57.2100 C.3       1 GLY         0.1202
     10 C          25.7820   23.7500  -57.4800 C.2       1 GLY         0.2005
     11 O          26.3460   22.6580  -57.5570 O.2       1 GLY        -0.3947
     12 N          24.4690   23.8990  -57.6270 N.am      1 GLY        -0.2666
     13 CA         23.6070   22.7820  -57.9650 C.3       1 GLY         0.1201
     14 C          23.3220   21.8550  -56.8000 C.2       1 GLY         0.2007
     15 O          23.5040   22.2220  -55.6390 O.2       1 GLY        -0.3947
     16 N          22.8730   20.6440  -57.1150 N.am      1 LYS        -0.2640
     17 CA         22.5240   19.6650  -56.0930 C.3       1 LYS         0.1310
     18 C          23.6920   18.7410  -55.7680 C.2       1 LYS         0.2039
     19 O          24.6070   18.5690  -56.5740 O.2       1 LYS        -0.3944
     20 CB         21.3150   18.8400  -56.5400 C.3       1 LYS        -0.0122
     21 CG         21.4630   18.2090  -57.9160 C.3       1 LYS        -0.0440
     22 CD         20.2710   17.3250  -58.2430 C.3       1 LYS        -0.0124
     23 CE         20.3310   16.8140  -59.6720 C.3       1 LYS        -0.0354
     24 NZ         20.2010   17.9220  -60.6590 N.4       1 LYS         0.2185
     25 N          23.6510   18.1500  -54.5780 N.am      1 ALA        -0.2640
     26 CA         24.6830   17.2200  -54.1410 C.3       1 ALA         0.1284
     27 C          24.6120   15.9250  -54.9440 C.2       1 ALA         0.2061
     28 O          23.5230   15.4790  -55.3050 O.2       1 ALA        -0.3942
     29 CB         24.5420   16.9350  -52.6510 C.3       1 ALA        -0.0244
     30 N          25.7780   15.3200  -55.2270 N.am      1 PRO        -0.2498
     31 CA         25.8430   14.0760  -56.0040 C.3       1 PRO         0.1338
     32 C          25.1280   12.9150  -55.3180 C.2       1 PRO         0.2041
     33 O          25.0660   12.8640  -54.0890 O.2       1 PRO        -0.3944
     34 CB         27.3480   13.8040  -56.1070 C.3       1 PRO        -0.0104
     35 CG         27.9460   14.5340  -54.9520 C.3       1 PRO        -0.0281
     36 CD         27.1140   15.7700  -54.8010 C.3       1 PRO         0.0369
     37 N          24.5960   11.9960  -56.1180 N.am      1 ARG        -0.2637
     38 CA         23.8420   10.8600  -55.6020 C.3       1 ARG         0.1311
     39 C          24.7090    9.9360  -54.7540 C.2       1 ARG         0.2039
     40 O          25.9380    9.9840  -54.8220 O.2       1 ARG        -0.3944
     41 CB         23.2160   10.0720  -56.7540 C.3       1 ARG        -0.0092
     42 CG         22.2000   10.8600  -57.5650 C.3       1 ARG        -0.0156
     43 CD         21.6260   10.0190  -58.6930 C.3       1 ARG         0.0627
     44 NE         22.6150    9.7360  -59.7280 N.pl3     1 ARG        -0.2723
     45 CZ         22.7450   10.4400  -60.8480 C.cat     1 ARG         0.2882
     46 NH1        21.9430   11.4700  -61.0810 N.pl3     1 ARG        -0.2849
     47 NH2        23.6740   10.1130  -61.7360 N.pl3     1 ARG        -0.2849
     48 N          24.0580    9.0970  -53.9550 N.am      1 LYS        -0.2637
     49 CA         24.7600    8.1470  -53.1010 C.3       1 LYS         0.1310
     50 C          25.5180    7.1130  -53.9270 C.2       1 LYS         0.2039
     51 O          24.9410    6.4470  -54.7870 O.2       1 LYS        -0.3944
     52 CB         23.7770    7.4490  -52.1570 C.3       1 LYS        -0.0122
     53 CG         24.3940    6.3270  -51.3350 C.3       1 LYS        -0.0440
     54 CD         23.4000    5.7670  -50.3290 C.3       1 LYS        -0.0124
     55 CE         22.1540    5.2350  -51.0160 C.3       1 LYS        -0.0354
     56 NZ         21.1530    4.7370  -50.0310 N.4       1 LYS         0.2185
     57 N          26.8140    6.9900  -53.6610 N.am      1 GLN        -0.2636
     58 CA         27.6500    6.0170  -54.3540 C.3       1 GLN         0.1330
     59 C          27.2790    4.5960  -53.9420 C.2       1 GLN         0.2040
     60 O          26.9510    4.3430  -52.7830 O.2       1 GLN        -0.3944
     61 CB         29.1310    6.2790  -54.0710 C.3       1 GLN         0.0045
     62 CG         29.6150    7.6560  -54.5000 C.3       1 GLN         0.0412
     63 CD         31.0940    7.8660  -54.2320 C.2       1 GLN         0.1737
     64 OE1        31.7430    7.0440  -53.5860 O.2       1 GLN        -0.3973
     65 NE2        31.6340    8.9730  -54.7310 N.am      1 GLN        -0.3009
     66 N          27.3300    3.6730  -54.8970 N.am      1 LEU        -0.2637
     67 CA         27.0130    2.2770  -54.6200 C.3       1 LEU         0.1312
     68 C          28.2740    1.4720  -54.3150 C.2       1 LEU         0.2039
     69 O          29.3180    2.0390  -53.9910 O.2       1 LEU        -0.3944
     70 CB         26.2550    1.6570  -55.7950 C.3       1 LEU        -0.0101
     71 CG         24.8770    2.2640  -56.0720 C.3       1 LEU        -0.0425
     72 CD1        24.1670    1.5110  -57.1840 C.3       1 LEU        -0.0625
     73 CD2        24.0300    2.2830  -54.8080 C.3       1 LEU        -0.0625
     74 N          28.1710    0.1510  -54.4240 N.am      1 ALA        -0.2640
     75 CA         29.2630   -0.7420  -54.0480 C.3       1 ALA         0.1282
     76 C          30.4860   -0.5890  -54.9490 C.2       1 ALA         0.2037
     77 O          31.6210   -0.6960  -54.4850 O.2       1 ALA        -0.3944
     78 CB         28.7830   -2.1860  -54.0610 C.3       1 ALA        -0.0244
     79 N          30.2520   -0.3370  -56.2330 N.am      1 THR        -0.2613
     80 CA         31.3380   -0.2680  -57.2060 C.3       1 THR         0.1565
     81 C          32.0970    1.0540  -57.1610 C.2       1 THR         0.2065
     82 O          33.3220    1.0710  -57.0290 O.2       1 THR        -0.3943
     83 CB         30.8200   -0.4750  -58.6370 C.3       1 THR         0.0924
     84 OG1        30.2240   -1.7730  -58.7500 O.3       1 THR        -0.3874
     85 CG2        31.9650   -0.3560  -59.6290 C.3       1 THR        -0.0346
     86 N          31.3640    2.1570  -57.2810 N.am      1 LYS        -0.2637
     87 CA         31.9640    3.4870  -57.3220 C.3       1 LYS         0.1310
     88 C          32.7370    3.8000  -56.0420 C.2       1 LYS         0.2039
     89 O          33.7560    4.4890  -56.0760 O.2       1 LYS        -0.3944
     90 CB         30.8850    4.5480  -57.5600 C.3       1 LYS        -0.0122
     91 CG         31.4210    5.9590  -57.7530 C.3       1 LYS        -0.0440
     92 CD         30.2950    6.9510  -58.0000 C.3       1 LYS        -0.0124
     93 CE         30.8220    8.3760  -58.0860 C.3       1 LYS        -0.0354
     94 NZ         29.7230    9.3690  -58.2460 N.4       1 LYS         0.2185
     95 N          32.2540    3.2830  -54.9170 N.am      1 ALA        -0.2640
     96 CA         32.9030    3.5130  -53.6310 C.3       1 ALA         0.1282
     97 C          34.1450    2.6430  -53.4680 C.2       1 ALA         0.2036
     98 O          35.0740    3.0010  -52.7430 O.2       1 ALA        -0.3944
     99 CB         31.9260    3.2570  -52.4930 C.3       1 ALA        -0.0244
    100 N          34.1580    1.5020  -54.1490 N.am      1 ALA        -0.2640
    101 CA         35.2640    0.5570  -54.0420 C.3       1 ALA         0.1282
    102 C          36.5220    1.0710  -54.7360 C.2       1 ALA         0.2036
    103 O          37.6350    0.6750  -54.3870 O.2       1 ALA        -0.3944
    104 CB         34.8620   -0.7920  -54.6160 C.3       1 ALA        -0.0244
    105 N          36.3440    1.9490  -55.7180 N.am      1 ARG        -0.2637
    106 CA         37.4750    2.4830  -56.4700 C.3       1 ARG         0.1310
    107 C          37.8430    3.8980  -56.0260 C.2       1 ARG         0.2033
    108 O          38.9970    4.3090  -56.1390 O.2       1 ARG        -0.3944
    109 CB         37.1770    2.4620  -57.9740 C.3       1 ARG        -0.0092
    110 CG         35.9160    3.2050  -58.3870 C.3       1 ARG        -0.0156
    111 CD         35.7170    3.1480  -59.8970 C.3       1 ARG         0.0627
    112 NE         34.4950    3.8280  -60.3200 N.pl3     1 ARG        -0.2723
    113 CZ         34.4260    5.1200  -60.6270 C.cat     1 ARG         0.2882
    114 NH1        35.5100    5.8810  -60.5560 N.pl3     1 ARG        -0.2849
    115 NH2        33.2710    5.6530  -61.0020 N.pl3     1 ARG        -0.2849
    116 N          36.8630    4.6370  -55.5150 N.am      1 LYS        -0.2695
    117 CA         37.1040    6.0010  -55.0550 C.3       1 LYS         0.0944
    118 C          37.3750    6.0360  -53.5540 C.2       1 LYS         0.0601
    119 O          38.4360    5.6100  -53.0950 O.co2     1 LYS        -0.5666
    120 CB         35.9150    6.9050  -55.3960 C.3       1 LYS        -0.0177
    121 CG         35.5990    6.9810  -56.8830 C.3       1 LYS        -0.0446
    122 CD         34.4430    7.9320  -57.1610 C.3       1 LYS        -0.0125
    123 CE         34.8560    9.3800  -56.9620 C.3       1 LYS        -0.0354
    124 NZ         35.9300    9.7780  -57.9140 N.4       1 LYS         0.2185
    125 OXT        36.5380    6.4910  -52.7730 O.co2     1 LYS        -0.5666
    126 H1         29.5129   28.3205  -59.2974 H         1 THR         0.2016
    127 H2         29.7638   28.0219  -60.8966 H         1 THR         0.2016
    128 H3         30.4411   27.0424  -59.7602 H         1 THR         0.2016
    129 H4         27.5871   27.3769  -60.2880 H         1 THR         0.1125
    130 H5         27.6781   24.9963  -61.0297 H         1 THR         0.0674
    131 H6         29.8068   24.1286  -61.4128 H         1 THR         0.2102
    132 H7         28.8150   25.3923  -63.1931 H         1 THR         0.0258
    133 H8         29.6215   26.8421  -62.5046 H         1 THR         0.0258
    134 H9         27.8360   26.8149  -62.6987 H         1 THR         0.0258
    135 H10        26.2678   25.7762  -59.1700 H         1 GLY         0.1882
    136 H11        25.9547   25.7033  -56.6152 H         1 GLY         0.0763
    137 H12        27.4807   24.7562  -56.6463 H         1 GLY         0.0763
    138 H13        24.0649   24.8050  -57.5013 H         1 GLY         0.1881
    139 H14        24.0915   22.1987  -58.7618 H         1 GLY         0.0763
    140 H15        22.6502   23.1811  -58.3327 H         1 GLY         0.0763
    141 H16        22.7720   20.3981  -58.0790 H         1 LYS         0.1883
    142 H17        22.2538   20.2102  -55.1767 H         1 LYS         0.0800
    143 H18        20.4347   19.4994  -56.5562 H         1 LYS         0.0312
    144 H19        21.1569   18.0352  -55.8070 H         1 LYS         0.0312
    145 H20        22.3784   17.5994  -57.9352 H         1 LYS         0.0269
    146 H21        21.5371   19.0058  -58.6707 H         1 LYS         0.0269
    147 H22        19.3473   17.9074  -58.1104 H         1 LYS         0.0317
    148 H23        20.2645   16.4657  -57.5564 H         1 LYS         0.0317
    149 H24        19.5107   16.0983  -59.8295 H         1 LYS         0.0813
    150 H25        21.2947   16.3076  -59.8294 H         1 LYS         0.0813
    151 H26        20.2451   17.5465  -61.5934 H         1 LYS         0.1994
    152 H27        20.9524   18.5806  -60.5258 H         1 LYS         0.1994
    153 H28        19.3175   18.3887  -60.5258 H         1 LYS         0.1994
    154 H29        22.8877   18.3502  -53.9637 H         1 ALA         0.1883
    155 H30        25.6654   17.6831  -54.3152 H         1 ALA         0.0797
    156 H31        25.3273   16.2320  -52.3363 H         1 ALA         0.0277
    157 H32        23.5541   16.4932  -52.4540 H         1 ALA         0.0277
    158 H33        24.6429   17.8739  -52.0869 H         1 ALA         0.0277
    159 H34        25.4046   14.2246  -57.0018 H         1 PRO         0.0802
    160 H35        27.7473   14.1883  -57.0572 H         1 PRO         0.0313
    161 H36        27.5531   12.7259  -56.0323 H         1 PRO         0.0313
    162 H37        28.9935   14.7965  -55.1611 H         1 PRO         0.0287
    163 H38        27.8966   13.9211  -54.0399 H         1 PRO         0.0287
    164 H39        27.1016   16.1136  -53.7561 H         1 PRO         0.0524
    165 H40        27.4847   16.5783  -55.4485 H         1 PRO         0.0524
    166 H41        24.7171   12.0870  -57.1065 H         1 ARG         0.1883
    167 H42        23.0331   11.2489  -54.9660 H         1 ARG         0.0800
    168 H43        22.7128    9.1883  -56.3348 H         1 ARG         0.0313
    169 H44        24.0217    9.7491  -57.4297 H         1 ARG         0.0313
    170 H45        22.6917   11.7462  -57.9926 H         1 ARG         0.0301
    171 H46        21.3815   11.1786  -56.9027 H         1 ARG         0.0301
    172 H47        20.7840   10.5622  -59.1468 H         1 ARG         0.0689
    173 H48        21.2663    9.0664  -58.2769 H         1 ARG         0.0689
    174 H49        23.2526    8.9405  -59.5814 H         1 ARG         0.2642
    175 H50        22.0440   12.0153  -61.9490 H         1 ARG         0.2615
    176 H51        21.2191   11.7247  -60.3940 H         1 ARG         0.2615
    177 H52        24.2983    9.3134  -61.5575 H         1 ARG         0.2615
    178 H53        23.7713   10.6586  -62.6042 H         1 ARG         0.2615
    179 H54        23.0583    9.1180  -53.9392 H         1 LYS         0.1883
    180 H55        25.4887    8.7043  -52.4940 H         1 LYS         0.0800
    181 H56        22.9602    7.0261  -52.7602 H         1 LYS         0.0312
    182 H57        23.3703    8.2008  -51.4646 H         1 LYS         0.0312
    183 H58        25.2686    6.7181  -50.7946 H         1 LYS         0.0269
    184 H59        24.7117    5.5201  -52.0117 H         1 LYS         0.0269
    185 H60        23.1098    6.5656  -49.6305 H         1 LYS         0.0317
    186 H61        23.8782    4.9481  -49.7716 H         1 LYS         0.0317
    187 H62        22.4398    4.4083  -51.6830 H         1 LYS         0.0813
    188 H63        21.7002    6.0436  -51.6079 H         1 LYS         0.0813
    189 H64        20.3421    4.3927  -50.5209 H         1 LYS         0.1994
    190 H65        20.8809    5.4899  -49.4185 H         1 LYS         0.1994
    191 H66        21.5587    3.9914  -49.4873 H         1 LYS         0.1994
    192 H67        27.2268    7.5802  -52.9673 H         1 GLN         0.1883
    193 H68        27.4786    6.1215  -55.4355 H         1 GLN         0.0801
    194 H69        29.7234    5.5229  -54.6071 H         1 GLN         0.0337
    195 H70        29.2986    6.1765  -52.9887 H         1 GLN         0.0337
    196 H71        29.0455    8.4174  -53.9470 H         1 GLN         0.0504
    197 H72        29.4326    7.7731  -55.5784 H         1 GLN         0.0504
    198 H73        32.6047    9.1649  -54.5864 H         1 GLN         0.1814
    199 H74        31.0696    9.6141  -55.2511 H         1 GLN         0.1814
    200 H75        27.5911    3.9414  -55.8243 H         1 LEU         0.1883
    201 H76        26.3627    2.2433  -53.7335 H         1 LEU         0.0800
    202 H77        26.1195    0.5856  -55.5859 H         1 LEU         0.0315
    203 H78        26.8692    1.7793  -56.6993 H         1 LEU         0.0315
    204 H79        25.0220    3.3033  -56.4018 H         1 LEU         0.0298
    205 H80        23.1815    1.9656  -57.3635 H         1 LEU         0.0232
    206 H81        24.0374    0.4590  -56.8898 H         1 LEU         0.0232
    207 H82        24.7678    1.5632  -58.1039 H         1 LEU         0.0232
    208 H83        24.5628    2.8324  -54.0179 H         1 LEU         0.0232
    209 H84        23.8441    1.2510  -54.4756 H         1 LEU         0.0232
    210 H85        23.0708    2.7794  -55.0167 H         1 LEU         0.0232
    211 H86        27.3207   -0.2424  -54.7737 H         1 ALA         0.1883
    212 H87        29.5673   -0.4878  -53.0220 H         1 ALA         0.0797
    213 H88        29.6122   -2.8506  -53.7766 H         1 ALA         0.0277
    214 H89        28.4336   -2.4472  -55.0708 H         1 ALA         0.0277
    215 H90        27.9564   -2.3041  -53.3450 H         1 ALA         0.0277
    216 H91        29.3112   -0.1915  -56.5392 H         1 THR         0.1884
    217 H92        32.0453   -1.0770  -56.9708 H         1 THR         0.0826
    218 H93        30.0649    0.2925  -58.8623 H         1 THR         0.0639
    219 H94        29.9048   -1.8976  -59.6361 H         1 THR         0.2101
    220 H95        31.5830   -0.5058  -60.6496 H         1 THR         0.0257
    221 H96        32.7243   -1.1200  -59.4059 H         1 THR         0.0257
    222 H97        32.4165    0.6439  -59.5497 H         1 THR         0.0257
    223 H98        30.3696    2.0726  -57.3452 H         1 LYS         0.1883
    224 H99        32.6713    3.5164  -58.1639 H         1 LYS         0.0800
    225 H100       30.2098    4.5525  -56.6916 H         1 LYS         0.0312
    226 H101       30.3207    4.2683  -58.4618 H         1 LYS         0.0312
    227 H102       32.1020    5.9682  -58.6168 H         1 LYS         0.0269
    228 H103       31.9711    6.2597  -56.8491 H         1 LYS         0.0269
    229 H104       29.5722    6.8857  -57.1734 H         1 LYS         0.0317
    230 H105       29.7944    6.6965  -58.9458 H         1 LYS         0.0317
    231 H106       31.4985    8.4529  -58.9499 H         1 LYS         0.0813
    232 H107       31.3767    8.6057  -57.1643 H         1 LYS         0.0813
    233 H108       30.1135   10.2968  -58.2988 H         1 LYS         0.1994
    234 H109       29.1001    9.3111  -57.4556 H         1 LYS         0.1994
    235 H110       29.2118    9.1711  -59.0919 H         1 LYS         0.1994
    236 H111       31.4262    2.7231  -54.9529 H         1 ALA         0.1883
    237 H112       33.2154    4.5668  -53.5890 H         1 ALA         0.0797
    238 H113       32.4291    3.4343  -51.5310 H         1 ALA         0.0277
    239 H114       31.5763    2.2150  -52.5373 H         1 ALA         0.0277
    240 H115       31.0663    3.9367  -52.5879 H         1 ALA         0.0277
    241 H116       33.3892    1.2855  -54.7508 H         1 ALA         0.1883
    242 H117       35.4949    0.4238  -52.9748 H         1 ALA         0.0797
    243 H118       35.7048   -1.4935  -54.5286 H         1 ALA         0.0277
    244 H119       34.5918   -0.6738  -55.6757 H         1 ALA         0.0277
    245 H120       33.9986   -1.1849  -54.0590 H         1 ALA         0.0277
    246 H121       35.4177    2.2493  -55.9458 H         1 ARG         0.1883
    247 H122       38.3422    1.8330  -56.2819 H         1 ARG         0.0800
    248 H123       37.0734    1.4127  -58.2873 H         1 ARG         0.0313
    249 H124       38.0297    2.9186  -58.4978 H         1 ARG         0.0313
    250 H125       35.9997    4.2565  -58.0749 H         1 ARG         0.0301
    251 H126       35.0485    2.7436  -57.8924 H         1 ARG         0.0301
    252 H127       35.6611    2.0941  -60.2072 H         1 ARG         0.0689
    253 H128       36.5770    3.6290  -60.3858 H         1 ARG         0.0689
    254 H129       33.6312    3.2707  -60.3846 H         1 ARG         0.2642
    255 H130       35.4534    6.8814  -60.7944 H         1 ARG         0.2615
    256 H131       36.4084    5.4715  -60.2624 H         1 ARG         0.2615
    257 H132       32.4269    5.0655  -61.0584 H         1 ARG         0.2615
    258 H133       33.2181    6.6545  -61.2368 H         1 ARG         0.2615
    259 H134       35.9432    4.2509  -55.4445 H         1 LYS         0.1875
    260 H135       37.9932    6.3864  -55.5754 H         1 LYS         0.0726
    261 H136       36.1393    7.9207  -55.0381 H         1 LYS         0.0305
    262 H137       35.0270    6.5198  -54.8734 H         1 LYS         0.0305
    263 H138       35.3300    5.9770  -57.2428 H         1 LYS         0.0269
    264 H139       36.4908    7.3362  -57.4201 H         1 LYS         0.0269
    265 H140       33.6149    7.6987  -56.4755 H         1 LYS         0.0317
    266 H141       34.1087    7.7949  -58.2000 H         1 LYS         0.0317
    267 H142       35.2247    9.5083  -55.9336 H         1 LYS         0.0813
    268 H143       33.9803   10.0264  -57.1209 H         1 LYS         0.0813
    269 H144       36.1796   10.7416  -57.7551 H         1 LYS         0.1994
    270 H145       35.5985    9.6683  -58.8596 H         1 LYS         0.1994
    271 H146       36.7388    9.1936  -57.7716 H         1 LYS         0.1994
@<TRIPOS>BOND
     1    1    2 1  
     2    2    3 1  
     3    2    5 1  
     4    3    4 2  
     5    3    8 am 
     6    5    6 1  
     7    5    7 1  
     8    8    9 1  
     9    9   10 1  
    10   10   11 2  
    11   10   12 am 
    12   12   13 1  
    13   13   14 1  
    14   14   15 2  
    15   14   16 am 
    16   16   17 1  
    17   17   18 1  
    18   17   20 1  
    19   18   19 2  
    20   18   25 am 
    21   20   21 1  
    22   21   22 1  
    23   22   23 1  
    24   23   24 1  
    25   25   26 1  
    26   26   27 1  
    27   26   29 1  
    28   27   28 2  
    29   27   30 am 
    30   30   31 1  
    31   30   36 1  
    32   31   32 1  
    33   31   34 1  
    34   32   33 2  
    35   32   37 am 
    36   34   35 1  
    37   35   36 1  
    38   37   38 1  
    39   38   39 1  
    40   38   41 1  
    41   39   40 2  
    42   39   48 am 
    43   41   42 1  
    44   42   43 1  
    45   43   44 1  
    46   44   45 ar 
    47   45   46 ar 
    48   45   47 ar 
    49   48   49 1  
    50   49   50 1  
    51   49   52 1  
    52   50   51 2  
    53   50   57 am 
    54   52   53 1  
    55   53   54 1  
    56   54   55 1  
    57   55   56 1  
    58   57   58 1  
    59   58   59 1  
    60   58   61 1  
    61   59   60 2  
    62   59   66 am 
    63   61   62 1  
    64   62   63 1  
    65   63   64 2  
    66   63   65 am 
    67   66   67 1  
    68   67   68 1  
    69   67   70 1  
    70   68   69 2  
    71   68   74 am 
    72   70   71 1  
    73   71   72 1  
    74   71   73 1  
    75   74   75 1  
    76   75   76 1  
    77   75   78 1  
    78   76   77 2  
    79   76   79 am 
    80   79   80 1  
    81   80   81 1  
    82   80   83 1  
    83   81   82 2  
    84   81   86 am 
    85   83   84 1  
    86   83   85 1  
    87   86   87 1  
    88   87   88 1  
    89   87   90 1  
    90   88   89 2  
    91   88   95 am 
    92   90   91 1  
    93   91   92 1  
    94   92   93 1  
    95   93   94 1  
    96   95   96 1  
    97   96   97 1  
    98   96   99 1  
    99   97   98 2  
   100   97  100 am 
   101  100  101 1  
   102  101  102 1  
   103  101  104 1  
   104  102  103 2  
   105  102  105 am 
   106  105  106 1  
   107  106  107 1  
   108  106  109 1  
   109  107  108 2  
   110  107  116 am 
   111  109  110 1  
   112  110  111 1  
   113  111  112 1  
   114  112  113 ar 
   115  113  114 ar 
   116  113  115 ar 
   117  116  117 1  
   118  117  118 1  
   119  117  120 1  
   120  118  119 ar 
   121  118  125 ar 
   122  120  121 1  
   123  121  122 1  
   124  122  123 1  
   125  123  124 1  
   126    1  126 1  
   127    1  127 1  
   128    1  128 1  
   129    2  129 1  
   130    5  130 1  
   131    6  131 1  
   132    7  132 1  
   133    7  133 1  
   134    7  134 1  
   135    8  135 1  
   136    9  136 1  
   137    9  137 1  
   138   12  138 1  
   139   13  139 1  
   140   13  140 1  
   141   16  141 1  
   142   17  142 1  
   143   20  143 1  
   144   20  144 1  
   145   21  145 1  
   146   21  146 1  
   147   22  147 1  
   148   22  148 1  
   149   23  149 1  
   150   23  150 1  
   151   24  151 1  
   152   24  152 1  
   153   24  153 1  
   154   25  154 1  
   155   26  155 1  
   156   29  156 1  
   157   29  157 1  
   158   29  158 1  
   159   31  159 1  
   160   34  160 1  
   161   34  161 1  
   162   35  162 1  
   163   35  163 1  
   164   36  164 1  
   165   36  165 1  
   166   37  166 1  
   167   38  167 1  
   168   41  168 1  
   169   41  169 1  
   170   42  170 1  
   171   42  171 1  
   172   43  172 1  
   173   43  173 1  
   174   44  174 1  
   175   46  175 1  
   176   46  176 1  
   177   47  177 1  
   178   47  178 1  
   179   48  179 1  
   180   49  180 1  
   181   52  181 1  
   182   52  182 1  
   183   53  183 1  
   184   53  184 1  
   185   54  185 1  
   186   54  186 1  
   187   55  187 1  
   188   55  188 1  
   189   56  189 1  
   190   56  190 1  
   191   56  191 1  
   192   57  192 1  
   193   58  193 1  
   194   61  194 1  
   195   61  195 1  
   196   62  196 1  
   197   62  197 1  
   198   65  198 1  
   199   65  199 1  
   200   66  200 1  
   201   67  201 1  
   202   70  202 1  
   203   70  203 1  
   204   71  204 1  
   205   72  205 1  
   206   72  206 1  
   207   72  207 1  
   208   73  208 1  
   209   73  209 1  
   210   73  210 1  
   211   74  211 1  
   212   75  212 1  
   213   78  213 1  
   214   78  214 1  
   215   78  215 1  
   216   79  216 1  
   217   80  217 1  
   218   83  218 1  
   219   84  219 1  
   220   85  220 1  
   221   85  221 1  
   222   85  222 1  
   223   86  223 1  
   224   87  224 1  
   225   90  225 1  
   226   90  226 1  
   227   91  227 1  
   228   91  228 1  
   229   92  229 1  
   230   92  230 1  
   231   93  231 1  
   232   93  232 1  
   233   94  233 1  
   234   94  234 1  
   235   94  235 1  
   236   95  236 1  
   237   96  237 1  
   238   99  238 1  
   239   99  239 1  
   240   99  240 1  
   241  100  241 1  
   242  101  242 1  
   243  104  243 1  
   244  104  244 1  
   245  104  245 1  
   246  105  246 1  
   247  106  247 1  
   248  109  248 1  
   249  109  249 1  
   250  110  250 1  
   251  110  251 1  
   252  111  252 1  
   253  111  253 1  
   254  112  254 1  
   255  114  255 1  
   256  114  256 1  
   257  115  257 1  
   258  115  258 1  
   259  116  259 1  
   260  117  260 1  
   261  120  261 1  
   262  120  262 1  
   263  121  263 1  
   264  121  264 1  
   265  122  265 1  
   266  122  266 1  
   267  123  267 1  
   268  123  268 1  
   269  124  269 1  
   270  124  270 1  
   271  124  271 1  
@<TRIPOS>SUBSTRUCTURE
     1 THR         1

