5j3v_ligand
  -I-interpret- 

270270  0  0  0  0  0  0  0  0999 V2000
   29.6330   27.5990  -59.9910 N   0  3  0  0  0
   28.4490   26.7490  -60.0180 C   0  0  0  0  0
   28.1830   26.1240  -58.6530 C   0  0  0  0  0
   29.0720   26.0590  -57.8040 O   0  0  0  0  0
   28.5800   25.6250  -61.0650 C   0  0  0  0  0
   29.7290   24.8200  -60.7660 O   0  0  0  0  0
   28.7230   26.2090  -62.4620 C   0  0  0  0  0
   26.9520   25.6670  -58.4490 N   0  0  0  0  0
   26.5720   25.0140  -57.2100 C   0  0  0  0  0
   25.7820   23.7500  -57.4800 C   0  0  0  0  0
   26.3460   22.6580  -57.5570 O   0  0  0  0  0
   24.4690   23.8990  -57.6270 N   0  0  0  0  0
   23.6070   22.7820  -57.9650 C   0  0  0  0  0
   23.3220   21.8550  -56.8000 C   0  0  0  0  0
   23.5040   22.2220  -55.6390 O   0  0  0  0  0
   22.8730   20.6440  -57.1150 N   0  0  0  0  0
   22.5240   19.6650  -56.0930 C   0  0  0  0  0
   23.6920   18.7410  -55.7680 C   0  0  0  0  0
   24.6070   18.5690  -56.5740 O   0  0  0  0  0
   21.3150   18.8400  -56.5400 C   0  0  0  0  0
   21.4630   18.2090  -57.9160 C   0  0  0  0  0
   20.2710   17.3250  -58.2430 C   0  0  0  0  0
   20.3310   16.8140  -59.6720 C   0  0  0  0  0
   20.2010   17.9220  -60.6590 N   0  3  0  0  0
   23.6510   18.1500  -54.5780 N   0  0  0  0  0
   24.6830   17.2200  -54.1410 C   0  0  0  0  0
   24.6120   15.9250  -54.9440 C   0  0  0  0  0
   23.5230   15.4790  -55.3050 O   0  0  0  0  0
   24.5420   16.9350  -52.6510 C   0  0  0  0  0
   25.7780   15.3200  -55.2270 N   0  0  0  0  0
   25.8430   14.0760  -56.0040 C   0  0  0  0  0
   25.1280   12.9150  -55.3180 C   0  0  0  0  0
   25.0660   12.8640  -54.0890 O   0  0  0  0  0
   27.3480   13.8040  -56.1070 C   0  0  0  0  0
   27.9460   14.5340  -54.9520 C   0  0  0  0  0
   27.1140   15.7700  -54.8010 C   0  0  0  0  0
   24.5960   11.9960  -56.1180 N   0  0  0  0  0
   23.8420   10.8600  -55.6020 C   0  0  0  0  0
   24.7090    9.9360  -54.7540 C   0  0  0  0  0
   25.9380    9.9840  -54.8220 O   0  0  0  0  0
   23.2160   10.0720  -56.7540 C   0  0  0  0  0
   22.2000   10.8600  -57.5650 C   0  0  0  0  0
   21.6260   10.0190  -58.6930 C   0  0  0  0  0
   22.6150    9.7360  -59.7280 N   0  0  0  0  0
   22.7450   10.4400  -60.8480 C   0  0  0  0  0
   21.9430   11.4700  -61.0810 N   0  0  0  0  0
   23.6740   10.1130  -61.7360 N   0  0  0  0  0
   24.0580    9.0970  -53.9550 N   0  0  0  0  0
   24.7600    8.1470  -53.1010 C   0  0  0  0  0
   25.5180    7.1130  -53.9270 C   0  0  0  0  0
   24.9410    6.4470  -54.7870 O   0  0  0  0  0
   23.7770    7.4490  -52.1570 C   0  0  0  0  0
   24.3940    6.3270  -51.3350 C   0  0  0  0  0
   23.4000    5.7670  -50.3290 C   0  0  0  0  0
   22.1540    5.2350  -51.0160 C   0  0  0  0  0
   21.1530    4.7370  -50.0310 N   0  3  0  0  0
   26.8140    6.9900  -53.6610 N   0  0  0  0  0
   27.6500    6.0170  -54.3540 C   0  0  0  0  0
   27.2790    4.5960  -53.9420 C   0  0  0  0  0
   26.9510    4.3430  -52.7830 O   0  0  0  0  0
   29.1310    6.2790  -54.0710 C   0  0  0  0  0
   29.6150    7.6560  -54.5000 C   0  0  0  0  0
   31.0940    7.8660  -54.2320 C   0  0  0  0  0
   31.7430    7.0440  -53.5860 O   0  0  0  0  0
   31.6340    8.9730  -54.7310 N   0  0  0  0  0
   27.3300    3.6730  -54.8970 N   0  0  0  0  0
   27.0130    2.2770  -54.6200 C   0  0  0  0  0
   28.2740    1.4720  -54.3150 C   0  0  0  0  0
   29.3180    2.0390  -53.9910 O   0  0  0  0  0
   26.2550    1.6570  -55.7950 C   0  0  0  0  0
   24.8770    2.2640  -56.0720 C   0  0  0  0  0
   24.1670    1.5110  -57.1840 C   0  0  0  0  0
   24.0300    2.2830  -54.8080 C   0  0  0  0  0
   28.1710    0.1510  -54.4240 N   0  0  0  0  0
   29.2630   -0.7420  -54.0480 C   0  0  0  0  0
   30.4860   -0.5890  -54.9490 C   0  0  0  0  0
   31.6210   -0.6960  -54.4850 O   0  0  0  0  0
   28.7830   -2.1860  -54.0610 C   0  0  0  0  0
   30.2520   -0.3370  -56.2330 N   0  0  0  0  0
   31.3380   -0.2680  -57.2060 C   0  0  0  0  0
   32.0970    1.0540  -57.1610 C   0  0  0  0  0
   33.3220    1.0710  -57.0290 O   0  0  0  0  0
   30.8200   -0.4750  -58.6370 C   0  0  0  0  0
   30.2240   -1.7730  -58.7500 O   0  0  0  0  0
   31.9650   -0.3560  -59.6290 C   0  0  0  0  0
   31.3640    2.1570  -57.2810 N   0  0  0  0  0
   31.9640    3.4870  -57.3220 C   0  0  0  0  0
   32.7370    3.8000  -56.0420 C   0  0  0  0  0
   33.7560    4.4890  -56.0760 O   0  0  0  0  0
   30.8850    4.5480  -57.5600 C   0  0  0  0  0
   31.4210    5.9590  -57.7530 C   0  0  0  0  0
   30.2950    6.9510  -58.0000 C   0  0  0  0  0
   30.8220    8.3760  -58.0860 C   0  0  0  0  0
   29.7230    9.3690  -58.2460 N   0  3  0  0  0
   32.2540    3.2830  -54.9170 N   0  0  0  0  0
   32.9030    3.5130  -53.6310 C   0  0  0  0  0
   34.1450    2.6430  -53.4680 C   0  0  0  0  0
   35.0740    3.0010  -52.7430 O   0  0  0  0  0
   31.9260    3.2570  -52.4930 C   0  0  0  0  0
   34.1580    1.5020  -54.1490 N   0  0  0  0  0
   35.2640    0.5570  -54.0420 C   0  0  0  0  0
   36.5220    1.0710  -54.7360 C   0  0  0  0  0
   37.6350    0.6750  -54.3870 O   0  0  0  0  0
   34.8620   -0.7920  -54.6160 C   0  0  0  0  0
   36.3440    1.9490  -55.7180 N   0  0  0  0  0
   37.4750    2.4830  -56.4700 C   0  0  0  0  0
   37.8430    3.8980  -56.0260 C   0  0  0  0  0
   38.9970    4.3090  -56.1390 O   0  0  0  0  0
   37.1770    2.4620  -57.9740 C   0  0  0  0  0
   35.9160    3.2050  -58.3870 C   0  0  0  0  0
   35.7170    3.1480  -59.8970 C   0  0  0  0  0
   34.4950    3.8280  -60.3200 N   0  0  0  0  0
   34.4260    5.1200  -60.6270 C   0  0  0  0  0
   35.5100    5.8810  -60.5560 N   0  0  0  0  0
   33.2710    5.6530  -61.0020 N   0  0  0  0  0
   36.8630    4.6370  -55.5150 N   0  0  0  0  0
   37.1040    6.0010  -55.0550 C   0  0  0  0  0
   37.3750    6.0360  -53.5540 C   0  0  0  0  0
   38.4360    5.6100  -53.0950 O   0  0  0  0  0
   35.9150    6.9050  -55.3960 C   0  0  0  0  0
   35.5990    6.9810  -56.8830 C   0  0  0  0  0
   34.4430    7.9320  -57.1610 C   0  0  0  0  0
   34.8560    9.3800  -56.9620 C   0  0  0  0  0
   35.9300    9.7780  -57.9140 N   0  3  0  0  0
   36.5380    6.4910  -52.7730 O   0  0  0  0  0
   29.5103   28.3287  -59.2889 H   0  0  0  0  0
   30.4499   27.0347  -59.7575 H   0  0  0  0  0
   29.7643   28.0263  -60.9078 H   0  0  0  0  0
   27.6123   27.3926  -60.2897 H   0  0  0  0  0
   27.6796   25.0116  -61.0306 H   0  0  0  0  0
   29.6392   24.4511  -59.8843 H   0  0  0  0  0
   29.6215   26.8245  -62.5069 H   0  0  0  0  0
   28.7995   25.3987  -63.1871 H   0  0  0  0  0
   27.8501   26.8208  -62.6897 H   0  0  0  0  0
   26.2541   25.7784  -59.1845 H   0  0  0  0  0
   25.9500   25.6974  -56.6320 H   0  0  0  0  0
   27.4771   24.7496  -56.6631 H   0  0  0  0  0
   24.0568   24.8231  -57.4987 H   0  0  0  0  0
   24.1183   22.1963  -58.7290 H   0  0  0  0  0
   22.6530   23.1951  -58.2927 H   0  0  0  0  0
   22.7699   20.3932  -58.0983 H   0  0  0  0  0
   22.2733   20.2155  -55.1863 H   0  0  0  0  0
   20.4633   19.5186  -56.5880 H   0  0  0  0  0
   21.1995   18.0260  -55.8243 H   0  0  0  0  0
   22.3644   17.5963  -57.9238 H   0  0  0  0  0
   21.5226   19.0036  -58.6597 H   0  0  0  0  0
   19.3618   17.9146  -58.1255 H   0  0  0  0  0
   20.2821   16.4680  -57.5695 H   0  0  0  0  0
   19.5042   16.1201  -59.8237 H   0  0  0  0  0
   21.2960   16.3304  -59.8236 H   0  0  0  0  0
   20.2457   17.5409  -61.6041 H   0  0  0  0  0
   19.3068   18.3935  -60.5232 H   0  0  0  0  0
   20.9618   18.5877  -60.5232 H   0  0  0  0  0
   22.8725   18.3542  -53.9514 H   0  0  0  0  0
   25.6573   17.6767  -54.3151 H   0  0  0  0  0
   24.6421   17.8661  -52.0932 H   0  0  0  0  0
   23.5627   16.4973  -52.4572 H   0  0  0  0  0
   25.3207   16.2384  -52.3404 H   0  0  0  0  0
   25.3461   14.1721  -56.9694 H   0  0  0  0  0
   27.7579   14.1434  -57.0582 H   0  0  0  0  0
   27.5713   12.7376  -56.0731 H   0  0  0  0  0
   28.9955   14.7724  -55.1248 H   0  0  0  0  0
   27.9391   13.9294  -54.0450 H   0  0  0  0  0
   27.1239   16.1659  -53.7855 H   0  0  0  0  0
   27.4874   16.6068  -55.3913 H   0  0  0  0  0
   24.7195   12.0888  -57.1262 H   0  0  0  0  0
   23.0550   11.2577  -54.9613 H   0  0  0  0  0
   22.6907    9.2232  -56.3162 H   0  0  0  0  0
   24.0237    9.7943  -57.4312 H   0  0  0  0  0
   22.6976   11.7283  -57.9969 H   0  0  0  0  0
   21.3856   11.1600  -56.9055 H   0  0  0  0  0
   20.8079   10.5764  -59.1491 H   0  0  0  0  0
   21.2937    9.0697  -58.2729 H   0  0  0  0  0
   23.2464    8.9482  -59.5829 H   0  0  0  0  0
   21.2261   11.7223  -60.4007 H   0  0  0  0  0
   23.7704   10.6533  -62.5958 H   0  0  0  0  0
   24.2922    9.3212  -61.5593 H   0  0  0  0  0
   23.0384    9.1184  -53.9389 H   0  0  0  0  0
   25.4855    8.7052  -52.5093 H   0  0  0  0  0
   22.9973    7.0042  -52.7753 H   0  0  0  0  0
   23.4150    8.2007  -51.4556 H   0  0  0  0  0
   25.2502    6.7260  -50.7911 H   0  0  0  0  0
   24.6921    5.5255  -52.0109 H   0  0  0  0  0
   23.1056    6.5683  -49.6513 H   0  0  0  0  0
   23.8762    4.9461  -49.7928 H   0  0  0  0  0
   22.4444    4.4053  -51.6605 H   0  0  0  0  0
   21.7018    6.0473  -51.5850 H   0  0  0  0  0
   20.3330    4.3889  -50.5278 H   0  0  0  0  0
   21.5647    3.9827  -49.4815 H   0  0  0  0  0
   20.8785    5.4997  -49.4118 H   0  0  0  0  0
   27.2351    7.5920  -52.9534 H   0  0  0  0  0
   27.4761    6.1241  -55.4247 H   0  0  0  0  0
   29.7015    5.5460  -54.6413 H   0  0  0  0  0
   29.2685    6.2121  -52.9918 H   0  0  0  0  0
   29.0618    8.3993  -53.9260 H   0  0  0  0  0
   29.4528    7.7485  -55.5739 H   0  0  0  0  0
   32.6243    9.1683  -54.5842 H   0  0  0  0  0
   31.0582    9.6273  -55.2608 H   0  0  0  0  0
   27.5963    3.9468  -55.8428 H   0  0  0  0  0
   26.3750    2.2481  -53.7367 H   0  0  0  0  0
   26.0916    0.6087  -55.5449 H   0  0  0  0  0
   26.8593    1.8313  -56.6852 H   0  0  0  0  0
   25.0221    3.2936  -56.3992 H   0  0  0  0  0
   24.7634    1.5634  -58.0949 H   0  0  0  0  0
   24.0393    0.4688  -56.8913 H   0  0  0  0  0
   23.1907    1.9623  -57.3609 H   0  0  0  0  0
   23.8987    1.2637  -54.4448 H   0  0  0  0  0
   24.5305    2.8801  -54.0457 H   0  0  0  0  0
   23.0562    2.7188  -55.0313 H   0  0  0  0  0
   27.3037   -0.2503  -54.7807 H   0  0  0  0  0
   29.5717   -0.4631  -53.0405 H   0  0  0  0  0
   27.9639   -2.3017  -53.3512 H   0  0  0  0  0
   28.4370   -2.4435  -55.0620 H   0  0  0  0  0
   29.6054   -2.8435  -53.7791 H   0  0  0  0  0
   29.2924   -0.1886  -56.5453 H   0  0  0  0  0
   32.0219   -1.0706  -56.9298 H   0  0  0  0  0
   30.0753    0.2897  -58.8578 H   0  0  0  0  0
   29.9014   -1.8989  -59.6454 H   0  0  0  0  0
   32.4115    0.6352  -59.5493 H   0  0  0  0  0
   32.7167   -1.1135  -59.4069 H   0  0  0  0  0
   31.5852   -0.5046  -60.6398 H   0  0  0  0  0
   30.3498    2.0709  -57.3465 H   0  0  0  0  0
   32.6735    3.5029  -58.1493 H   0  0  0  0  0
   30.2525    4.5651  -56.6724 H   0  0  0  0  0
   30.3657    4.2751  -58.4787 H   0  0  0  0  0
   32.0821    5.9628  -58.6196 H   0  0  0  0  0
   31.9509    6.2550  -56.8476 H   0  0  0  0  0
   29.5914    6.8909  -57.1696 H   0  0  0  0  0
   29.8141    6.7014  -58.9458 H   0  0  0  0  0
   31.4741    8.4462  -58.9566 H   0  0  0  0  0
   31.3515    8.6000  -57.1599 H   0  0  0  0  0
   30.1193   10.3073  -58.2993 H   0  0  0  0  0
   29.2065    9.1677  -59.1022 H   0  0  0  0  0
   29.0934    9.3095  -57.4457 H   0  0  0  0  0
   31.4096    2.7119  -54.9536 H   0  0  0  0  0
   33.2201    4.5554  -53.5998 H   0  0  0  0  0
   31.0747    3.9310  -52.5882 H   0  0  0  0  0
   31.5802    2.2243  -52.5381 H   0  0  0  0  0
   32.4256    3.4330  -51.5404 H   0  0  0  0  0
   33.3738    1.2811  -54.7628 H   0  0  0  0  0
   35.4958    0.4432  -52.9830 H   0  0  0  0  0
   34.0065   -1.1802  -54.0633 H   0  0  0  0  0
   34.5945   -0.6735  -55.6660 H   0  0  0  0  0
   35.6978   -1.4862  -54.5288 H   0  0  0  0  0
   35.3992    2.2553  -55.9503 H   0  0  0  0  0
   38.3313    1.8407  -56.2643 H   0  0  0  0  0
   37.0339    1.4180  -58.2529 H   0  0  0  0  0
   38.0121    2.9585  -58.4682 H   0  0  0  0  0
   36.0110    4.2484  -58.0863 H   0  0  0  0  0
   35.0595    2.7349  -57.9038 H   0  0  0  0  0
   35.6402    2.1007  -60.1892 H   0  0  0  0  0
   36.5631    3.6472  -60.3692 H   0  0  0  0  0
   33.6396    3.2761  -60.3840 H   0  0  0  0  0
   35.4534    6.8723  -60.7894 H   0  0  0  0  0
   36.4003    5.4749  -60.2680 H   0  0  0  0  0
   32.4345    5.0718  -61.0552 H   0  0  0  0  0
   35.9248    4.2432  -55.4431 H   0  0  0  0  0
   37.9885    6.3735  -55.5717 H   0  0  0  0  0
   38.9877    5.2891  -53.8121 H   0  0  0  0  0
   36.1715    7.9126  -55.0688 H   0  0  0  0  0
   35.0389    6.4862  -54.9010 H   0  0  0  0  0
   35.3172    5.9858  -57.2270 H   0  0  0  0  0
   36.4821    7.3498  -57.4048 H   0  0  0  0  0
   33.6335    7.7046  -56.4674 H   0  0  0  0  0
   34.1285    7.8010  -58.1964 H   0  0  0  0  0
   35.2355    9.4940  -55.9466 H   0  0  0  0  0
   33.9869   10.0139  -57.1379 H   0  0  0  0  0
   36.1818   10.7531  -57.7523 H   0  0  0  0  0
   36.7478    9.1859  -57.7690 H   0  0  0  0  0
   35.5934    9.6666  -58.8704 H   0  0  0  0  0
  1  2  1  0  0  0
  2  3  1  0  0  0
  2  5  1  0  0  0
  3  4  2  0  0  0
  3  8  1  0  0  0
  5  6  1  0  0  0
  5  7  1  0  0  0
  8  9  1  0  0  0
  9 10  1  0  0  0
 10 11  2  0  0  0
 10 12  1  0  0  0
 12 13  1  0  0  0
 13 14  1  0  0  0
 14 15  2  0  0  0
 14 16  1  0  0  0
 16 17  1  0  0  0
 17 18  1  0  0  0
 17 20  1  0  0  0
 18 19  2  0  0  0
 18 25  1  0  0  0
 20 21  1  0  0  0
 21 22  1  0  0  0
 22 23  1  0  0  0
 23 24  1  0  0  0
 25 26  1  0  0  0
 26 27  1  0  0  0
 26 29  1  0  0  0
 27 28  2  0  0  0
 27 30  1  0  0  0
 30 31  1  0  0  0
 30 36  1  0  0  0
 31 32  1  0  0  0
 31 34  1  0  0  0
 32 33  2  0  0  0
 32 37  1  0  0  0
 34 35  1  0  0  0
 35 36  1  0  0  0
 37 38  1  0  0  0
 38 39  1  0  0  0
 38 41  1  0  0  0
 39 40  2  0  0  0
 39 48  1  0  0  0
 41 42  1  0  0  0
 42 43  1  0  0  0
 43 44  1  0  0  0
 44 45  1  0  0  0
 45 46  2  0  0  0
 45 47  1  0  0  0
 48 49  1  0  0  0
 49 50  1  0  0  0
 49 52  1  0  0  0
 50 51  2  0  0  0
 50 57  1  0  0  0
 52 53  1  0  0  0
 53 54  1  0  0  0
 54 55  1  0  0  0
 55 56  1  0  0  0
 57 58  1  0  0  0
 58 59  1  0  0  0
 58 61  1  0  0  0
 59 60  2  0  0  0
 59 66  1  0  0  0
 61 62  1  0  0  0
 62 63  1  0  0  0
 63 64  2  0  0  0
 63 65  1  0  0  0
 66 67  1  0  0  0
 67 68  1  0  0  0
 67 70  1  0  0  0
 68 69  2  0  0  0
 68 74  1  0  0  0
 70 71  1  0  0  0
 71 72  1  0  0  0
 71 73  1  0  0  0
 74 75  1  0  0  0
 75 76  1  0  0  0
 75 78  1  0  0  0
 76 77  2  0  0  0
 76 79  1  0  0  0
 79 80  1  0  0  0
 80 81  1  0  0  0
 80 83  1  0  0  0
 81 82  2  0  0  0
 81 86  1  0  0  0
 83 84  1  0  0  0
 83 85  1  0  0  0
 86 87  1  0  0  0
 87 88  1  0  0  0
 87 90  1  0  0  0
 88 89  2  0  0  0
 88 95  1  0  0  0
 90 91  1  0  0  0
 91 92  1  0  0  0
 92 93  1  0  0  0
 93 94  1  0  0  0
 95 96  1  0  0  0
 96 97  1  0  0  0
 96 99  1  0  0  0
 97 98  2  0  0  0
 97100  1  0  0  0
100101  1  0  0  0
101102  1  0  0  0
101104  1  0  0  0
102103  2  0  0  0
102105  1  0  0  0
105106  1  0  0  0
106107  1  0  0  0
106109  1  0  0  0
107108  2  0  0  0
107116  1  0  0  0
109110  1  0  0  0
110111  1  0  0  0
111112  1  0  0  0
112113  1  0  0  0
113114  1  0  0  0
113115  2  0  0  0
116117  1  0  0  0
117118  1  0  0  0
117120  1  0  0  0
118119  1  0  0  0
118125  2  0  0  0
120121  1  0  0  0
121122  1  0  0  0
122123  1  0  0  0
123124  1  0  0  0
  1126  1  0  0  0
  1127  1  0  0  0
  1128  1  0  0  0
  2129  1  0  0  0
  5130  1  0  0  0
  6131  1  0  0  0
  7132  1  0  0  0
  7133  1  0  0  0
  7134  1  0  0  0
  8135  1  0  0  0
  9136  1  0  0  0
  9137  1  0  0  0
 12138  1  0  0  0
 13139  1  0  0  0
 13140  1  0  0  0
 16141  1  0  0  0
 17142  1  0  0  0
 20143  1  0  0  0
 20144  1  0  0  0
 21145  1  0  0  0
 21146  1  0  0  0
 22147  1  0  0  0
 22148  1  0  0  0
 23149  1  0  0  0
 23150  1  0  0  0
 24151  1  0  0  0
 24152  1  0  0  0
 24153  1  0  0  0
 25154  1  0  0  0
 26155  1  0  0  0
 29156  1  0  0  0
 29157  1  0  0  0
 29158  1  0  0  0
 31159  1  0  0  0
 34160  1  0  0  0
 34161  1  0  0  0
 35162  1  0  0  0
 35163  1  0  0  0
 36164  1  0  0  0
 36165  1  0  0  0
 37166  1  0  0  0
 38167  1  0  0  0
 41168  1  0  0  0
 41169  1  0  0  0
 42170  1  0  0  0
 42171  1  0  0  0
 43172  1  0  0  0
 43173  1  0  0  0
 44174  1  0  0  0
 46175  1  0  0  0
 47176  1  0  0  0
 47177  1  0  0  0
 48178  1  0  0  0
 49179  1  0  0  0
 52180  1  0  0  0
 52181  1  0  0  0
 53182  1  0  0  0
 53183  1  0  0  0
 54184  1  0  0  0
 54185  1  0  0  0
 55186  1  0  0  0
 55187  1  0  0  0
 56188  1  0  0  0
 56189  1  0  0  0
 56190  1  0  0  0
 57191  1  0  0  0
 58192  1  0  0  0
 61193  1  0  0  0
 61194  1  0  0  0
 62195  1  0  0  0
 62196  1  0  0  0
 65197  1  0  0  0
 65198  1  0  0  0
 66199  1  0  0  0
 67200  1  0  0  0
 70201  1  0  0  0
 70202  1  0  0  0
 71203  1  0  0  0
 72204  1  0  0  0
 72205  1  0  0  0
 72206  1  0  0  0
 73207  1  0  0  0
 73208  1  0  0  0
 73209  1  0  0  0
 74210  1  0  0  0
 75211  1  0  0  0
 78212  1  0  0  0
 78213  1  0  0  0
 78214  1  0  0  0
 79215  1  0  0  0
 80216  1  0  0  0
 83217  1  0  0  0
 84218  1  0  0  0
 85219  1  0  0  0
 85220  1  0  0  0
 85221  1  0  0  0
 86222  1  0  0  0
 87223  1  0  0  0
 90224  1  0  0  0
 90225  1  0  0  0
 91226  1  0  0  0
 91227  1  0  0  0
 92228  1  0  0  0
 92229  1  0  0  0
 93230  1  0  0  0
 93231  1  0  0  0
 94232  1  0  0  0
 94233  1  0  0  0
 94234  1  0  0  0
 95235  1  0  0  0
 96236  1  0  0  0
 99237  1  0  0  0
 99238  1  0  0  0
 99239  1  0  0  0
100240  1  0  0  0
101241  1  0  0  0
104242  1  0  0  0
104243  1  0  0  0
104244  1  0  0  0
105245  1  0  0  0
106246  1  0  0  0
109247  1  0  0  0
109248  1  0  0  0
110249  1  0  0  0
110250  1  0  0  0
111251  1  0  0  0
111252  1  0  0  0
112253  1  0  0  0
114254  1  0  0  0
114255  1  0  0  0
115256  1  0  0  0
116257  1  0  0  0
117258  1  0  0  0
119259  1  0  0  0
120260  1  0  0  0
120261  1  0  0  0
121262  1  0  0  0
121263  1  0  0  0
122264  1  0  0  0
122265  1  0  0  0
123266  1  0  0  0
123267  1  0  0  0
124268  1  0  0  0
124269  1  0  0  0
124270  1  0  0  0
M  END
$$$$
