3ew2_ligand
  -I-interpret- 

 32 33  0  0  0  0  0  0  0  0999 V2000
    1.3300   83.2500   24.1990 C   0  0  0  0  0
    1.1350   84.4600   24.4440 O   0  0  0  0  0
    0.8730   82.7640   23.1420 O   0  0  0  0  0
    2.1070   82.3880   25.1650 C   0  0  0  0  0
    3.2270   83.2100   25.7920 C   0  0  0  0  0
    4.5190   83.0680   24.9960 C   0  0  0  0  0
    5.6630   83.8120   25.6760 C   0  0  0  0  0
    6.7450   84.1840   24.6690 C   0  0  0  0  0
    7.4220   82.7940   24.0380 S   0  0  0  0  0
    8.9960   83.6350   23.7290 C   0  0  0  0  0
    9.1700   84.7920   24.6970 C   0  0  0  0  0
    9.9520   84.3590   25.8400 N   0  0  0  0  0
    9.2280   84.3340   26.9510 C   0  0  0  0  0
    9.7110   83.9420   28.2160 O   0  0  0  0  0
    7.9860   84.7280   26.7050 N   0  0  0  0  0
    7.8030   85.0800   25.3090 C   0  0  0  0  0
    1.1017   81.8329   23.0942 H   0  0  0  0  0
    2.5344   81.5390   24.6315 H   0  0  0  0  0
    1.4396   82.0269   25.9475 H   0  0  0  0  0
    3.3995   82.8502   26.8063 H   0  0  0  0  0
    2.9315   84.2592   25.7953 H   0  0  0  0  0
    4.3669   83.4917   24.0033 H   0  0  0  0  0
    4.7772   82.0109   24.9333 H   0  0  0  0  0
    6.0996   83.1641   26.4361 H   0  0  0  0  0
    5.2705   84.7258   26.1222 H   0  0  0  0  0
    6.2946   84.7519   23.8549 H   0  0  0  0  0
    9.0016   84.0189   22.7088 H   0  0  0  0  0
    9.8128   82.9268   23.8684 H   0  0  0  0  0
    9.6235   85.6295   24.1670 H   0  0  0  0  0
   10.9387   84.1047   25.7946 H   0  0  0  0  0
    7.2503   84.7775   27.4097 H   0  0  0  0  0
    7.4703   86.1081   25.1661 H   0  0  0  0  0
  1  2  2  0  0  0
  1  3  1  0  0  0
  1  4  1  0  0  0
  4  5  1  0  0  0
  5  6  1  0  0  0
  6  7  1  0  0  0
  7  8  1  0  0  0
  8  9  1  0  0  0
  8 16  1  0  0  0
  9 10  1  0  0  0
 10 11  1  0  0  0
 11 12  1  0  0  0
 11 16  1  0  0  0
 12 13  1  0  0  0
 13 14  2  0  0  0
 13 15  1  0  0  0
 15 16  1  0  0  0
  3 17  1  0  0  0
  4 18  1  0  0  0
  4 19  1  0  0  0
  5 20  1  0  0  0
  5 21  1  0  0  0
  6 22  1  0  0  0
  6 23  1  0  0  0
  7 24  1  0  0  0
  7 25  1  0  0  0
  8 26  1  0  0  0
 10 27  1  0  0  0
 10 28  1  0  0  0
 11 29  1  0  0  0
 12 30  1  0  0  0
 15 31  1  0  0  0
 16 32  1  0  0  0
M  END
$$$$
