1px4_ligand
  -I-interpret- 

 33 33  0  0  0  0  0  0  0  0999 V2000
  -13.4220  -28.7450  -27.5670 C   0  0  0  0  0
  -12.1800  -28.5480  -26.7120 C   0  0  0  0  0
  -12.3240  -27.3940  -25.8730 O   0  0  0  0  0
  -10.9600  -28.3510  -27.5820 C   0  0  0  0  0
   -9.7790  -28.3520  -26.7440 O   0  0  0  0  0
  -10.8350  -29.4890  -28.6090 C   0  0  0  0  0
  -10.6400  -30.7350  -27.9070 O   0  0  0  0  0
  -12.1800  -29.5300  -29.3410 C   0  0  0  0  0
  -13.2040  -29.8530  -28.4130 O   0  0  0  0  0
  -12.3400  -30.7780  -30.1850 C   0  0  0  0  0
  -11.3190  -30.6160  -31.2070 O   0  0  0  0  0
  -14.7330  -29.2640  -26.4290 S   0  0  0  0  0
  -16.2740  -28.7490  -27.3190 C   0  0  0  0  0
  -17.4530  -28.7770  -26.3550 C   0  0  0  0  0
  -16.5630  -29.6810  -28.5180 C   0  0  0  0  0
  -13.6590  -27.8436  -28.1322 H   0  0  0  0  0
  -12.0581  -29.4411  -26.0991 H   0  0  0  0  0
  -13.0957  -27.5018  -25.3122 H   0  0  0  0  0
  -11.0575  -27.4032  -28.1115 H   0  0  0  0  0
   -9.8457  -27.6449  -26.0981 H   0  0  0  0  0
  -10.0006  -29.3371  -29.2936 H   0  0  0  0  0
   -9.7978  -30.7133  -27.4468 H   0  0  0  0  0
  -12.2272  -28.5802  -29.8737 H   0  0  0  0  0
  -13.3420  -30.8799  -30.6019 H   0  0  0  0  0
  -12.2187  -31.6954  -29.6090 H   0  0  0  0  0
  -11.3405  -31.3695  -31.8015 H   0  0  0  0  0
  -16.1287  -27.7377  -27.6988 H   0  0  0  0  0
  -17.5787  -29.7874  -25.9660 H   0  0  0  0  0
  -17.2629  -28.0899  -25.5305 H   0  0  0  0  0
  -18.3581  -28.4736  -26.8811 H   0  0  0  0  0
  -15.7271  -29.6422  -29.2165 H   0  0  0  0  0
  -16.6917  -30.7024  -28.1598 H   0  0  0  0  0
  -17.4733  -29.3533  -29.0201 H   0  0  0  0  0
  1  2  1  0  0  0
  1  9  1  0  0  0
  1 12  1  0  0  0
  2  3  1  0  0  0
  2  4  1  0  0  0
  4  5  1  0  0  0
  4  6  1  0  0  0
  6  7  1  0  0  0
  6  8  1  0  0  0
  8  9  1  0  0  0
  8 10  1  0  0  0
 10 11  1  0  0  0
 12 13  1  0  0  0
 13 14  1  0  0  0
 13 15  1  0  0  0
  1 16  1  0  0  0
  2 17  1  0  0  0
  3 18  1  0  0  0
  4 19  1  0  0  0
  5 20  1  0  0  0
  6 21  1  0  0  0
  7 22  1  0  0  0
  8 23  1  0  0  0
 10 24  1  0  0  0
 10 25  1  0  0  0
 11 26  1  0  0  0
 13 27  1  0  0  0
 14 28  1  0  0  0
 14 29  1  0  0  0
 14 30  1  0  0  0
 15 31  1  0  0  0
 15 32  1  0  0  0
 15 33  1  0  0  0
M  END
$$$$
